MODEL 1
REMARK VINA RESULT:     -10.5      0.000      0.000
REMARK SMILES CCC(CC)(C[C@H](O)COC)C(=O)NCCCNC(=O)c1ccc(-c2c3nc(c(-c4c(F)c(F)c(F)c(F)c4F)c4ccc([nH]4)c(-c4c(F)c(F)c(F)c(F)c4F)c4nc(c(-c5c(F)c(F)c(F)c(F)c5F)c5ccc2[nH]5)C=C4)C=C3)cc1
REMARK SMILES IDX 15 1 14 2 12 3 13 4 3 6 2 7 1 8 4 9 5 10 6 11 7 12 9 13
REMARK SMILES IDX 10 14 11 15 8 16 16 18 17 19 18 20 19 21 20 23 21 24 22 25
REMARK SMILES IDX 83 26 23 27 82 28 24 29 25 30 26 31 76 32 27 33 81 34 75 35
REMARK SMILES IDX 77 36 28 37 80 38 74 39 73 40 29 42 61 43 41 44 60 45 42 46
REMARK SMILES IDX 45 47 59 48 78 49 43 50 44 51 58 53 79 54 46 55 30 56 31 57
REMARK SMILES IDX 39 58 32 59 33 60 37 61 40 62 34 63 35 64 38 65 36 66 62 67
REMARK SMILES IDX 63 68 71 69 64 70 65 71 69 72 72 73 66 74 67 75 70 76 68 77
REMARK SMILES IDX 47 78 48 79 56 80 49 81 50 82 54 83 57 84 51 85 52 86 55 87
REMARK SMILES IDX 53 88
REMARK H PARENT 14 5 8 17 18 22 77 41 45 52
REMARK Flexibility Score: inf
ROOT
ATOM      1  C   UNL A   1      32.018  30.698  26.186  1.00  0.00     0.117 C 
ENDROOT
BRANCH   1   2
ATOM      2  N   UNL A   1      31.748  29.615  27.122  1.00  0.00    -0.356 N 
ATOM      3  C   UNL A   1      31.662  28.264  27.005  1.00  0.00     0.226 C 
ATOM      4  O   UNL A   1      31.374  27.662  28.044  1.00  0.00    -0.274 OA
ATOM      5  H   UNL A   1      31.595  29.933  28.041  1.00  0.00     0.163 HD
BRANCH   3   6
ATOM      6  C   UNL A   1      31.850  27.515  25.668  1.00  0.00     0.051 C 
BRANCH   6   7
ATOM      7  C   UNL A   1      31.254  26.063  25.782  1.00  0.00     0.013 C 
ATOM      8  C   UNL A   1      29.798  25.883  25.355  1.00  0.00     0.005 C 
ENDBRANCH   6   7
BRANCH   6   9
ATOM      9  C   UNL A   1      33.375  27.406  25.337  1.00  0.00     0.013 C 
ATOM     10  C   UNL A   1      34.008  26.036  25.543  1.00  0.00     0.005 C 
ENDBRANCH   6   9
BRANCH   6  11
ATOM     11  C   UNL A   1      31.042  28.274  24.562  1.00  0.00     0.051 C 
BRANCH  11  12
ATOM     12  C   UNL A   1      31.695  28.338  23.156  1.00  0.00     0.141 C 
BRANCH  12  13
ATOM     13  C   UNL A   1      31.268  27.182  22.234  1.00  0.00     0.191 C 
BRANCH  13  14
ATOM     14  O   UNL A   1      32.158  26.058  22.274  1.00  0.00    -0.382 OA
ATOM     15  C   UNL A   1      32.604  25.628  20.994  1.00  0.00     0.195 C 
ENDBRANCH  13  14
ENDBRANCH  12  13
BRANCH  12  16
ATOM     16  O   UNL A   1      31.262  29.577  22.570  1.00  0.00    -0.391 OA
ATOM     17  H   UNL A   1      31.665  30.319  23.047  1.00  0.00     0.211 HD
ENDBRANCH  12  16
ENDBRANCH  11  12
ENDBRANCH   6  11
ENDBRANCH   3   6
ENDBRANCH   1   2
BRANCH   1  18
ATOM     18  C   UNL A   1      31.668  32.070  26.745  1.00  0.00     0.042 C 
BRANCH  18  19
ATOM     19  C   UNL A   1      32.857  32.839  27.296  1.00  0.00     0.118 C 
BRANCH  19  20
ATOM     20  N   UNL A   1      32.519  34.217  27.626  1.00  0.00    -0.352 N 
ATOM     21  C   UNL A   1      33.022  35.016  28.626  1.00  0.00     0.251 C 
ATOM     22  H   UNL A   1      31.834  34.634  27.055  1.00  0.00     0.163 HD
ATOM     23  O   UNL A   1      32.479  36.082  28.901  1.00  0.00    -0.269 OA
BRANCH  21  24
ATOM     24  C   UNL A   1      34.207  34.572  29.387  1.00  0.00     0.039 A 
ATOM     25  C   UNL A   1      34.036  33.987  30.644  1.00  0.00     0.014 A 
ATOM     26  C   UNL A   1      35.487  34.711  28.843  1.00  0.00     0.014 A 
ATOM     27  C   UNL A   1      35.142  33.465  31.319  1.00  0.00     0.010 A 
ATOM     28  C   UNL A   1      36.571  34.113  29.473  1.00  0.00     0.010 A 
ATOM     29  C   UNL A   1      36.411  33.484  30.719  1.00  0.00    -0.014 A 
BRANCH  29  30
ATOM     30  C   UNL A   1      37.599  32.866  31.361  1.00  0.00     0.031 A 
ATOM     31  C   UNL A   1      38.280  31.703  30.696  1.00  0.00     0.074 A 
ATOM     32  C   UNL A   1      37.996  33.277  32.580  1.00  0.00     0.049 A 
ATOM     33  N   UNL A   1      39.217  30.915  31.158  1.00  0.00    -0.248 NA
ATOM     34  C   UNL A   1      37.819  31.358  29.342  1.00  0.00     0.031 C 
ATOM     35  C   UNL A   1      37.393  34.370  33.345  1.00  0.00     0.029 A 
ATOM     36  N   UNL A   1      38.986  32.802  33.405  1.00  0.00    -0.354 N 
ATOM     37  C   UNL A   1      39.435  29.969  30.165  1.00  0.00     0.074 A 
ATOM     38  C   UNL A   1      38.501  30.249  29.098  1.00  0.00     0.031 C 
ATOM     39  C   UNL A   1      38.032  34.490  34.520  1.00  0.00     0.029 A 
ATOM     40  C   UNL A   1      39.055  33.453  34.613  1.00  0.00     0.049 A 
ATOM     41  H   UNL A   1      39.590  32.067  33.154  1.00  0.00     0.167 HD
ATOM     42  C   UNL A   1      40.345  28.966  30.140  1.00  0.00     0.037 A 
ATOM     43  C   UNL A   1      39.841  33.224  35.684  1.00  0.00     0.037 A 
ATOM     44  C   UNL A   1      41.293  28.712  31.191  1.00  0.00     0.049 A 
ATOM     45  C   UNL A   1      40.840  32.099  35.634  1.00  0.00     0.074 A 
ATOM     46  C   UNL A   1      42.296  27.759  31.237  1.00  0.00     0.029 A 
ATOM     47  N   UNL A   1      41.356  29.418  32.384  1.00  0.00    -0.354 N 
ATOM     48  N   UNL A   1      41.075  31.244  34.669  1.00  0.00    -0.248 NA
ATOM     49  C   UNL A   1      41.686  31.909  36.821  1.00  0.00     0.031 C 
ATOM     50  C   UNL A   1      42.937  27.860  32.476  1.00  0.00     0.029 A 
ATOM     51  C   UNL A   1      42.370  28.910  33.180  1.00  0.00     0.049 A 
ATOM     52  H   UNL A   1      40.768  30.168  32.628  1.00  0.00     0.167 HD
ATOM     53  C   UNL A   1      42.118  30.442  35.114  1.00  0.00     0.074 A 
ATOM     54  C   UNL A   1      42.472  30.913  36.437  1.00  0.00     0.031 C 
ATOM     55  C   UNL A   1      42.728  29.410  34.482  1.00  0.00     0.037 A 
BRANCH  42  56
ATOM     56  C   UNL A   1      40.361  28.071  28.936  1.00  0.00     0.064 A 
ATOM     57  C   UNL A   1      41.112  28.384  27.793  1.00  0.00     0.173 A 
ATOM     58  C   UNL A   1      39.643  26.864  28.937  1.00  0.00     0.173 A 
ATOM     59  F   UNL A   1      41.807  29.531  27.736  1.00  0.00    -0.203 F 
ATOM     60  C   UNL A   1      41.121  27.540  26.686  1.00  0.00     0.198 A 
ATOM     61  C   UNL A   1      39.681  26.007  27.840  1.00  0.00     0.198 A 
ATOM     62  F   UNL A   1      38.914  26.512  30.006  1.00  0.00    -0.203 F 
ATOM     63  F   UNL A   1      41.805  27.888  25.587  1.00  0.00    -0.200 F 
ATOM     64  C   UNL A   1      40.411  26.349  26.714  1.00  0.00     0.200 A 
ATOM     65  F   UNL A   1      39.007  24.849  27.874  1.00  0.00    -0.200 F 
ATOM     66  F   UNL A   1      40.428  25.534  25.651  1.00  0.00    -0.200 F 
ENDBRANCH  42  56
BRANCH  43  67
ATOM     67  C   UNL A   1      39.727  34.089  36.888  1.00  0.00     0.064 A 
ATOM     68  C   UNL A   1      40.422  35.304  36.966  1.00  0.00     0.173 A 
ATOM     69  C   UNL A   1      38.929  33.722  37.981  1.00  0.00     0.173 A 
ATOM     70  F   UNL A   1      41.214  35.688  35.954  1.00  0.00    -0.203 F 
ATOM     71  C   UNL A   1      40.339  36.109  38.100  1.00  0.00     0.198 A 
ATOM     72  C   UNL A   1      38.824  34.543  39.103  1.00  0.00     0.198 A 
ATOM     73  F   UNL A   1      38.239  32.573  37.955  1.00  0.00    -0.203 F 
ATOM     74  F   UNL A   1      41.051  37.243  38.167  1.00  0.00    -0.200 F 
ATOM     75  C   UNL A   1      39.537  35.731  39.165  1.00  0.00     0.200 A 
ATOM     76  F   UNL A   1      38.035  34.181  40.124  1.00  0.00    -0.200 F 
ATOM     77  F   UNL A   1      39.454  36.508  40.253  1.00  0.00    -0.200 F 
ENDBRANCH  43  67
BRANCH  55  78
ATOM     78  C   UNL A   1      43.885  28.755  35.177  1.00  0.00     0.064 A 
ATOM     79  C   UNL A   1      43.711  27.646  36.016  1.00  0.00     0.173 A 
ATOM     80  C   UNL A   1      45.193  29.205  34.941  1.00  0.00     0.173 A 
ATOM     81  F   UNL A   1      42.480  27.189  36.286  1.00  0.00    -0.203 F 
ATOM     82  C   UNL A   1      44.807  27.018  36.605  1.00  0.00     0.198 A 
ATOM     83  C   UNL A   1      46.287  28.557  35.507  1.00  0.00     0.198 A 
ATOM     84  F   UNL A   1      45.411  30.259  34.140  1.00  0.00    -0.203 F 
ATOM     85  F   UNL A   1      44.617  25.981  37.431  1.00  0.00    -0.200 F 
ATOM     86  C   UNL A   1      46.093  27.468  36.341  1.00  0.00     0.200 A 
ATOM     87  F   UNL A   1      47.529  28.984  35.239  1.00  0.00    -0.200 F 
ATOM     88  F   UNL A   1      47.146  26.851  36.894  1.00  0.00    -0.200 F 
ENDBRANCH  55  78
ENDBRANCH  29  30
ENDBRANCH  21  24
ENDBRANCH  19  20
ENDBRANCH  18  19
ENDBRANCH   1  18
TORSDOF 17
ENDMDL
MODEL 2
REMARK VINA RESULT:     -10.5      0.886      2.378
REMARK SMILES CCC(CC)(C[C@H](O)COC)C(=O)NCCCNC(=O)c1ccc(-c2c3nc(c(-c4c(F)c(F)c(F)c(F)c4F)c4ccc([nH]4)c(-c4c(F)c(F)c(F)c(F)c4F)c4nc(c(-c5c(F)c(F)c(F)c(F)c5F)c5ccc2[nH]5)C=C4)C=C3)cc1
REMARK SMILES IDX 15 1 14 2 12 3 13 4 3 6 2 7 1 8 4 9 5 10 6 11 7 12 9 13
REMARK SMILES IDX 10 14 11 15 8 16 16 18 17 19 18 20 19 21 20 23 21 24 22 25
REMARK SMILES IDX 83 26 23 27 82 28 24 29 25 30 26 31 76 32 27 33 81 34 75 35
REMARK SMILES IDX 77 36 28 37 80 38 74 39 73 40 29 42 61 43 41 44 60 45 42 46
REMARK SMILES IDX 45 47 59 48 78 49 43 50 44 51 58 53 79 54 46 55 30 56 31 57
REMARK SMILES IDX 39 58 32 59 33 60 37 61 40 62 34 63 35 64 38 65 36 66 62 67
REMARK SMILES IDX 63 68 71 69 64 70 65 71 69 72 72 73 66 74 67 75 70 76 68 77
REMARK SMILES IDX 47 78 48 79 56 80 49 81 50 82 54 83 57 84 51 85 52 86 55 87
REMARK SMILES IDX 53 88
REMARK H PARENT 14 5 8 17 18 22 77 41 45 52
REMARK Flexibility Score: inf
ROOT
ATOM      1  C   UNL A   1      32.006  30.280  25.935  1.00  0.00     0.117 C 
ENDROOT
BRANCH   1   2
ATOM      2  N   UNL A   1      31.400  30.081  24.625  1.00  0.00    -0.356 N 
ATOM      3  C   UNL A   1      31.326  29.029  23.768  1.00  0.00     0.226 C 
ATOM      4  O   UNL A   1      30.741  29.256  22.704  1.00  0.00    -0.274 OA
ATOM      5  H   UNL A   1      30.943  30.886  24.288  1.00  0.00     0.163 HD
BRANCH   3   6
ATOM      6  C   UNL A   1      31.970  27.655  24.055  1.00  0.00     0.051 C 
BRANCH   6   7
ATOM      7  C   UNL A   1      31.169  26.919  25.192  1.00  0.00     0.013 C 
ATOM      8  C   UNL A   1      30.264  25.766  24.759  1.00  0.00     0.005 C 
ENDBRANCH   6   7
BRANCH   6   9
ATOM      9  C   UNL A   1      33.446  27.855  24.531  1.00  0.00     0.013 C 
ATOM     10  C   UNL A   1      33.849  27.108  25.796  1.00  0.00     0.005 C 
ENDBRANCH   6   9
BRANCH   6  11
ATOM     11  C   UNL A   1      31.863  26.783  22.759  1.00  0.00     0.051 C 
BRANCH  11  12
ATOM     12  C   UNL A   1      33.172  26.095  22.284  1.00  0.00     0.141 C 
BRANCH  12  13
ATOM     13  C   UNL A   1      33.169  24.571  22.501  1.00  0.00     0.191 C 
BRANCH  13  14
ATOM     14  O   UNL A   1      33.417  24.185  23.860  1.00  0.00    -0.382 OA
ATOM     15  C   UNL A   1      34.774  23.853  24.127  1.00  0.00     0.195 C 
ENDBRANCH  13  14
ENDBRANCH  12  13
BRANCH  12  16
ATOM     16  O   UNL A   1      33.273  26.359  20.875  1.00  0.00    -0.391 OA
ATOM     17  H   UNL A   1      34.116  26.803  20.689  1.00  0.00     0.211 HD
ENDBRANCH  12  16
ENDBRANCH  11  12
ENDBRANCH   6  11
ENDBRANCH   3   6
ENDBRANCH   1   2
BRANCH   1  18
ATOM     18  C   UNL A   1      31.619  31.606  26.575  1.00  0.00     0.042 C 
BRANCH  18  19
ATOM     19  C   UNL A   1      32.770  32.331  27.251  1.00  0.00     0.118 C 
BRANCH  19  20
ATOM     20  N   UNL A   1      32.487  33.745  27.457  1.00  0.00    -0.352 N 
ATOM     21  C   UNL A   1      33.028  34.611  28.379  1.00  0.00     0.251 C 
ATOM     22  H   UNL A   1      31.816  34.135  26.852  1.00  0.00     0.163 HD
ATOM     23  O   UNL A   1      32.528  35.718  28.558  1.00  0.00    -0.269 OA
BRANCH  21  24
ATOM     24  C   UNL A   1      34.199  34.190  29.174  1.00  0.00     0.039 A 
ATOM     25  C   UNL A   1      34.006  33.446  30.340  1.00  0.00     0.014 A 
ATOM     26  C   UNL A   1      35.491  34.512  28.750  1.00  0.00     0.014 A 
ATOM     27  C   UNL A   1      35.112  32.952  31.036  1.00  0.00     0.010 A 
ATOM     28  C   UNL A   1      36.586  33.945  29.390  1.00  0.00     0.010 A 
ATOM     29  C   UNL A   1      36.409  33.160  30.541  1.00  0.00    -0.014 A 
BRANCH  29  30
ATOM     30  C   UNL A   1      37.608  32.582  31.199  1.00  0.00     0.031 A 
ATOM     31  C   UNL A   1      38.347  31.454  30.535  1.00  0.00     0.074 A 
ATOM     32  C   UNL A   1      37.966  32.995  32.430  1.00  0.00     0.049 A 
ATOM     33  N   UNL A   1      39.306  30.699  31.006  1.00  0.00    -0.248 NA
ATOM     34  C   UNL A   1      37.925  31.107  29.169  1.00  0.00     0.031 C 
ATOM     35  C   UNL A   1      37.306  34.055  33.194  1.00  0.00     0.029 A 
ATOM     36  N   UNL A   1      38.959  32.551  33.268  1.00  0.00    -0.354 N 
ATOM     37  C   UNL A   1      39.580  29.773  30.008  1.00  0.00     0.074 A 
ATOM     38  C   UNL A   1      38.656  30.029  28.926  1.00  0.00     0.031 C 
ATOM     39  C   UNL A   1      37.919  34.187  34.382  1.00  0.00     0.029 A 
ATOM     40  C   UNL A   1      38.980  33.190  34.484  1.00  0.00     0.049 A 
ATOM     41  H   UNL A   1      39.596  31.843  33.021  1.00  0.00     0.167 HD
ATOM     42  C   UNL A   1      40.530  28.808  29.990  1.00  0.00     0.037 A 
ATOM     43  C   UNL A   1      39.754  32.981  35.567  1.00  0.00     0.037 A 
ATOM     44  C   UNL A   1      41.467  28.580  31.056  1.00  0.00     0.049 A 
ATOM     45  C   UNL A   1      40.798  31.897  35.525  1.00  0.00     0.074 A 
ATOM     46  C   UNL A   1      42.507  27.667  31.111  1.00  0.00     0.029 A 
ATOM     47  N   UNL A   1      41.480  29.275  32.257  1.00  0.00    -0.354 N 
ATOM     48  N   UNL A   1      41.085  31.062  34.555  1.00  0.00    -0.248 NA
ATOM     49  C   UNL A   1      41.628  31.727  36.725  1.00  0.00     0.031 C 
ATOM     50  C   UNL A   1      43.120  27.779  32.363  1.00  0.00     0.029 A 
ATOM     51  C   UNL A   1      42.499  28.798  33.067  1.00  0.00     0.049 A 
ATOM     52  H   UNL A   1      40.858  29.998  32.498  1.00  0.00     0.167 HD
ATOM     53  C   UNL A   1      42.150  30.297  35.012  1.00  0.00     0.074 A 
ATOM     54  C   UNL A   1      42.461  30.767  36.346  1.00  0.00     0.031 C 
ATOM     55  C   UNL A   1      42.812  29.298  34.381  1.00  0.00     0.037 A 
BRANCH  42  56
ATOM     56  C   UNL A   1      40.603  27.927  28.777  1.00  0.00     0.064 A 
ATOM     57  C   UNL A   1      39.881  26.727  28.692  1.00  0.00     0.173 A 
ATOM     58  C   UNL A   1      41.379  28.305  27.670  1.00  0.00     0.173 A 
ATOM     59  F   UNL A   1      39.132  26.315  29.727  1.00  0.00    -0.203 F 
ATOM     60  C   UNL A   1      39.955  25.924  27.557  1.00  0.00     0.198 A 
ATOM     61  C   UNL A   1      41.425  27.514  26.524  1.00  0.00     0.198 A 
ATOM     62  F   UNL A   1      42.085  29.445  27.695  1.00  0.00    -0.203 F 
ATOM     63  F   UNL A   1      39.296  24.757  27.521  1.00  0.00    -0.200 F 
ATOM     64  C   UNL A   1      40.721  26.322  26.472  1.00  0.00     0.200 A 
ATOM     65  F   UNL A   1      42.153  27.908  25.470  1.00  0.00    -0.200 F 
ATOM     66  F   UNL A   1      40.784  25.552  25.378  1.00  0.00    -0.200 F 
ENDBRANCH  42  56
BRANCH  43  67
ATOM     67  C   UNL A   1      39.584  33.827  36.777  1.00  0.00     0.064 A 
ATOM     68  C   UNL A   1      38.775  33.402  37.841  1.00  0.00     0.173 A 
ATOM     69  C   UNL A   1      40.218  35.072  36.897  1.00  0.00     0.173 A 
ATOM     70  F   UNL A   1      38.131  32.228  37.764  1.00  0.00    -0.203 F 
ATOM     71  C   UNL A   1      38.591  34.199  38.969  1.00  0.00     0.198 A 
ATOM     72  C   UNL A   1      40.056  35.856  38.038  1.00  0.00     0.198 A 
ATOM     73  F   UNL A   1      41.006  35.523  35.910  1.00  0.00    -0.203 F 
ATOM     74  F   UNL A   1      37.776  33.789  39.950  1.00  0.00    -0.200 F 
ATOM     75  C   UNL A   1      39.236  35.422  39.069  1.00  0.00     0.200 A 
ATOM     76  F   UNL A   1      40.693  37.030  38.138  1.00  0.00    -0.200 F 
ATOM     77  F   UNL A   1      39.063  36.186  40.156  1.00  0.00    -0.200 F 
ENDBRANCH  43  67
BRANCH  55  78
ATOM     78  C   UNL A   1      43.981  28.681  35.091  1.00  0.00     0.064 A 
ATOM     79  C   UNL A   1      45.277  29.201  34.970  1.00  0.00     0.173 A 
ATOM     80  C   UNL A   1      43.784  27.598  35.961  1.00  0.00     0.173 A 
ATOM     81  F   UNL A   1      45.519  30.226  34.139  1.00  0.00    -0.203 F 
ATOM     82  C   UNL A   1      46.337  28.648  35.684  1.00  0.00     0.198 A 
ATOM     83  C   UNL A   1      44.840  27.067  36.695  1.00  0.00     0.198 A 
ATOM     84  F   UNL A   1      42.560  27.069  36.115  1.00  0.00    -0.203 F 
ATOM     85  F   UNL A   1      47.575  29.137  35.528  1.00  0.00    -0.200 F 
ATOM     86  C   UNL A   1      46.115  27.589  36.553  1.00  0.00     0.200 A 
ATOM     87  F   UNL A   1      44.620  26.053  37.545  1.00  0.00    -0.200 F 
ATOM     88  F   UNL A   1      47.134  27.071  37.253  1.00  0.00    -0.200 F 
ENDBRANCH  55  78
ENDBRANCH  29  30
ENDBRANCH  21  24
ENDBRANCH  19  20
ENDBRANCH  18  19
ENDBRANCH   1  18
TORSDOF 17
ENDMDL
MODEL 3
REMARK VINA RESULT:     -10.3      2.825      3.958
REMARK SMILES CCC(CC)(C[C@H](O)COC)C(=O)NCCCNC(=O)c1ccc(-c2c3nc(c(-c4c(F)c(F)c(F)c(F)c4F)c4ccc([nH]4)c(-c4c(F)c(F)c(F)c(F)c4F)c4nc(c(-c5c(F)c(F)c(F)c(F)c5F)c5ccc2[nH]5)C=C4)C=C3)cc1
REMARK SMILES IDX 15 1 14 2 12 3 13 4 3 6 2 7 1 8 4 9 5 10 6 11 7 12 9 13
REMARK SMILES IDX 10 14 11 15 8 16 16 18 17 19 18 20 19 21 20 23 21 24 22 25
REMARK SMILES IDX 83 26 23 27 82 28 24 29 25 30 26 31 76 32 27 33 81 34 75 35
REMARK SMILES IDX 77 36 28 37 80 38 74 39 73 40 29 42 61 43 41 44 60 45 42 46
REMARK SMILES IDX 45 47 59 48 78 49 43 50 44 51 58 53 79 54 46 55 30 56 31 57
REMARK SMILES IDX 39 58 32 59 33 60 37 61 40 62 34 63 35 64 38 65 36 66 62 67
REMARK SMILES IDX 63 68 71 69 64 70 65 71 69 72 72 73 66 74 67 75 70 76 68 77
REMARK SMILES IDX 47 78 48 79 56 80 49 81 50 82 54 83 57 84 51 85 52 86 55 87
REMARK SMILES IDX 53 88
REMARK H PARENT 14 5 8 17 18 22 77 41 45 52
REMARK Flexibility Score: inf
ROOT
ATOM      1  C   UNL A   1      33.628  26.439  25.391  1.00  0.00     0.117 C 
ENDROOT
BRANCH   1   2
ATOM      2  N   UNL A   1      33.945  25.690  24.182  1.00  0.00    -0.356 N 
ATOM      3  C   UNL A   1      34.040  24.366  23.888  1.00  0.00     0.226 C 
ATOM      4  O   UNL A   1      34.374  24.106  22.728  1.00  0.00    -0.274 OA
ATOM      5  H   UNL A   1      34.130  26.270  23.409  1.00  0.00     0.163 HD
BRANCH   3   6
ATOM      6  C   UNL A   1      33.808  23.248  24.927  1.00  0.00     0.051 C 
BRANCH   6   7
ATOM      7  C   UNL A   1      32.319  23.294  25.435  1.00  0.00     0.013 C 
ATOM      8  C   UNL A   1      32.111  23.377  26.947  1.00  0.00     0.005 C 
ENDBRANCH   6   7
BRANCH   6   9
ATOM      9  C   UNL A   1      34.760  23.460  26.149  1.00  0.00     0.013 C 
ATOM     10  C   UNL A   1      36.253  23.384  25.856  1.00  0.00     0.005 C 
ENDBRANCH   6   9
BRANCH   6  11
ATOM     11  C   UNL A   1      34.025  21.867  24.221  1.00  0.00     0.051 C 
BRANCH  11  12
ATOM     12  C   UNL A   1      33.715  20.605  25.070  1.00  0.00     0.141 C 
BRANCH  12  13
ATOM     13  C   UNL A   1      32.700  19.660  24.402  1.00  0.00     0.191 C 
BRANCH  13  14
ATOM     14  O   UNL A   1      32.160  18.675  25.294  1.00  0.00    -0.382 OA
ATOM     15  C   UNL A   1      32.527  17.340  24.971  1.00  0.00     0.195 C 
ENDBRANCH  13  14
ENDBRANCH  12  13
BRANCH  12  16
ATOM     16  O   UNL A   1      34.962  19.908  25.221  1.00  0.00    -0.391 OA
ATOM     17  H   UNL A   1      35.291  19.640  24.348  1.00  0.00     0.211 HD
ENDBRANCH  12  16
ENDBRANCH  11  12
ENDBRANCH   6  11
ENDBRANCH   3   6
ENDBRANCH   1   2
BRANCH   1  18
ATOM     18  C   UNL A   1      32.807  27.690  25.117  1.00  0.00     0.042 C 
BRANCH  18  19
ATOM     19  C   UNL A   1      33.626  28.966  25.030  1.00  0.00     0.118 C 
BRANCH  19  20
ATOM     20  N   UNL A   1      32.947  30.102  25.639  1.00  0.00    -0.352 N 
ATOM     21  C   UNL A   1      33.287  30.811  26.768  1.00  0.00     0.251 C 
ATOM     22  H   UNL A   1      32.131  30.404  25.178  1.00  0.00     0.163 HD
ATOM     23  O   UNL A   1      32.493  31.605  27.263  1.00  0.00    -0.269 OA
BRANCH  21  24
ATOM     24  C   UNL A   1      34.604  30.591  27.397  1.00  0.00     0.039 A 
ATOM     25  C   UNL A   1      35.447  31.681  27.624  1.00  0.00     0.014 A 
ATOM     26  C   UNL A   1      34.994  29.307  27.785  1.00  0.00     0.014 A 
ATOM     27  C   UNL A   1      36.646  31.496  28.318  1.00  0.00     0.010 A 
ATOM     28  C   UNL A   1      36.140  29.138  28.552  1.00  0.00     0.010 A 
ATOM     29  C   UNL A   1      36.979  30.230  28.826  1.00  0.00    -0.014 A 
BRANCH  29  30
ATOM     30  C   UNL A   1      38.200  30.002  29.641  1.00  0.00     0.031 A 
ATOM     31  C   UNL A   1      39.264  29.069  29.138  1.00  0.00     0.074 A 
ATOM     32  C   UNL A   1      38.300  30.545  30.869  1.00  0.00     0.049 A 
ATOM     33  N   UNL A   1      40.319  28.601  29.756  1.00  0.00    -0.248 NA
ATOM     34  C   UNL A   1      39.101  28.566  27.764  1.00  0.00     0.031 C 
ATOM     35  C   UNL A   1      37.317  31.438  31.486  1.00  0.00     0.029 A 
ATOM     36  N   UNL A   1      39.268  30.403  31.833  1.00  0.00    -0.354 N 
ATOM     37  C   UNL A   1      40.924  27.731  28.859  1.00  0.00     0.074 A 
ATOM     38  C   UNL A   1      40.097  27.697  27.674  1.00  0.00     0.031 C 
ATOM     39  C   UNL A   1      37.736  31.772  32.717  1.00  0.00     0.029 A 
ATOM     40  C   UNL A   1      38.991  31.080  32.996  1.00  0.00     0.049 A 
ATOM     41  H   UNL A   1      40.083  29.868  31.703  1.00  0.00     0.167 HD
ATOM     42  C   UNL A   1      42.078  27.036  29.007  1.00  0.00     0.037 A 
ATOM     43  C   UNL A   1      39.662  31.120  34.164  1.00  0.00     0.037 A 
ATOM     44  C   UNL A   1      42.913  27.099  30.175  1.00  0.00     0.049 A 
ATOM     45  C   UNL A   1      40.937  30.334  34.305  1.00  0.00     0.074 A 
ATOM     46  C   UNL A   1      44.131  26.480  30.400  1.00  0.00     0.029 A 
ATOM     47  N   UNL A   1      42.616  27.826  31.318  1.00  0.00    -0.354 N 
ATOM     48  N   UNL A   1      41.531  29.556  33.432  1.00  0.00    -0.248 NA
ATOM     49  C   UNL A   1      41.640  30.431  35.592  1.00  0.00     0.031 C 
ATOM     50  C   UNL A   1      44.549  26.798  31.696  1.00  0.00     0.029 A 
ATOM     51  C   UNL A   1      43.620  27.658  32.259  1.00  0.00     0.049 A 
ATOM     52  H   UNL A   1      41.812  28.380  31.443  1.00  0.00     0.167 HD
ATOM     53  C   UNL A   1      42.691  29.105  34.046  1.00  0.00     0.074 A 
ATOM     54  C   UNL A   1      42.721  29.696  35.368  1.00  0.00     0.031 C 
ATOM     55  C   UNL A   1      43.647  28.278  33.559  1.00  0.00     0.037 A 
BRANCH  42  56
ATOM     56  C   UNL A   1      42.505  26.150  27.873  1.00  0.00     0.064 A 
ATOM     57  C   UNL A   1      43.438  26.575  26.915  1.00  0.00     0.173 A 
ATOM     58  C   UNL A   1      42.002  24.844  27.763  1.00  0.00     0.173 A 
ATOM     59  F   UNL A   1      43.941  27.818  26.969  1.00  0.00    -0.203 F 
ATOM     60  C   UNL A   1      43.828  25.739  25.873  1.00  0.00     0.198 A 
ATOM     61  C   UNL A   1      42.420  23.999  26.737  1.00  0.00     0.198 A 
ATOM     62  F   UNL A   1      41.112  24.384  28.654  1.00  0.00    -0.203 F 
ATOM     63  F   UNL A   1      44.682  26.187  24.941  1.00  0.00    -0.200 F 
ATOM     64  C   UNL A   1      43.325  24.450  25.789  1.00  0.00     0.200 A 
ATOM     65  F   UNL A   1      41.944  22.749  26.666  1.00  0.00    -0.200 F 
ATOM     66  F   UNL A   1      43.709  23.644  24.790  1.00  0.00    -0.200 F 
ENDBRANCH  42  56
BRANCH  43  67
ATOM     67  C   UNL A   1      39.150  31.949  35.287  1.00  0.00     0.064 A 
ATOM     68  C   UNL A   1      39.435  33.320  35.355  1.00  0.00     0.173 A 
ATOM     69  C   UNL A   1      38.373  31.392  36.313  1.00  0.00     0.173 A 
ATOM     70  F   UNL A   1      40.192  33.893  34.408  1.00  0.00    -0.203 F 
ATOM     71  C   UNL A   1      38.979  34.098  36.416  1.00  0.00     0.198 A 
ATOM     72  C   UNL A   1      37.893  32.179  37.360  1.00  0.00     0.198 A 
ATOM     73  F   UNL A   1      38.067  30.087  36.293  1.00  0.00    -0.203 F 
ATOM     74  F   UNL A   1      39.306  35.397  36.480  1.00  0.00    -0.200 F 
ATOM     75  C   UNL A   1      38.204  33.529  37.415  1.00  0.00     0.200 A 
ATOM     76  F   UNL A   1      37.131  31.628  38.314  1.00  0.00    -0.200 F 
ATOM     77  F   UNL A   1      37.762  34.279  38.433  1.00  0.00    -0.200 F 
ENDBRANCH  43  67
BRANCH  55  78
ATOM     78  C   UNL A   1      44.841  28.008  34.425  1.00  0.00     0.064 A 
ATOM     79  C   UNL A   1      44.890  26.911  35.296  1.00  0.00     0.173 A 
ATOM     80  C   UNL A   1      45.980  28.822  34.327  1.00  0.00     0.173 A 
ATOM     81  F   UNL A   1      43.822  26.112  35.437  1.00  0.00    -0.203 F 
ATOM     82  C   UNL A   1      46.033  26.646  36.048  1.00  0.00     0.198 A 
ATOM     83  C   UNL A   1      47.129  28.538  35.057  1.00  0.00     0.198 A 
ATOM     84  F   UNL A   1      45.984  29.881  33.502  1.00  0.00    -0.203 F 
ATOM     85  F   UNL A   1      46.046  25.613  36.900  1.00  0.00    -0.200 F 
ATOM     86  C   UNL A   1      47.153  27.454  35.920  1.00  0.00     0.200 A 
ATOM     87  F   UNL A   1      48.216  29.311  34.921  1.00  0.00    -0.200 F 
ATOM     88  F   UNL A   1      48.257  27.187  36.631  1.00  0.00    -0.200 F 
ENDBRANCH  55  78
ENDBRANCH  29  30
ENDBRANCH  21  24
ENDBRANCH  19  20
ENDBRANCH  18  19
ENDBRANCH   1  18
TORSDOF 17
ENDMDL
