MODEL 1
REMARK VINA RESULT:     -12.6      0.000      0.000
REMARK SMILES O=C(C[N@@H+](C1CCCC1)[C@@H]1CCOC2(CCC2)C1)NCCCNC(=O)c1ccc(-c2c3nc(c(-c4c(F)c(F)c(F)c(F)c4F)c4ccc([nH]4)c(-c4c(F)c(F)c(F)c(F)c4F)c4nc(c(-c5c(F)c(F)c(F)c(F)c5F)c5ccc2[nH]5)C=C4)C=C3)cc1
REMARK SMILES IDX 21 1 20 2 19 3 1 4 2 5 3 7 4 8 5 10 6 11 9 12 7 13 8 14
REMARK SMILES IDX 10 15 11 16 18 17 12 18 14 19 13 20 15 21 17 22 16 23 22 24
REMARK SMILES IDX 23 25 24 26 25 28 26 29 27 30 88 31 28 32 87 33 29 34 30 35
REMARK SMILES IDX 31 36 81 37 32 38 86 39 80 40 82 41 33 42 85 43 79 44 78 45
REMARK SMILES IDX 34 47 66 48 46 49 65 50 47 51 50 52 64 53 83 54 48 55 49 56
REMARK SMILES IDX 63 58 84 59 51 60 35 61 36 62 44 63 37 64 38 65 42 66 45 67
REMARK SMILES IDX 39 68 40 69 43 70 41 71 67 72 68 73 76 74 69 75 70 76 74 77
REMARK SMILES IDX 77 78 71 79 72 80 75 81 73 82 52 83 53 84 61 85 54 86 55 87
REMARK SMILES IDX 59 88 62 89 56 90 57 91 60 92 58 93
REMARK H PARENT 19 6 4 9 23 27 82 46 50 57
REMARK Flexibility Score: inf
ROOT
ATOM      1  C   UNL A   1      31.583  31.980  26.857  1.00  0.00     0.042 C 
ENDROOT
BRANCH   1   2
ATOM      2  C   UNL A   1      31.808  30.471  26.836  1.00  0.00     0.118 C 
BRANCH   2   3
ATOM      3  N   UNL A   1      31.737  29.933  25.494  1.00  0.00    -0.351 N 
ATOM      4  O   UNL A   1      33.832  28.996  25.514  1.00  0.00    -0.269 OA
ATOM      5  C   UNL A   1      32.788  29.253  24.920  1.00  0.00     0.275 C 
ATOM      6  H   UNL A   1      30.911  30.058  24.975  1.00  0.00     0.163 HD
BRANCH   5   7
ATOM      7  C   UNL A   1      32.607  28.953  23.433  1.00  0.00     0.363 C 
BRANCH   7   8
ATOM      8  N   UNL A   1      31.665  27.845  23.130  1.00  0.00    -0.322 N 
ATOM      9  H   UNL A   1      31.395  27.426  24.020  1.00  0.00     0.349 HD
BRANCH   8  10
ATOM     10  C   UNL A   1      30.424  28.349  22.527  1.00  0.00     0.184 C 
ATOM     11  C   UNL A   1      29.218  28.210  23.459  1.00  0.00     0.065 C 
ATOM     12  C   UNL A   1      30.275  29.813  22.083  1.00  0.00     0.065 C 
ATOM     13  C   UNL A   1      28.097  28.952  22.723  1.00  0.00     0.006 C 
ATOM     14  C   UNL A   1      28.791  29.899  21.739  1.00  0.00     0.006 C 
ENDBRANCH   8  10
BRANCH   8  15
ATOM     15  C   UNL A   1      32.300  26.701  22.392  1.00  0.00     0.189 C 
ATOM     16  C   UNL A   1      31.403  25.509  22.027  1.00  0.00     0.093 C 
ATOM     17  C   UNL A   1      33.655  26.161  22.936  1.00  0.00     0.100 C 
ATOM     18  C   UNL A   1      31.228  24.560  23.191  1.00  0.00     0.167 C 
ATOM     19  C   UNL A   1      33.559  24.988  23.934  1.00  0.00     0.074 C 
ATOM     20  O   UNL A   1      32.492  24.059  23.603  1.00  0.00    -0.375 OA
ATOM     21  C   UNL A   1      34.933  24.235  24.073  1.00  0.00     0.036 C 
ATOM     22  C   UNL A   1      33.747  25.327  25.455  1.00  0.00     0.036 C 
ATOM     23  C   UNL A   1      34.661  24.106  25.579  1.00  0.00     0.006 C 
ENDBRANCH   8  15
ENDBRANCH   7   8
ENDBRANCH   5   7
ENDBRANCH   2   3
ENDBRANCH   1   2
BRANCH   1  24
ATOM     24  C   UNL A   1      32.814  32.783  27.265  1.00  0.00     0.118 C 
BRANCH  24  25
ATOM     25  N   UNL A   1      32.500  34.160  27.626  1.00  0.00    -0.352 N 
ATOM     26  C   UNL A   1      33.040  34.962  28.601  1.00  0.00     0.251 C 
ATOM     27  H   UNL A   1      31.791  34.580  27.088  1.00  0.00     0.163 HD
ATOM     28  O   UNL A   1      32.530  36.051  28.854  1.00  0.00    -0.269 OA
BRANCH  26  29
ATOM     29  C   UNL A   1      34.218  34.509  29.369  1.00  0.00     0.039 A 
ATOM     30  C   UNL A   1      34.027  33.940  30.631  1.00  0.00     0.014 A 
ATOM     31  C   UNL A   1      35.506  34.644  28.847  1.00  0.00     0.014 A 
ATOM     32  C   UNL A   1      35.120  33.427  31.333  1.00  0.00     0.010 A 
ATOM     33  C   UNL A   1      36.584  34.067  29.514  1.00  0.00     0.010 A 
ATOM     34  C   UNL A   1      36.400  33.444  30.759  1.00  0.00    -0.014 A 
BRANCH  34  35
ATOM     35  C   UNL A   1      37.563  32.801  31.421  1.00  0.00     0.031 A 
ATOM     36  C   UNL A   1      38.243  31.627  30.775  1.00  0.00     0.074 A 
ATOM     37  C   UNL A   1      37.943  33.209  32.649  1.00  0.00     0.049 A 
ATOM     38  N   UNL A   1      39.171  30.838  31.255  1.00  0.00    -0.248 NA
ATOM     39  C   UNL A   1      37.800  31.277  29.417  1.00  0.00     0.031 C 
ATOM     40  C   UNL A   1      37.343  34.316  33.395  1.00  0.00     0.029 A 
ATOM     41  N   UNL A   1      38.909  32.724  33.495  1.00  0.00    -0.354 N 
ATOM     42  C   UNL A   1      39.406  29.889  30.270  1.00  0.00     0.074 A 
ATOM     43  C   UNL A   1      38.493  30.172  29.183  1.00  0.00     0.031 C 
ATOM     44  C   UNL A   1      37.958  34.431  34.582  1.00  0.00     0.029 A 
ATOM     45  C   UNL A   1      38.961  33.378  34.703  1.00  0.00     0.049 A 
ATOM     46  H   UNL A   1      39.508  31.979  33.259  1.00  0.00     0.167 HD
ATOM     47  C   UNL A   1      40.313  28.883  30.266  1.00  0.00     0.037 A 
ATOM     48  C   UNL A   1      39.715  33.140  35.794  1.00  0.00     0.037 A 
ATOM     49  C   UNL A   1      41.233  28.620  31.341  1.00  0.00     0.049 A 
ATOM     50  C   UNL A   1      40.698  32.000  35.774  1.00  0.00     0.074 A 
ATOM     51  C   UNL A   1      42.227  27.658  31.410  1.00  0.00     0.029 A 
ATOM     52  N   UNL A   1      41.272  29.319  32.539  1.00  0.00    -0.354 N 
ATOM     53  N   UNL A   1      40.951  31.142  34.815  1.00  0.00    -0.248 NA
ATOM     54  C   UNL A   1      41.503  31.795  36.987  1.00  0.00     0.031 C 
ATOM     55  C   UNL A   1      42.831  27.743  32.668  1.00  0.00     0.029 A 
ATOM     56  C   UNL A   1      42.255  28.796  33.360  1.00  0.00     0.049 A 
ATOM     57  H   UNL A   1      40.685  30.076  32.770  1.00  0.00     0.167 HD
ATOM     58  C   UNL A   1      41.967  30.323  35.292  1.00  0.00     0.074 A 
ATOM     59  C   UNL A   1      42.286  30.788  36.626  1.00  0.00     0.031 C 
ATOM     60  C   UNL A   1      42.580  29.283  34.677  1.00  0.00     0.037 A 
BRANCH  47  61
ATOM     61  C   UNL A   1      40.354  27.986  29.063  1.00  0.00     0.064 A 
ATOM     62  C   UNL A   1      39.622  26.791  29.009  1.00  0.00     0.173 A 
ATOM     63  C   UNL A   1      41.103  28.348  27.932  1.00  0.00     0.173 A 
ATOM     64  F   UNL A   1      38.898  26.394  30.066  1.00  0.00    -0.203 F 
ATOM     65  C   UNL A   1      39.661  25.976  27.880  1.00  0.00     0.198 A 
ATOM     66  C   UNL A   1      41.113  27.548  26.792  1.00  0.00     0.198 A 
ATOM     67  F   UNL A   1      41.815  29.485  27.927  1.00  0.00    -0.203 F 
ATOM     68  F   UNL A   1      38.994  24.813  27.871  1.00  0.00    -0.200 F 
ATOM     69  C   UNL A   1      40.400  26.359  26.771  1.00  0.00     0.200 A 
ATOM     70  F   UNL A   1      41.816  27.927  25.716  1.00  0.00    -0.200 F 
ATOM     71  F   UNL A   1      40.431  25.578  25.681  1.00  0.00    -0.200 F 
ENDBRANCH  47  61
BRANCH  48  72
ATOM     72  C   UNL A   1      39.580  34.006  36.993  1.00  0.00     0.064 A 
ATOM     73  C   UNL A   1      38.772  33.619  38.072  1.00  0.00     0.173 A 
ATOM     74  C   UNL A   1      40.245  35.238  37.087  1.00  0.00     0.173 A 
ATOM     75  F   UNL A   1      38.098  32.461  38.021  1.00  0.00    -0.203 F 
ATOM     76  C   UNL A   1      38.617  34.439  39.188  1.00  0.00     0.198 A 
ATOM     77  C   UNL A   1      40.114  36.043  38.216  1.00  0.00     0.198 A 
ATOM     78  F   UNL A   1      41.033  35.653  36.085  1.00  0.00    -0.203 F 
ATOM     79  F   UNL A   1      37.801  34.066  40.182  1.00  0.00    -0.200 F 
ATOM     80  C   UNL A   1      39.294  35.648  39.262  1.00  0.00     0.200 A 
ATOM     81  F   UNL A   1      40.781  37.203  38.291  1.00  0.00    -0.200 F 
ATOM     82  F   UNL A   1      39.147  36.435  40.336  1.00  0.00    -0.200 F 
ENDBRANCH  48  72
BRANCH  60  83
ATOM     83  C   UNL A   1      43.703  28.606  35.408  1.00  0.00     0.064 A 
ATOM     84  C   UNL A   1      43.477  27.535  36.284  1.00  0.00     0.173 A 
ATOM     85  C   UNL A   1      45.031  28.995  35.173  1.00  0.00     0.173 A 
ATOM     86  F   UNL A   1      42.224  27.136  36.554  1.00  0.00    -0.203 F 
ATOM     87  C   UNL A   1      44.539  26.885  36.907  1.00  0.00     0.198 A 
ATOM     88  C   UNL A   1      46.091  28.324  35.773  1.00  0.00     0.198 A 
ATOM     89  F   UNL A   1      45.301  30.010  34.339  1.00  0.00    -0.203 F 
ATOM     90  F   UNL A   1      44.298  25.887  37.769  1.00  0.00    -0.200 F 
ATOM     91  C   UNL A   1      45.845  27.273  36.645  1.00  0.00     0.200 A 
ATOM     92  F   UNL A   1      47.352  28.690  35.505  1.00  0.00    -0.200 F 
ATOM     93  F   UNL A   1      46.866  26.634  37.232  1.00  0.00    -0.200 F 
ENDBRANCH  60  83
ENDBRANCH  34  35
ENDBRANCH  26  29
ENDBRANCH  24  25
ENDBRANCH   1  24
TORSDOF 13
ENDMDL
MODEL 2
REMARK VINA RESULT:     -12.6      0.119      1.606
REMARK SMILES O=C(C[N@@H+](C1CCCC1)[C@@H]1CCOC2(CCC2)C1)NCCCNC(=O)c1ccc(-c2c3nc(c(-c4c(F)c(F)c(F)c(F)c4F)c4ccc([nH]4)c(-c4c(F)c(F)c(F)c(F)c4F)c4nc(c(-c5c(F)c(F)c(F)c(F)c5F)c5ccc2[nH]5)C=C4)C=C3)cc1
REMARK SMILES IDX 21 1 20 2 19 3 1 4 2 5 3 7 4 8 5 10 6 11 9 12 7 13 8 14
REMARK SMILES IDX 10 15 11 16 18 17 12 18 14 19 13 20 15 21 17 22 16 23 22 24
REMARK SMILES IDX 23 25 24 26 25 28 26 29 27 30 88 31 28 32 87 33 29 34 30 35
REMARK SMILES IDX 31 36 81 37 32 38 86 39 80 40 82 41 33 42 85 43 79 44 78 45
REMARK SMILES IDX 34 47 66 48 46 49 65 50 47 51 50 52 64 53 83 54 48 55 49 56
REMARK SMILES IDX 63 58 84 59 51 60 35 61 36 62 44 63 37 64 38 65 42 66 45 67
REMARK SMILES IDX 39 68 40 69 43 70 41 71 67 72 68 73 76 74 69 75 70 76 74 77
REMARK SMILES IDX 77 78 71 79 72 80 75 81 73 82 52 83 53 84 61 85 54 86 55 87
REMARK SMILES IDX 59 88 62 89 56 90 57 91 60 92 58 93
REMARK H PARENT 19 6 4 9 23 27 82 46 50 57
REMARK Flexibility Score: inf
ROOT
ATOM      1  C   UNL A   1      31.564  32.021  26.861  1.00  0.00     0.042 C 
ENDROOT
BRANCH   1   2
ATOM      2  C   UNL A   1      31.808  30.515  26.847  1.00  0.00     0.118 C 
BRANCH   2   3
ATOM      3  N   UNL A   1      31.720  29.966  25.510  1.00  0.00    -0.351 N 
ATOM      4  O   UNL A   1      33.776  28.948  25.547  1.00  0.00    -0.269 OA
ATOM      5  C   UNL A   1      32.744  29.240  24.947  1.00  0.00     0.275 C 
ATOM      6  H   UNL A   1      30.901  30.119  24.987  1.00  0.00     0.163 HD
BRANCH   5   7
ATOM      7  C   UNL A   1      32.557  28.933  23.462  1.00  0.00     0.363 C 
BRANCH   7   8
ATOM      8  N   UNL A   1      31.621  27.815  23.170  1.00  0.00    -0.322 N 
ATOM      9  H   UNL A   1      31.351  27.406  24.064  1.00  0.00     0.349 HD
BRANCH   8  10
ATOM     10  C   UNL A   1      30.380  28.305  22.557  1.00  0.00     0.184 C 
ATOM     11  C   UNL A   1      29.169  28.158  23.482  1.00  0.00     0.065 C 
ATOM     12  C   UNL A   1      30.219  29.767  22.107  1.00  0.00     0.065 C 
ATOM     13  C   UNL A   1      28.046  28.887  22.736  1.00  0.00     0.006 C 
ATOM     14  C   UNL A   1      28.737  29.836  21.753  1.00  0.00     0.006 C 
ENDBRANCH   8  10
BRANCH   8  15
ATOM     15  C   UNL A   1      32.265  26.666  22.447  1.00  0.00     0.189 C 
ATOM     16  C   UNL A   1      31.377  25.462  22.101  1.00  0.00     0.093 C 
ATOM     17  C   UNL A   1      33.624  26.144  22.998  1.00  0.00     0.100 C 
ATOM     18  C   UNL A   1      31.210  24.528  23.278  1.00  0.00     0.167 C 
ATOM     19  C   UNL A   1      33.537  24.985  24.013  1.00  0.00     0.074 C 
ATOM     20  O   UNL A   1      32.477  24.043  23.696  1.00  0.00    -0.375 OA
ATOM     21  C   UNL A   1      34.917  24.244  24.162  1.00  0.00     0.036 C 
ATOM     22  C   UNL A   1      33.724  25.346  25.529  1.00  0.00     0.036 C 
ATOM     23  C   UNL A   1      34.648  24.135  25.670  1.00  0.00     0.006 C 
ENDBRANCH   8  15
ENDBRANCH   7   8
ENDBRANCH   5   7
ENDBRANCH   2   3
ENDBRANCH   1   2
BRANCH   1  24
ATOM     24  C   UNL A   1      32.792  32.842  27.242  1.00  0.00     0.118 C 
BRANCH  24  25
ATOM     25  N   UNL A   1      32.464  34.209  27.631  1.00  0.00    -0.352 N 
ATOM     26  C   UNL A   1      33.002  35.000  28.615  1.00  0.00     0.251 C 
ATOM     27  H   UNL A   1      31.744  34.628  27.108  1.00  0.00     0.163 HD
ATOM     28  O   UNL A   1      32.481  36.078  28.892  1.00  0.00    -0.269 OA
BRANCH  26  29
ATOM     29  C   UNL A   1      34.194  34.550  29.363  1.00  0.00     0.039 A 
ATOM     30  C   UNL A   1      34.025  33.988  30.632  1.00  0.00     0.014 A 
ATOM     31  C   UNL A   1      35.472  34.679  28.816  1.00  0.00     0.014 A 
ATOM     32  C   UNL A   1      35.130  33.476  31.316  1.00  0.00     0.010 A 
ATOM     33  C   UNL A   1      36.561  34.105  29.467  1.00  0.00     0.010 A 
ATOM     34  C   UNL A   1      36.400  33.489  30.718  1.00  0.00    -0.014 A 
BRANCH  34  35
ATOM     35  C   UNL A   1      37.574  32.847  31.362  1.00  0.00     0.031 A 
ATOM     36  C   UNL A   1      38.254  31.683  30.699  1.00  0.00     0.074 A 
ATOM     37  C   UNL A   1      37.964  33.248  32.589  1.00  0.00     0.049 A 
ATOM     38  N   UNL A   1      39.192  30.896  31.162  1.00  0.00    -0.248 NA
ATOM     39  C   UNL A   1      37.798  31.342  29.343  1.00  0.00     0.031 C 
ATOM     40  C   UNL A   1      37.366  34.344  33.351  1.00  0.00     0.029 A 
ATOM     41  N   UNL A   1      38.943  32.761  33.421  1.00  0.00    -0.354 N 
ATOM     42  C   UNL A   1      39.422  29.957  30.167  1.00  0.00     0.074 A 
ATOM     43  C   UNL A   1      38.495  30.243  29.092  1.00  0.00     0.031 C 
ATOM     44  C   UNL A   1      37.994  34.453  34.532  1.00  0.00     0.029 A 
ATOM     45  C   UNL A   1      39.004  33.405  34.633  1.00  0.00     0.049 A 
ATOM     46  H   UNL A   1      39.544  32.023  33.172  1.00  0.00     0.167 HD
ATOM     47  C   UNL A   1      40.335  28.957  30.144  1.00  0.00     0.037 A 
ATOM     48  C   UNL A   1      39.772  33.163  35.714  1.00  0.00     0.037 A 
ATOM     49  C   UNL A   1      41.269  28.691  31.207  1.00  0.00     0.049 A 
ATOM     50  C   UNL A   1      40.761  32.029  35.673  1.00  0.00     0.074 A 
ATOM     51  C   UNL A   1      42.269  27.734  31.256  1.00  0.00     0.029 A 
ATOM     52  N   UNL A   1      41.316  29.380  32.410  1.00  0.00    -0.354 N 
ATOM     53  N   UNL A   1      41.010  31.181  34.705  1.00  0.00    -0.248 NA
ATOM     54  C   UNL A   1      41.581  31.819  36.876  1.00  0.00     0.031 C 
ATOM     55  C   UNL A   1      42.887  27.812  32.508  1.00  0.00     0.029 A 
ATOM     56  C   UNL A   1      42.312  28.856  33.216  1.00  0.00     0.049 A 
ATOM     57  H   UNL A   1      40.728  30.131  32.653  1.00  0.00     0.167 HD
ATOM     58  C   UNL A   1      42.035  30.365  35.164  1.00  0.00     0.074 A 
ATOM     59  C   UNL A   1      42.366  30.821  36.498  1.00  0.00     0.031 C 
ATOM     60  C   UNL A   1      42.648  29.334  34.533  1.00  0.00     0.037 A 
BRANCH  47  61
ATOM     61  C   UNL A   1      40.369  28.071  28.933  1.00  0.00     0.064 A 
ATOM     62  C   UNL A   1      41.131  28.397  27.801  1.00  0.00     0.173 A 
ATOM     63  C   UNL A   1      39.663  26.857  28.920  1.00  0.00     0.173 A 
ATOM     64  F   UNL A   1      41.815  29.550  27.758  1.00  0.00    -0.203 F 
ATOM     65  C   UNL A   1      41.161  27.558  26.690  1.00  0.00     0.198 A 
ATOM     66  C   UNL A   1      39.722  26.004  27.821  1.00  0.00     0.198 A 
ATOM     67  F   UNL A   1      38.925  26.492  29.979  1.00  0.00    -0.203 F 
ATOM     68  F   UNL A   1      41.854  27.916  25.601  1.00  0.00    -0.200 F 
ATOM     69  C   UNL A   1      40.463  26.360  26.704  1.00  0.00     0.200 A 
ATOM     70  F   UNL A   1      39.060  24.840  27.841  1.00  0.00    -0.200 F 
ATOM     71  F   UNL A   1      40.500  25.548  25.637  1.00  0.00    -0.200 F 
ENDBRANCH  47  61
BRANCH  48  72
ATOM     72  C   UNL A   1      39.644  34.018  36.922  1.00  0.00     0.064 A 
ATOM     73  C   UNL A   1      38.843  33.621  38.003  1.00  0.00     0.173 A 
ATOM     74  C   UNL A   1      40.310  35.249  37.023  1.00  0.00     0.173 A 
ATOM     75  F   UNL A   1      38.168  32.464  37.945  1.00  0.00    -0.203 F 
ATOM     76  C   UNL A   1      38.695  34.431  39.127  1.00  0.00     0.198 A 
ATOM     77  C   UNL A   1      40.186  36.044  38.160  1.00  0.00     0.198 A 
ATOM     78  F   UNL A   1      41.092  35.673  36.020  1.00  0.00    -0.203 F 
ATOM     79  F   UNL A   1      37.885  34.049  40.123  1.00  0.00    -0.200 F 
ATOM     80  C   UNL A   1      39.373  35.639  39.208  1.00  0.00     0.200 A 
ATOM     81  F   UNL A   1      40.853  37.203  38.241  1.00  0.00    -0.200 F 
ATOM     82  F   UNL A   1      39.233  36.416  40.290  1.00  0.00    -0.200 F 
ENDBRANCH  48  72
BRANCH  60  83
ATOM     83  C   UNL A   1      43.783  28.658  35.247  1.00  0.00     0.064 A 
ATOM     84  C   UNL A   1      45.112  29.073  35.084  1.00  0.00     0.173 A 
ATOM     85  C   UNL A   1      43.523  27.624  36.159  1.00  0.00     0.173 A 
ATOM     86  F   UNL A   1      45.414  30.047  34.212  1.00  0.00    -0.203 F 
ATOM     87  C   UNL A   1      46.142  28.468  35.799  1.00  0.00     0.198 A 
ATOM     88  C   UNL A   1      44.551  27.042  36.895  1.00  0.00     0.198 A 
ATOM     89  F   UNL A   1      42.268  27.194  36.356  1.00  0.00    -0.203 F 
ATOM     90  F   UNL A   1      47.410  28.855  35.601  1.00  0.00    -0.200 F 
ATOM     91  C   UNL A   1      45.861  27.461  36.710  1.00  0.00     0.200 A 
ATOM     92  F   UNL A   1      44.274  26.081  37.787  1.00  0.00    -0.200 F 
ATOM     93  F   UNL A   1      46.851  26.892  37.411  1.00  0.00    -0.200 F 
ENDBRANCH  60  83
ENDBRANCH  34  35
ENDBRANCH  26  29
ENDBRANCH  24  25
ENDBRANCH   1  24
TORSDOF 13
ENDMDL
MODEL 3
REMARK VINA RESULT:     -12.4      6.065     11.525
REMARK SMILES O=C(C[N@@H+](C1CCCC1)[C@@H]1CCOC2(CCC2)C1)NCCCNC(=O)c1ccc(-c2c3nc(c(-c4c(F)c(F)c(F)c(F)c4F)c4ccc([nH]4)c(-c4c(F)c(F)c(F)c(F)c4F)c4nc(c(-c5c(F)c(F)c(F)c(F)c5F)c5ccc2[nH]5)C=C4)C=C3)cc1
REMARK SMILES IDX 21 1 20 2 19 3 1 4 2 5 3 7 4 8 5 10 6 11 9 12 7 13 8 14
REMARK SMILES IDX 10 15 11 16 18 17 12 18 14 19 13 20 15 21 17 22 16 23 22 24
REMARK SMILES IDX 23 25 24 26 25 28 26 29 27 30 88 31 28 32 87 33 29 34 30 35
REMARK SMILES IDX 31 36 81 37 32 38 86 39 80 40 82 41 33 42 85 43 79 44 78 45
REMARK SMILES IDX 34 47 66 48 46 49 65 50 47 51 50 52 64 53 83 54 48 55 49 56
REMARK SMILES IDX 63 58 84 59 51 60 35 61 36 62 44 63 37 64 38 65 42 66 45 67
REMARK SMILES IDX 39 68 40 69 43 70 41 71 67 72 68 73 76 74 69 75 70 76 74 77
REMARK SMILES IDX 77 78 71 79 72 80 75 81 73 82 52 83 53 84 61 85 54 86 55 87
REMARK SMILES IDX 59 88 62 89 56 90 57 91 60 92 58 93
REMARK H PARENT 19 6 4 9 23 27 82 46 50 57
REMARK Flexibility Score: inf
ROOT
ATOM      1  C   UNL A   1      38.187  19.880  25.013  1.00  0.00     0.042 C 
ENDROOT
BRANCH   1   2
ATOM      2  C   UNL A   1      37.355  21.097  24.620  1.00  0.00     0.118 C 
BRANCH   2   3
ATOM      3  N   UNL A   1      35.984  20.981  25.070  1.00  0.00    -0.351 N 
ATOM      4  O   UNL A   1      35.986  22.913  26.308  1.00  0.00    -0.269 OA
ATOM      5  C   UNL A   1      35.410  21.900  25.919  1.00  0.00     0.275 C 
ATOM      6  H   UNL A   1      35.444  20.219  24.759  1.00  0.00     0.163 HD
BRANCH   5   7
ATOM      7  C   UNL A   1      34.036  21.496  26.451  1.00  0.00     0.363 C 
BRANCH   7   8
ATOM      8  N   UNL A   1      32.912  21.713  25.503  1.00  0.00    -0.322 N 
ATOM      9  H   UNL A   1      33.292  22.200  24.691  1.00  0.00     0.349 HD
BRANCH   8  10
ATOM     10  C   UNL A   1      32.385  20.438  24.999  1.00  0.00     0.184 C 
ATOM     11  C   UNL A   1      32.590  20.270  23.492  1.00  0.00     0.065 C 
ATOM     12  C   UNL A   1      32.907  19.086  25.512  1.00  0.00     0.065 C 
ATOM     13  C   UNL A   1      32.149  18.827  23.220  1.00  0.00     0.006 C 
ATOM     14  C   UNL A   1      32.233  18.097  24.564  1.00  0.00     0.006 C 
ENDBRANCH   8  10
BRANCH   8  15
ATOM     15  C   UNL A   1      31.868  22.664  26.016  1.00  0.00     0.189 C 
ATOM     16  C   UNL A   1      30.678  22.972  25.095  1.00  0.00     0.093 C 
ATOM     17  C   UNL A   1      32.363  23.993  26.657  1.00  0.00     0.100 C 
ATOM     18  C   UNL A   1      31.022  24.025  24.066  1.00  0.00     0.167 C 
ATOM     19  C   UNL A   1      32.473  25.200  25.702  1.00  0.00     0.074 C 
ATOM     20  O   UNL A   1      31.409  25.228  24.713  1.00  0.00    -0.375 OA
ATOM     21  C   UNL A   1      32.536  26.558  26.494  1.00  0.00     0.036 C 
ATOM     22  C   UNL A   1      33.909  25.586  25.199  1.00  0.00     0.036 C 
ATOM     23  C   UNL A   1      33.577  27.053  25.479  1.00  0.00     0.006 C 
ENDBRANCH   8  15
ENDBRANCH   7   8
ENDBRANCH   5   7
ENDBRANCH   2   3
ENDBRANCH   1   2
BRANCH   1  24
ATOM     24  C   UNL A   1      39.362  20.205  25.930  1.00  0.00     0.118 C 
BRANCH  24  25
ATOM     25  N   UNL A   1      40.360  19.143  25.973  1.00  0.00    -0.352 N 
ATOM     26  C   UNL A   1      41.722  19.217  26.128  1.00  0.00     0.251 C 
ATOM     27  H   UNL A   1      40.002  18.232  25.875  1.00  0.00     0.163 HD
ATOM     28  O   UNL A   1      42.414  18.212  25.981  1.00  0.00    -0.269 OA
BRANCH  26  29
ATOM     29  C   UNL A   1      42.366  20.508  26.445  1.00  0.00     0.039 A 
ATOM     30  C   UNL A   1      42.888  21.280  25.403  1.00  0.00     0.014 A 
ATOM     31  C   UNL A   1      42.453  20.959  27.764  1.00  0.00     0.014 A 
ATOM     32  C   UNL A   1      43.421  22.542  25.674  1.00  0.00     0.010 A 
ATOM     33  C   UNL A   1      42.917  22.246  28.024  1.00  0.00     0.010 A 
ATOM     34  C   UNL A   1      43.396  23.054  26.980  1.00  0.00    -0.014 A 
BRANCH  34  35
ATOM     35  C   UNL A   1      43.841  24.437  27.287  1.00  0.00     0.031 A 
ATOM     36  C   UNL A   1      42.850  25.458  27.770  1.00  0.00     0.074 A 
ATOM     37  C   UNL A   1      45.116  24.800  27.035  1.00  0.00     0.049 A 
ATOM     38  N   UNL A   1      43.005  26.746  27.948  1.00  0.00    -0.248 NA
ATOM     39  C   UNL A   1      41.494  24.969  28.064  1.00  0.00     0.031 C 
ATOM     40  C   UNL A   1      46.165  23.911  26.536  1.00  0.00     0.029 A 
ATOM     41  N   UNL A   1      45.738  26.020  27.143  1.00  0.00    -0.354 N 
ATOM     42  C   UNL A   1      41.767  27.222  28.354  1.00  0.00     0.074 A 
ATOM     43  C   UNL A   1      40.858  26.095  28.352  1.00  0.00     0.031 C 
ATOM     44  C   UNL A   1      47.301  24.610  26.389  1.00  0.00     0.029 A 
ATOM     45  C   UNL A   1      47.050  26.005  26.735  1.00  0.00     0.049 A 
ATOM     46  H   UNL A   1      45.287  26.826  27.481  1.00  0.00     0.167 HD
ATOM     47  C   UNL A   1      41.422  28.483  28.711  1.00  0.00     0.037 A 
ATOM     48  C   UNL A   1      47.943  27.009  26.628  1.00  0.00     0.037 A 
ATOM     49  C   UNL A   1      42.336  29.595  28.732  1.00  0.00     0.049 A 
ATOM     50  C   UNL A   1      47.528  28.405  27.007  1.00  0.00     0.074 A 
ATOM     51  C   UNL A   1      42.097  30.899  29.131  1.00  0.00     0.029 A 
ATOM     52  N   UNL A   1      43.664  29.536  28.334  1.00  0.00    -0.354 N 
ATOM     53  N   UNL A   1      46.369  28.835  27.443  1.00  0.00    -0.248 NA
ATOM     54  C   UNL A   1      48.548  29.457  26.883  1.00  0.00     0.031 C 
ATOM     55  C   UNL A   1      43.265  31.640  28.925  1.00  0.00     0.029 A 
ATOM     56  C   UNL A   1      44.249  30.785  28.456  1.00  0.00     0.049 A 
ATOM     57  H   UNL A   1      44.121  28.725  28.013  1.00  0.00     0.167 HD
ATOM     58  C   UNL A   1      46.529  30.194  27.681  1.00  0.00     0.074 A 
ATOM     59  C   UNL A   1      47.899  30.518  27.343  1.00  0.00     0.031 C 
ATOM     60  C   UNL A   1      45.622  31.089  28.140  1.00  0.00     0.037 A 
BRANCH  47  61
ATOM     61  C   UNL A   1      39.996  28.730  29.107  1.00  0.00     0.064 A 
ATOM     62  C   UNL A   1      39.029  29.126  28.171  1.00  0.00     0.173 A 
ATOM     63  C   UNL A   1      39.580  28.528  30.433  1.00  0.00     0.173 A 
ATOM     64  F   UNL A   1      39.375  29.342  26.893  1.00  0.00    -0.203 F 
ATOM     65  C   UNL A   1      37.706  29.339  28.552  1.00  0.00     0.198 A 
ATOM     66  C   UNL A   1      38.250  28.710  30.804  1.00  0.00     0.198 A 
ATOM     67  F   UNL A   1      40.462  28.142  31.367  1.00  0.00    -0.203 F 
ATOM     68  F   UNL A   1      36.811  29.767  27.650  1.00  0.00    -0.200 F 
ATOM     69  C   UNL A   1      37.317  29.124  29.865  1.00  0.00     0.200 A 
ATOM     70  F   UNL A   1      37.873  28.487  32.070  1.00  0.00    -0.200 F 
ATOM     71  F   UNL A   1      36.042  29.321  30.230  1.00  0.00    -0.200 F 
ENDBRANCH  47  61
BRANCH  48  72
ATOM     72  C   UNL A   1      49.322  26.727  26.152  1.00  0.00     0.064 A 
ATOM     73  C   UNL A   1      50.308  26.265  27.036  1.00  0.00     0.173 A 
ATOM     74  C   UNL A   1      49.688  26.919  24.811  1.00  0.00     0.173 A 
ATOM     75  F   UNL A   1      50.013  26.088  28.332  1.00  0.00    -0.203 F 
ATOM     76  C   UNL A   1      51.611  26.027  26.603  1.00  0.00     0.198 A 
ATOM     77  C   UNL A   1      50.983  26.651  24.373  1.00  0.00     0.198 A 
ATOM     78  F   UNL A   1      48.783  27.355  23.924  1.00  0.00    -0.203 F 
ATOM     79  F   UNL A   1      52.544  25.633  27.480  1.00  0.00    -0.200 F 
ATOM     80  C   UNL A   1      51.946  26.213  25.270  1.00  0.00     0.200 A 
ATOM     81  F   UNL A   1      51.300  26.818  23.081  1.00  0.00    -0.200 F 
ATOM     82  F   UNL A   1      53.198  25.981  24.853  1.00  0.00    -0.200 F 
ENDBRANCH  48  72
BRANCH  60  83
ATOM     83  C   UNL A   1      46.088  32.498  28.366  1.00  0.00     0.064 A 
ATOM     84  C   UNL A   1      45.974  33.484  27.376  1.00  0.00     0.173 A 
ATOM     85  C   UNL A   1      46.592  32.880  29.619  1.00  0.00     0.173 A 
ATOM     86  F   UNL A   1      45.512  33.166  26.156  1.00  0.00    -0.203 F 
ATOM     87  C   UNL A   1      46.360  34.798  27.628  1.00  0.00     0.198 A 
ATOM     88  C   UNL A   1      46.948  34.199  29.877  1.00  0.00     0.198 A 
ATOM     89  F   UNL A   1      46.714  31.976  30.603  1.00  0.00    -0.203 F 
ATOM     90  F   UNL A   1      46.277  35.716  26.655  1.00  0.00    -0.200 F 
ATOM     91  C   UNL A   1      46.837  35.157  28.880  1.00  0.00     0.200 A 
ATOM     92  F   UNL A   1      47.393  34.547  31.093  1.00  0.00    -0.200 F 
ATOM     93  F   UNL A   1      47.191  36.426  29.125  1.00  0.00    -0.200 F 
ENDBRANCH  60  83
ENDBRANCH  34  35
ENDBRANCH  26  29
ENDBRANCH  24  25
ENDBRANCH   1  24
TORSDOF 13
ENDMDL
