MODEL 1
REMARK VINA RESULT:     -12.1      0.000      0.000
REMARK SMILES CC[NH2+][C@]1(C(=O)NCCCNC(=O)c2ccc(-c3c4nc(c(-c5c(F)c(F)c(F)c(F)c5F)c5ccc([nH]5)c(-c5c(F)c(F)c(F)c(F)c5F)c5nc(c(-c6c(F)c(F)c(F)c(F)c6F)c6ccc3[nH]6)C=C5)C=C4)cc2)CC[C@@H]([N@H+]2C[C@@H](C)O[C@@H](C)C2)C1
REMARK SMILES IDX 9 1 8 2 7 3 5 4 6 5 4 7 77 8 88 9 78 10 79 11 3 12 2 15 1 16
REMARK SMILES IDX 80 17 81 18 87 19 82 21 85 22 83 23 84 24 86 25 10 26 11 27
REMARK SMILES IDX 12 28 13 30 14 31 15 32 76 33 16 34 75 35 17 36 18 37 19 38
REMARK SMILES IDX 69 39 20 40 74 41 68 42 70 43 21 44 73 45 67 46 66 47 22 49
REMARK SMILES IDX 54 50 34 51 53 52 35 53 38 54 52 55 71 56 36 57 37 58 51 60
REMARK SMILES IDX 72 61 39 62 23 63 24 64 32 65 25 66 26 67 30 68 33 69 27 70
REMARK SMILES IDX 28 71 31 72 29 73 55 74 56 75 64 76 57 77 58 78 62 79 65 80
REMARK SMILES IDX 59 81 60 82 63 83 61 84 40 85 41 86 49 87 42 88 43 89 47 90
REMARK SMILES IDX 50 91 44 92 45 93 48 94 46 95
REMARK H PARENT 7 6 3 13 3 14 80 20 11 29 70 48 38 59
REMARK Flexibility Score: inf
ROOT
ATOM      1  C   UNL A   1      31.410  32.486  26.500  1.00  0.00     0.042 C 
ENDROOT
BRANCH   1   2
ATOM      2  C   UNL A   1      31.237  30.966  26.549  1.00  0.00     0.118 C 
BRANCH   2   3
ATOM      3  N   UNL A   1      31.699  30.359  25.318  1.00  0.00    -0.351 N 
ATOM      4  C   UNL A   1      32.612  29.377  25.095  1.00  0.00     0.281 C 
ATOM      5  O   UNL A   1      33.121  29.407  23.966  1.00  0.00    -0.268 OA
ATOM      6  H   UNL A   1      31.280  30.720  24.503  1.00  0.00     0.163 HD
BRANCH   4   7
ATOM      7  C   UNL A   1      32.884  28.193  26.078  1.00  0.00     0.181 C 
ATOM      8  C   UNL A   1      31.545  27.446  26.269  1.00  0.00     0.085 C 
ATOM      9  C   UNL A   1      33.730  27.108  25.381  1.00  0.00     0.144 C 
ATOM     10  C   UNL A   1      31.909  25.992  26.568  1.00  0.00     0.072 C 
ATOM     11  C   UNL A   1      33.289  25.755  25.928  1.00  0.00     0.191 C 
BRANCH   7  12
ATOM     12  N   UNL A   1      33.414  28.602  27.401  1.00  0.00    -0.334 N 
ATOM     13  H   UNL A   1      32.837  29.369  27.747  1.00  0.00     0.347 HD
ATOM     14  H   UNL A   1      33.382  27.769  27.987  1.00  0.00     0.347 HD
BRANCH  12  15
ATOM     15  C   UNL A   1      34.805  29.046  27.404  1.00  0.00     0.257 C 
ATOM     16  C   UNL A   1      34.856  30.541  27.691  1.00  0.00     0.071 C 
ENDBRANCH  12  15
ENDBRANCH   7  12
BRANCH  11  17
ATOM     17  N   UNL A   1      33.410  24.617  25.020  1.00  0.00    -0.328 N 
ATOM     18  C   UNL A   1      34.656  24.343  24.305  1.00  0.00     0.294 C 
ATOM     19  C   UNL A   1      32.791  23.364  25.458  1.00  0.00     0.294 C 
ATOM     20  H   UNL A   1      32.834  25.056  24.301  1.00  0.00     0.348 HD
ATOM     21  C   UNL A   1      35.607  23.274  24.891  1.00  0.00     0.170 C 
ATOM     22  C   UNL A   1      33.712  22.284  26.077  1.00  0.00     0.170 C 
ATOM     23  C   UNL A   1      36.663  23.830  25.844  1.00  0.00     0.045 C 
ATOM     24  O   UNL A   1      34.957  22.101  25.396  1.00  0.00    -0.364 OA
ATOM     25  C   UNL A   1      33.908  22.364  27.589  1.00  0.00     0.045 C 
ENDBRANCH  11  17
ENDBRANCH   4   7
ENDBRANCH   2   3
ENDBRANCH   1   2
BRANCH   1  26
ATOM     26  C   UNL A   1      32.643  33.002  27.239  1.00  0.00     0.118 C 
BRANCH  26  27
ATOM     27  N   UNL A   1      32.492  34.385  27.652  1.00  0.00    -0.352 N 
ATOM     28  C   UNL A   1      33.016  35.055  28.726  1.00  0.00     0.251 C 
ATOM     29  H   UNL A   1      31.920  34.931  27.064  1.00  0.00     0.163 HD
ATOM     30  O   UNL A   1      32.543  36.150  29.033  1.00  0.00    -0.269 OA
BRANCH  28  31
ATOM     31  C   UNL A   1      34.135  34.501  29.528  1.00  0.00     0.039 A 
ATOM     32  C   UNL A   1      35.420  34.523  28.975  1.00  0.00     0.014 A 
ATOM     33  C   UNL A   1      33.929  33.864  30.755  1.00  0.00     0.014 A 
ATOM     34  C   UNL A   1      36.488  33.924  29.648  1.00  0.00     0.010 A 
ATOM     35  C   UNL A   1      35.009  33.336  31.466  1.00  0.00     0.010 A 
ATOM     36  C   UNL A   1      36.295  33.331  30.906  1.00  0.00    -0.014 A 
BRANCH  36  37
ATOM     37  C   UNL A   1      37.416  32.645  31.604  1.00  0.00     0.031 A 
ATOM     38  C   UNL A   1      38.132  31.496  30.943  1.00  0.00     0.074 A 
ATOM     39  C   UNL A   1      37.781  33.036  32.840  1.00  0.00     0.049 A 
ATOM     40  N   UNL A   1      39.115  30.757  31.396  1.00  0.00    -0.248 NA
ATOM     41  C   UNL A   1      37.665  31.107  29.603  1.00  0.00     0.031 C 
ATOM     42  C   UNL A   1      37.144  34.103  33.611  1.00  0.00     0.029 A 
ATOM     43  N   UNL A   1      38.779  32.580  33.665  1.00  0.00    -0.354 N 
ATOM     44  C   UNL A   1      39.365  29.810  30.412  1.00  0.00     0.074 A 
ATOM     45  C   UNL A   1      38.400  30.034  29.357  1.00  0.00     0.031 C 
ATOM     46  C   UNL A   1      37.782  34.238  34.785  1.00  0.00     0.029 A 
ATOM     47  C   UNL A   1      38.856  33.251  34.860  1.00  0.00     0.049 A 
ATOM     48  H   UNL A   1      39.382  31.840  33.422  1.00  0.00     0.167 HD
ATOM     49  C   UNL A   1      40.325  28.855  30.375  1.00  0.00     0.037 A 
ATOM     50  C   UNL A   1      39.701  33.093  35.897  1.00  0.00     0.037 A 
ATOM     51  C   UNL A   1      41.315  28.658  31.402  1.00  0.00     0.049 A 
ATOM     52  C   UNL A   1      40.781  32.048  35.818  1.00  0.00     0.074 A 
ATOM     53  C   UNL A   1      42.370  27.762  31.425  1.00  0.00     0.029 A 
ATOM     54  N   UNL A   1      41.375  29.377  32.586  1.00  0.00    -0.354 N 
ATOM     55  N   UNL A   1      41.043  31.199  34.855  1.00  0.00    -0.248 NA
ATOM     56  C   UNL A   1      41.689  31.948  36.969  1.00  0.00     0.031 C 
ATOM     57  C   UNL A   1      43.049  27.915  32.639  1.00  0.00     0.029 A 
ATOM     58  C   UNL A   1      42.442  28.935  33.354  1.00  0.00     0.049 A 
ATOM     59  H   UNL A   1      40.753  30.095  32.843  1.00  0.00     0.167 HD
ATOM     60  C   UNL A   1      42.154  30.480  35.272  1.00  0.00     0.074 A 
ATOM     61  C   UNL A   1      42.531  31.006  36.568  1.00  0.00     0.031 C 
ATOM     62  C   UNL A   1      42.803  29.471  34.641  1.00  0.00     0.037 A 
BRANCH  49  63
ATOM     63  C   UNL A   1      40.358  27.951  29.176  1.00  0.00     0.064 A 
ATOM     64  C   UNL A   1      41.142  28.250  28.052  1.00  0.00     0.173 A 
ATOM     65  C   UNL A   1      39.620  26.758  29.164  1.00  0.00     0.173 A 
ATOM     66  F   UNL A   1      41.857  29.384  28.010  1.00  0.00    -0.203 F 
ATOM     67  C   UNL A   1      41.163  27.403  26.946  1.00  0.00     0.198 A 
ATOM     68  C   UNL A   1      39.666  25.899  28.068  1.00  0.00     0.198 A 
ATOM     69  F   UNL A   1      38.861  26.421  30.216  1.00  0.00    -0.203 F 
ATOM     70  F   UNL A   1      41.880  27.735  25.864  1.00  0.00    -0.200 F 
ATOM     71  C   UNL A   1      40.429  26.226  26.958  1.00  0.00     0.200 A 
ATOM     72  F   UNL A   1      38.965  24.756  28.084  1.00  0.00    -0.200 F 
ATOM     73  F   UNL A   1      40.453  25.410  25.895  1.00  0.00    -0.200 F 
ENDBRANCH  49  63
BRANCH  50  74
ATOM     74  C   UNL A   1      39.584  33.973  37.087  1.00  0.00     0.064 A 
ATOM     75  C   UNL A   1      38.848  33.569  38.209  1.00  0.00     0.173 A 
ATOM     76  C   UNL A   1      40.198  35.233  37.126  1.00  0.00     0.173 A 
ATOM     77  F   UNL A   1      38.223  32.382  38.208  1.00  0.00    -0.203 F 
ATOM     78  C   UNL A   1      38.717  34.398  39.321  1.00  0.00     0.198 A 
ATOM     79  C   UNL A   1      40.087  36.051  38.249  1.00  0.00     0.198 A 
ATOM     80  F   UNL A   1      40.916  35.664  36.079  1.00  0.00    -0.203 F 
ATOM     81  F   UNL A   1      37.974  34.004  40.364  1.00  0.00    -0.200 F 
ATOM     82  C   UNL A   1      39.341  35.636  39.341  1.00  0.00     0.200 A 
ATOM     83  F   UNL A   1      40.702  37.242  38.271  1.00  0.00    -0.200 F 
ATOM     84  F   UNL A   1      39.218  36.432  40.413  1.00  0.00    -0.200 F 
ENDBRANCH  50  74
BRANCH  62  85
ATOM     85  C   UNL A   1      43.998  28.886  35.334  1.00  0.00     0.064 A 
ATOM     86  C   UNL A   1      43.870  27.822  36.239  1.00  0.00     0.173 A 
ATOM     87  C   UNL A   1      45.284  29.381  35.075  1.00  0.00     0.173 A 
ATOM     88  F   UNL A   1      42.659  27.326  36.531  1.00  0.00    -0.203 F 
ATOM     89  C   UNL A   1      44.987  27.292  36.881  1.00  0.00     0.198 A 
ATOM     90  C   UNL A   1      46.401  28.831  35.699  1.00  0.00     0.198 A 
ATOM     91  F   UNL A   1      45.459  30.394  34.214  1.00  0.00    -0.203 F 
ATOM     92  F   UNL A   1      44.837  26.308  37.778  1.00  0.00    -0.200 F 
ATOM     93  C   UNL A   1      46.251  27.793  36.606  1.00  0.00     0.200 A 
ATOM     94  F   UNL A   1      47.623  29.310  35.425  1.00  0.00    -0.200 F 
ATOM     95  F   UNL A   1      47.324  27.281  37.224  1.00  0.00    -0.200 F 
ENDBRANCH  62  85
ENDBRANCH  36  37
ENDBRANCH  28  31
ENDBRANCH  26  27
ENDBRANCH   1  26
TORSDOF 13
ENDMDL
MODEL 2
REMARK VINA RESULT:     -12.0      1.362      7.498
REMARK SMILES CC[NH2+][C@]1(C(=O)NCCCNC(=O)c2ccc(-c3c4nc(c(-c5c(F)c(F)c(F)c(F)c5F)c5ccc([nH]5)c(-c5c(F)c(F)c(F)c(F)c5F)c5nc(c(-c6c(F)c(F)c(F)c(F)c6F)c6ccc3[nH]6)C=C5)C=C4)cc2)CC[C@@H]([N@H+]2C[C@@H](C)O[C@@H](C)C2)C1
REMARK SMILES IDX 9 1 8 2 7 3 5 4 6 5 4 7 77 8 88 9 78 10 79 11 3 12 2 15 1 16
REMARK SMILES IDX 80 17 81 18 87 19 82 21 85 22 83 23 84 24 86 25 10 26 11 27
REMARK SMILES IDX 12 28 13 30 14 31 15 32 76 33 16 34 75 35 17 36 18 37 19 38
REMARK SMILES IDX 69 39 20 40 74 41 68 42 70 43 21 44 73 45 67 46 66 47 22 49
REMARK SMILES IDX 54 50 34 51 53 52 35 53 38 54 52 55 71 56 36 57 37 58 51 60
REMARK SMILES IDX 72 61 39 62 23 63 24 64 32 65 25 66 26 67 30 68 33 69 27 70
REMARK SMILES IDX 28 71 31 72 29 73 55 74 56 75 64 76 57 77 58 78 62 79 65 80
REMARK SMILES IDX 59 81 60 82 63 83 61 84 40 85 41 86 49 87 42 88 43 89 47 90
REMARK SMILES IDX 50 91 44 92 45 93 48 94 46 95
REMARK H PARENT 7 6 3 13 3 14 80 20 11 29 70 48 38 59
REMARK Flexibility Score: inf
ROOT
ATOM      1  C   UNL A   1      31.226  32.316  26.501  1.00  0.00     0.042 C 
ENDROOT
BRANCH   1   2
ATOM      2  C   UNL A   1      31.310  30.944  25.825  1.00  0.00     0.118 C 
BRANCH   2   3
ATOM      3  N   UNL A   1      31.404  29.891  26.816  1.00  0.00    -0.351 N 
ATOM      4  C   UNL A   1      31.837  28.607  26.714  1.00  0.00     0.281 C 
ATOM      5  O   UNL A   1      31.369  27.846  27.572  1.00  0.00    -0.268 OA
ATOM      6  H   UNL A   1      31.100  30.150  27.716  1.00  0.00     0.163 HD
BRANCH   4   7
ATOM      7  C   UNL A   1      32.964  28.137  25.738  1.00  0.00     0.181 C 
ATOM      8  C   UNL A   1      33.342  26.695  26.141  1.00  0.00     0.085 C 
ATOM      9  C   UNL A   1      32.382  27.906  24.328  1.00  0.00     0.144 C 
ATOM     10  C   UNL A   1      33.826  26.009  24.865  1.00  0.00     0.072 C 
ATOM     11  C   UNL A   1      33.146  26.746  23.697  1.00  0.00     0.191 C 
BRANCH   7  12
ATOM     12  N   UNL A   1      34.179  28.987  25.748  1.00  0.00    -0.334 N 
ATOM     13  H   UNL A   1      34.789  28.672  24.994  1.00  0.00     0.347 HD
ATOM     14  H   UNL A   1      33.852  29.946  25.638  1.00  0.00     0.347 HD
BRANCH  12  15
ATOM     15  C   UNL A   1      34.946  28.962  26.990  1.00  0.00     0.257 C 
ATOM     16  C   UNL A   1      34.920  30.345  27.627  1.00  0.00     0.071 C 
ENDBRANCH  12  15
ENDBRANCH   7  12
BRANCH  11  17
ATOM     17  N   UNL A   1      32.406  25.928  22.739  1.00  0.00    -0.328 N 
ATOM     18  C   UNL A   1      33.059  24.853  21.992  1.00  0.00     0.294 C 
ATOM     19  C   UNL A   1      31.055  25.523  23.134  1.00  0.00     0.294 C 
ATOM     20  H   UNL A   1      32.355  26.679  22.049  1.00  0.00     0.348 HD
ATOM     21  C   UNL A   1      32.900  23.408  22.515  1.00  0.00     0.170 C 
ATOM     22  C   UNL A   1      30.866  24.090  23.691  1.00  0.00     0.170 C 
ATOM     23  C   UNL A   1      34.003  22.963  23.473  1.00  0.00     0.045 C 
ATOM     24  O   UNL A   1      31.585  23.076  22.982  1.00  0.00    -0.364 OA
ATOM     25  C   UNL A   1      31.028  23.937  25.201  1.00  0.00     0.045 C 
ENDBRANCH  11  17
ENDBRANCH   4   7
ENDBRANCH   2   3
ENDBRANCH   1   2
BRANCH   1  26
ATOM     26  C   UNL A   1      32.521  32.762  27.177  1.00  0.00     0.118 C 
BRANCH  26  27
ATOM     27  N   UNL A   1      32.453  34.141  27.626  1.00  0.00    -0.352 N 
ATOM     28  C   UNL A   1      33.075  34.766  28.675  1.00  0.00     0.251 C 
ATOM     29  H   UNL A   1      31.864  34.721  27.090  1.00  0.00     0.163 HD
ATOM     30  O   UNL A   1      32.667  35.872  29.035  1.00  0.00    -0.269 OA
BRANCH  28  31
ATOM     31  C   UNL A   1      34.222  34.153  29.387  1.00  0.00     0.039 A 
ATOM     32  C   UNL A   1      35.514  34.434  28.926  1.00  0.00     0.014 A 
ATOM     33  C   UNL A   1      34.051  33.225  30.418  1.00  0.00     0.014 A 
ATOM     34  C   UNL A   1      36.620  33.803  29.501  1.00  0.00     0.010 A 
ATOM     35  C   UNL A   1      35.160  32.654  31.045  1.00  0.00     0.010 A 
ATOM     36  C   UNL A   1      36.456  32.911  30.572  1.00  0.00    -0.014 A 
BRANCH  36  37
ATOM     37  C   UNL A   1      37.624  32.195  31.153  1.00  0.00     0.031 A 
ATOM     38  C   UNL A   1      38.097  32.520  32.547  1.00  0.00     0.074 A 
ATOM     39  C   UNL A   1      38.275  31.268  30.426  1.00  0.00     0.049 A 
ATOM     40  N   UNL A   1      39.106  32.022  33.219  1.00  0.00    -0.248 NA
ATOM     41  C   UNL A   1      37.352  33.560  33.274  1.00  0.00     0.031 C 
ATOM     42  C   UNL A   1      37.951  30.890  29.052  1.00  0.00     0.029 A 
ATOM     43  N   UNL A   1      39.349  30.472  30.745  1.00  0.00    -0.354 N 
ATOM     44  C   UNL A   1      39.129  32.702  34.430  1.00  0.00     0.074 A 
ATOM     45  C   UNL A   1      38.064  33.681  34.383  1.00  0.00     0.031 C 
ATOM     46  C   UNL A   1      38.788  29.918  28.653  1.00  0.00     0.029 A 
ATOM     47  C   UNL A   1      39.725  29.623  29.734  1.00  0.00     0.049 A 
ATOM     48  H   UNL A   1      39.806  30.510  31.616  1.00  0.00     0.167 HD
ATOM     49  C   UNL A   1      39.944  32.514  35.495  1.00  0.00     0.037 A 
ATOM     50  C   UNL A   1      40.709  28.705  29.687  1.00  0.00     0.037 A 
ATOM     51  C   UNL A   1      40.975  31.512  35.563  1.00  0.00     0.049 A 
ATOM     52  C   UNL A   1      41.580  28.491  30.895  1.00  0.00     0.074 A 
ATOM     53  C   UNL A   1      41.809  31.200  36.622  1.00  0.00     0.029 A 
ATOM     54  N   UNL A   1      41.307  30.653  34.526  1.00  0.00    -0.354 N 
ATOM     55  N   UNL A   1      41.551  29.101  32.054  1.00  0.00    -0.248 NA
ATOM     56  C   UNL A   1      42.615  27.453  30.789  1.00  0.00     0.031 C 
ATOM     57  C   UNL A   1      42.669  30.173  36.216  1.00  0.00     0.029 A 
ATOM     58  C   UNL A   1      42.343  29.818  34.916  1.00  0.00     0.049 A 
ATOM     59  H   UNL A   1      40.871  30.637  33.644  1.00  0.00     0.167 HD
ATOM     60  C   UNL A   1      42.545  28.508  32.821  1.00  0.00     0.074 A 
ATOM     61  C   UNL A   1      43.146  27.477  32.002  1.00  0.00     0.031 C 
ATOM     62  C   UNL A   1      42.929  28.796  34.089  1.00  0.00     0.037 A 
BRANCH  49  63
ATOM     63  C   UNL A   1      39.748  33.411  36.684  1.00  0.00     0.064 A 
ATOM     64  C   UNL A   1      40.437  34.626  36.811  1.00  0.00     0.173 A 
ATOM     65  C   UNL A   1      38.838  33.064  37.695  1.00  0.00     0.173 A 
ATOM     66  F   UNL A   1      41.326  34.997  35.877  1.00  0.00    -0.203 F 
ATOM     67  C   UNL A   1      40.246  35.447  37.919  1.00  0.00     0.198 A 
ATOM     68  C   UNL A   1      38.629  33.901  38.788  1.00  0.00     0.198 A 
ATOM     69  F   UNL A   1      38.148  31.917  37.620  1.00  0.00    -0.203 F 
ATOM     70  F   UNL A   1      40.953  36.579  38.042  1.00  0.00    -0.200 F 
ATOM     71  C   UNL A   1      39.338  35.086  38.904  1.00  0.00     0.200 A 
ATOM     72  F   UNL A   1      37.743  33.558  39.734  1.00  0.00    -0.200 F 
ATOM     73  F   UNL A   1      39.153  35.879  39.968  1.00  0.00    -0.200 F 
ENDBRANCH  49  63
BRANCH  50  74
ATOM     74  C   UNL A   1      40.900  27.889  28.461  1.00  0.00     0.064 A 
ATOM     75  C   UNL A   1      41.729  28.336  27.423  1.00  0.00     0.173 A 
ATOM     76  C   UNL A   1      40.258  26.653  28.300  1.00  0.00     0.173 A 
ATOM     77  F   UNL A   1      42.345  29.523  27.522  1.00  0.00    -0.203 F 
ATOM     78  C   UNL A   1      41.896  27.585  26.261  1.00  0.00     0.198 A 
ATOM     79  C   UNL A   1      40.446  25.891  27.148  1.00  0.00     0.198 A 
ATOM     80  F   UNL A   1      39.457  26.180  29.265  1.00  0.00    -0.203 F 
ATOM     81  F   UNL A   1      42.663  28.055  25.268  1.00  0.00    -0.200 F 
ATOM     82  C   UNL A   1      41.259  26.361  26.128  1.00  0.00     0.200 A 
ATOM     83  F   UNL A   1      39.838  24.702  27.026  1.00  0.00    -0.200 F 
ATOM     84  F   UNL A   1      41.424  25.637  25.011  1.00  0.00    -0.200 F 
ENDBRANCH  50  74
BRANCH  62  85
ATOM     85  C   UNL A   1      44.036  27.969  34.673  1.00  0.00     0.064 A 
ATOM     86  C   UNL A   1      43.775  26.764  35.340  1.00  0.00     0.173 A 
ATOM     87  C   UNL A   1      45.372  28.376  34.545  1.00  0.00     0.173 A 
ATOM     88  F   UNL A   1      42.512  26.341  35.501  1.00  0.00    -0.203 F 
ATOM     89  C   UNL A   1      44.811  26.008  35.883  1.00  0.00     0.198 A 
ATOM     90  C   UNL A   1      46.408  27.605  35.066  1.00  0.00     0.198 A 
ATOM     91  F   UNL A   1      45.674  29.519  33.912  1.00  0.00    -0.203 F 
ATOM     92  F   UNL A   1      44.536  24.884  36.558  1.00  0.00    -0.200 F 
ATOM     93  C   UNL A   1      46.126  26.427  35.741  1.00  0.00     0.200 A 
ATOM     94  F   UNL A   1      47.678  28.006  34.920  1.00  0.00    -0.200 F 
ATOM     95  F   UNL A   1      47.122  25.698  36.264  1.00  0.00    -0.200 F 
ENDBRANCH  62  85
ENDBRANCH  36  37
ENDBRANCH  28  31
ENDBRANCH  26  27
ENDBRANCH   1  26
TORSDOF 13
ENDMDL
MODEL 3
REMARK VINA RESULT:     -12.0      1.145      2.213
REMARK SMILES CC[NH2+][C@]1(C(=O)NCCCNC(=O)c2ccc(-c3c4nc(c(-c5c(F)c(F)c(F)c(F)c5F)c5ccc([nH]5)c(-c5c(F)c(F)c(F)c(F)c5F)c5nc(c(-c6c(F)c(F)c(F)c(F)c6F)c6ccc3[nH]6)C=C5)C=C4)cc2)CC[C@@H]([N@H+]2C[C@@H](C)O[C@@H](C)C2)C1
REMARK SMILES IDX 9 1 8 2 7 3 5 4 6 5 4 7 77 8 88 9 78 10 79 11 3 12 2 15 1 16
REMARK SMILES IDX 80 17 81 18 87 19 82 21 85 22 83 23 84 24 86 25 10 26 11 27
REMARK SMILES IDX 12 28 13 30 14 31 15 32 76 33 16 34 75 35 17 36 18 37 19 38
REMARK SMILES IDX 69 39 20 40 74 41 68 42 70 43 21 44 73 45 67 46 66 47 22 49
REMARK SMILES IDX 54 50 34 51 53 52 35 53 38 54 52 55 71 56 36 57 37 58 51 60
REMARK SMILES IDX 72 61 39 62 23 63 24 64 32 65 25 66 26 67 30 68 33 69 27 70
REMARK SMILES IDX 28 71 31 72 29 73 55 74 56 75 64 76 57 77 58 78 62 79 65 80
REMARK SMILES IDX 59 81 60 82 63 83 61 84 40 85 41 86 49 87 42 88 43 89 47 90
REMARK SMILES IDX 50 91 44 92 45 93 48 94 46 95
REMARK H PARENT 7 6 3 13 3 14 80 20 11 29 70 48 38 59
REMARK Flexibility Score: inf
ROOT
ATOM      1  C   UNL A   1      31.244  32.338  26.507  1.00  0.00     0.042 C 
ENDROOT
BRANCH   1   2
ATOM      2  C   UNL A   1      31.412  30.952  25.878  1.00  0.00     0.118 C 
BRANCH   2   3
ATOM      3  N   UNL A   1      31.539  29.937  26.904  1.00  0.00    -0.351 N 
ATOM      4  C   UNL A   1      32.008  28.663  26.845  1.00  0.00     0.281 C 
ATOM      5  O   UNL A   1      31.564  27.919  27.731  1.00  0.00    -0.268 OA
ATOM      6  H   UNL A   1      31.232  30.219  27.796  1.00  0.00     0.163 HD
BRANCH   4   7
ATOM      7  C   UNL A   1      33.143  28.191  25.879  1.00  0.00     0.181 C 
ATOM      8  C   UNL A   1      33.503  26.742  26.277  1.00  0.00     0.085 C 
ATOM      9  C   UNL A   1      32.578  27.975  24.461  1.00  0.00     0.144 C 
ATOM     10  C   UNL A   1      33.998  26.062  25.001  1.00  0.00     0.072 C 
ATOM     11  C   UNL A   1      33.339  26.814  23.830  1.00  0.00     0.191 C 
BRANCH   7  12
ATOM     12  N   UNL A   1      34.365  29.029  25.912  1.00  0.00    -0.334 N 
ATOM     13  H   UNL A   1      35.047  28.616  25.276  1.00  0.00     0.347 HD
ATOM     14  H   UNL A   1      34.070  29.967  25.642  1.00  0.00     0.347 HD
BRANCH  12  15
ATOM     15  C   UNL A   1      34.993  29.165  27.223  1.00  0.00     0.257 C 
ATOM     16  C   UNL A   1      35.036  30.636  27.612  1.00  0.00     0.071 C 
ENDBRANCH  12  15
ENDBRANCH   7  12
BRANCH  11  17
ATOM     17  N   UNL A   1      32.605  26.010  22.857  1.00  0.00    -0.328 N 
ATOM     18  C   UNL A   1      32.893  24.588  22.670  1.00  0.00     0.294 C 
ATOM     19  C   UNL A   1      31.162  26.250  22.769  1.00  0.00     0.294 C 
ATOM     20  H   UNL A   1      33.077  26.438  22.060  1.00  0.00     0.348 HD
ATOM     21  C   UNL A   1      31.981  23.564  23.384  1.00  0.00     0.170 C 
ATOM     22  C   UNL A   1      30.221  25.259  23.497  1.00  0.00     0.170 C 
ATOM     23  C   UNL A   1      32.472  23.144  24.767  1.00  0.00     0.045 C 
ATOM     24  O   UNL A   1      30.583  23.882  23.358  1.00  0.00    -0.364 OA
ATOM     25  C   UNL A   1      29.885  25.605  24.945  1.00  0.00     0.045 C 
ENDBRANCH  11  17
ENDBRANCH   4   7
ENDBRANCH   2   3
ENDBRANCH   1   2
BRANCH   1  26
ATOM     26  C   UNL A   1      32.463  32.824  27.290  1.00  0.00     0.118 C 
BRANCH  26  27
ATOM     27  N   UNL A   1      32.380  34.239  27.603  1.00  0.00    -0.352 N 
ATOM     28  C   UNL A   1      32.970  34.963  28.605  1.00  0.00     0.251 C 
ATOM     29  H   UNL A   1      31.807  34.762  26.997  1.00  0.00     0.163 HD
ATOM     30  O   UNL A   1      32.551  36.097  28.845  1.00  0.00    -0.269 OA
BRANCH  28  31
ATOM     31  C   UNL A   1      34.097  34.425  29.406  1.00  0.00     0.039 A 
ATOM     32  C   UNL A   1      35.382  34.468  28.852  1.00  0.00     0.014 A 
ATOM     33  C   UNL A   1      33.901  33.783  30.631  1.00  0.00     0.014 A 
ATOM     34  C   UNL A   1      36.459  33.885  29.525  1.00  0.00     0.010 A 
ATOM     35  C   UNL A   1      34.989  33.270  31.340  1.00  0.00     0.010 A 
ATOM     36  C   UNL A   1      36.275  33.285  30.781  1.00  0.00    -0.014 A 
BRANCH  36  37
ATOM     37  C   UNL A   1      37.406  32.615  31.478  1.00  0.00     0.031 A 
ATOM     38  C   UNL A   1      38.151  31.489  30.807  1.00  0.00     0.074 A 
ATOM     39  C   UNL A   1      37.755  32.999  32.720  1.00  0.00     0.049 A 
ATOM     40  N   UNL A   1      39.146  30.767  31.258  1.00  0.00    -0.248 NA
ATOM     41  C   UNL A   1      37.700  31.107  29.460  1.00  0.00     0.031 C 
ATOM     42  C   UNL A   1      37.092  34.043  33.500  1.00  0.00     0.029 A 
ATOM     43  N   UNL A   1      38.759  32.555  33.546  1.00  0.00    -0.354 N 
ATOM     44  C   UNL A   1      39.422  29.837  30.264  1.00  0.00     0.074 A 
ATOM     45  C   UNL A   1      38.459  30.052  29.206  1.00  0.00     0.031 C 
ATOM     46  C   UNL A   1      37.720  34.178  34.680  1.00  0.00     0.029 A 
ATOM     47  C   UNL A   1      38.815  33.213  34.749  1.00  0.00     0.049 A 
ATOM     48  H   UNL A   1      39.378  31.830  33.298  1.00  0.00     0.167 HD
ATOM     49  C   UNL A   1      40.403  28.903  30.222  1.00  0.00     0.037 A 
ATOM     50  C   UNL A   1      39.657  33.060  35.789  1.00  0.00     0.037 A 
ATOM     51  C   UNL A   1      41.391  28.715  31.251  1.00  0.00     0.049 A 
ATOM     52  C   UNL A   1      40.759  32.040  35.704  1.00  0.00     0.074 A 
ATOM     53  C   UNL A   1      42.464  27.841  31.271  1.00  0.00     0.029 A 
ATOM     54  N   UNL A   1      41.429  29.421  32.444  1.00  0.00    -0.354 N 
ATOM     55  N   UNL A   1      41.045  31.208  34.732  1.00  0.00    -0.248 NA
ATOM     56  C   UNL A   1      41.663  31.945  36.859  1.00  0.00     0.031 C 
ATOM     57  C   UNL A   1      43.133  27.995  32.490  1.00  0.00     0.029 A 
ATOM     58  C   UNL A   1      42.500  28.993  33.214  1.00  0.00     0.049 A 
ATOM     59  H   UNL A   1      40.790  30.123  32.706  1.00  0.00     0.167 HD
ATOM     60  C   UNL A   1      42.169  30.508  35.148  1.00  0.00     0.074 A 
ATOM     61  C   UNL A   1      42.527  31.027  36.452  1.00  0.00     0.031 C 
ATOM     62  C   UNL A   1      42.842  29.521  34.509  1.00  0.00     0.037 A 
BRANCH  49  63
ATOM     63  C   UNL A   1      40.462  28.015  29.012  1.00  0.00     0.064 A 
ATOM     64  C   UNL A   1      39.752  26.806  28.953  1.00  0.00     0.173 A 
ATOM     65  C   UNL A   1      41.213  28.391  27.888  1.00  0.00     0.173 A 
ATOM     66  F   UNL A   1      39.029  26.397  30.005  1.00  0.00    -0.203 F 
ATOM     67  C   UNL A   1      39.817  25.991  27.825  1.00  0.00     0.198 A 
ATOM     68  C   UNL A   1      41.252  27.587  26.751  1.00  0.00     0.198 A 
ATOM     69  F   UNL A   1      41.904  29.539  27.889  1.00  0.00    -0.203 F 
ATOM     70  F   UNL A   1      39.170  24.817  27.812  1.00  0.00    -0.200 F 
ATOM     71  C   UNL A   1      40.562  26.385  26.724  1.00  0.00     0.200 A 
ATOM     72  F   UNL A   1      41.963  27.973  25.682  1.00  0.00    -0.200 F 
ATOM     73  F   UNL A   1      40.619  25.601  25.638  1.00  0.00    -0.200 F 
ENDBRANCH  49  63
BRANCH  50  74
ATOM     74  C   UNL A   1      39.514  33.924  36.988  1.00  0.00     0.064 A 
ATOM     75  C   UNL A   1      38.797  33.483  38.109  1.00  0.00     0.173 A 
ATOM     76  C   UNL A   1      40.085  35.204  37.039  1.00  0.00     0.173 A 
ATOM     77  F   UNL A   1      38.213  32.275  38.098  1.00  0.00    -0.203 F 
ATOM     78  C   UNL A   1      38.642  34.296  39.230  1.00  0.00     0.198 A 
ATOM     79  C   UNL A   1      39.950  36.006  38.170  1.00  0.00     0.198 A 
ATOM     80  F   UNL A   1      40.783  35.670  35.993  1.00  0.00    -0.203 F 
ATOM     81  F   UNL A   1      37.917  33.866  40.271  1.00  0.00    -0.200 F 
ATOM     82  C   UNL A   1      39.223  35.554  39.261  1.00  0.00     0.200 A 
ATOM     83  F   UNL A   1      40.524  37.217  38.203  1.00  0.00    -0.200 F 
ATOM     84  F   UNL A   1      39.077  36.334  40.342  1.00  0.00    -0.200 F 
ENDBRANCH  50  74
BRANCH  62  85
ATOM     85  C   UNL A   1      44.046  28.953  35.202  1.00  0.00     0.064 A 
ATOM     86  C   UNL A   1      45.327  29.484  34.995  1.00  0.00     0.173 A 
ATOM     87  C   UNL A   1      43.913  27.883  36.098  1.00  0.00     0.173 A 
ATOM     88  F   UNL A   1      45.507  30.498  34.135  1.00  0.00    -0.203 F 
ATOM     89  C   UNL A   1      46.437  28.945  35.641  1.00  0.00     0.198 A 
ATOM     90  C   UNL A   1      45.021  27.363  36.762  1.00  0.00     0.198 A 
ATOM     91  F   UNL A   1      42.708  27.343  36.334  1.00  0.00    -0.203 F 
ATOM     92  F   UNL A   1      47.659  29.437  35.391  1.00  0.00    -0.200 F 
ATOM     93  C   UNL A   1      46.282  27.889  36.526  1.00  0.00     0.200 A 
ATOM     94  F   UNL A   1      44.869  26.349  37.625  1.00  0.00    -0.200 F 
ATOM     95  F   UNL A   1      47.352  27.372  37.147  1.00  0.00    -0.200 F 
ENDBRANCH  62  85
ENDBRANCH  36  37
ENDBRANCH  28  31
ENDBRANCH  26  27
ENDBRANCH   1  26
TORSDOF 13
ENDMDL
