MODEL 1
REMARK VINA RESULT:     -12.5      0.000      0.000
REMARK SMILES Cc1ncccc1NC(=O)NC[C@H]1CCC[C@H]1C(=O)NCCCNC(=O)c1ccc(-c2c3nc(c(-c4c(F)c(F)c(F)c(F)c4F)c4ccc([nH]4)c(-c4c(F)c(F)c(F)c(F)c4F)c4nc(c(-c5c(F)c(F)c(F)c(F)c5F)c5ccc2[nH]5)C=C4)C=C3)cc1
REMARK SMILES IDX 21 1 20 2 18 3 19 4 17 6 13 7 14 8 15 9 16 10 12 11 11 12
REMARK SMILES IDX 8 13 9 14 10 16 7 18 1 19 2 20 3 21 4 22 6 23 5 24 22 25
REMARK SMILES IDX 23 26 24 27 25 28 26 30 27 31 28 32 89 33 29 34 88 35 30 36
REMARK SMILES IDX 31 37 32 38 82 39 33 40 87 41 81 42 83 43 34 44 86 45 80 46
REMARK SMILES IDX 79 47 35 49 67 50 47 51 66 52 48 53 51 54 65 55 84 56 49 57
REMARK SMILES IDX 50 58 64 60 85 61 52 62 36 63 37 64 45 65 38 66 39 67 43 68
REMARK SMILES IDX 46 69 40 70 41 71 44 72 42 73 68 74 69 75 77 76 70 77 71 78
REMARK SMILES IDX 75 79 78 80 72 81 73 82 76 83 74 84 53 85 54 86 62 87 55 88
REMARK SMILES IDX 56 89 60 90 63 91 57 92 58 93 61 94 59 95
REMARK H PARENT 20 5 8 15 11 17 24 29 83 48 51 59
REMARK Flexibility Score: inf
ROOT
ATOM      1  C   UNL A   1      31.516  30.677  26.031  1.00  0.00     0.117 C 
ENDROOT
BRANCH   1   2
ATOM      2  N   UNL A   1      31.438  29.676  27.091  1.00  0.00    -0.356 N 
ATOM      3  C   UNL A   1      31.804  28.391  27.279  1.00  0.00     0.223 C 
ATOM      4  O   UNL A   1      31.383  27.901  28.340  1.00  0.00    -0.275 OA
ATOM      5  H   UNL A   1      30.996  30.041  27.891  1.00  0.00     0.163 HD
BRANCH   3   6
ATOM      6  C   UNL A   1      32.617  27.481  26.359  1.00  0.00     0.083 C 
ATOM      7  C   UNL A   1      32.214  25.990  26.240  1.00  0.00     0.021 C 
ATOM      8  C   UNL A   1      33.325  25.489  25.306  1.00  0.00     0.006 C 
ATOM      9  C   UNL A   1      33.525  26.605  24.279  1.00  0.00     0.001 C 
ATOM     10  C   UNL A   1      33.088  27.912  24.970  1.00  0.00     0.014 C 
BRANCH   7  11
ATOM     11  C   UNL A   1      30.801  25.675  25.713  1.00  0.00     0.122 C 
BRANCH  11  12
ATOM     12  N   UNL A   1      30.181  24.592  26.451  1.00  0.00    -0.338 N 
ATOM     13  N   UNL A   1      31.144  22.401  26.555  1.00  0.00    -0.306 N 
ATOM     14  C   UNL A   1      30.264  23.341  26.845  1.00  0.00     0.319 C 
ATOM     15  H   UNL A   1      31.002  21.617  27.134  1.00  0.00     0.171 HD
ATOM     16  O   UNL A   1      29.374  23.012  27.646  1.00  0.00    -0.249 OA
ATOM     17  H   UNL A   1      29.335  24.946  26.811  1.00  0.00     0.165 HD
BRANCH  13  18
ATOM     18  C   UNL A   1      32.213  22.168  25.685  1.00  0.00     0.064 A 
ATOM     19  C   UNL A   1      33.755  21.818  27.694  1.00  0.00     0.069 C 
ATOM     20  C   UNL A   1      33.501  21.955  26.216  1.00  0.00     0.061 A 
ATOM     21  N   UNL A   1      34.600  21.758  25.440  1.00  0.00    -0.259 NA
ATOM     22  C   UNL A   1      34.429  21.748  24.104  1.00  0.00     0.111 A 
ATOM     23  C   UNL A   1      32.084  22.072  24.311  1.00  0.00     0.030 A 
ATOM     24  C   UNL A   1      33.198  21.885  23.499  1.00  0.00     0.022 A 
ENDBRANCH  13  18
ENDBRANCH  11  12
ENDBRANCH   7  11
ENDBRANCH   3   6
ENDBRANCH   1   2
BRANCH   1  25
ATOM     25  C   UNL A   1      31.418  32.091  26.611  1.00  0.00     0.042 C 
BRANCH  25  26
ATOM     26  C   UNL A   1      32.741  32.787  26.893  1.00  0.00     0.118 C 
BRANCH  26  27
ATOM     27  N   UNL A   1      32.567  34.053  27.584  1.00  0.00    -0.352 N 
ATOM     28  C   UNL A   1      33.144  34.575  28.718  1.00  0.00     0.251 C 
ATOM     29  H   UNL A   1      31.910  34.652  27.160  1.00  0.00     0.163 HD
ATOM     30  O   UNL A   1      32.677  35.618  29.172  1.00  0.00    -0.269 OA
BRANCH  28  31
ATOM     31  C   UNL A   1      34.297  33.941  29.421  1.00  0.00     0.039 A 
ATOM     32  C   UNL A   1      35.591  34.350  29.065  1.00  0.00     0.014 A 
ATOM     33  C   UNL A   1      34.161  32.901  30.341  1.00  0.00     0.014 A 
ATOM     34  C   UNL A   1      36.719  33.737  29.628  1.00  0.00     0.010 A 
ATOM     35  C   UNL A   1      35.280  32.372  30.990  1.00  0.00     0.010 A 
ATOM     36  C   UNL A   1      36.574  32.748  30.610  1.00  0.00    -0.014 A 
BRANCH  36  37
ATOM     37  C   UNL A   1      37.749  32.030  31.180  1.00  0.00     0.031 A 
ATOM     38  C   UNL A   1      38.225  32.355  32.576  1.00  0.00     0.074 A 
ATOM     39  C   UNL A   1      38.421  31.124  30.442  1.00  0.00     0.049 A 
ATOM     40  N   UNL A   1      39.273  31.911  33.225  1.00  0.00    -0.248 NA
ATOM     41  C   UNL A   1      37.435  33.342  33.332  1.00  0.00     0.031 C 
ATOM     42  C   UNL A   1      38.100  30.747  29.065  1.00  0.00     0.029 A 
ATOM     43  N   UNL A   1      39.521  30.361  30.746  1.00  0.00    -0.354 N 
ATOM     44  C   UNL A   1      39.287  32.593  34.437  1.00  0.00     0.074 A 
ATOM     45  C   UNL A   1      38.177  33.519  34.413  1.00  0.00     0.031 C 
ATOM     46  C   UNL A   1      38.960  29.800  28.656  1.00  0.00     0.029 A 
ATOM     47  C   UNL A   1      39.916  29.531  29.725  1.00  0.00     0.049 A 
ATOM     48  H   UNL A   1      39.984  30.402  31.615  1.00  0.00     0.167 HD
ATOM     49  C   UNL A   1      40.128  32.442  35.489  1.00  0.00     0.037 A 
ATOM     50  C   UNL A   1      40.935  28.652  29.659  1.00  0.00     0.037 A 
ATOM     51  C   UNL A   1      41.191  31.475  35.540  1.00  0.00     0.049 A 
ATOM     52  C   UNL A   1      41.834  28.475  30.855  1.00  0.00     0.074 A 
ATOM     53  C   UNL A   1      42.049  31.188  36.587  1.00  0.00     0.029 A 
ATOM     54  N   UNL A   1      41.534  30.628  34.497  1.00  0.00    -0.354 N 
ATOM     55  N   UNL A   1      41.799  29.083  32.015  1.00  0.00    -0.248 NA
ATOM     56  C   UNL A   1      42.909  27.480  30.732  1.00  0.00     0.031 C 
ATOM     57  C   UNL A   1      42.937  30.194  36.164  1.00  0.00     0.029 A 
ATOM     58  C   UNL A   1      42.602  29.827  34.871  1.00  0.00     0.049 A 
ATOM     59  H   UNL A   1      41.087  30.600  33.620  1.00  0.00     0.167 HD
ATOM     60  C   UNL A   1      42.822  28.525  32.770  1.00  0.00     0.074 A 
ATOM     61  C   UNL A   1      43.451  27.520  31.941  1.00  0.00     0.031 C 
ATOM     62  C   UNL A   1      43.207  28.820  34.036  1.00  0.00     0.037 A 
BRANCH  49  63
ATOM     63  C   UNL A   1      39.925  33.341  36.678  1.00  0.00     0.064 A 
ATOM     64  C   UNL A   1      40.633  34.544  36.826  1.00  0.00     0.173 A 
ATOM     65  C   UNL A   1      38.990  33.007  37.670  1.00  0.00     0.173 A 
ATOM     66  F   UNL A   1      41.547  34.906  35.914  1.00  0.00    -0.203 F 
ATOM     67  C   UNL A   1      40.440  35.358  37.940  1.00  0.00     0.198 A 
ATOM     68  C   UNL A   1      38.775  33.841  38.765  1.00  0.00     0.198 A 
ATOM     69  F   UNL A   1      38.279  31.873  37.576  1.00  0.00    -0.203 F 
ATOM     70  F   UNL A   1      41.172  36.471  38.088  1.00  0.00    -0.200 F 
ATOM     71  C   UNL A   1      39.507  35.010  38.904  1.00  0.00     0.200 A 
ATOM     72  F   UNL A   1      37.862  33.510  39.689  1.00  0.00    -0.200 F 
ATOM     73  F   UNL A   1      39.320  35.797  39.972  1.00  0.00    -0.200 F 
ENDBRANCH  49  63
BRANCH  50  74
ATOM     74  C   UNL A   1      41.135  27.837  28.432  1.00  0.00     0.064 A 
ATOM     75  C   UNL A   1      40.460  26.620  28.261  1.00  0.00     0.173 A 
ATOM     76  C   UNL A   1      42.004  28.249  27.411  1.00  0.00     0.173 A 
ATOM     77  F   UNL A   1      39.636  26.172  29.221  1.00  0.00    -0.203 F 
ATOM     78  C   UNL A   1      40.659  25.837  27.125  1.00  0.00     0.198 A 
ATOM     79  C   UNL A   1      42.181  27.479  26.262  1.00  0.00     0.198 A 
ATOM     80  F   UNL A   1      42.672  29.406  27.524  1.00  0.00    -0.203 F 
ATOM     81  F   UNL A   1      40.035  24.656  27.010  1.00  0.00    -0.200 F 
ATOM     82  C   UNL A   1      41.515  26.271  26.124  1.00  0.00     0.200 A 
ATOM     83  F   UNL A   1      42.999  27.906  25.292  1.00  0.00    -0.200 F 
ATOM     84  F   UNL A   1      41.704  25.519  25.031  1.00  0.00    -0.200 F 
ENDBRANCH  50  74
BRANCH  62  85
ATOM     85  C   UNL A   1      44.332  28.018  34.618  1.00  0.00     0.064 A 
ATOM     86  C   UNL A   1      45.666  28.443  34.527  1.00  0.00     0.173 A 
ATOM     87  C   UNL A   1      44.069  26.822  35.304  1.00  0.00     0.173 A 
ATOM     88  F   UNL A   1      45.970  29.572  33.869  1.00  0.00    -0.203 F 
ATOM     89  C   UNL A   1      46.697  27.687  35.077  1.00  0.00     0.198 A 
ATOM     90  C   UNL A   1      45.100  26.083  35.879  1.00  0.00     0.198 A 
ATOM     91  F   UNL A   1      42.809  26.375  35.426  1.00  0.00    -0.203 F 
ATOM     92  F   UNL A   1      47.968  28.086  34.935  1.00  0.00    -0.200 F 
ATOM     93  C   UNL A   1      46.412  26.511  35.758  1.00  0.00     0.200 A 
ATOM     94  F   UNL A   1      44.821  24.957  36.549  1.00  0.00    -0.200 F 
ATOM     95  F   UNL A   1      47.406  25.788  36.291  1.00  0.00    -0.200 F 
ENDBRANCH  62  85
ENDBRANCH  36  37
ENDBRANCH  28  31
ENDBRANCH  26  27
ENDBRANCH  25  26
ENDBRANCH   1  25
TORSDOF 13
ENDMDL
MODEL 2
REMARK VINA RESULT:     -12.4      1.788      2.570
REMARK SMILES Cc1ncccc1NC(=O)NC[C@H]1CCC[C@H]1C(=O)NCCCNC(=O)c1ccc(-c2c3nc(c(-c4c(F)c(F)c(F)c(F)c4F)c4ccc([nH]4)c(-c4c(F)c(F)c(F)c(F)c4F)c4nc(c(-c5c(F)c(F)c(F)c(F)c5F)c5ccc2[nH]5)C=C4)C=C3)cc1
REMARK SMILES IDX 21 1 20 2 18 3 19 4 17 6 13 7 14 8 15 9 16 10 12 11 11 12
REMARK SMILES IDX 8 13 9 14 10 16 7 18 1 19 2 20 3 21 4 22 6 23 5 24 22 25
REMARK SMILES IDX 23 26 24 27 25 28 26 30 27 31 28 32 89 33 29 34 88 35 30 36
REMARK SMILES IDX 31 37 32 38 82 39 33 40 87 41 81 42 83 43 34 44 86 45 80 46
REMARK SMILES IDX 79 47 35 49 67 50 47 51 66 52 48 53 51 54 65 55 84 56 49 57
REMARK SMILES IDX 50 58 64 60 85 61 52 62 36 63 37 64 45 65 38 66 39 67 43 68
REMARK SMILES IDX 46 69 40 70 41 71 44 72 42 73 68 74 69 75 77 76 70 77 71 78
REMARK SMILES IDX 75 79 78 80 72 81 73 82 76 83 74 84 53 85 54 86 62 87 55 88
REMARK SMILES IDX 56 89 60 90 63 91 57 92 58 93 61 94 59 95
REMARK H PARENT 20 5 8 15 11 17 24 29 83 48 51 59
REMARK Flexibility Score: inf
ROOT
ATOM      1  C   UNL A   1      31.449  27.553  26.074  1.00  0.00     0.117 C 
ENDROOT
BRANCH   1   2
ATOM      2  N   UNL A   1      30.850  27.737  24.757  1.00  0.00    -0.356 N 
ATOM      3  C   UNL A   1      31.034  27.274  23.503  1.00  0.00     0.223 C 
ATOM      4  O   UNL A   1      30.339  27.850  22.650  1.00  0.00    -0.275 OA
ATOM      5  H   UNL A   1      30.102  28.377  24.793  1.00  0.00     0.163 HD
BRANCH   3   6
ATOM      6  C   UNL A   1      31.988  26.186  23.013  1.00  0.00     0.083 C 
ATOM      7  C   UNL A   1      32.029  24.835  23.769  1.00  0.00     0.021 C 
ATOM      8  C   UNL A   1      33.145  24.126  22.988  1.00  0.00     0.006 C 
ATOM      9  C   UNL A   1      32.914  24.501  21.523  1.00  0.00     0.001 C 
ATOM     10  C   UNL A   1      32.182  25.857  21.532  1.00  0.00     0.014 C 
BRANCH   7  11
ATOM     11  C   UNL A   1      30.726  24.014  23.829  1.00  0.00     0.122 C 
BRANCH  11  12
ATOM     12  N   UNL A   1      30.348  23.703  25.193  1.00  0.00    -0.338 N 
ATOM     13  N   UNL A   1      31.668  22.274  26.591  1.00  0.00    -0.306 N 
ATOM     14  C   UNL A   1      30.665  23.084  26.308  1.00  0.00     0.319 C 
ATOM     15  H   UNL A   1      31.700  22.101  27.560  1.00  0.00     0.171 HD
ATOM     16  O   UNL A   1      29.901  23.338  27.253  1.00  0.00    -0.249 OA
ATOM     17  H   UNL A   1      29.481  24.144  25.352  1.00  0.00     0.165 HD
BRANCH  13  18
ATOM     18  C   UNL A   1      32.698  21.582  25.948  1.00  0.00     0.064 A 
ATOM     19  C   UNL A   1      34.385  23.275  26.855  1.00  0.00     0.069 C 
ATOM     20  C   UNL A   1      34.012  22.091  26.004  1.00  0.00     0.061 A 
ATOM     21  N   UNL A   1      35.064  21.500  25.375  1.00  0.00    -0.259 NA
ATOM     22  C   UNL A   1      34.825  20.366  24.689  1.00  0.00     0.111 A 
ATOM     23  C   UNL A   1      32.527  20.374  25.293  1.00  0.00     0.030 A 
ATOM     24  C   UNL A   1      33.588  19.762  24.633  1.00  0.00     0.022 A 
ENDBRANCH  13  18
ENDBRANCH  11  12
ENDBRANCH   7  11
ENDBRANCH   3   6
ENDBRANCH   1   2
BRANCH   1  25
ATOM     25  C   UNL A   1      31.761  28.905  26.723  1.00  0.00     0.042 C 
BRANCH  25  26
ATOM     26  C   UNL A   1      32.677  29.827  25.932  1.00  0.00     0.118 C 
BRANCH  26  27
ATOM     27  N   UNL A   1      32.582  31.210  26.366  1.00  0.00    -0.352 N 
ATOM     28  C   UNL A   1      33.325  31.954  27.253  1.00  0.00     0.251 C 
ATOM     29  H   UNL A   1      31.846  31.711  25.945  1.00  0.00     0.163 HD
ATOM     30  O   UNL A   1      32.909  33.072  27.554  1.00  0.00    -0.269 OA
BRANCH  28  31
ATOM     31  C   UNL A   1      34.597  31.475  27.865  1.00  0.00     0.039 A 
ATOM     32  C   UNL A   1      34.692  30.119  28.214  1.00  0.00     0.014 A 
ATOM     33  C   UNL A   1      35.658  32.319  28.196  1.00  0.00     0.014 A 
ATOM     34  C   UNL A   1      35.829  29.623  28.868  1.00  0.00     0.010 A 
ATOM     35  C   UNL A   1      36.839  31.804  28.738  1.00  0.00     0.010 A 
ATOM     36  C   UNL A   1      36.923  30.460  29.124  1.00  0.00    -0.014 A 
BRANCH  36  37
ATOM     37  C   UNL A   1      38.117  29.981  29.875  1.00  0.00     0.031 A 
ATOM     38  C   UNL A   1      38.340  30.427  31.301  1.00  0.00     0.074 A 
ATOM     39  C   UNL A   1      39.028  29.187  29.276  1.00  0.00     0.049 A 
ATOM     40  N   UNL A   1      39.353  30.196  32.099  1.00  0.00    -0.248 NA
ATOM     41  C   UNL A   1      37.298  31.279  31.898  1.00  0.00     0.031 C 
ATOM     42  C   UNL A   1      38.962  28.717  27.893  1.00  0.00     0.029 A 
ATOM     43  N   UNL A   1      40.192  28.641  29.757  1.00  0.00    -0.354 N 
ATOM     44  C   UNL A   1      39.087  30.906  33.265  1.00  0.00     0.074 A 
ATOM     45  C   UNL A   1      37.848  31.619  33.053  1.00  0.00     0.031 C 
ATOM     46  C   UNL A   1      40.020  27.927  27.646  1.00  0.00     0.029 A 
ATOM     47  C   UNL A   1      40.857  27.864  28.839  1.00  0.00     0.049 A 
ATOM     48  H   UNL A   1      40.521  28.790  30.673  1.00  0.00     0.167 HD
ATOM     49  C   UNL A   1      39.794  30.939  34.421  1.00  0.00     0.037 A 
ATOM     50  C   UNL A   1      42.012  27.178  28.949  1.00  0.00     0.037 A 
ATOM     51  C   UNL A   1      40.992  30.179  34.657  1.00  0.00     0.049 A 
ATOM     52  C   UNL A   1      42.760  27.201  30.256  1.00  0.00     0.074 A 
ATOM     53  C   UNL A   1      41.739  30.080  35.817  1.00  0.00     0.029 A 
ATOM     54  N   UNL A   1      41.612  29.375  33.711  1.00  0.00    -0.354 N 
ATOM     55  N   UNL A   1      42.467  27.828  31.368  1.00  0.00    -0.248 NA
ATOM     56  C   UNL A   1      43.997  26.410  30.322  1.00  0.00     0.031 C 
ATOM     57  C   UNL A   1      42.834  29.247  35.562  1.00  0.00     0.029 A 
ATOM     58  C   UNL A   1      42.742  28.788  34.259  1.00  0.00     0.049 A 
ATOM     59  H   UNL A   1      41.296  29.241  32.788  1.00  0.00     0.167 HD
ATOM     60  C   UNL A   1      43.461  27.484  32.275  1.00  0.00     0.074 A 
ATOM     61  C   UNL A   1      44.359  26.582  31.586  1.00  0.00     0.031 C 
ATOM     62  C   UNL A   1      43.617  27.881  33.562  1.00  0.00     0.037 A 
BRANCH  49  63
ATOM     63  C   UNL A   1      39.283  31.823  35.526  1.00  0.00     0.064 A 
ATOM     64  C   UNL A   1      38.408  31.344  36.513  1.00  0.00     0.173 A 
ATOM     65  C   UNL A   1      39.696  33.161  35.614  1.00  0.00     0.173 A 
ATOM     66  F   UNL A   1      37.971  30.076  36.470  1.00  0.00    -0.203 F 
ATOM     67  C   UNL A   1      37.936  32.180  37.522  1.00  0.00     0.198 A 
ATOM     68  C   UNL A   1      39.250  33.985  36.644  1.00  0.00     0.198 A 
ATOM     69  F   UNL A   1      40.540  33.671  34.703  1.00  0.00    -0.203 F 
ATOM     70  F   UNL A   1      37.054  31.715  38.417  1.00  0.00    -0.200 F 
ATOM     71  C   UNL A   1      38.363  33.497  37.591  1.00  0.00     0.200 A 
ATOM     72  F   UNL A   1      39.675  35.254  36.718  1.00  0.00    -0.200 F 
ATOM     73  F   UNL A   1      37.912  34.299  38.566  1.00  0.00    -0.200 F 
ENDBRANCH  49  63
BRANCH  50  74
ATOM     74  C   UNL A   1      42.512  26.376  27.801  1.00  0.00     0.064 A 
ATOM     75  C   UNL A   1      42.031  25.078  27.571  1.00  0.00     0.173 A 
ATOM     76  C   UNL A   1      43.476  26.880  26.918  1.00  0.00     0.173 A 
ATOM     77  F   UNL A   1      41.125  24.543  28.403  1.00  0.00    -0.203 F 
ATOM     78  C   UNL A   1      42.511  24.309  26.513  1.00  0.00     0.198 A 
ATOM     79  C   UNL A   1      43.935  26.120  25.843  1.00  0.00     0.198 A 
ATOM     80  F   UNL A   1      43.966  28.116  27.093  1.00  0.00    -0.203 F 
ATOM     81  F   UNL A   1      42.068  23.055  26.344  1.00  0.00    -0.200 F 
ATOM     82  C   UNL A   1      43.458  24.833  25.645  1.00  0.00     0.200 A 
ATOM     83  F   UNL A   1      44.841  26.634  25.000  1.00  0.00    -0.200 F 
ATOM     84  F   UNL A   1      43.917  24.094  24.626  1.00  0.00    -0.200 F 
ENDBRANCH  50  74
BRANCH  62  85
ATOM     85  C   UNL A   1      44.777  27.309  34.322  1.00  0.00     0.064 A 
ATOM     86  C   UNL A   1      46.015  27.964  34.380  1.00  0.00     0.173 A 
ATOM     87  C   UNL A   1      44.636  26.104  35.029  1.00  0.00     0.173 A 
ATOM     88  F   UNL A   1      46.205  29.110  33.710  1.00  0.00    -0.203 F 
ATOM     89  C   UNL A   1      47.079  27.420  35.095  1.00  0.00     0.198 A 
ATOM     90  C   UNL A   1      45.692  25.579  35.767  1.00  0.00     0.198 A 
ATOM     91  F   UNL A   1      43.468  25.443  35.012  1.00  0.00    -0.203 F 
ATOM     92  F   UNL A   1      48.269  28.036  35.096  1.00  0.00    -0.200 F 
ATOM     93  C   UNL A   1      46.914  26.232  35.793  1.00  0.00     0.200 A 
ATOM     94  F   UNL A   1      45.527  24.439  36.453  1.00  0.00    -0.200 F 
ATOM     95  F   UNL A   1      47.938  25.713  36.485  1.00  0.00    -0.200 F 
ENDBRANCH  62  85
ENDBRANCH  36  37
ENDBRANCH  28  31
ENDBRANCH  26  27
ENDBRANCH  25  26
ENDBRANCH   1  25
TORSDOF 13
ENDMDL
MODEL 3
REMARK VINA RESULT:     -12.4      1.333      7.561
REMARK SMILES Cc1ncccc1NC(=O)NC[C@H]1CCC[C@H]1C(=O)NCCCNC(=O)c1ccc(-c2c3nc(c(-c4c(F)c(F)c(F)c(F)c4F)c4ccc([nH]4)c(-c4c(F)c(F)c(F)c(F)c4F)c4nc(c(-c5c(F)c(F)c(F)c(F)c5F)c5ccc2[nH]5)C=C4)C=C3)cc1
REMARK SMILES IDX 21 1 20 2 18 3 19 4 17 6 13 7 14 8 15 9 16 10 12 11 11 12
REMARK SMILES IDX 8 13 9 14 10 16 7 18 1 19 2 20 3 21 4 22 6 23 5 24 22 25
REMARK SMILES IDX 23 26 24 27 25 28 26 30 27 31 28 32 89 33 29 34 88 35 30 36
REMARK SMILES IDX 31 37 32 38 82 39 33 40 87 41 81 42 83 43 34 44 86 45 80 46
REMARK SMILES IDX 79 47 35 49 67 50 47 51 66 52 48 53 51 54 65 55 84 56 49 57
REMARK SMILES IDX 50 58 64 60 85 61 52 62 36 63 37 64 45 65 38 66 39 67 43 68
REMARK SMILES IDX 46 69 40 70 41 71 44 72 42 73 68 74 69 75 77 76 70 77 71 78
REMARK SMILES IDX 75 79 78 80 72 81 73 82 76 83 74 84 53 85 54 86 62 87 55 88
REMARK SMILES IDX 56 89 60 90 63 91 57 92 58 93 61 94 59 95
REMARK H PARENT 20 5 8 15 11 17 24 29 83 48 51 59
REMARK Flexibility Score: inf
ROOT
ATOM      1  C   UNL A   1      31.434  30.351  26.260  1.00  0.00     0.117 C 
ENDROOT
BRANCH   1   2
ATOM      2  N   UNL A   1      32.301  30.011  25.136  1.00  0.00    -0.356 N 
ATOM      3  C   UNL A   1      32.336  29.097  24.144  1.00  0.00     0.223 C 
ATOM      4  O   UNL A   1      33.389  29.114  23.485  1.00  0.00    -0.275 OA
ATOM      5  H   UNL A   1      33.076  30.616  25.090  1.00  0.00     0.163 HD
BRANCH   3   6
ATOM      6  C   UNL A   1      31.286  28.053  23.763  1.00  0.00     0.083 C 
ATOM      7  C   UNL A   1      31.304  26.682  24.483  1.00  0.00     0.021 C 
ATOM      8  C   UNL A   1      30.161  25.976  23.738  1.00  0.00     0.006 C 
ATOM      9  C   UNL A   1      29.083  27.045  23.545  1.00  0.00     0.001 C 
ATOM     10  C   UNL A   1      29.814  28.401  23.535  1.00  0.00     0.014 C 
BRANCH   7  11
ATOM     11  C   UNL A   1      31.113  26.679  26.012  1.00  0.00     0.122 C 
BRANCH  11  12
ATOM     12  N   UNL A   1      30.687  25.382  26.498  1.00  0.00    -0.338 N 
ATOM     13  N   UNL A   1      32.041  23.420  26.257  1.00  0.00    -0.306 N 
ATOM     14  C   UNL A   1      30.993  24.113  26.660  1.00  0.00     0.319 C 
ATOM     15  H   UNL A   1      32.033  22.526  26.671  1.00  0.00     0.171 HD
ATOM     16  O   UNL A   1      30.160  23.482  27.329  1.00  0.00    -0.249 OA
ATOM     17  H   UNL A   1      29.781  25.502  26.864  1.00  0.00     0.165 HD
BRANCH  13  18
ATOM     18  C   UNL A   1      33.158  23.553  25.427  1.00  0.00     0.064 A 
ATOM     19  C   UNL A   1      31.818  22.564  23.487  1.00  0.00     0.069 C 
ATOM     20  C   UNL A   1      33.093  23.078  24.101  1.00  0.00     0.061 A 
ATOM     21  N   UNL A   1      34.145  23.134  23.241  1.00  0.00    -0.259 NA
ATOM     22  C   UNL A   1      35.287  23.692  23.686  1.00  0.00     0.111 A 
ATOM     23  C   UNL A   1      34.330  24.183  25.804  1.00  0.00     0.030 A 
ATOM     24  C   UNL A   1      35.422  24.239  24.943  1.00  0.00     0.022 A 
ENDBRANCH  13  18
ENDBRANCH  11  12
ENDBRANCH   7  11
ENDBRANCH   3   6
ENDBRANCH   1   2
BRANCH   1  25
ATOM     25  C   UNL A   1      31.418  31.865  26.493  1.00  0.00     0.042 C 
BRANCH  25  26
ATOM     26  C   UNL A   1      32.709  32.470  27.024  1.00  0.00     0.118 C 
BRANCH  26  27
ATOM     27  N   UNL A   1      32.535  33.840  27.476  1.00  0.00    -0.352 N 
ATOM     28  C   UNL A   1      33.091  34.548  28.515  1.00  0.00     0.251 C 
ATOM     29  H   UNL A   1      31.899  34.361  26.934  1.00  0.00     0.163 HD
ATOM     30  O   UNL A   1      32.629  35.661  28.764  1.00  0.00    -0.269 OA
BRANCH  28  31
ATOM     31  C   UNL A   1      34.216  34.038  29.350  1.00  0.00     0.039 A 
ATOM     32  C   UNL A   1      35.523  34.398  28.987  1.00  0.00     0.014 A 
ATOM     33  C   UNL A   1      34.045  33.148  30.412  1.00  0.00     0.014 A 
ATOM     34  C   UNL A   1      36.629  33.885  29.681  1.00  0.00     0.010 A 
ATOM     35  C   UNL A   1      35.137  32.732  31.178  1.00  0.00     0.010 A 
ATOM     36  C   UNL A   1      36.446  33.056  30.796  1.00  0.00    -0.014 A 
BRANCH  36  37
ATOM     37  C   UNL A   1      37.598  32.442  31.514  1.00  0.00     0.031 A 
ATOM     38  C   UNL A   1      38.364  31.307  30.877  1.00  0.00     0.074 A 
ATOM     39  C   UNL A   1      37.936  32.862  32.749  1.00  0.00     0.049 A 
ATOM     40  N   UNL A   1      39.339  30.579  31.365  1.00  0.00    -0.248 NA
ATOM     41  C   UNL A   1      37.952  30.909  29.520  1.00  0.00     0.031 C 
ATOM     42  C   UNL A   1      37.256  33.917  33.501  1.00  0.00     0.029 A 
ATOM     43  N   UNL A   1      38.935  32.445  33.594  1.00  0.00    -0.354 N 
ATOM     44  C   UNL A   1      39.621  29.622  30.397  1.00  0.00     0.074 A 
ATOM     45  C   UNL A   1      38.682  29.824  29.317  1.00  0.00     0.031 C 
ATOM     46  C   UNL A   1      37.877  34.088  34.679  1.00  0.00     0.029 A 
ATOM     47  C   UNL A   1      38.974  33.131  34.784  1.00  0.00     0.049 A 
ATOM     48  H   UNL A   1      39.565  31.722  33.369  1.00  0.00     0.167 HD
ATOM     49  C   UNL A   1      40.594  28.680  30.390  1.00  0.00     0.037 A 
ATOM     50  C   UNL A   1      39.801  33.003  35.839  1.00  0.00     0.037 A 
ATOM     51  C   UNL A   1      41.571  28.521  31.435  1.00  0.00     0.049 A 
ATOM     52  C   UNL A   1      40.898  31.972  35.794  1.00  0.00     0.074 A 
ATOM     53  C   UNL A   1      42.646  27.651  31.489  1.00  0.00     0.029 A 
ATOM     54  N   UNL A   1      41.597  29.263  32.607  1.00  0.00    -0.354 N 
ATOM     55  N   UNL A   1      41.191  31.115  34.847  1.00  0.00    -0.248 NA
ATOM     56  C   UNL A   1      41.786  31.900  36.962  1.00  0.00     0.031 C 
ATOM     57  C   UNL A   1      43.299  27.838  32.711  1.00  0.00     0.029 A 
ATOM     58  C   UNL A   1      42.661  28.858  33.398  1.00  0.00     0.049 A 
ATOM     59  H   UNL A   1      40.955  29.971  32.842  1.00  0.00     0.167 HD
ATOM     60  C   UNL A   1      42.312  30.425  35.289  1.00  0.00     0.074 A 
ATOM     61  C   UNL A   1      42.655  30.974  36.584  1.00  0.00     0.031 C 
ATOM     62  C   UNL A   1      42.996  29.426  34.678  1.00  0.00     0.037 A 
BRANCH  49  63
ATOM     63  C   UNL A   1      40.656  27.749  29.211  1.00  0.00     0.064 A 
ATOM     64  C   UNL A   1      41.577  27.934  28.168  1.00  0.00     0.173 A 
ATOM     65  C   UNL A   1      39.799  26.639  29.136  1.00  0.00     0.173 A 
ATOM     66  F   UNL A   1      42.412  28.984  28.183  1.00  0.00    -0.203 F 
ATOM     67  C   UNL A   1      41.612  27.068  27.078  1.00  0.00     0.198 A 
ATOM     68  C   UNL A   1      39.861  25.756  28.061  1.00  0.00     0.198 A 
ATOM     69  F   UNL A   1      38.904  26.408  30.108  1.00  0.00    -0.203 F 
ATOM     70  F   UNL A   1      42.460  27.301  26.067  1.00  0.00    -0.200 F 
ATOM     71  C   UNL A   1      40.759  25.976  27.029  1.00  0.00     0.200 A 
ATOM     72  F   UNL A   1      39.045  24.692  28.022  1.00  0.00    -0.200 F 
ATOM     73  F   UNL A   1      40.798  25.141  25.981  1.00  0.00    -0.200 F 
ENDBRANCH  49  63
BRANCH  50  74
ATOM     74  C   UNL A   1      39.652  33.903  37.014  1.00  0.00     0.064 A 
ATOM     75  C   UNL A   1      40.291  35.151  37.046  1.00  0.00     0.173 A 
ATOM     76  C   UNL A   1      38.880  33.537  38.125  1.00  0.00     0.173 A 
ATOM     77  F   UNL A   1      41.061  35.535  36.016  1.00  0.00    -0.203 F 
ATOM     78  C   UNL A   1      40.178  35.991  38.152  1.00  0.00     0.198 A 
ATOM     79  C   UNL A   1      38.744  34.391  39.219  1.00  0.00     0.198 A 
ATOM     80  F   UNL A   1      38.247  32.355  38.144  1.00  0.00    -0.203 F 
ATOM     81  F   UNL A   1      40.837  37.158  38.174  1.00  0.00    -0.200 F 
ATOM     82  C   UNL A   1      39.399  35.613  39.235  1.00  0.00     0.200 A 
ATOM     83  F   UNL A   1      37.982  34.027  40.259  1.00  0.00    -0.200 F 
ATOM     84  F   UNL A   1      39.289  36.422  40.297  1.00  0.00    -0.200 F 
ENDBRANCH  50  74
BRANCH  62  85
ATOM     85  C   UNL A   1      44.207  28.891  35.383  1.00  0.00     0.064 A 
ATOM     86  C   UNL A   1      44.128  27.802  36.263  1.00  0.00     0.173 A 
ATOM     87  C   UNL A   1      45.471  29.456  35.147  1.00  0.00     0.173 A 
ATOM     88  F   UNL A   1      42.942  27.237  36.531  1.00  0.00    -0.203 F 
ATOM     89  C   UNL A   1      45.264  27.317  36.904  1.00  0.00     0.198 A 
ATOM     90  C   UNL A   1      46.609  28.949  35.767  1.00  0.00     0.198 A 
ATOM     91  F   UNL A   1      45.601  30.495  34.308  1.00  0.00    -0.203 F 
ATOM     92  F   UNL A   1      45.159  26.307  37.779  1.00  0.00    -0.200 F 
ATOM     93  C   UNL A   1      46.504  27.886  36.650  1.00  0.00     0.200 A 
ATOM     94  F   UNL A   1      47.807  29.490  35.509  1.00  0.00    -0.200 F 
ATOM     95  F   UNL A   1      47.598  27.413  37.264  1.00  0.00    -0.200 F 
ENDBRANCH  62  85
ENDBRANCH  36  37
ENDBRANCH  28  31
ENDBRANCH  26  27
ENDBRANCH  25  26
ENDBRANCH   1  25
TORSDOF 13
ENDMDL
