MODEL 1
REMARK VINA RESULT:     -13.3      0.000      0.000
REMARK SMILES Cc1c(C(=O)NCCCNC(=O)c2ccc(-c3c4nc(c(-c5c(F)c(F)c(F)c(F)c5F)c5ccc([nH]5)c(-c5c(F)c(F)c(F)c(F)c5F)c5nc(c(-c6c(F)c(F)c(F)c(F)c6F)c6ccc3[nH]6)C=C5)C=C4)cc2)sc2c1c(=O)n(Cc1ccccc1)c(=O)n2CC[NH+]1CCCCC1
REMARK SMILES IDX 7 1 6 2 4 3 5 4 3 6 1 7 2 8 78 9 76 10 77 11 79 12 91 13
REMARK SMILES IDX 80 14 81 15 89 16 90 17 92 18 93 19 94 20 95 21 99 22 96 24
REMARK SMILES IDX 98 25 97 26 82 27 83 28 84 29 88 30 85 31 87 32 86 33 8 34
REMARK SMILES IDX 9 35 10 36 11 37 12 39 13 40 14 41 75 42 15 43 74 44 16 45
REMARK SMILES IDX 17 46 18 47 68 48 19 49 73 50 67 51 69 52 20 53 72 54 66 55
REMARK SMILES IDX 65 56 21 58 53 59 33 60 52 61 34 62 37 63 51 64 70 65 35 66
REMARK SMILES IDX 36 67 50 69 71 70 38 71 22 72 23 73 31 74 24 75 25 76 29 77
REMARK SMILES IDX 32 78 26 79 27 80 30 81 28 82 54 83 55 84 63 85 56 86 57 87
REMARK SMILES IDX 61 88 64 89 58 90 59 91 62 92 60 93 39 94 40 95 48 96 41 97
REMARK SMILES IDX 42 98 46 99 49 100 43 101 44 102 47 103 45 104
REMARK H PARENT 6 5 94 23 10 38 69 57 37 68
REMARK Flexibility Score: inf
ROOT
ATOM      1  C   UNL A   1      38.752  21.489  25.545  1.00  0.00     0.118 C 
ENDROOT
BRANCH   1   2
ATOM      2  N   UNL A   1      37.486  20.761  25.384  1.00  0.00    -0.351 N 
ATOM      3  C   UNL A   1      36.148  21.098  25.248  1.00  0.00     0.261 C 
ATOM      4  O   UNL A   1      35.410  20.132  25.027  1.00  0.00    -0.268 OA
ATOM      5  H   UNL A   1      37.623  19.786  25.369  1.00  0.00     0.163 HD
BRANCH   3   6
ATOM      6  C   UNL A   1      35.604  22.440  25.460  1.00  0.00     0.098 A 
ATOM      7  C   UNL A   1      36.043  23.485  23.140  1.00  0.00     0.047 C 
ATOM      8  C   UNL A   1      35.459  23.487  24.523  1.00  0.00    -0.012 A 
ATOM      9  C   UNL A   1      34.479  24.457  24.995  1.00  0.00     0.079 A 
ATOM     10  S   UNL A   1      34.996  22.969  26.971  1.00  0.00    -0.111 S 
ATOM     11  C   UNL A   1      33.978  24.043  26.197  1.00  0.00     0.113 A 
ATOM     12  C   UNL A   1      33.788  25.547  24.344  1.00  0.00     0.265 A 
ATOM     13  N   UNL A   1      32.711  24.341  26.657  1.00  0.00    -0.279 N 
ATOM     14  O   UNL A   1      33.995  25.841  23.159  1.00  0.00    -0.268 OA
ATOM     15  N   UNL A   1      32.838  26.179  25.148  1.00  0.00    -0.255 N 
ATOM     16  C   UNL A   1      32.136  25.519  26.166  1.00  0.00     0.332 A 
ATOM     17  O   UNL A   1      31.044  25.911  26.580  1.00  0.00    -0.247 OA
BRANCH  13  18
ATOM     18  C   UNL A   1      31.863  23.378  27.394  1.00  0.00     0.189 C 
BRANCH  18  19
ATOM     19  C   UNL A   1      30.752  22.641  26.537  1.00  0.00     0.284 C 
BRANCH  19  20
ATOM     20  N   UNL A   1      30.958  22.130  25.145  1.00  0.00    -0.333 N 
ATOM     21  C   UNL A   1      31.053  23.189  24.156  1.00  0.00     0.262 C 
ATOM     22  C   UNL A   1      32.049  21.155  25.041  1.00  0.00     0.262 C 
ATOM     23  H   UNL A   1      30.107  21.614  24.918  1.00  0.00     0.348 HD
ATOM     24  C   UNL A   1      31.317  22.782  22.715  1.00  0.00     0.062 C 
ATOM     25  C   UNL A   1      32.439  20.767  23.598  1.00  0.00     0.062 C 
ATOM     26  C   UNL A   1      32.587  21.959  22.659  1.00  0.00     0.012 C 
ENDBRANCH  19  20
ENDBRANCH  18  19
ENDBRANCH  13  18
BRANCH  15  27
ATOM     27  C   UNL A   1      32.378  27.497  24.729  1.00  0.00     0.166 C 
BRANCH  27  28
ATOM     28  C   UNL A   1      32.799  28.551  25.739  1.00  0.00    -0.028 A 
ATOM     29  C   UNL A   1      34.087  28.545  26.291  1.00  0.00     0.005 A 
ATOM     30  C   UNL A   1      31.925  29.597  26.079  1.00  0.00     0.005 A 
ATOM     31  C   UNL A   1      34.490  29.570  27.154  1.00  0.00     0.000 A 
ATOM     32  C   UNL A   1      32.337  30.629  26.920  1.00  0.00     0.000 A 
ATOM     33  C   UNL A   1      33.619  30.616  27.457  1.00  0.00     0.000 A 
ENDBRANCH  27  28
ENDBRANCH  15  27
ENDBRANCH   3   6
ENDBRANCH   1   2
BRANCH   1  34
ATOM     34  C   UNL A   1      39.777  20.805  26.445  1.00  0.00     0.042 C 
BRANCH  34  35
ATOM     35  C   UNL A   1      40.619  21.758  27.258  1.00  0.00     0.118 C 
BRANCH  35  36
ATOM     36  N   UNL A   1      41.955  21.981  26.713  1.00  0.00    -0.352 N 
ATOM     37  C   UNL A   1      42.584  23.175  26.405  1.00  0.00     0.251 C 
ATOM     38  H   UNL A   1      42.483  21.168  26.541  1.00  0.00     0.163 HD
ATOM     39  O   UNL A   1      43.580  23.170  25.688  1.00  0.00    -0.269 OA
BRANCH  37  40
ATOM     40  C   UNL A   1      42.078  24.457  26.956  1.00  0.00     0.039 A 
ATOM     41  C   UNL A   1      41.097  25.207  26.298  1.00  0.00     0.014 A 
ATOM     42  C   UNL A   1      42.634  24.956  28.130  1.00  0.00     0.014 A 
ATOM     43  C   UNL A   1      40.789  26.476  26.790  1.00  0.00     0.010 A 
ATOM     44  C   UNL A   1      42.110  26.034  28.766  1.00  0.00     0.010 A 
ATOM     45  C   UNL A   1      41.359  26.891  28.003  1.00  0.00    -0.014 A 
BRANCH  45  46
ATOM     46  C   UNL A   1      41.169  28.206  28.579  1.00  0.00     0.031 A 
ATOM     47  C   UNL A   1      42.205  29.154  28.141  1.00  0.00     0.074 A 
ATOM     48  C   UNL A   1      40.050  28.579  29.242  1.00  0.00     0.049 A 
ATOM     49  N   UNL A   1      43.194  29.587  28.841  1.00  0.00    -0.248 NA
ATOM     50  C   UNL A   1      42.280  29.487  26.709  1.00  0.00     0.031 C 
ATOM     51  C   UNL A   1      38.795  27.843  29.456  1.00  0.00     0.029 A 
ATOM     52  N   UNL A   1      39.783  29.775  29.833  1.00  0.00    -0.354 N 
ATOM     53  C   UNL A   1      43.899  30.432  28.000  1.00  0.00     0.074 A 
ATOM     54  C   UNL A   1      43.433  30.157  26.666  1.00  0.00     0.031 C 
ATOM     55  C   UNL A   1      37.846  28.679  29.944  1.00  0.00     0.029 A 
ATOM     56  C   UNL A   1      38.461  29.961  30.235  1.00  0.00     0.049 A 
ATOM     57  H   UNL A   1      40.476  30.463  29.966  1.00  0.00     0.167 HD
ATOM     58  C   UNL A   1      44.598  31.477  28.517  1.00  0.00     0.037 A 
ATOM     59  C   UNL A   1      37.941  31.105  30.753  1.00  0.00     0.037 A 
ATOM     60  C   UNL A   1      44.783  31.314  29.941  1.00  0.00     0.049 A 
ATOM     61  C   UNL A   1      39.092  31.901  31.253  1.00  0.00     0.074 A 
ATOM     62  C   UNL A   1      45.407  30.368  30.732  1.00  0.00     0.029 A 
ATOM     63  N   UNL A   1      43.914  31.980  30.771  1.00  0.00    -0.354 N 
ATOM     64  N   UNL A   1      39.833  31.547  32.265  1.00  0.00    -0.248 NA
ATOM     65  C   UNL A   1      39.699  32.845  30.327  1.00  0.00     0.031 C 
ATOM     66  C   UNL A   1      44.551  30.204  31.861  1.00  0.00     0.029 A 
ATOM     67  C   UNL A   1      43.494  31.107  31.742  1.00  0.00     0.049 A 
ATOM     68  H   UNL A   1      43.641  32.923  30.685  1.00  0.00     0.167 HD
ATOM     69  C   UNL A   1      41.126  31.869  31.882  1.00  0.00     0.074 A 
ATOM     70  C   UNL A   1      40.974  32.728  30.709  1.00  0.00     0.031 C 
ATOM     71  C   UNL A   1      42.192  31.168  32.367  1.00  0.00     0.037 A 
BRANCH  58  72
ATOM     72  C   UNL A   1      44.752  32.808  27.828  1.00  0.00     0.064 A 
ATOM     73  C   UNL A   1      45.985  33.115  27.222  1.00  0.00     0.173 A 
ATOM     74  C   UNL A   1      43.861  33.894  27.979  1.00  0.00     0.173 A 
ATOM     75  F   UNL A   1      46.918  32.167  27.054  1.00  0.00    -0.203 F 
ATOM     76  C   UNL A   1      46.324  34.421  26.862  1.00  0.00     0.198 A 
ATOM     77  C   UNL A   1      44.180  35.184  27.565  1.00  0.00     0.198 A 
ATOM     78  F   UNL A   1      42.699  33.785  28.632  1.00  0.00    -0.203 F 
ATOM     79  F   UNL A   1      47.555  34.685  26.406  1.00  0.00    -0.200 F 
ATOM     80  C   UNL A   1      45.422  35.455  27.036  1.00  0.00     0.200 A 
ATOM     81  F   UNL A   1      43.299  36.175  27.765  1.00  0.00    -0.200 F 
ATOM     82  F   UNL A   1      45.764  36.716  26.743  1.00  0.00    -0.200 F 
ENDBRANCH  58  72
BRANCH  59  83
ATOM     83  C   UNL A   1      36.612  31.738  30.544  1.00  0.00     0.064 A 
ATOM     84  C   UNL A   1      35.783  32.034  31.644  1.00  0.00     0.173 A 
ATOM     85  C   UNL A   1      36.287  32.377  29.334  1.00  0.00     0.173 A 
ATOM     86  F   UNL A   1      36.036  31.492  32.844  1.00  0.00    -0.203 F 
ATOM     87  C   UNL A   1      34.739  32.962  31.555  1.00  0.00     0.198 A 
ATOM     88  C   UNL A   1      35.241  33.300  29.245  1.00  0.00     0.198 A 
ATOM     89  F   UNL A   1      37.043  32.199  28.241  1.00  0.00    -0.203 F 
ATOM     90  F   UNL A   1      34.031  33.282  32.648  1.00  0.00    -0.200 F 
ATOM     91  C   UNL A   1      34.482  33.611  30.360  1.00  0.00     0.200 A 
ATOM     92  F   UNL A   1      35.022  33.948  28.091  1.00  0.00    -0.200 F 
ATOM     93  F   UNL A   1      33.540  34.561  30.293  1.00  0.00    -0.200 F 
ENDBRANCH  59  83
BRANCH  71  94
ATOM     94  C   UNL A   1      41.947  30.223  33.515  1.00  0.00     0.064 A 
ATOM     95  C   UNL A   1      41.628  28.860  33.370  1.00  0.00     0.173 A 
ATOM     96  C   UNL A   1      42.198  30.689  34.812  1.00  0.00     0.173 A 
ATOM     97  F   UNL A   1      41.453  28.316  32.161  1.00  0.00    -0.203 F 
ATOM     98  C   UNL A   1      41.542  28.015  34.477  1.00  0.00     0.198 A 
ATOM     99  C   UNL A   1      42.147  29.835  35.910  1.00  0.00     0.198 A 
ATOM    100  F   UNL A   1      42.549  31.969  35.007  1.00  0.00    -0.203 F 
ATOM    101  F   UNL A   1      41.235  26.719  34.313  1.00  0.00    -0.200 F 
ATOM    102  C   UNL A   1      41.813  28.501  35.745  1.00  0.00     0.200 A 
ATOM    103  F   UNL A   1      42.455  30.303  37.128  1.00  0.00    -0.200 F 
ATOM    104  F   UNL A   1      41.780  27.680  36.804  1.00  0.00    -0.200 F 
ENDBRANCH  71  94
ENDBRANCH  45  46
ENDBRANCH  37  40
ENDBRANCH  35  36
ENDBRANCH  34  35
ENDBRANCH   1  34
TORSDOF 15
ENDMDL
MODEL 2
REMARK VINA RESULT:     -12.8      2.450      4.277
REMARK SMILES Cc1c(C(=O)NCCCNC(=O)c2ccc(-c3c4nc(c(-c5c(F)c(F)c(F)c(F)c5F)c5ccc([nH]5)c(-c5c(F)c(F)c(F)c(F)c5F)c5nc(c(-c6c(F)c(F)c(F)c(F)c6F)c6ccc3[nH]6)C=C5)C=C4)cc2)sc2c1c(=O)n(Cc1ccccc1)c(=O)n2CC[NH+]1CCCCC1
REMARK SMILES IDX 7 1 6 2 4 3 5 4 3 6 1 7 2 8 78 9 76 10 77 11 79 12 91 13
REMARK SMILES IDX 80 14 81 15 89 16 90 17 92 18 93 19 94 20 95 21 99 22 96 24
REMARK SMILES IDX 98 25 97 26 82 27 83 28 84 29 88 30 85 31 87 32 86 33 8 34
REMARK SMILES IDX 9 35 10 36 11 37 12 39 13 40 14 41 75 42 15 43 74 44 16 45
REMARK SMILES IDX 17 46 18 47 68 48 19 49 73 50 67 51 69 52 20 53 72 54 66 55
REMARK SMILES IDX 65 56 21 58 53 59 33 60 52 61 34 62 37 63 51 64 70 65 35 66
REMARK SMILES IDX 36 67 50 69 71 70 38 71 22 72 23 73 31 74 24 75 25 76 29 77
REMARK SMILES IDX 32 78 26 79 27 80 30 81 28 82 54 83 55 84 63 85 56 86 57 87
REMARK SMILES IDX 61 88 64 89 58 90 59 91 62 92 60 93 39 94 40 95 48 96 41 97
REMARK SMILES IDX 42 98 46 99 49 100 43 101 44 102 47 103 45 104
REMARK H PARENT 6 5 94 23 10 38 69 57 37 68
REMARK Flexibility Score: inf
ROOT
ATOM      1  C   UNL A   1      34.984  24.520  25.145  1.00  0.00     0.118 C 
ENDROOT
BRANCH   1   2
ATOM      2  N   UNL A   1      34.651  23.774  23.923  1.00  0.00    -0.351 N 
ATOM      3  C   UNL A   1      33.856  23.984  22.807  1.00  0.00     0.261 C 
ATOM      4  O   UNL A   1      33.960  23.103  21.947  1.00  0.00    -0.268 OA
ATOM      5  H   UNL A   1      35.110  22.903  23.889  1.00  0.00     0.163 HD
BRANCH   3   6
ATOM      6  C   UNL A   1      32.883  25.069  22.673  1.00  0.00     0.098 A 
ATOM      7  C   UNL A   1      30.687  23.762  23.048  1.00  0.00     0.047 C 
ATOM      8  C   UNL A   1      31.484  25.021  22.864  1.00  0.00    -0.012 A 
ATOM      9  C   UNL A   1      30.958  26.362  23.091  1.00  0.00     0.079 A 
ATOM     10  S   UNL A   1      33.325  26.671  22.264  1.00  0.00    -0.111 S 
ATOM     11  C   UNL A   1      31.988  27.259  23.074  1.00  0.00     0.113 A 
ATOM     12  C   UNL A   1      29.684  26.845  23.573  1.00  0.00     0.265 A 
ATOM     13  N   UNL A   1      31.998  28.448  23.774  1.00  0.00    -0.279 N 
ATOM     14  O   UNL A   1      28.758  26.077  23.863  1.00  0.00    -0.268 OA
ATOM     15  N   UNL A   1      29.626  28.230  23.738  1.00  0.00    -0.255 N 
ATOM     16  C   UNL A   1      30.747  29.009  24.057  1.00  0.00     0.332 A 
ATOM     17  O   UNL A   1      30.655  30.109  24.605  1.00  0.00    -0.247 OA
BRANCH  13  18
ATOM     18  C   UNL A   1      33.200  28.987  24.451  1.00  0.00     0.189 C 
BRANCH  18  19
ATOM     19  C   UNL A   1      33.444  28.478  25.931  1.00  0.00     0.284 C 
BRANCH  19  20
ATOM     20  N   UNL A   1      33.908  29.347  27.059  1.00  0.00    -0.333 N 
ATOM     21  C   UNL A   1      35.349  29.323  27.244  1.00  0.00     0.262 C 
ATOM     22  C   UNL A   1      33.364  30.708  27.004  1.00  0.00     0.262 C 
ATOM     23  H   UNL A   1      33.513  28.928  27.902  1.00  0.00     0.348 HD
ATOM     24  C   UNL A   1      35.931  30.215  28.329  1.00  0.00     0.062 C 
ATOM     25  C   UNL A   1      33.982  31.697  28.017  1.00  0.00     0.062 C 
ATOM     26  C   UNL A   1      35.504  31.645  28.077  1.00  0.00     0.012 C 
ENDBRANCH  19  20
ENDBRANCH  18  19
ENDBRANCH  13  18
BRANCH  15  27
ATOM     27  C   UNL A   1      28.306  28.836  23.843  1.00  0.00     0.166 C 
BRANCH  27  28
ATOM     28  C   UNL A   1      28.212  30.062  22.951  1.00  0.00    -0.028 A 
ATOM     29  C   UNL A   1      28.027  31.339  23.499  1.00  0.00     0.005 A 
ATOM     30  C   UNL A   1      28.386  29.945  21.562  1.00  0.00     0.005 A 
ATOM     31  C   UNL A   1      28.028  32.468  22.674  1.00  0.00     0.000 A 
ATOM     32  C   UNL A   1      28.410  31.074  20.745  1.00  0.00     0.000 A 
ATOM     33  C   UNL A   1      28.232  32.335  21.301  1.00  0.00     0.000 A 
ENDBRANCH  27  28
ENDBRANCH  15  27
ENDBRANCH   3   6
ENDBRANCH   1   2
BRANCH   1  34
ATOM     34  C   UNL A   1      35.924  23.797  26.104  1.00  0.00     0.042 C 
BRANCH  34  35
ATOM     35  C   UNL A   1      37.382  23.894  25.732  1.00  0.00     0.118 C 
BRANCH  35  36
ATOM     36  N   UNL A   1      38.208  22.822  26.280  1.00  0.00    -0.352 N 
ATOM     37  C   UNL A   1      39.427  22.904  26.931  1.00  0.00     0.251 C 
ATOM     38  H   UNL A   1      37.848  21.912  26.170  1.00  0.00     0.163 HD
ATOM     39  O   UNL A   1      40.115  21.897  27.061  1.00  0.00    -0.269 OA
BRANCH  37  40
ATOM     40  C   UNL A   1      39.893  24.195  27.496  1.00  0.00     0.039 A 
ATOM     41  C   UNL A   1      41.216  24.384  27.911  1.00  0.00     0.014 A 
ATOM     42  C   UNL A   1      38.978  25.229  27.670  1.00  0.00     0.014 A 
ATOM     43  C   UNL A   1      41.541  25.565  28.579  1.00  0.00     0.010 A 
ATOM     44  C   UNL A   1      39.371  26.477  28.031  1.00  0.00     0.010 A 
ATOM     45  C   UNL A   1      40.575  26.578  28.678  1.00  0.00    -0.014 A 
BRANCH  45  46
ATOM     46  C   UNL A   1      40.771  27.816  29.402  1.00  0.00     0.031 A 
ATOM     47  C   UNL A   1      41.882  28.606  28.849  1.00  0.00     0.074 A 
ATOM     48  C   UNL A   1      39.897  28.296  30.317  1.00  0.00     0.049 A 
ATOM     49  N   UNL A   1      43.052  28.752  29.365  1.00  0.00    -0.248 NA
ATOM     50  C   UNL A   1      41.757  29.108  27.471  1.00  0.00     0.031 C 
ATOM     51  C   UNL A   1      38.579  27.782  30.717  1.00  0.00     0.029 A 
ATOM     52  N   UNL A   1      39.999  29.432  31.060  1.00  0.00    -0.354 N 
ATOM     53  C   UNL A   1      43.748  29.558  28.478  1.00  0.00     0.074 A 
ATOM     54  C   UNL A   1      42.995  29.554  27.251  1.00  0.00     0.031 C 
ATOM     55  C   UNL A   1      37.932  28.706  31.469  1.00  0.00     0.029 A 
ATOM     56  C   UNL A   1      38.842  29.802  31.744  1.00  0.00     0.049 A 
ATOM     57  H   UNL A   1      40.832  29.956  31.109  1.00  0.00     0.167 HD
ATOM     58  C   UNL A   1      44.731  30.378  28.934  1.00  0.00     0.037 A 
ATOM     59  C   UNL A   1      38.676  30.944  32.465  1.00  0.00     0.037 A 
ATOM     60  C   UNL A   1      45.139  29.994  30.267  1.00  0.00     0.049 A 
ATOM     61  C   UNL A   1      40.040  31.440  32.786  1.00  0.00     0.074 A 
ATOM     62  C   UNL A   1      45.690  28.853  30.817  1.00  0.00     0.029 A 
ATOM     63  N   UNL A   1      44.598  30.692  31.318  1.00  0.00    -0.354 N 
ATOM     64  N   UNL A   1      40.866  30.823  33.584  1.00  0.00    -0.248 NA
ATOM     65  C   UNL A   1      40.646  32.370  31.847  1.00  0.00     0.031 C 
ATOM     66  C   UNL A   1      45.043  28.699  32.080  1.00  0.00     0.029 A 
ATOM     67  C   UNL A   1      44.194  29.790  32.270  1.00  0.00     0.049 A 
ATOM     68  H   UNL A   1      44.515  31.672  31.380  1.00  0.00     0.167 HD
ATOM     69  C   UNL A   1      42.103  30.949  32.971  1.00  0.00     0.074 A 
ATOM     70  C   UNL A   1      41.917  31.971  31.942  1.00  0.00     0.031 C 
ATOM     71  C   UNL A   1      43.072  30.006  33.155  1.00  0.00     0.037 A 
BRANCH  58  72
ATOM     72  C   UNL A   1      45.028  31.737  28.357  1.00  0.00     0.064 A 
ATOM     73  C   UNL A   1      44.005  32.704  28.346  1.00  0.00     0.173 A 
ATOM     74  C   UNL A   1      46.159  32.039  27.567  1.00  0.00     0.173 A 
ATOM     75  F   UNL A   1      42.873  32.508  29.038  1.00  0.00    -0.203 F 
ATOM     76  C   UNL A   1      44.082  33.848  27.551  1.00  0.00     0.198 A 
ATOM     77  C   UNL A   1      46.257  33.209  26.819  1.00  0.00     0.198 A 
ATOM     78  F   UNL A   1      47.164  31.174  27.388  1.00  0.00    -0.203 F 
ATOM     79  F   UNL A   1      43.032  34.676  27.475  1.00  0.00    -0.200 F 
ATOM     80  C   UNL A   1      45.207  34.099  26.786  1.00  0.00     0.200 A 
ATOM     81  F   UNL A   1      47.347  33.420  26.067  1.00  0.00    -0.200 F 
ATOM     82  F   UNL A   1      45.260  35.167  25.980  1.00  0.00    -0.200 F 
ENDBRANCH  58  72
BRANCH  59  83
ATOM     83  C   UNL A   1      37.492  31.833  32.598  1.00  0.00     0.064 A 
ATOM     84  C   UNL A   1      37.024  32.210  33.873  1.00  0.00     0.173 A 
ATOM     85  C   UNL A   1      37.027  32.600  31.515  1.00  0.00     0.173 A 
ATOM     86  F   UNL A   1      37.438  31.551  34.965  1.00  0.00    -0.203 F 
ATOM     87  C   UNL A   1      36.199  33.325  34.058  1.00  0.00     0.198 A 
ATOM     88  C   UNL A   1      36.198  33.712  31.701  1.00  0.00     0.198 A 
ATOM     89  F   UNL A   1      37.451  32.353  30.268  1.00  0.00    -0.203 F 
ATOM     90  F   UNL A   1      35.849  33.702  35.296  1.00  0.00    -0.200 F 
ATOM     91  C   UNL A   1      35.804  34.088  32.973  1.00  0.00     0.200 A 
ATOM     92  F   UNL A   1      35.849  34.463  30.647  1.00  0.00    -0.200 F 
ATOM     93  F   UNL A   1      35.085  35.204  33.155  1.00  0.00    -0.200 F 
ENDBRANCH  59  83
BRANCH  71  94
ATOM     94  C   UNL A   1      42.854  28.977  34.235  1.00  0.00     0.064 A 
ATOM     95  C   UNL A   1      42.092  27.805  34.076  1.00  0.00     0.173 A 
ATOM     96  C   UNL A   1      43.575  29.116  35.427  1.00  0.00     0.173 A 
ATOM     97  F   UNL A   1      41.437  27.555  32.936  1.00  0.00    -0.203 F 
ATOM     98  C   UNL A   1      42.039  26.834  35.076  1.00  0.00     0.198 A 
ATOM     99  C   UNL A   1      43.550  28.129  36.408  1.00  0.00     0.198 A 
ATOM    100  F   UNL A   1      44.354  30.192  35.617  1.00  0.00    -0.203 F 
ATOM    101  F   UNL A   1      41.304  25.725  34.901  1.00  0.00    -0.200 F 
ATOM    102  C   UNL A   1      42.778  26.992  36.237  1.00  0.00     0.200 A 
ATOM    103  F   UNL A   1      44.303  28.268  37.508  1.00  0.00    -0.200 F 
ATOM    104  F   UNL A   1      42.769  26.037  37.178  1.00  0.00    -0.200 F 
ENDBRANCH  71  94
ENDBRANCH  45  46
ENDBRANCH  37  40
ENDBRANCH  35  36
ENDBRANCH  34  35
ENDBRANCH   1  34
TORSDOF 15
ENDMDL
MODEL 3
REMARK VINA RESULT:     -12.4      4.788      7.237
REMARK SMILES Cc1c(C(=O)NCCCNC(=O)c2ccc(-c3c4nc(c(-c5c(F)c(F)c(F)c(F)c5F)c5ccc([nH]5)c(-c5c(F)c(F)c(F)c(F)c5F)c5nc(c(-c6c(F)c(F)c(F)c(F)c6F)c6ccc3[nH]6)C=C5)C=C4)cc2)sc2c1c(=O)n(Cc1ccccc1)c(=O)n2CC[NH+]1CCCCC1
REMARK SMILES IDX 7 1 6 2 4 3 5 4 3 6 1 7 2 8 78 9 76 10 77 11 79 12 91 13
REMARK SMILES IDX 80 14 81 15 89 16 90 17 92 18 93 19 94 20 95 21 99 22 96 24
REMARK SMILES IDX 98 25 97 26 82 27 83 28 84 29 88 30 85 31 87 32 86 33 8 34
REMARK SMILES IDX 9 35 10 36 11 37 12 39 13 40 14 41 75 42 15 43 74 44 16 45
REMARK SMILES IDX 17 46 18 47 68 48 19 49 73 50 67 51 69 52 20 53 72 54 66 55
REMARK SMILES IDX 65 56 21 58 53 59 33 60 52 61 34 62 37 63 51 64 70 65 35 66
REMARK SMILES IDX 36 67 50 69 71 70 38 71 22 72 23 73 31 74 24 75 25 76 29 77
REMARK SMILES IDX 32 78 26 79 27 80 30 81 28 82 54 83 55 84 63 85 56 86 57 87
REMARK SMILES IDX 61 88 64 89 58 90 59 91 62 92 60 93 39 94 40 95 48 96 41 97
REMARK SMILES IDX 42 98 46 99 49 100 43 101 44 102 47 103 45 104
REMARK H PARENT 6 5 94 23 10 38 69 57 37 68
REMARK Flexibility Score: inf
ROOT
ATOM      1  C   UNL A   1      48.705  26.026  31.283  1.00  0.00     0.118 C 
ENDROOT
BRANCH   1   2
ATOM      2  N   UNL A   1      49.285  26.257  29.952  1.00  0.00    -0.351 N 
ATOM      3  C   UNL A   1      48.805  26.599  28.697  1.00  0.00     0.261 C 
ATOM      4  O   UNL A   1      49.692  26.794  27.860  1.00  0.00    -0.268 OA
ATOM      5  H   UNL A   1      50.262  26.139  29.952  1.00  0.00     0.163 HD
BRANCH   3   6
ATOM      6  C   UNL A   1      47.389  26.618  28.326  1.00  0.00     0.098 A 
ATOM      7  C   UNL A   1      47.046  29.151  27.958  1.00  0.00     0.047 C 
ATOM      8  C   UNL A   1      46.607  27.716  27.906  1.00  0.00    -0.012 A 
ATOM      9  C   UNL A   1      45.418  27.251  27.203  1.00  0.00     0.079 A 
ATOM     10  S   UNL A   1      46.410  25.214  28.321  1.00  0.00    -0.111 S 
ATOM     11  C   UNL A   1      45.434  25.886  27.144  1.00  0.00     0.113 A 
ATOM     12  C   UNL A   1      44.442  27.925  26.377  1.00  0.00     0.265 A 
ATOM     13  N   UNL A   1      44.849  25.142  26.139  1.00  0.00    -0.279 N 
ATOM     14  O   UNL A   1      44.494  29.143  26.161  1.00  0.00    -0.268 OA
ATOM     15  N   UNL A   1      43.495  27.074  25.804  1.00  0.00    -0.255 N 
ATOM     16  C   UNL A   1      43.766  25.737  25.481  1.00  0.00     0.332 A 
ATOM     17  O   UNL A   1      43.127  25.119  24.627  1.00  0.00    -0.247 OA
BRANCH  13  18
ATOM     18  C   UNL A   1      45.460  23.922  25.566  1.00  0.00     0.189 C 
BRANCH  18  19
ATOM     19  C   UNL A   1      45.184  22.576  26.357  1.00  0.00     0.284 C 
BRANCH  19  20
ATOM     20  N   UNL A   1      43.831  22.123  26.810  1.00  0.00    -0.333 N 
ATOM     21  C   UNL A   1      43.295  22.923  27.897  1.00  0.00     0.262 C 
ATOM     22  C   UNL A   1      42.879  21.950  25.708  1.00  0.00     0.262 C 
ATOM     23  H   UNL A   1      43.975  21.190  27.197  1.00  0.00     0.348 HD
ATOM     24  C   UNL A   1      41.900  22.582  28.398  1.00  0.00     0.062 C 
ATOM     25  C   UNL A   1      41.419  21.696  26.144  1.00  0.00     0.062 C 
ATOM     26  C   UNL A   1      40.930  22.640  27.237  1.00  0.00     0.012 C 
ENDBRANCH  19  20
ENDBRANCH  18  19
ENDBRANCH  13  18
BRANCH  15  27
ATOM     27  C   UNL A   1      42.276  27.681  25.287  1.00  0.00     0.166 C 
BRANCH  27  28
ATOM     28  C   UNL A   1      41.205  27.722  26.363  1.00  0.00    -0.028 A 
ATOM     29  C   UNL A   1      40.628  28.937  26.757  1.00  0.00     0.005 A 
ATOM     30  C   UNL A   1      40.721  26.531  26.930  1.00  0.00     0.005 A 
ATOM     31  C   UNL A   1      39.583  28.953  27.687  1.00  0.00     0.000 A 
ATOM     32  C   UNL A   1      39.664  26.549  27.839  1.00  0.00     0.000 A 
ATOM     33  C   UNL A   1      39.095  27.759  28.217  1.00  0.00     0.000 A 
ENDBRANCH  27  28
ENDBRANCH  15  27
ENDBRANCH   3   6
ENDBRANCH   1   2
BRANCH   1  34
ATOM     34  C   UNL A   1      47.899  27.193  31.844  1.00  0.00     0.042 C 
BRANCH  34  35
ATOM     35  C   UNL A   1      46.622  26.787  32.536  1.00  0.00     0.118 C 
BRANCH  35  36
ATOM     36  N   UNL A   1      46.009  25.579  31.991  1.00  0.00    -0.352 N 
ATOM     37  C   UNL A   1      44.698  25.364  31.603  1.00  0.00     0.251 C 
ATOM     38  H   UNL A   1      46.614  24.809  31.885  1.00  0.00     0.163 HD
ATOM     39  O   UNL A   1      44.291  24.217  31.448  1.00  0.00    -0.269 OA
BRANCH  37  40
ATOM     40  C   UNL A   1      43.791  26.510  31.348  1.00  0.00     0.039 A 
ATOM     41  C   UNL A   1      43.215  26.729  30.092  1.00  0.00     0.014 A 
ATOM     42  C   UNL A   1      43.550  27.424  32.369  1.00  0.00     0.014 A 
ATOM     43  C   UNL A   1      42.505  27.913  29.883  1.00  0.00     0.010 A 
ATOM     44  C   UNL A   1      42.611  28.397  32.249  1.00  0.00     0.010 A 
ATOM     45  C   UNL A   1      42.268  28.763  30.974  1.00  0.00    -0.014 A 
BRANCH  45  46
ATOM     46  C   UNL A   1      41.604  30.046  30.870  1.00  0.00     0.031 A 
ATOM     47  C   UNL A   1      42.480  31.072  30.284  1.00  0.00     0.074 A 
ATOM     48  C   UNL A   1      40.276  30.221  31.064  1.00  0.00     0.049 A 
ATOM     49  N   UNL A   1      43.060  32.035  30.911  1.00  0.00    -0.248 NA
ATOM     50  C   UNL A   1      42.937  30.885  28.898  1.00  0.00     0.031 C 
ATOM     51  C   UNL A   1      39.225  29.225  31.317  1.00  0.00     0.029 A 
ATOM     52  N   UNL A   1      39.565  31.380  31.009  1.00  0.00    -0.354 N 
ATOM     53  C   UNL A   1      43.786  32.717  29.948  1.00  0.00     0.074 A 
ATOM     54  C   UNL A   1      43.855  31.849  28.802  1.00  0.00     0.031 C 
ATOM     55  C   UNL A   1      38.003  29.800  31.190  1.00  0.00     0.029 A 
ATOM     56  C   UNL A   1      38.179  31.229  31.014  1.00  0.00     0.049 A 
ATOM     57  H   UNL A   1      40.000  32.263  30.968  1.00  0.00     0.167 HD
ATOM     58  C   UNL A   1      44.019  34.049  30.090  1.00  0.00     0.037 A 
ATOM     59  C   UNL A   1      37.270  32.231  30.867  1.00  0.00     0.037 A 
ATOM     60  C   UNL A   1      43.763  34.470  31.448  1.00  0.00     0.049 A 
ATOM     61  C   UNL A   1      37.981  33.495  31.193  1.00  0.00     0.074 A 
ATOM     62  C   UNL A   1      44.296  34.139  32.679  1.00  0.00     0.029 A 
ATOM     63  N   UNL A   1      42.544  35.045  31.712  1.00  0.00    -0.354 N 
ATOM     64  N   UNL A   1      38.413  33.796  32.385  1.00  0.00    -0.248 NA
ATOM     65  C   UNL A   1      38.623  34.199  30.094  1.00  0.00     0.031 C 
ATOM     66  C   UNL A   1      43.181  34.100  33.569  1.00  0.00     0.029 A 
ATOM     67  C   UNL A   1      42.043  34.483  32.858  1.00  0.00     0.049 A 
ATOM     68  H   UNL A   1      42.105  35.743  31.172  1.00  0.00     0.167 HD
ATOM     69  C   UNL A   1      39.650  34.384  32.171  1.00  0.00     0.074 A 
ATOM     70  C   UNL A   1      39.694  34.668  30.737  1.00  0.00     0.031 C 
ATOM     71  C   UNL A   1      40.632  34.309  33.116  1.00  0.00     0.037 A 
BRANCH  58  72
ATOM     72  C   UNL A   1      44.079  35.019  28.939  1.00  0.00     0.064 A 
ATOM     73  C   UNL A   1      45.266  35.746  28.731  1.00  0.00     0.173 A 
ATOM     74  C   UNL A   1      42.953  35.472  28.216  1.00  0.00     0.173 A 
ATOM     75  F   UNL A   1      46.390  35.421  29.386  1.00  0.00    -0.203 F 
ATOM     76  C   UNL A   1      45.302  36.881  27.918  1.00  0.00     0.198 A 
ATOM     77  C   UNL A   1      43.007  36.570  27.362  1.00  0.00     0.198 A 
ATOM     78  F   UNL A   1      41.732  34.955  28.389  1.00  0.00    -0.203 F 
ATOM     79  F   UNL A   1      46.420  37.614  27.851  1.00  0.00    -0.200 F 
ATOM     80  C   UNL A   1      44.172  37.293  27.236  1.00  0.00     0.200 A 
ATOM     81  F   UNL A   1      41.893  36.966  26.730  1.00  0.00    -0.200 F 
ATOM     82  F   UNL A   1      44.188  38.412  26.501  1.00  0.00    -0.200 F 
ENDBRANCH  58  72
BRANCH  59  83
ATOM     83  C   UNL A   1      35.974  32.254  30.139  1.00  0.00     0.064 A 
ATOM     84  C   UNL A   1      35.018  33.250  30.418  1.00  0.00     0.173 A 
ATOM     85  C   UNL A   1      35.794  31.540  28.940  1.00  0.00     0.173 A 
ATOM     86  F   UNL A   1      35.128  33.999  31.525  1.00  0.00    -0.203 F 
ATOM     87  C   UNL A   1      33.989  33.560  29.521  1.00  0.00     0.198 A 
ATOM     88  C   UNL A   1      34.763  31.848  28.047  1.00  0.00     0.198 A 
ATOM     89  F   UNL A   1      36.676  30.605  28.561  1.00  0.00    -0.203 F 
ATOM     90  F   UNL A   1      33.154  34.576  29.783  1.00  0.00    -0.200 F 
ATOM     91  C   UNL A   1      33.875  32.873  28.325  1.00  0.00     0.200 A 
ATOM     92  F   UNL A   1      34.682  31.198  26.877  1.00  0.00    -0.200 F 
ATOM     93  F   UNL A   1      32.945  33.223  27.427  1.00  0.00    -0.200 F 
ENDBRANCH  59  83
BRANCH  71  94
ATOM     94  C   UNL A   1      40.250  33.806  34.485  1.00  0.00     0.064 A 
ATOM     95  C   UNL A   1      40.360  32.466  34.899  1.00  0.00     0.173 A 
ATOM     96  C   UNL A   1      39.905  34.752  35.458  1.00  0.00     0.173 A 
ATOM     97  F   UNL A   1      40.763  31.512  34.053  1.00  0.00    -0.203 F 
ATOM     98  C   UNL A   1      40.111  32.093  36.221  1.00  0.00     0.198 A 
ATOM     99  C   UNL A   1      39.693  34.384  36.784  1.00  0.00     0.198 A 
ATOM    100  F   UNL A   1      39.827  36.051  35.131  1.00  0.00    -0.203 F 
ATOM    101  F   UNL A   1      40.222  30.809  36.592  1.00  0.00    -0.200 F 
ATOM    102  C   UNL A   1      39.790  33.055  37.164  1.00  0.00     0.200 A 
ATOM    103  F   UNL A   1      39.426  35.325  37.700  1.00  0.00    -0.200 F 
ATOM    104  F   UNL A   1      39.599  32.707  38.445  1.00  0.00    -0.200 F 
ENDBRANCH  71  94
ENDBRANCH  45  46
ENDBRANCH  37  40
ENDBRANCH  35  36
ENDBRANCH  34  35
ENDBRANCH   1  34
TORSDOF 15
ENDMDL
