MODEL 1
REMARK VINA RESULT:     -12.5      0.000      0.000
REMARK SMILES CC(C)(C)OC(=O)N1C[C@H](Oc2ccncc2)C[C@H]1C(=O)NCCCNC(=O)c1ccc(-c2c3nc(c(-c4c(F)c(F)c(F)c(F)c4F)c4ccc([nH]4)c(-c4c(F)c(F)c(F)c(F)c4F)c4nc(c(-c5c(F)c(F)c(F)c(F)c5F)c5ccc2[nH]5)C=C4)C=C3)cc1
REMARK SMILES IDX 23 1 22 2 20 3 21 4 19 6 8 7 9 8 10 9 18 10 6 11 7 12 5 13
REMARK SMILES IDX 2 14 1 15 3 16 4 17 11 18 12 19 13 20 17 21 14 22 16 23
REMARK SMILES IDX 15 24 24 25 25 26 26 27 27 28 28 30 29 31 30 32 91 33 31 34
REMARK SMILES IDX 90 35 32 36 33 37 34 38 84 39 35 40 89 41 83 42 85 43 36 44
REMARK SMILES IDX 88 45 82 46 81 47 37 49 69 50 49 51 68 52 50 53 53 54 67 55
REMARK SMILES IDX 86 56 51 57 52 58 66 60 87 61 54 62 38 63 39 64 47 65 40 66
REMARK SMILES IDX 41 67 45 68 48 69 42 70 43 71 46 72 44 73 70 74 71 75 79 76
REMARK SMILES IDX 72 77 73 78 77 79 80 80 74 81 75 82 78 83 76 84 55 85 56 86
REMARK SMILES IDX 64 87 57 88 58 89 62 90 65 91 59 92 60 93 63 94 61 95
REMARK H PARENT 22 5 26 29 85 48 53 59
REMARK Flexibility Score: inf
ROOT
ATOM      1  C   UNL A   1      31.744  30.295  26.129  1.00  0.00     0.117 C 
ENDROOT
BRANCH   1   2
ATOM      2  N   UNL A   1      32.852  30.057  25.213  1.00  0.00    -0.354 N 
ATOM      3  C   UNL A   1      32.905  29.201  24.144  1.00  0.00     0.243 C 
ATOM      4  O   UNL A   1      33.803  29.372  23.316  1.00  0.00    -0.273 OA
ATOM      5  H   UNL A   1      33.669  30.578  25.386  1.00  0.00     0.163 HD
BRANCH   3   6
ATOM      6  C   UNL A   1      31.842  28.096  23.991  1.00  0.00     0.181 C 
ATOM      7  N   UNL A   1      31.110  28.123  22.722  1.00  0.00    -0.292 N 
ATOM      8  C   UNL A   1      31.157  26.846  22.032  1.00  0.00     0.169 C 
ATOM      9  C   UNL A   1      31.681  25.850  23.064  1.00  0.00     0.195 C 
ATOM     10  C   UNL A   1      32.505  26.705  24.029  1.00  0.00     0.082 C 
BRANCH   7  11
ATOM     11  C   UNL A   1      30.276  29.164  22.411  1.00  0.00     0.411 C 
ATOM     12  O   UNL A   1      30.445  29.894  21.448  1.00  0.00    -0.224 OA
BRANCH  11  13
ATOM     13  O   UNL A   1      29.315  29.366  23.347  1.00  0.00    -0.444 OA
BRANCH  13  14
ATOM     14  C   UNL A   1      27.988  29.775  22.909  1.00  0.00     0.106 C 
ATOM     15  C   UNL A   1      27.708  31.077  23.672  1.00  0.00     0.056 C 
ATOM     16  C   UNL A   1      26.941  28.727  23.297  1.00  0.00     0.056 C 
ATOM     17  C   UNL A   1      27.935  30.095  21.402  1.00  0.00     0.056 C 
ENDBRANCH  13  14
ENDBRANCH  11  13
ENDBRANCH   7  11
BRANCH   9  18
ATOM     18  O   UNL A   1      30.689  25.000  23.664  1.00  0.00    -0.488 OA
BRANCH  18  19
ATOM     19  C   UNL A   1      31.070  23.753  24.059  1.00  0.00     0.122 A 
ATOM     20  C   UNL A   1      31.794  22.925  23.216  1.00  0.00     0.066 A 
ATOM     21  C   UNL A   1      30.860  23.380  25.380  1.00  0.00     0.066 A 
ATOM     22  C   UNL A   1      32.211  21.701  23.710  1.00  0.00     0.115 A 
ATOM     23  C   UNL A   1      31.320  22.138  25.784  1.00  0.00     0.115 A 
ATOM     24  N   UNL A   1      31.972  21.281  24.971  1.00  0.00    -0.264 NA
ENDBRANCH  18  19
ENDBRANCH   9  18
ENDBRANCH   3   6
ENDBRANCH   1   2
BRANCH   1  25
ATOM     25  C   UNL A   1      31.500  31.765  26.416  1.00  0.00     0.042 C 
BRANCH  25  26
ATOM     26  C   UNL A   1      32.650  32.452  27.142  1.00  0.00     0.118 C 
BRANCH  26  27
ATOM     27  N   UNL A   1      32.373  33.840  27.497  1.00  0.00    -0.352 N 
ATOM     28  C   UNL A   1      32.963  34.662  28.425  1.00  0.00     0.251 C 
ATOM     29  H   UNL A   1      31.641  34.255  26.987  1.00  0.00     0.163 HD
ATOM     30  O   UNL A   1      32.487  35.771  28.654  1.00  0.00    -0.269 OA
BRANCH  28  31
ATOM     31  C   UNL A   1      34.151  34.212  29.180  1.00  0.00     0.039 A 
ATOM     32  C   UNL A   1      33.964  33.501  30.370  1.00  0.00     0.014 A 
ATOM     33  C   UNL A   1      35.442  34.485  28.727  1.00  0.00     0.014 A 
ATOM     34  C   UNL A   1      35.068  32.993  31.055  1.00  0.00     0.010 A 
ATOM     35  C   UNL A   1      36.535  33.903  29.358  1.00  0.00     0.010 A 
ATOM     36  C   UNL A   1      36.359  33.150  30.528  1.00  0.00    -0.014 A 
BRANCH  36  37
ATOM     37  C   UNL A   1      37.543  32.542  31.184  1.00  0.00     0.031 A 
ATOM     38  C   UNL A   1      38.301  31.441  30.498  1.00  0.00     0.074 A 
ATOM     39  C   UNL A   1      37.882  32.922  32.432  1.00  0.00     0.049 A 
ATOM     40  N   UNL A   1      39.289  30.711  30.948  1.00  0.00    -0.248 NA
ATOM     41  C   UNL A   1      37.866  31.090  29.137  1.00  0.00     0.031 C 
ATOM     42  C   UNL A   1      37.186  33.935  33.228  1.00  0.00     0.029 A 
ATOM     43  N   UNL A   1      38.890  32.488  33.255  1.00  0.00    -0.354 N 
ATOM     44  C   UNL A   1      39.568  29.795  29.942  1.00  0.00     0.074 A 
ATOM     45  C   UNL A   1      38.621  30.033  28.876  1.00  0.00     0.031 C 
ATOM     46  C   UNL A   1      37.805  34.062  34.413  1.00  0.00     0.029 A 
ATOM     47  C   UNL A   1      38.916  33.119  34.473  1.00  0.00     0.049 A 
ATOM     48  H   UNL A   1      39.535  31.790  32.995  1.00  0.00     0.167 HD
ATOM     49  C   UNL A   1      40.541  28.853  29.904  1.00  0.00     0.037 A 
ATOM     50  C   UNL A   1      39.746  32.955  35.520  1.00  0.00     0.037 A 
ATOM     51  C   UNL A   1      41.517  28.655  30.941  1.00  0.00     0.049 A 
ATOM     52  C   UNL A   1      40.851  31.942  35.429  1.00  0.00     0.074 A 
ATOM     53  C   UNL A   1      42.592  27.783  30.962  1.00  0.00     0.029 A 
ATOM     54  N   UNL A   1      41.542  29.350  32.141  1.00  0.00    -0.354 N 
ATOM     55  N   UNL A   1      41.141  31.120  34.451  1.00  0.00    -0.248 NA
ATOM     56  C   UNL A   1      41.750  31.837  36.589  1.00  0.00     0.031 C 
ATOM     57  C   UNL A   1      43.254  27.936  32.185  1.00  0.00     0.029 A 
ATOM     58  C   UNL A   1      42.609  28.921  32.913  1.00  0.00     0.049 A 
ATOM     59  H   UNL A   1      40.896  30.046  32.405  1.00  0.00     0.167 HD
ATOM     60  C   UNL A   1      42.262  30.414  34.865  1.00  0.00     0.074 A 
ATOM     61  C   UNL A   1      42.610  30.915  36.178  1.00  0.00     0.031 C 
ATOM     62  C   UNL A   1      42.939  29.437  34.216  1.00  0.00     0.037 A 
BRANCH  49  63
ATOM     63  C   UNL A   1      40.601  27.976  28.691  1.00  0.00     0.064 A 
ATOM     64  C   UNL A   1      41.353  28.334  27.563  1.00  0.00     0.173 A 
ATOM     65  C   UNL A   1      39.918  26.751  28.665  1.00  0.00     0.173 A 
ATOM     66  F   UNL A   1      42.011  29.503  27.535  1.00  0.00    -0.203 F 
ATOM     67  C   UNL A   1      41.395  27.512  26.440  1.00  0.00     0.198 A 
ATOM     68  C   UNL A   1      39.983  25.919  27.549  1.00  0.00     0.198 A 
ATOM     69  F   UNL A   1      39.187  26.360  29.720  1.00  0.00    -0.203 F 
ATOM     70  F   UNL A   1      42.082  27.899  25.355  1.00  0.00    -0.200 F 
ATOM     71  C   UNL A   1      40.715  26.304  26.436  1.00  0.00     0.200 A 
ATOM     72  F   UNL A   1      39.332  24.748  27.548  1.00  0.00    -0.200 F 
ATOM     73  F   UNL A   1      40.759  25.513  25.355  1.00  0.00    -0.200 F 
ENDBRANCH  49  63
BRANCH  50  74
ATOM     74  C   UNL A   1      39.582  33.797  36.731  1.00  0.00     0.064 A 
ATOM     75  C   UNL A   1      38.833  33.337  37.823  1.00  0.00     0.173 A 
ATOM     76  C   UNL A   1      40.172  35.064  36.827  1.00  0.00     0.173 A 
ATOM     77  F   UNL A   1      38.234  32.139  37.766  1.00  0.00    -0.203 F 
ATOM     78  C   UNL A   1      38.666  34.123  38.961  1.00  0.00     0.198 A 
ATOM     79  C   UNL A   1      40.022  35.840  37.974  1.00  0.00     0.198 A 
ATOM     80  F   UNL A   1      40.902  35.544  35.810  1.00  0.00    -0.203 F 
ATOM     81  F   UNL A   1      37.915  33.675  39.976  1.00  0.00    -0.200 F 
ATOM     82  C   UNL A   1      39.264  35.371  39.038  1.00  0.00     0.200 A 
ATOM     83  F   UNL A   1      40.609  37.041  38.051  1.00  0.00    -0.200 F 
ATOM     84  F   UNL A   1      39.106  36.125  40.134  1.00  0.00    -0.200 F 
ENDBRANCH  50  74
BRANCH  62  85
ATOM     85  C   UNL A   1      44.135  28.861  34.911  1.00  0.00     0.064 A 
ATOM     86  C   UNL A   1      45.408  29.426  34.758  1.00  0.00     0.173 A 
ATOM     87  C   UNL A   1      43.997  27.757  35.765  1.00  0.00     0.173 A 
ATOM     88  F   UNL A   1      45.590  30.472  33.938  1.00  0.00    -0.203 F 
ATOM     89  C   UNL A   1      46.509  28.890  35.422  1.00  0.00     0.198 A 
ATOM     90  C   UNL A   1      45.096  27.239  36.444  1.00  0.00     0.198 A 
ATOM     91  F   UNL A   1      42.796  27.187  35.946  1.00  0.00    -0.203 F 
ATOM     92  F   UNL A   1      47.725  29.420  35.233  1.00  0.00    -0.200 F 
ATOM     93  C   UNL A   1      46.351  27.803  36.267  1.00  0.00     0.200 A 
ATOM     94  F   UNL A   1      44.942  26.193  37.266  1.00  0.00    -0.200 F 
ATOM     95  F   UNL A   1      47.411  27.292  36.908  1.00  0.00    -0.200 F 
ENDBRANCH  62  85
ENDBRANCH  36  37
ENDBRANCH  28  31
ENDBRANCH  26  27
ENDBRANCH  25  26
ENDBRANCH   1  25
TORSDOF 15
ENDMDL
MODEL 2
REMARK VINA RESULT:     -12.4      0.519      7.154
REMARK SMILES CC(C)(C)OC(=O)N1C[C@H](Oc2ccncc2)C[C@H]1C(=O)NCCCNC(=O)c1ccc(-c2c3nc(c(-c4c(F)c(F)c(F)c(F)c4F)c4ccc([nH]4)c(-c4c(F)c(F)c(F)c(F)c4F)c4nc(c(-c5c(F)c(F)c(F)c(F)c5F)c5ccc2[nH]5)C=C4)C=C3)cc1
REMARK SMILES IDX 23 1 22 2 20 3 21 4 19 6 8 7 9 8 10 9 18 10 6 11 7 12 5 13
REMARK SMILES IDX 2 14 1 15 3 16 4 17 11 18 12 19 13 20 17 21 14 22 16 23
REMARK SMILES IDX 15 24 24 25 25 26 26 27 27 28 28 30 29 31 30 32 91 33 31 34
REMARK SMILES IDX 90 35 32 36 33 37 34 38 84 39 35 40 89 41 83 42 85 43 36 44
REMARK SMILES IDX 88 45 82 46 81 47 37 49 69 50 49 51 68 52 50 53 53 54 67 55
REMARK SMILES IDX 86 56 51 57 52 58 66 60 87 61 54 62 38 63 39 64 47 65 40 66
REMARK SMILES IDX 41 67 45 68 48 69 42 70 43 71 46 72 44 73 70 74 71 75 79 76
REMARK SMILES IDX 72 77 73 78 77 79 80 80 74 81 75 82 78 83 76 84 55 85 56 86
REMARK SMILES IDX 64 87 57 88 58 89 62 90 65 91 59 92 60 93 63 94 61 95
REMARK H PARENT 22 5 26 29 85 48 53 59
REMARK Flexibility Score: inf
ROOT
ATOM      1  C   UNL A   1      31.493  30.362  26.025  1.00  0.00     0.117 C 
ENDROOT
BRANCH   1   2
ATOM      2  N   UNL A   1      32.681  30.080  25.231  1.00  0.00    -0.354 N 
ATOM      3  C   UNL A   1      32.828  29.181  24.207  1.00  0.00     0.243 C 
ATOM      4  O   UNL A   1      33.803  29.313  23.463  1.00  0.00    -0.273 OA
ATOM      5  H   UNL A   1      33.482  30.605  25.459  1.00  0.00     0.163 HD
BRANCH   3   6
ATOM      6  C   UNL A   1      31.775  28.076  23.999  1.00  0.00     0.181 C 
ATOM      7  N   UNL A   1      31.082  28.127  22.709  1.00  0.00    -0.292 N 
ATOM      8  C   UNL A   1      31.155  26.865  21.994  1.00  0.00     0.169 C 
ATOM      9  C   UNL A   1      31.651  25.849  23.020  1.00  0.00     0.195 C 
ATOM     10  C   UNL A   1      32.442  26.686  24.028  1.00  0.00     0.082 C 
BRANCH   7  11
ATOM     11  C   UNL A   1      30.253  29.172  22.396  1.00  0.00     0.411 C 
ATOM     12  O   UNL A   1      30.414  29.885  21.419  1.00  0.00    -0.224 OA
BRANCH  11  13
ATOM     13  O   UNL A   1      29.308  29.397  23.343  1.00  0.00    -0.444 OA
BRANCH  13  14
ATOM     14  C   UNL A   1      27.969  29.775  22.917  1.00  0.00     0.106 C 
ATOM     15  C   UNL A   1      27.680  31.089  23.654  1.00  0.00     0.056 C 
ATOM     16  C   UNL A   1      26.945  28.720  23.346  1.00  0.00     0.056 C 
ATOM     17  C   UNL A   1      27.886  30.058  21.404  1.00  0.00     0.056 C 
ENDBRANCH  13  14
ENDBRANCH  11  13
ENDBRANCH   7  11
BRANCH   9  18
ATOM     18  O   UNL A   1      30.645  24.983  23.571  1.00  0.00    -0.488 OA
BRANCH  18  19
ATOM     19  C   UNL A   1      31.035  23.760  24.028  1.00  0.00     0.122 A 
ATOM     20  C   UNL A   1      31.758  22.893  23.223  1.00  0.00     0.066 A 
ATOM     21  C   UNL A   1      30.835  23.454  25.368  1.00  0.00     0.066 A 
ATOM     22  C   UNL A   1      32.183  21.698  23.777  1.00  0.00     0.115 A 
ATOM     23  C   UNL A   1      31.303  22.237  25.832  1.00  0.00     0.115 A 
ATOM     24  N   UNL A   1      31.954  21.342  25.060  1.00  0.00    -0.264 NA
ENDBRANCH  18  19
ENDBRANCH   9  18
ENDBRANCH   3   6
ENDBRANCH   1   2
BRANCH   1  25
ATOM     25  C   UNL A   1      31.352  31.823  26.409  1.00  0.00     0.042 C 
BRANCH  25  26
ATOM     26  C   UNL A   1      32.574  32.399  27.113  1.00  0.00     0.118 C 
BRANCH  26  27
ATOM     27  N   UNL A   1      32.430  33.801  27.486  1.00  0.00    -0.352 N 
ATOM     28  C   UNL A   1      33.102  34.555  28.417  1.00  0.00     0.251 C 
ATOM     29  H   UNL A   1      31.735  34.289  26.988  1.00  0.00     0.163 HD
ATOM     30  O   UNL A   1      32.732  35.700  28.662  1.00  0.00    -0.269 OA
BRANCH  28  31
ATOM     31  C   UNL A   1      34.250  33.988  29.156  1.00  0.00     0.039 A 
ATOM     32  C   UNL A   1      34.012  32.995  30.111  1.00  0.00     0.014 A 
ATOM     33  C   UNL A   1      35.553  34.428  28.916  1.00  0.00     0.014 A 
ATOM     34  C   UNL A   1      35.087  32.385  30.759  1.00  0.00     0.010 A 
ATOM     35  C   UNL A   1      36.626  33.759  29.493  1.00  0.00     0.010 A 
ATOM     36  C   UNL A   1      36.404  32.731  30.420  1.00  0.00    -0.014 A 
BRANCH  36  37
ATOM     37  C   UNL A   1      37.568  32.036  31.024  1.00  0.00     0.031 A 
ATOM     38  C   UNL A   1      38.046  32.421  32.395  1.00  0.00     0.074 A 
ATOM     39  C   UNL A   1      38.244  31.120  30.303  1.00  0.00     0.049 A 
ATOM     40  N   UNL A   1      39.105  32.013  33.048  1.00  0.00    -0.248 NA
ATOM     41  C   UNL A   1      37.249  33.429  33.113  1.00  0.00     0.031 C 
ATOM     42  C   UNL A   1      37.916  30.705  28.938  1.00  0.00     0.029 A 
ATOM     43  N   UNL A   1      39.357  30.382  30.616  1.00  0.00    -0.354 N 
ATOM     44  C   UNL A   1      39.117  32.737  34.233  1.00  0.00     0.074 A 
ATOM     45  C   UNL A   1      37.987  33.638  34.194  1.00  0.00     0.031 C 
ATOM     46  C   UNL A   1      38.793  29.769  28.541  1.00  0.00     0.029 A 
ATOM     47  C   UNL A   1      39.762  29.542  29.608  1.00  0.00     0.049 A 
ATOM     48  H   UNL A   1      39.822  30.449  31.482  1.00  0.00     0.167 HD
ATOM     49  C   UNL A   1      39.983  32.642  35.271  1.00  0.00     0.037 A 
ATOM     50  C   UNL A   1      40.798  28.686  29.554  1.00  0.00     0.037 A 
ATOM     51  C   UNL A   1      41.073  31.707  35.333  1.00  0.00     0.049 A 
ATOM     52  C   UNL A   1      41.711  28.560  30.741  1.00  0.00     0.074 A 
ATOM     53  C   UNL A   1      41.957  31.477  36.373  1.00  0.00     0.029 A 
ATOM     54  N   UNL A   1      41.421  30.835  34.312  1.00  0.00    -0.354 N 
ATOM     55  N   UNL A   1      41.680  29.209  31.879  1.00  0.00    -0.248 NA
ATOM     56  C   UNL A   1      42.800  27.578  30.637  1.00  0.00     0.031 C 
ATOM     57  C   UNL A   1      42.853  30.480  35.971  1.00  0.00     0.029 A 
ATOM     58  C   UNL A   1      42.511  30.071  34.693  1.00  0.00     0.049 A 
ATOM     59  H   UNL A   1      40.960  30.769  33.443  1.00  0.00     0.167 HD
ATOM     60  C   UNL A   1      42.730  28.704  32.633  1.00  0.00     0.074 A 
ATOM     61  C   UNL A   1      43.370  27.684  31.829  1.00  0.00     0.031 C 
ATOM     62  C   UNL A   1      43.129  29.058  33.878  1.00  0.00     0.037 A 
BRANCH  49  63
ATOM     63  C   UNL A   1      39.773  33.570  36.428  1.00  0.00     0.064 A 
ATOM     64  C   UNL A   1      40.404  34.822  36.488  1.00  0.00     0.173 A 
ATOM     65  C   UNL A   1      38.915  33.214  37.479  1.00  0.00     0.173 A 
ATOM     66  F   UNL A   1      41.246  35.200  35.514  1.00  0.00    -0.203 F 
ATOM     67  C   UNL A   1      40.205  35.672  37.573  1.00  0.00     0.198 A 
ATOM     68  C   UNL A   1      38.699  34.078  38.550  1.00  0.00     0.198 A 
ATOM     69  F   UNL A   1      38.286  32.029  37.468  1.00  0.00    -0.203 F 
ATOM     70  F   UNL A   1      40.856  36.842  37.631  1.00  0.00    -0.200 F 
ATOM     71  C   UNL A   1      39.350  35.302  38.600  1.00  0.00     0.200 A 
ATOM     72  F   UNL A   1      37.867  33.723  39.539  1.00  0.00    -0.200 F 
ATOM     73  F   UNL A   1      39.159  36.122  39.642  1.00  0.00    -0.200 F 
ENDBRANCH  49  63
BRANCH  50  74
ATOM     74  C   UNL A   1      41.005  27.853  28.343  1.00  0.00     0.064 A 
ATOM     75  C   UNL A   1      40.374  26.607  28.219  1.00  0.00     0.173 A 
ATOM     76  C   UNL A   1      41.824  28.282  27.290  1.00  0.00     0.173 A 
ATOM     77  F   UNL A   1      39.597  26.149  29.211  1.00  0.00    -0.203 F 
ATOM     78  C   UNL A   1      40.567  25.814  27.090  1.00  0.00     0.198 A 
ATOM     79  C   UNL A   1      42.000  27.497  26.153  1.00  0.00     0.198 A 
ATOM     80  F   UNL A   1      42.444  29.468  27.363  1.00  0.00    -0.203 F 
ATOM     81  F   UNL A   1      39.981  24.612  27.011  1.00  0.00    -0.200 F 
ATOM     82  C   UNL A   1      41.376  26.261  26.057  1.00  0.00     0.200 A 
ATOM     83  F   UNL A   1      42.774  27.934  25.152  1.00  0.00    -0.200 F 
ATOM     84  F   UNL A   1      41.560  25.499  24.970  1.00  0.00    -0.200 F 
ENDBRANCH  50  74
BRANCH  62  85
ATOM     85  C   UNL A   1      44.301  28.320  34.452  1.00  0.00     0.064 A 
ATOM     86  C   UNL A   1      45.608  28.806  34.310  1.00  0.00     0.173 A 
ATOM     87  C   UNL A   1      44.108  27.138  35.180  1.00  0.00     0.173 A 
ATOM     88  F   UNL A   1      45.841  29.925  33.607  1.00  0.00    -0.203 F 
ATOM     89  C   UNL A   1      46.686  28.119  34.861  1.00  0.00     0.198 A 
ATOM     90  C   UNL A   1      45.187  26.466  35.748  1.00  0.00     0.198 A 
ATOM     91  F   UNL A   1      42.874  26.638  35.346  1.00  0.00    -0.203 F 
ATOM     92  F   UNL A   1      47.932  28.579  34.682  1.00  0.00    -0.200 F 
ATOM     93  C   UNL A   1      46.474  26.955  35.584  1.00  0.00     0.200 A 
ATOM     94  F   UNL A   1      44.982  25.345  36.452  1.00  0.00    -0.200 F 
ATOM     95  F   UNL A   1      47.514  26.298  36.116  1.00  0.00    -0.200 F 
ENDBRANCH  62  85
ENDBRANCH  36  37
ENDBRANCH  28  31
ENDBRANCH  26  27
ENDBRANCH  25  26
ENDBRANCH   1  25
TORSDOF 15
ENDMDL
MODEL 3
REMARK VINA RESULT:     -12.3      5.405     11.026
REMARK SMILES CC(C)(C)OC(=O)N1C[C@H](Oc2ccncc2)C[C@H]1C(=O)NCCCNC(=O)c1ccc(-c2c3nc(c(-c4c(F)c(F)c(F)c(F)c4F)c4ccc([nH]4)c(-c4c(F)c(F)c(F)c(F)c4F)c4nc(c(-c5c(F)c(F)c(F)c(F)c5F)c5ccc2[nH]5)C=C4)C=C3)cc1
REMARK SMILES IDX 23 1 22 2 20 3 21 4 19 6 8 7 9 8 10 9 18 10 6 11 7 12 5 13
REMARK SMILES IDX 2 14 1 15 3 16 4 17 11 18 12 19 13 20 17 21 14 22 16 23
REMARK SMILES IDX 15 24 24 25 25 26 26 27 27 28 28 30 29 31 30 32 91 33 31 34
REMARK SMILES IDX 90 35 32 36 33 37 34 38 84 39 35 40 89 41 83 42 85 43 36 44
REMARK SMILES IDX 88 45 82 46 81 47 37 49 69 50 49 51 68 52 50 53 53 54 67 55
REMARK SMILES IDX 86 56 51 57 52 58 66 60 87 61 54 62 38 63 39 64 47 65 40 66
REMARK SMILES IDX 41 67 45 68 48 69 42 70 43 71 46 72 44 73 70 74 71 75 79 76
REMARK SMILES IDX 72 77 73 78 77 79 80 80 74 81 75 82 78 83 76 84 55 85 56 86
REMARK SMILES IDX 64 87 57 88 58 89 62 90 65 91 59 92 60 93 63 94 61 95
REMARK H PARENT 22 5 26 29 85 48 53 59
REMARK Flexibility Score: inf
ROOT
ATOM      1  C   UNL A   1      36.656  21.405  24.994  1.00  0.00     0.117 C 
ENDROOT
BRANCH   1   2
ATOM      2  N   UNL A   1      35.876  21.307  26.220  1.00  0.00    -0.354 N 
ATOM      3  C   UNL A   1      34.567  21.655  26.429  1.00  0.00     0.243 C 
ATOM      4  O   UNL A   1      34.008  21.208  27.433  1.00  0.00    -0.273 OA
ATOM      5  H   UNL A   1      36.353  20.944  27.002  1.00  0.00     0.163 HD
BRANCH   3   6
ATOM      6  C   UNL A   1      33.837  22.546  25.405  1.00  0.00     0.181 C 
ATOM      7  N   UNL A   1      32.545  22.025  24.953  1.00  0.00    -0.292 N 
ATOM      8  C   UNL A   1      31.472  22.989  25.124  1.00  0.00     0.169 C 
ATOM      9  C   UNL A   1      32.167  24.319  25.408  1.00  0.00     0.195 C 
ATOM     10  C   UNL A   1      33.509  23.918  26.026  1.00  0.00     0.082 C 
BRANCH   7  11
ATOM     11  C   UNL A   1      32.468  20.873  24.216  1.00  0.00     0.411 C 
ATOM     12  O   UNL A   1      32.511  20.853  22.997  1.00  0.00    -0.224 OA
BRANCH  11  13
ATOM     13  O   UNL A   1      32.223  19.776  24.977  1.00  0.00    -0.444 OA
BRANCH  13  14
ATOM     14  C   UNL A   1      32.850  18.516  24.605  1.00  0.00     0.106 C 
ATOM     15  C   UNL A   1      32.513  17.558  25.757  1.00  0.00     0.056 C 
ATOM     16  C   UNL A   1      34.370  18.673  24.508  1.00  0.00     0.056 C 
ATOM     17  C   UNL A   1      32.260  17.920  23.313  1.00  0.00     0.056 C 
ENDBRANCH  13  14
ENDBRANCH  11  13
ENDBRANCH   7  11
BRANCH   9  18
ATOM     18  O   UNL A   1      32.230  25.234  24.302  1.00  0.00    -0.488 OA
BRANCH  18  19
ATOM     19  C   UNL A   1      32.421  26.554  24.575  1.00  0.00     0.122 A 
ATOM     20  C   UNL A   1      33.624  27.180  24.283  1.00  0.00     0.066 A 
ATOM     21  C   UNL A   1      31.338  27.309  25.007  1.00  0.00     0.066 A 
ATOM     22  C   UNL A   1      33.721  28.540  24.520  1.00  0.00     0.115 A 
ATOM     23  C   UNL A   1      31.531  28.664  25.209  1.00  0.00     0.115 A 
ATOM     24  N   UNL A   1      32.707  29.293  24.996  1.00  0.00    -0.264 NA
ENDBRANCH  18  19
ENDBRANCH   9  18
ENDBRANCH   3   6
ENDBRANCH   1   2
BRANCH   1  25
ATOM     25  C   UNL A   1      37.764  20.373  24.894  1.00  0.00     0.042 C 
BRANCH  25  26
ATOM     26  C   UNL A   1      38.856  20.535  25.943  1.00  0.00     0.118 C 
BRANCH  26  27
ATOM     27  N   UNL A   1      39.863  19.480  25.909  1.00  0.00    -0.352 N 
ATOM     28  C   UNL A   1      41.229  19.540  26.044  1.00  0.00     0.251 C 
ATOM     29  H   UNL A   1      39.505  18.575  25.764  1.00  0.00     0.163 HD
ATOM     30  O   UNL A   1      41.909  18.535  25.855  1.00  0.00    -0.269 OA
BRANCH  28  31
ATOM     31  C   UNL A   1      41.895  20.815  26.384  1.00  0.00     0.039 A 
ATOM     32  C   UNL A   1      42.182  21.720  25.357  1.00  0.00     0.014 A 
ATOM     33  C   UNL A   1      42.239  21.123  27.701  1.00  0.00     0.014 A 
ATOM     34  C   UNL A   1      42.732  22.965  25.664  1.00  0.00     0.010 A 
ATOM     35  C   UNL A   1      42.702  22.395  28.016  1.00  0.00     0.010 A 
ATOM     36  C   UNL A   1      42.953  23.329  27.001  1.00  0.00    -0.014 A 
BRANCH  36  37
ATOM     37  C   UNL A   1      43.450  24.679  27.364  1.00  0.00     0.031 A 
ATOM     38  C   UNL A   1      42.511  25.693  27.954  1.00  0.00     0.074 A 
ATOM     39  C   UNL A   1      44.723  25.017  27.084  1.00  0.00     0.049 A 
ATOM     40  N   UNL A   1      42.724  26.954  28.235  1.00  0.00    -0.248 NA
ATOM     41  C   UNL A   1      41.139  25.239  28.229  1.00  0.00     0.031 C 
ATOM     42  C   UNL A   1      45.715  24.143  26.455  1.00  0.00     0.029 A 
ATOM     43  N   UNL A   1      45.398  26.196  27.280  1.00  0.00    -0.354 N 
ATOM     44  C   UNL A   1      41.507  27.449  28.685  1.00  0.00     0.074 A 
ATOM     45  C   UNL A   1      40.551  26.367  28.603  1.00  0.00     0.031 C 
ATOM     46  C   UNL A   1      46.877  24.806  26.341  1.00  0.00     0.029 A 
ATOM     47  C   UNL A   1      46.704  26.159  26.857  1.00  0.00     0.049 A 
ATOM     48  H   UNL A   1      44.985  26.992  27.686  1.00  0.00     0.167 HD
ATOM     49  C   UNL A   1      41.220  28.689  29.147  1.00  0.00     0.037 A 
ATOM     50  C   UNL A   1      47.653  27.113  26.883  1.00  0.00     0.037 A 
ATOM     51  C   UNL A   1      42.184  29.747  29.281  1.00  0.00     0.049 A 
ATOM     52  C   UNL A   1      47.322  28.464  27.452  1.00  0.00     0.074 A 
ATOM     53  C   UNL A   1      42.011  31.013  29.813  1.00  0.00     0.029 A 
ATOM     54  N   UNL A   1      43.511  29.656  28.889  1.00  0.00    -0.354 N 
ATOM     55  N   UNL A   1      46.184  28.903  27.928  1.00  0.00    -0.248 NA
ATOM     56  C   UNL A   1      48.412  29.450  27.492  1.00  0.00     0.031 C 
ATOM     57  C   UNL A   1      43.229  31.695  29.721  1.00  0.00     0.029 A 
ATOM     58  C   UNL A   1      44.167  30.845  29.159  1.00  0.00     0.049 A 
ATOM     59  H   UNL A   1      43.926  28.862  28.478  1.00  0.00     0.167 HD
ATOM     60  C   UNL A   1      46.421  30.207  28.340  1.00  0.00     0.074 A 
ATOM     61  C   UNL A   1      47.817  30.483  28.072  1.00  0.00     0.031 C 
ATOM     62  C   UNL A   1      45.558  31.097  28.887  1.00  0.00     0.037 A 
BRANCH  49  63
ATOM     63  C   UNL A   1      39.803  28.961  29.552  1.00  0.00     0.064 A 
ATOM     64  C   UNL A   1      38.856  29.437  28.633  1.00  0.00     0.173 A 
ATOM     65  C   UNL A   1      39.381  28.722  30.868  1.00  0.00     0.173 A 
ATOM     66  F   UNL A   1      39.216  29.695  27.366  1.00  0.00    -0.203 F 
ATOM     67  C   UNL A   1      37.544  29.691  29.024  1.00  0.00     0.198 A 
ATOM     68  C   UNL A   1      38.061  28.954  31.250  1.00  0.00     0.198 A 
ATOM     69  F   UNL A   1      40.247  28.264  31.784  1.00  0.00    -0.203 F 
ATOM     70  F   UNL A   1      36.669  30.191  28.140  1.00  0.00    -0.200 F 
ATOM     71  C   UNL A   1      37.147  29.445  30.330  1.00  0.00     0.200 A 
ATOM     72  F   UNL A   1      37.676  28.709  32.509  1.00  0.00    -0.200 F 
ATOM     73  F   UNL A   1      35.883  29.689  30.703  1.00  0.00    -0.200 F 
ENDBRANCH  49  63
BRANCH  50  74
ATOM     74  C   UNL A   1      49.018  26.809  26.388  1.00  0.00     0.064 A 
ATOM     75  C   UNL A   1      49.995  26.302  27.256  1.00  0.00     0.173 A 
ATOM     76  C   UNL A   1      49.373  27.010  25.047  1.00  0.00     0.173 A 
ATOM     77  F   UNL A   1      49.706  26.114  28.552  1.00  0.00    -0.203 F 
ATOM     78  C   UNL A   1      51.282  26.021  26.803  1.00  0.00     0.198 A 
ATOM     79  C   UNL A   1      50.653  26.709  24.591  1.00  0.00     0.198 A 
ATOM     80  F   UNL A   1      48.470  27.488  24.179  1.00  0.00    -0.203 F 
ATOM     81  F   UNL A   1      52.208  25.571  27.660  1.00  0.00    -0.200 F 
ATOM     82  C   UNL A   1      51.609  26.221  25.471  1.00  0.00     0.200 A 
ATOM     83  F   UNL A   1      50.965  26.893  23.301  1.00  0.00    -0.200 F 
ATOM     84  F   UNL A   1      52.846  25.948  25.035  1.00  0.00    -0.200 F 
ENDBRANCH  50  74
BRANCH  62  85
ATOM     85  C   UNL A   1      46.107  32.443  29.250  1.00  0.00     0.064 A 
ATOM     86  C   UNL A   1      46.070  33.512  28.345  1.00  0.00     0.173 A 
ATOM     87  C   UNL A   1      46.642  32.672  30.526  1.00  0.00     0.173 A 
ATOM     88  F   UNL A   1      45.583  33.335  27.107  1.00  0.00    -0.203 F 
ATOM     89  C   UNL A   1      46.570  34.763  28.699  1.00  0.00     0.198 A 
ATOM     90  C   UNL A   1      47.121  33.929  30.883  1.00  0.00     0.198 A 
ATOM     91  F   UNL A   1      46.694  31.679  31.425  1.00  0.00    -0.203 F 
ATOM     92  F   UNL A   1      46.561  35.763  27.807  1.00  0.00    -0.200 F 
ATOM     93  C   UNL A   1      47.089  34.971  29.968  1.00  0.00     0.200 A 
ATOM     94  F   UNL A   1      47.615  34.132  32.111  1.00  0.00    -0.200 F 
ATOM     95  F   UNL A   1      47.566  36.176  30.308  1.00  0.00    -0.200 F 
ENDBRANCH  62  85
ENDBRANCH  36  37
ENDBRANCH  28  31
ENDBRANCH  26  27
ENDBRANCH  25  26
ENDBRANCH   1  25
TORSDOF 15
ENDMDL
