MODEL 1
REMARK VINA RESULT:     -13.1      0.000      0.000
REMARK SMILES C[C@H]1CCCCN1c1nc2nc(CC(=O)NCCCNC(=O)c3ccc(-c4c5nc(c(-c6c(F)c(F)c(F)c(F)c6F)c6ccc([nH]6)c(-c6c(F)c(F)c(F)c(F)c6F)c6nc(c(-c7c(F)c(F)c(F)c(F)c7F)c7ccc4[nH]7)C=C6)C=C5)cc3)cc(O)n2n1
REMARK SMILES IDX 18 1 17 2 16 3 14 4 15 5 13 7 12 8 8 9 9 10 90 11 10 12
REMARK SMILES IDX 89 13 11 14 87 15 86 16 7 17 1 18 2 19 3 20 4 21 6 22 5 23
REMARK SMILES IDX 88 24 19 26 20 27 21 28 22 30 23 31 24 32 85 33 25 34 84 35
REMARK SMILES IDX 26 36 27 37 28 38 78 39 29 40 83 41 77 42 79 43 30 44 82 45
REMARK SMILES IDX 76 46 75 47 31 49 63 50 43 51 62 52 44 53 47 54 61 55 80 56
REMARK SMILES IDX 45 57 46 58 60 60 81 61 48 62 32 63 33 64 41 65 34 66 35 67
REMARK SMILES IDX 39 68 42 69 36 70 37 71 40 72 38 73 64 74 65 75 73 76 66 77
REMARK SMILES IDX 67 78 71 79 74 80 68 81 69 82 72 83 70 84 49 85 50 86 58 87
REMARK SMILES IDX 51 88 52 89 56 90 59 91 53 92 54 93 57 94 55 95
REMARK H PARENT 16 6 88 25 20 29 79 48 47 59
REMARK Flexibility Score: inf
ROOT
ATOM      1  C   UNL A   1      37.256  22.584  24.814  1.00  0.00     0.042 C 
ENDROOT
BRANCH   1   2
ATOM      2  C   UNL A   1      36.590  21.209  24.921  1.00  0.00     0.117 C 
BRANCH   2   3
ATOM      3  N   UNL A   1      35.628  21.130  26.005  1.00  0.00    -0.356 N 
ATOM      4  C   UNL A   1      34.276  21.325  25.985  1.00  0.00     0.226 C 
ATOM      5  O   UNL A   1      33.640  21.117  27.018  1.00  0.00    -0.275 OA
ATOM      6  H   UNL A   1      36.007  20.902  26.885  1.00  0.00     0.163 HD
BRANCH   4   7
ATOM      7  C   UNL A   1      33.593  21.694  24.691  1.00  0.00     0.156 C 
BRANCH   7   8
ATOM      8  C   UNL A   1      33.589  23.176  24.397  1.00  0.00     0.059 A 
ATOM      9  C   UNL A   1      33.678  27.448  25.050  1.00  0.00     0.247 A 
ATOM     10  N   UNL A   1      33.779  26.376  25.887  1.00  0.00    -0.173 NA
ATOM     11  N   UNL A   1      33.650  27.142  23.756  1.00  0.00    -0.123 NA
ATOM     12  C   UNL A   1      33.693  25.339  25.087  1.00  0.00     0.257 A 
ATOM     13  N   UNL A   1      33.638  25.795  23.768  1.00  0.00    -0.161 N 
ATOM     14  N   UNL A   1      33.674  24.009  25.393  1.00  0.00    -0.215 NA
ATOM     15  C   UNL A   1      33.575  24.892  22.694  1.00  0.00     0.217 A 
ATOM     16  C   UNL A   1      33.509  23.577  22.951  1.00  0.00     0.092 A 
BRANCH   9  17
ATOM     17  N   UNL A   1      33.599  28.681  25.591  1.00  0.00    -0.337 N 
ATOM     18  C   UNL A   1      31.237  29.008  24.713  1.00  0.00     0.031 C 
ATOM     19  C   UNL A   1      32.481  29.610  25.375  1.00  0.00     0.082 C 
ATOM     20  C   UNL A   1      32.062  30.171  26.751  1.00  0.00     0.025 C 
ATOM     21  C   UNL A   1      33.239  30.800  27.490  1.00  0.00     0.004 C 
ATOM     22  C   UNL A   1      34.774  29.227  26.263  1.00  0.00     0.120 C 
ATOM     23  C   UNL A   1      34.391  29.809  27.619  1.00  0.00     0.022 C 
ENDBRANCH   9  17
BRANCH  15  24
ATOM     24  O   UNL A   1      33.589  25.385  21.398  1.00  0.00    -0.493 OA
ATOM     25  H   UNL A   1      34.190  26.065  21.163  1.00  0.00     0.295 HD
ENDBRANCH  15  24
ENDBRANCH   7   8
ENDBRANCH   4   7
ENDBRANCH   2   3
ENDBRANCH   1   2
BRANCH   1  26
ATOM     26  C   UNL A   1      38.018  22.946  26.077  1.00  0.00     0.118 C 
BRANCH  26  27
ATOM     27  N   UNL A   1      39.302  22.255  26.158  1.00  0.00    -0.352 N 
ATOM     28  C   UNL A   1      40.551  22.798  26.378  1.00  0.00     0.251 C 
ATOM     29  H   UNL A   1      39.273  21.279  26.042  1.00  0.00     0.163 HD
ATOM     30  O   UNL A   1      41.560  22.160  26.135  1.00  0.00    -0.269 OA
BRANCH  28  31
ATOM     31  C   UNL A   1      40.641  24.167  26.914  1.00  0.00     0.039 A 
ATOM     32  C   UNL A   1      40.011  25.227  26.256  1.00  0.00     0.014 A 
ATOM     33  C   UNL A   1      41.376  24.377  28.078  1.00  0.00     0.014 A 
ATOM     34  C   UNL A   1      40.084  26.501  26.811  1.00  0.00     0.010 A 
ATOM     35  C   UNL A   1      41.336  25.599  28.696  1.00  0.00     0.010 A 
ATOM     36  C   UNL A   1      40.747  26.671  28.032  1.00  0.00    -0.014 A 
BRANCH  36  37
ATOM     37  C   UNL A   1      40.836  27.979  28.657  1.00  0.00     0.031 A 
ATOM     38  C   UNL A   1      41.944  28.860  28.194  1.00  0.00     0.074 A 
ATOM     39  C   UNL A   1      39.824  28.448  29.414  1.00  0.00     0.049 A 
ATOM     40  N   UNL A   1      42.886  29.393  28.899  1.00  0.00    -0.248 NA
ATOM     41  C   UNL A   1      42.057  29.128  26.752  1.00  0.00     0.031 C 
ATOM     42  C   UNL A   1      38.515  27.838  29.680  1.00  0.00     0.029 A 
ATOM     43  N   UNL A   1      39.719  29.658  30.017  1.00  0.00    -0.354 N 
ATOM     44  C   UNL A   1      43.637  30.179  28.025  1.00  0.00     0.074 A 
ATOM     45  C   UNL A   1      43.159  29.879  26.700  1.00  0.00     0.031 C 
ATOM     46  C   UNL A   1      37.680  28.771  30.185  1.00  0.00     0.029 A 
ATOM     47  C   UNL A   1      38.436  29.986  30.424  1.00  0.00     0.049 A 
ATOM     48  H   UNL A   1      40.489  30.253  30.154  1.00  0.00     0.167 HD
ATOM     49  C   UNL A   1      44.482  31.150  28.475  1.00  0.00     0.037 A 
ATOM     50  C   UNL A   1      38.030  31.200  30.866  1.00  0.00     0.037 A 
ATOM     51  C   UNL A   1      44.766  30.986  29.877  1.00  0.00     0.049 A 
ATOM     52  C   UNL A   1      39.251  31.931  31.302  1.00  0.00     0.074 A 
ATOM     53  C   UNL A   1      45.366  29.993  30.626  1.00  0.00     0.029 A 
ATOM     54  N   UNL A   1      44.080  31.763  30.780  1.00  0.00    -0.354 N 
ATOM     55  N   UNL A   1      39.989  31.571  32.319  1.00  0.00    -0.248 NA
ATOM     56  C   UNL A   1      39.913  32.779  30.320  1.00  0.00     0.031 C 
ATOM     57  C   UNL A   1      44.593  29.922  31.822  1.00  0.00     0.029 A 
ATOM     58  C   UNL A   1      43.615  30.915  31.753  1.00  0.00     0.049 A 
ATOM     59  H   UNL A   1      43.948  32.737  30.737  1.00  0.00     0.167 HD
ATOM     60  C   UNL A   1      41.296  31.797  31.910  1.00  0.00     0.074 A 
ATOM     61  C   UNL A   1      41.182  32.614  30.703  1.00  0.00     0.031 C 
ATOM     62  C   UNL A   1      42.336  31.067  32.410  1.00  0.00     0.037 A 
BRANCH  49  63
ATOM     63  C   UNL A   1      44.834  32.413  27.732  1.00  0.00     0.064 A 
ATOM     64  C   UNL A   1      46.073  32.506  27.065  1.00  0.00     0.173 A 
ATOM     65  C   UNL A   1      44.133  33.628  27.883  1.00  0.00     0.173 A 
ATOM     66  F   UNL A   1      46.838  31.417  26.885  1.00  0.00    -0.203 F 
ATOM     67  C   UNL A   1      46.595  33.731  26.640  1.00  0.00     0.198 A 
ATOM     68  C   UNL A   1      44.632  34.841  27.407  1.00  0.00     0.198 A 
ATOM     69  F   UNL A   1      42.998  33.708  28.587  1.00  0.00    -0.203 F 
ATOM     70  F   UNL A   1      47.829  33.784  26.118  1.00  0.00    -0.200 F 
ATOM     71  C   UNL A   1      45.875  34.898  26.814  1.00  0.00     0.200 A 
ATOM     72  F   UNL A   1      43.926  35.964  27.602  1.00  0.00    -0.200 F 
ATOM     73  F   UNL A   1      46.396  36.079  26.458  1.00  0.00    -0.200 F 
ENDBRANCH  49  63
BRANCH  50  74
ATOM     74  C   UNL A   1      36.728  31.862  30.611  1.00  0.00     0.064 A 
ATOM     75  C   UNL A   1      35.865  32.188  31.669  1.00  0.00     0.173 A 
ATOM     76  C   UNL A   1      36.418  32.426  29.356  1.00  0.00     0.173 A 
ATOM     77  F   UNL A   1      36.112  31.729  32.904  1.00  0.00    -0.203 F 
ATOM     78  C   UNL A   1      34.774  33.046  31.488  1.00  0.00     0.198 A 
ATOM     79  C   UNL A   1      35.323  33.273  29.174  1.00  0.00     0.198 A 
ATOM     80  F   UNL A   1      37.220  32.244  28.298  1.00  0.00    -0.203 F 
ATOM     81  F   UNL A   1      34.009  33.382  32.536  1.00  0.00    -0.200 F 
ATOM     82  C   UNL A   1      34.510  33.594  30.244  1.00  0.00     0.200 A 
ATOM     83  F   UNL A   1      35.100  33.822  27.972  1.00  0.00    -0.200 F 
ATOM     84  F   UNL A   1      33.502  34.462  30.084  1.00  0.00    -0.200 F 
ENDBRANCH  50  74
BRANCH  62  85
ATOM     85  C   UNL A   1      42.073  30.137  33.565  1.00  0.00     0.064 A 
ATOM     86  C   UNL A   1      41.716  28.786  33.407  1.00  0.00     0.173 A 
ATOM     87  C   UNL A   1      42.399  30.564  34.859  1.00  0.00     0.173 A 
ATOM     88  F   UNL A   1      41.488  28.269  32.198  1.00  0.00    -0.203 F 
ATOM     89  C   UNL A   1      41.666  27.914  34.494  1.00  0.00     0.198 A 
ATOM     90  C   UNL A   1      42.384  29.683  35.937  1.00  0.00     0.198 A 
ATOM     91  F   UNL A   1      42.806  31.827  35.065  1.00  0.00    -0.203 F 
ATOM     92  F   UNL A   1      41.332  26.627  34.308  1.00  0.00    -0.200 F 
ATOM     93  C   UNL A   1      42.013  28.360  35.756  1.00  0.00     0.200 A 
ATOM     94  F   UNL A   1      42.772  30.106  37.148  1.00  0.00    -0.200 F 
ATOM     95  F   UNL A   1      42.024  27.508  36.791  1.00  0.00    -0.200 F 
ENDBRANCH  62  85
ENDBRANCH  36  37
ENDBRANCH  28  31
ENDBRANCH  26  27
ENDBRANCH   1  26
TORSDOF 13
ENDMDL
MODEL 2
REMARK VINA RESULT:     -13.1      3.167      8.824
REMARK SMILES C[C@H]1CCCCN1c1nc2nc(CC(=O)NCCCNC(=O)c3ccc(-c4c5nc(c(-c6c(F)c(F)c(F)c(F)c6F)c6ccc([nH]6)c(-c6c(F)c(F)c(F)c(F)c6F)c6nc(c(-c7c(F)c(F)c(F)c(F)c7F)c7ccc4[nH]7)C=C6)C=C5)cc3)cc(O)n2n1
REMARK SMILES IDX 18 1 17 2 16 3 14 4 15 5 13 7 12 8 8 9 9 10 90 11 10 12
REMARK SMILES IDX 89 13 11 14 87 15 86 16 7 17 1 18 2 19 3 20 4 21 6 22 5 23
REMARK SMILES IDX 88 24 19 26 20 27 21 28 22 30 23 31 24 32 85 33 25 34 84 35
REMARK SMILES IDX 26 36 27 37 28 38 78 39 29 40 83 41 77 42 79 43 30 44 82 45
REMARK SMILES IDX 76 46 75 47 31 49 63 50 43 51 62 52 44 53 47 54 61 55 80 56
REMARK SMILES IDX 45 57 46 58 60 60 81 61 48 62 32 63 33 64 41 65 34 66 35 67
REMARK SMILES IDX 39 68 42 69 36 70 37 71 40 72 38 73 64 74 65 75 73 76 66 77
REMARK SMILES IDX 67 78 71 79 74 80 68 81 69 82 72 83 70 84 49 85 50 86 58 87
REMARK SMILES IDX 51 88 52 89 56 90 59 91 53 92 54 93 57 94 55 95
REMARK H PARENT 16 6 88 25 20 29 79 48 47 59
REMARK Flexibility Score: inf
ROOT
ATOM      1  C   UNL A   1      33.980  31.223  27.348  1.00  0.00     0.042 C 
ENDROOT
BRANCH   1   2
ATOM      2  C   UNL A   1      34.097  29.696  27.358  1.00  0.00     0.117 C 
BRANCH   2   3
ATOM      3  N   UNL A   1      32.916  29.041  27.890  1.00  0.00    -0.356 N 
ATOM      4  C   UNL A   1      31.904  28.403  27.232  1.00  0.00     0.226 C 
ATOM      5  O   UNL A   1      31.037  27.838  27.898  1.00  0.00    -0.275 OA
ATOM      6  H   UNL A   1      32.832  29.061  28.871  1.00  0.00     0.163 HD
BRANCH   4   7
ATOM      7  C   UNL A   1      31.922  28.328  25.724  1.00  0.00     0.156 C 
BRANCH   7   8
ATOM      8  C   UNL A   1      32.720  27.169  25.175  1.00  0.00     0.059 A 
ATOM      9  C   UNL A   1      34.975  23.483  25.053  1.00  0.00     0.247 A 
ATOM     10  N   UNL A   1      34.330  24.148  26.055  1.00  0.00    -0.173 NA
ATOM     11  N   UNL A   1      34.800  24.001  23.841  1.00  0.00    -0.123 NA
ATOM     12  C   UNL A   1      33.821  25.201  25.460  1.00  0.00     0.257 A 
ATOM     13  N   UNL A   1      34.081  25.112  24.091  1.00  0.00    -0.161 N 
ATOM     14  N   UNL A   1      33.125  26.245  25.997  1.00  0.00    -0.215 NA
ATOM     15  C   UNL A   1      33.619  26.097  23.203  1.00  0.00     0.217 A 
ATOM     16  C   UNL A   1      32.968  27.163  23.692  1.00  0.00     0.092 A 
BRANCH   9  17
ATOM     17  N   UNL A   1      35.722  22.407  25.373  1.00  0.00    -0.337 N 
ATOM     18  C   UNL A   1      33.739  20.841  25.111  1.00  0.00     0.031 C 
ATOM     19  C   UNL A   1      35.187  21.053  25.567  1.00  0.00     0.082 C 
ATOM     20  C   UNL A   1      36.082  20.073  24.777  1.00  0.00     0.025 C 
ATOM     21  C   UNL A   1      37.551  20.206  25.167  1.00  0.00     0.004 C 
ATOM     22  C   UNL A   1      37.115  22.614  25.759  1.00  0.00     0.120 C 
ATOM     23  C   UNL A   1      38.025  21.647  25.010  1.00  0.00     0.022 C 
ENDBRANCH   9  17
BRANCH  15  24
ATOM     24  O   UNL A   1      33.841  25.936  21.844  1.00  0.00    -0.493 OA
ATOM     25  H   UNL A   1      33.120  25.775  21.268  1.00  0.00     0.295 HD
ENDBRANCH  15  24
ENDBRANCH   7   8
ENDBRANCH   4   7
ENDBRANCH   2   3
ENDBRANCH   1   2
BRANCH   1  26
ATOM     26  C   UNL A   1      35.190  31.890  27.976  1.00  0.00     0.118 C 
BRANCH  26  27
ATOM     27  N   UNL A   1      34.897  32.417  29.306  1.00  0.00    -0.352 N 
ATOM     28  C   UNL A   1      35.423  32.019  30.517  1.00  0.00     0.251 C 
ATOM     29  H   UNL A   1      34.240  33.148  29.344  1.00  0.00     0.163 HD
ATOM     30  O   UNL A   1      34.887  32.334  31.565  1.00  0.00    -0.269 OA
BRANCH  28  31
ATOM     31  C   UNL A   1      36.651  31.205  30.520  1.00  0.00     0.039 A 
ATOM     32  C   UNL A   1      36.574  29.809  30.570  1.00  0.00     0.014 A 
ATOM     33  C   UNL A   1      37.881  31.857  30.484  1.00  0.00     0.014 A 
ATOM     34  C   UNL A   1      37.752  29.071  30.532  1.00  0.00     0.010 A 
ATOM     35  C   UNL A   1      39.030  31.132  30.309  1.00  0.00     0.010 A 
ATOM     36  C   UNL A   1      38.972  29.744  30.398  1.00  0.00    -0.014 A 
BRANCH  36  37
ATOM     37  C   UNL A   1      40.226  29.014  30.339  1.00  0.00     0.031 A 
ATOM     38  C   UNL A   1      40.907  28.762  31.639  1.00  0.00     0.074 A 
ATOM     39  C   UNL A   1      40.603  28.389  29.206  1.00  0.00     0.049 A 
ATOM     40  N   UNL A   1      42.100  29.107  31.994  1.00  0.00    -0.248 NA
ATOM     41  C   UNL A   1      40.139  28.096  32.704  1.00  0.00     0.031 C 
ATOM     42  C   UNL A   1      39.868  28.256  27.941  1.00  0.00     0.029 A 
ATOM     43  N   UNL A   1      41.701  27.623  28.996  1.00  0.00    -0.354 N 
ATOM     44  C   UNL A   1      42.296  28.590  33.275  1.00  0.00     0.074 A 
ATOM     45  C   UNL A   1      41.018  28.088  33.708  1.00  0.00     0.031 C 
ATOM     46  C   UNL A   1      40.429  27.279  27.198  1.00  0.00     0.029 A 
ATOM     47  C   UNL A   1      41.643  26.835  27.858  1.00  0.00     0.049 A 
ATOM     48  H   UNL A   1      42.476  27.625  29.602  1.00  0.00     0.167 HD
ATOM     49  C   UNL A   1      43.542  28.457  33.814  1.00  0.00     0.037 A 
ATOM     50  C   UNL A   1      42.510  25.848  27.530  1.00  0.00     0.037 A 
ATOM     51  C   UNL A   1      44.510  29.237  33.090  1.00  0.00     0.049 A 
ATOM     52  C   UNL A   1      43.756  26.094  28.306  1.00  0.00     0.074 A 
ATOM     53  C   UNL A   1      44.665  30.588  32.843  1.00  0.00     0.029 A 
ATOM     54  N   UNL A   1      45.308  28.602  32.169  1.00  0.00    -0.354 N 
ATOM     55  N   UNL A   1      44.534  27.128  28.123  1.00  0.00    -0.248 NA
ATOM     56  C   UNL A   1      43.880  25.442  29.603  1.00  0.00     0.031 C 
ATOM     57  C   UNL A   1      45.111  30.662  31.491  1.00  0.00     0.029 A 
ATOM     58  C   UNL A   1      45.260  29.356  31.023  1.00  0.00     0.049 A 
ATOM     59  H   UNL A   1      45.815  27.770  32.304  1.00  0.00     0.167 HD
ATOM     60  C   UNL A   1      44.937  27.503  29.397  1.00  0.00     0.074 A 
ATOM     61  C   UNL A   1      44.568  26.382  30.259  1.00  0.00     0.031 C 
ATOM     62  C   UNL A   1      45.265  28.795  29.690  1.00  0.00     0.037 A 
BRANCH  49  63
ATOM     63  C   UNL A   1      43.951  27.408  34.816  1.00  0.00     0.064 A 
ATOM     64  C   UNL A   1      43.867  26.044  34.471  1.00  0.00     0.173 A 
ATOM     65  C   UNL A   1      44.153  27.676  36.186  1.00  0.00     0.173 A 
ATOM     66  F   UNL A   1      43.652  25.671  33.199  1.00  0.00    -0.203 F 
ATOM     67  C   UNL A   1      43.917  25.031  35.433  1.00  0.00     0.198 A 
ATOM     68  C   UNL A   1      44.259  26.661  37.137  1.00  0.00     0.198 A 
ATOM     69  F   UNL A   1      44.147  28.923  36.673  1.00  0.00    -0.203 F 
ATOM     70  F   UNL A   1      43.713  23.757  35.071  1.00  0.00    -0.200 F 
ATOM     71  C   UNL A   1      44.111  25.342  36.767  1.00  0.00     0.200 A 
ATOM     72  F   UNL A   1      44.429  26.983  38.428  1.00  0.00    -0.200 F 
ATOM     73  F   UNL A   1      44.104  24.379  37.697  1.00  0.00    -0.200 F 
ENDBRANCH  49  63
BRANCH  50  74
ATOM     74  C   UNL A   1      42.197  24.557  26.873  1.00  0.00     0.064 A 
ATOM     75  C   UNL A   1      43.016  24.050  25.853  1.00  0.00     0.173 A 
ATOM     76  C   UNL A   1      41.243  23.666  27.408  1.00  0.00     0.173 A 
ATOM     77  F   UNL A   1      43.978  24.817  25.320  1.00  0.00    -0.203 F 
ATOM     78  C   UNL A   1      42.905  22.727  25.411  1.00  0.00     0.198 A 
ATOM     79  C   UNL A   1      41.126  22.349  26.959  1.00  0.00     0.198 A 
ATOM     80  F   UNL A   1      40.465  24.022  28.439  1.00  0.00    -0.203 F 
ATOM     81  F   UNL A   1      43.747  22.261  24.478  1.00  0.00    -0.200 F 
ATOM     82  C   UNL A   1      41.967  21.875  25.971  1.00  0.00     0.200 A 
ATOM     83  F   UNL A   1      40.235  21.528  27.534  1.00  0.00    -0.200 F 
ATOM     84  F   UNL A   1      41.901  20.592  25.591  1.00  0.00    -0.200 F 
ENDBRANCH  50  74
BRANCH  62  85
ATOM     85  C   UNL A   1      45.375  29.784  28.559  1.00  0.00     0.064 A 
ATOM     86  C   UNL A   1      44.306  30.591  28.128  1.00  0.00     0.173 A 
ATOM     87  C   UNL A   1      46.644  30.077  28.044  1.00  0.00     0.173 A 
ATOM     88  F   UNL A   1      43.083  30.448  28.643  1.00  0.00    -0.203 F 
ATOM     89  C   UNL A   1      44.496  31.622  27.210  1.00  0.00     0.198 A 
ATOM     90  C   UNL A   1      46.838  31.131  27.154  1.00  0.00     0.198 A 
ATOM     91  F   UNL A   1      47.714  29.383  28.462  1.00  0.00    -0.203 F 
ATOM     92  F   UNL A   1      43.458  32.380  26.826  1.00  0.00    -0.200 F 
ATOM     93  C   UNL A   1      45.765  31.900  26.734  1.00  0.00     0.200 A 
ATOM     94  F   UNL A   1      48.076  31.431  26.737  1.00  0.00    -0.200 F 
ATOM     95  F   UNL A   1      45.959  32.930  25.897  1.00  0.00    -0.200 F 
ENDBRANCH  62  85
ENDBRANCH  36  37
ENDBRANCH  28  31
ENDBRANCH  26  27
ENDBRANCH   1  26
TORSDOF 13
ENDMDL
MODEL 3
REMARK VINA RESULT:     -12.9      3.191      8.785
REMARK SMILES C[C@H]1CCCCN1c1nc2nc(CC(=O)NCCCNC(=O)c3ccc(-c4c5nc(c(-c6c(F)c(F)c(F)c(F)c6F)c6ccc([nH]6)c(-c6c(F)c(F)c(F)c(F)c6F)c6nc(c(-c7c(F)c(F)c(F)c(F)c7F)c7ccc4[nH]7)C=C6)C=C5)cc3)cc(O)n2n1
REMARK SMILES IDX 18 1 17 2 16 3 14 4 15 5 13 7 12 8 8 9 9 10 90 11 10 12
REMARK SMILES IDX 89 13 11 14 87 15 86 16 7 17 1 18 2 19 3 20 4 21 6 22 5 23
REMARK SMILES IDX 88 24 19 26 20 27 21 28 22 30 23 31 24 32 85 33 25 34 84 35
REMARK SMILES IDX 26 36 27 37 28 38 78 39 29 40 83 41 77 42 79 43 30 44 82 45
REMARK SMILES IDX 76 46 75 47 31 49 63 50 43 51 62 52 44 53 47 54 61 55 80 56
REMARK SMILES IDX 45 57 46 58 60 60 81 61 48 62 32 63 33 64 41 65 34 66 35 67
REMARK SMILES IDX 39 68 42 69 36 70 37 71 40 72 38 73 64 74 65 75 73 76 66 77
REMARK SMILES IDX 67 78 71 79 74 80 68 81 69 82 72 83 70 84 49 85 50 86 58 87
REMARK SMILES IDX 51 88 52 89 56 90 59 91 53 92 54 93 57 94 55 95
REMARK H PARENT 16 6 88 25 20 29 79 48 47 59
REMARK Flexibility Score: inf
ROOT
ATOM      1  C   UNL A   1      33.794  31.394  27.338  1.00  0.00     0.042 C 
ENDROOT
BRANCH   1   2
ATOM      2  C   UNL A   1      33.933  29.873  27.212  1.00  0.00     0.117 C 
BRANCH   2   3
ATOM      3  N   UNL A   1      32.821  29.154  27.805  1.00  0.00    -0.356 N 
ATOM      4  C   UNL A   1      31.836  28.424  27.203  1.00  0.00     0.226 C 
ATOM      5  O   UNL A   1      31.036  27.819  27.916  1.00  0.00    -0.275 OA
ATOM      6  H   UNL A   1      32.768  29.199  28.787  1.00  0.00     0.163 HD
BRANCH   4   7
ATOM      7  C   UNL A   1      31.810  28.301  25.698  1.00  0.00     0.156 C 
BRANCH   7   8
ATOM      8  C   UNL A   1      32.643  27.162  25.158  1.00  0.00     0.059 A 
ATOM      9  C   UNL A   1      34.987  23.531  25.063  1.00  0.00     0.247 A 
ATOM     10  N   UNL A   1      34.314  24.180  26.057  1.00  0.00    -0.173 NA
ATOM     11  N   UNL A   1      34.815  24.046  23.849  1.00  0.00    -0.123 NA
ATOM     12  C   UNL A   1      33.787  25.221  25.456  1.00  0.00     0.257 A 
ATOM     13  N   UNL A   1      34.066  25.140  24.091  1.00  0.00    -0.161 N 
ATOM     14  N   UNL A   1      33.059  26.248  25.985  1.00  0.00    -0.215 NA
ATOM     15  C   UNL A   1      33.591  26.114  23.197  1.00  0.00     0.217 A 
ATOM     16  C   UNL A   1      32.909  27.163  23.679  1.00  0.00     0.092 A 
BRANCH   9  17
ATOM     17  N   UNL A   1      35.756  22.474  25.391  1.00  0.00    -0.337 N 
ATOM     18  C   UNL A   1      33.811  20.863  25.122  1.00  0.00     0.031 C 
ATOM     19  C   UNL A   1      35.250  21.108  25.587  1.00  0.00     0.082 C 
ATOM     20  C   UNL A   1      36.172  20.147  24.806  1.00  0.00     0.025 C 
ATOM     21  C   UNL A   1      37.635  20.314  25.205  1.00  0.00     0.004 C 
ATOM     22  C   UNL A   1      37.142  22.713  25.786  1.00  0.00     0.120 C 
ATOM     23  C   UNL A   1      38.078  21.764  25.046  1.00  0.00     0.022 C 
ENDBRANCH   9  17
BRANCH  15  24
ATOM     24  O   UNL A   1      33.835  25.959  21.841  1.00  0.00    -0.493 OA
ATOM     25  H   UNL A   1      34.300  25.206  21.532  1.00  0.00     0.295 HD
ENDBRANCH  15  24
ENDBRANCH   7   8
ENDBRANCH   4   7
ENDBRANCH   2   3
ENDBRANCH   1   2
BRANCH   1  26
ATOM     26  C   UNL A   1      35.012  32.023  27.990  1.00  0.00     0.118 C 
BRANCH  26  27
ATOM     27  N   UNL A   1      34.743  32.444  29.361  1.00  0.00    -0.352 N 
ATOM     28  C   UNL A   1      35.364  32.029  30.520  1.00  0.00     0.251 C 
ATOM     29  H   UNL A   1      34.027  33.110  29.474  1.00  0.00     0.163 HD
ATOM     30  O   UNL A   1      34.857  32.233  31.609  1.00  0.00    -0.269 OA
BRANCH  28  31
ATOM     31  C   UNL A   1      36.657  31.331  30.416  1.00  0.00     0.039 A 
ATOM     32  C   UNL A   1      37.847  32.058  30.303  1.00  0.00     0.014 A 
ATOM     33  C   UNL A   1      36.664  29.938  30.421  1.00  0.00     0.014 A 
ATOM     34  C   UNL A   1      39.053  31.367  30.246  1.00  0.00     0.010 A 
ATOM     35  C   UNL A   1      37.853  29.263  30.501  1.00  0.00     0.010 A 
ATOM     36  C   UNL A   1      39.041  29.972  30.349  1.00  0.00    -0.014 A 
BRANCH  36  37
ATOM     37  C   UNL A   1      40.277  29.209  30.309  1.00  0.00     0.031 A 
ATOM     38  C   UNL A   1      40.930  28.938  31.620  1.00  0.00     0.074 A 
ATOM     39  C   UNL A   1      40.656  28.576  29.182  1.00  0.00     0.049 A 
ATOM     40  N   UNL A   1      42.125  29.252  31.995  1.00  0.00    -0.248 NA
ATOM     41  C   UNL A   1      40.128  28.292  32.671  1.00  0.00     0.031 C 
ATOM     42  C   UNL A   1      39.939  28.463  27.905  1.00  0.00     0.029 A 
ATOM     43  N   UNL A   1      41.737  27.781  28.989  1.00  0.00    -0.354 N 
ATOM     44  C   UNL A   1      42.287  28.728  33.278  1.00  0.00     0.074 A 
ATOM     45  C   UNL A   1      40.989  28.260  33.690  1.00  0.00     0.031 C 
ATOM     46  C   UNL A   1      40.486  27.472  27.170  1.00  0.00     0.029 A 
ATOM     47  C   UNL A   1      41.677  26.997  27.849  1.00  0.00     0.049 A 
ATOM     48  H   UNL A   1      42.502  27.763  29.608  1.00  0.00     0.167 HD
ATOM     49  C   UNL A   1      43.520  28.563  33.837  1.00  0.00     0.037 A 
ATOM     50  C   UNL A   1      42.523  25.988  27.534  1.00  0.00     0.037 A 
ATOM     51  C   UNL A   1      44.520  29.319  33.130  1.00  0.00     0.049 A 
ATOM     52  C   UNL A   1      43.763  26.200  28.331  1.00  0.00     0.074 A 
ATOM     53  C   UNL A   1      44.714  30.665  32.888  1.00  0.00     0.029 A 
ATOM     54  N   UNL A   1      45.316  28.664  32.221  1.00  0.00    -0.354 N 
ATOM     55  N   UNL A   1      44.570  27.214  28.161  1.00  0.00    -0.248 NA
ATOM     56  C   UNL A   1      43.849  25.544  29.629  1.00  0.00     0.031 C 
ATOM     57  C   UNL A   1      45.183  30.729  31.543  1.00  0.00     0.029 A 
ATOM     58  C   UNL A   1      45.306  29.420  31.075  1.00  0.00     0.049 A 
ATOM     59  H   UNL A   1      45.799  27.818  32.364  1.00  0.00     0.167 HD
ATOM     60  C   UNL A   1      44.961  27.577  29.442  1.00  0.00     0.074 A 
ATOM     61  C   UNL A   1      44.549  26.465  30.297  1.00  0.00     0.031 C 
ATOM     62  C   UNL A   1      45.319  28.860  29.742  1.00  0.00     0.037 A 
BRANCH  49  63
ATOM     63  C   UNL A   1      43.885  27.503  34.845  1.00  0.00     0.064 A 
ATOM     64  C   UNL A   1      44.424  27.883  36.091  1.00  0.00     0.173 A 
ATOM     65  C   UNL A   1      43.989  26.132  34.532  1.00  0.00     0.173 A 
ATOM     66  F   UNL A   1      44.402  29.167  36.484  1.00  0.00    -0.203 F 
ATOM     67  C   UNL A   1      45.074  26.970  36.927  1.00  0.00     0.198 A 
ATOM     68  C   UNL A   1      44.588  25.213  35.394  1.00  0.00     0.198 A 
ATOM     69  F   UNL A   1      43.617  25.647  33.341  1.00  0.00    -0.203 F 
ATOM     70  F   UNL A   1      45.674  27.401  38.045  1.00  0.00    -0.200 F 
ATOM     71  C   UNL A   1      45.157  25.636  36.576  1.00  0.00     0.200 A 
ATOM     72  F   UNL A   1      44.674  23.926  35.027  1.00  0.00    -0.200 F 
ATOM     73  F   UNL A   1      45.826  24.770  37.347  1.00  0.00    -0.200 F 
ENDBRANCH  49  63
BRANCH  50  74
ATOM     74  C   UNL A   1      42.188  24.705  26.870  1.00  0.00     0.064 A 
ATOM     75  C   UNL A   1      42.952  24.229  25.794  1.00  0.00     0.173 A 
ATOM     76  C   UNL A   1      41.277  23.792  27.441  1.00  0.00     0.173 A 
ATOM     77  F   UNL A   1      43.872  25.018  25.222  1.00  0.00    -0.203 F 
ATOM     78  C   UNL A   1      42.831  22.913  25.333  1.00  0.00     0.198 A 
ATOM     79  C   UNL A   1      41.149  22.483  26.974  1.00  0.00     0.198 A 
ATOM     80  F   UNL A   1      40.556  24.118  28.523  1.00  0.00    -0.203 F 
ATOM     81  F   UNL A   1      43.622  22.477  24.343  1.00  0.00    -0.200 F 
ATOM     82  C   UNL A   1      41.937  22.039  25.929  1.00  0.00     0.200 A 
ATOM     83  F   UNL A   1      40.303  21.640  27.582  1.00  0.00    -0.200 F 
ATOM     84  F   UNL A   1      41.863  20.763  25.527  1.00  0.00    -0.200 F 
ENDBRANCH  50  74
BRANCH  62  85
ATOM     85  C   UNL A   1      45.472  29.847  28.614  1.00  0.00     0.064 A 
ATOM     86  C   UNL A   1      44.435  30.689  28.174  1.00  0.00     0.173 A 
ATOM     87  C   UNL A   1      46.756  30.098  28.113  1.00  0.00     0.173 A 
ATOM     88  F   UNL A   1      43.203  30.586  28.677  1.00  0.00    -0.203 F 
ATOM     89  C   UNL A   1      44.669  31.715  27.260  1.00  0.00     0.198 A 
ATOM     90  C   UNL A   1      46.993  31.147  27.227  1.00  0.00     0.198 A 
ATOM     91  F   UNL A   1      47.798  29.368  28.540  1.00  0.00    -0.203 F 
ATOM     92  F   UNL A   1      43.660  32.508  26.868  1.00  0.00    -0.200 F 
ATOM     93  C   UNL A   1      45.950  31.952  26.798  1.00  0.00     0.200 A 
ATOM     94  F   UNL A   1      48.245  31.406  26.823  1.00  0.00    -0.200 F 
ATOM     95  F   UNL A   1      46.187  32.976  25.965  1.00  0.00    -0.200 F 
ENDBRANCH  62  85
ENDBRANCH  36  37
ENDBRANCH  28  31
ENDBRANCH  26  27
ENDBRANCH   1  26
TORSDOF 13
ENDMDL
