MODEL 1
REMARK VINA RESULT:      -9.7      0.000      0.000
REMARK SMILES CCCCCC(=O)N[C@H](C)C(=O)NCCCNC(=O)c1ccc(-c2c3nc(c(-c4c(F)c(F)c(F)c(F)c4F)c4ccc([nH]4)c(-c4c(F)c(F)c(F)c(F)c4F)c4nc(c(-c5c(F)c(F)c(F)c(F)c5F)c5ccc2[nH]5)C=C4)C=C3)cc1
REMARK SMILES IDX 11 1 12 2 13 3 9 5 10 6 8 7 6 8 7 9 5 11 4 12 3 13 2 14 1 15
REMARK SMILES IDX 14 16 15 17 16 18 17 19 18 20 19 22 20 23 21 24 82 25 22 26
REMARK SMILES IDX 81 27 23 28 24 29 25 30 75 31 26 32 80 33 74 34 76 35 27 36
REMARK SMILES IDX 79 37 73 38 72 39 28 41 60 42 40 43 59 44 41 45 44 46 58 47
REMARK SMILES IDX 77 48 42 49 43 50 57 52 78 53 45 54 29 55 30 56 38 57 31 58
REMARK SMILES IDX 32 59 36 60 39 61 33 62 34 63 37 64 35 65 61 66 62 67 70 68
REMARK SMILES IDX 63 69 64 70 68 71 71 72 65 73 66 74 69 75 67 76 46 77 47 78
REMARK SMILES IDX 55 79 48 80 49 81 53 82 56 83 50 84 51 85 54 86 52 87
REMARK H PARENT 13 4 8 10 17 21 76 40 44 51
REMARK Flexibility Score: inf
ROOT
ATOM      1  C   UNL A   1      32.866  35.849  31.586  1.00  0.00     0.242 C 
ATOM      2  O   UNL A   1      31.713  36.020  31.990  1.00  0.00    -0.273 OA
ATOM      3  N   UNL A   1      33.021  35.277  30.357  1.00  0.00    -0.354 N 
ATOM      4  H   UNL A   1      32.486  35.656  29.623  1.00  0.00     0.163 HD
ENDROOT
BRANCH   1   5
ATOM      5  C   UNL A   1      34.087  36.181  32.467  1.00  0.00     0.168 C 
ATOM      6  C   UNL A   1      33.912  37.567  33.071  1.00  0.00     0.041 C 
BRANCH   5   7
ATOM      7  N   UNL A   1      34.328  35.166  33.493  1.00  0.00    -0.345 N 
ATOM      8  C   UNL A   1      35.372  34.308  33.640  1.00  0.00     0.220 C 
ATOM      9  O   UNL A   1      35.197  33.313  34.347  1.00  0.00    -0.275 OA
ATOM     10  H   UNL A   1      33.626  35.093  34.180  1.00  0.00     0.164 HD
BRANCH   8  11
ATOM     11  C   UNL A   1      36.727  34.607  33.032  1.00  0.00     0.100 C 
BRANCH  11  12
ATOM     12  C   UNL A   1      37.479  33.405  32.455  1.00  0.00     0.010 C 
BRANCH  12  13
ATOM     13  C   UNL A   1      37.157  33.006  31.011  1.00  0.00     0.000 C 
BRANCH  13  14
ATOM     14  C   UNL A   1      37.680  33.947  29.920  1.00  0.00    -0.003 C 
ATOM     15  C   UNL A   1      38.963  34.658  30.312  1.00  0.00     0.004 C 
ENDBRANCH  13  14
ENDBRANCH  12  13
ENDBRANCH  11  12
ENDBRANCH   8  11
ENDBRANCH   5   7
ENDBRANCH   1   5
BRANCH   3  16
ATOM     16  C   UNL A   1      33.894  34.169  30.024  1.00  0.00     0.117 C 
BRANCH  16  17
ATOM     17  C   UNL A   1      33.827  33.886  28.526  1.00  0.00     0.042 C 
BRANCH  17  18
ATOM     18  C   UNL A   1      34.754  32.759  28.085  1.00  0.00     0.118 C 
BRANCH  18  19
ATOM     19  N   UNL A   1      34.041  31.500  27.915  1.00  0.00    -0.352 N 
ATOM     20  C   UNL A   1      34.540  30.226  27.863  1.00  0.00     0.251 C 
ATOM     21  H   UNL A   1      33.063  31.576  27.824  1.00  0.00     0.163 HD
ATOM     22  O   UNL A   1      33.830  29.297  27.475  1.00  0.00    -0.269 OA
BRANCH  20  23
ATOM     23  C   UNL A   1      35.938  29.968  28.260  1.00  0.00     0.039 A 
ATOM     24  C   UNL A   1      36.206  29.531  29.558  1.00  0.00     0.014 A 
ATOM     25  C   UNL A   1      36.981  30.164  27.350  1.00  0.00     0.014 A 
ATOM     26  C   UNL A   1      37.518  29.235  29.926  1.00  0.00     0.010 A 
ATOM     27  C   UNL A   1      38.275  29.790  27.692  1.00  0.00     0.010 A 
ATOM     28  C   UNL A   1      38.558  29.331  28.987  1.00  0.00    -0.014 A 
BRANCH  28  29
ATOM     29  C   UNL A   1      39.950  28.962  29.343  1.00  0.00     0.031 A 
ATOM     30  C   UNL A   1      40.797  29.907  30.149  1.00  0.00     0.074 A 
ATOM     31  C   UNL A   1      40.471  27.809  28.880  1.00  0.00     0.049 A 
ATOM     32  N   UNL A   1      42.052  29.795  30.505  1.00  0.00    -0.248 NA
ATOM     33  C   UNL A   1      40.158  31.157  30.589  1.00  0.00     0.031 C 
ATOM     34  C   UNL A   1      39.766  26.841  28.039  1.00  0.00     0.029 A 
ATOM     35  N   UNL A   1      41.719  27.262  29.041  1.00  0.00    -0.354 N 
ATOM     36  C   UNL A   1      42.355  30.964  31.190  1.00  0.00     0.074 A 
ATOM     37  C   UNL A   1      41.171  31.794  31.158  1.00  0.00     0.031 C 
ATOM     38  C   UNL A   1      40.585  25.811  27.774  1.00  0.00     0.029 A 
ATOM     39  C   UNL A   1      41.881  26.062  28.394  1.00  0.00     0.049 A 
ATOM     40  H   UNL A   1      42.430  27.690  29.571  1.00  0.00     0.167 HD
ATOM     41  C   UNL A   1      43.510  31.303  31.810  1.00  0.00     0.037 A 
ATOM     42  C   UNL A   1      42.960  25.261  28.304  1.00  0.00     0.037 A 
ATOM     43  C   UNL A   1      44.673  30.458  31.868  1.00  0.00     0.049 A 
ATOM     44  C   UNL A   1      44.225  25.655  29.015  1.00  0.00     0.074 A 
ATOM     45  C   UNL A   1      45.865  30.674  32.538  1.00  0.00     0.029 A 
ATOM     46  N   UNL A   1      44.790  29.234  31.226  1.00  0.00    -0.354 N 
ATOM     47  N   UNL A   1      44.474  26.723  29.732  1.00  0.00    -0.248 NA
ATOM     48  C   UNL A   1      45.360  24.725  28.912  1.00  0.00     0.031 C 
ATOM     49  C   UNL A   1      46.721  29.604  32.261  1.00  0.00     0.029 A 
ATOM     50  C   UNL A   1      46.046  28.695  31.463  1.00  0.00     0.049 A 
ATOM     51  H   UNL A   1      44.088  28.811  30.682  1.00  0.00     0.167 HD
ATOM     52  C   UNL A   1      45.777  26.585  30.187  1.00  0.00     0.074 A 
ATOM     53  C   UNL A   1      46.263  25.318  29.680  1.00  0.00     0.031 C 
ATOM     54  C   UNL A   1      46.509  27.429  30.954  1.00  0.00     0.037 A 
BRANCH  41  55
ATOM     55  C   UNL A   1      43.574  32.645  32.481  1.00  0.00     0.064 A 
ATOM     56  C   UNL A   1      43.211  32.817  33.826  1.00  0.00     0.173 A 
ATOM     57  C   UNL A   1      44.047  33.767  31.783  1.00  0.00     0.173 A 
ATOM     58  F   UNL A   1      42.741  31.779  34.535  1.00  0.00    -0.203 F 
ATOM     59  C   UNL A   1      43.292  34.065  34.438  1.00  0.00     0.198 A 
ATOM     60  C   UNL A   1      44.156  35.007  32.406  1.00  0.00     0.198 A 
ATOM     61  F   UNL A   1      44.413  33.658  30.496  1.00  0.00    -0.203 F 
ATOM     62  F   UNL A   1      42.895  34.212  35.709  1.00  0.00    -0.200 F 
ATOM     63  C   UNL A   1      43.772  35.157  33.731  1.00  0.00     0.200 A 
ATOM     64  F   UNL A   1      44.634  36.058  31.725  1.00  0.00    -0.200 F 
ATOM     65  F   UNL A   1      43.860  36.355  34.324  1.00  0.00    -0.200 F 
ENDBRANCH  41  55
BRANCH  42  66
ATOM     66  C   UNL A   1      42.883  23.996  27.526  1.00  0.00     0.064 A 
ATOM     67  C   UNL A   1      43.187  23.972  26.157  1.00  0.00     0.173 A 
ATOM     68  C   UNL A   1      42.496  22.790  28.129  1.00  0.00     0.173 A 
ATOM     69  F   UNL A   1      43.544  25.103  25.531  1.00  0.00    -0.203 F 
ATOM     70  C   UNL A   1      43.085  22.795  25.418  1.00  0.00     0.198 A 
ATOM     71  C   UNL A   1      42.423  21.608  27.395  1.00  0.00     0.198 A 
ATOM     72  F   UNL A   1      42.200  22.758  29.437  1.00  0.00    -0.203 F 
ATOM     73  F   UNL A   1      43.335  22.811  24.102  1.00  0.00    -0.200 F 
ATOM     74  C   UNL A   1      42.709  21.613  26.038  1.00  0.00     0.200 A 
ATOM     75  F   UNL A   1      42.074  20.466  28.003  1.00  0.00    -0.200 F 
ATOM     76  F   UNL A   1      42.613  20.482  25.327  1.00  0.00    -0.200 F 
ENDBRANCH  42  66
BRANCH  54  77
ATOM     77  C   UNL A   1      47.899  26.998  31.318  1.00  0.00     0.064 A 
ATOM     78  C   UNL A   1      49.016  27.407  30.574  1.00  0.00     0.173 A 
ATOM     79  C   UNL A   1      48.120  26.195  32.448  1.00  0.00     0.173 A 
ATOM     80  F   UNL A   1      48.857  28.162  29.478  1.00  0.00    -0.203 F 
ATOM     81  C   UNL A   1      50.300  27.005  30.934  1.00  0.00     0.198 A 
ATOM     82  C   UNL A   1      49.407  25.822  32.822  1.00  0.00     0.198 A 
ATOM     83  F   UNL A   1      47.086  25.783  33.198  1.00  0.00    -0.203 F 
ATOM     84  F   UNL A   1      51.348  27.366  30.179  1.00  0.00    -0.200 F 
ATOM     85  C   UNL A   1      50.496  26.220  32.060  1.00  0.00     0.200 A 
ATOM     86  F   UNL A   1      49.595  25.076  33.919  1.00  0.00    -0.200 F 
ATOM     87  F   UNL A   1      51.732  25.841  32.407  1.00  0.00    -0.200 F 
ENDBRANCH  54  77
ENDBRANCH  28  29
ENDBRANCH  20  23
ENDBRANCH  18  19
ENDBRANCH  17  18
ENDBRANCH  16  17
ENDBRANCH   3  16
TORSDOF 15
ENDMDL
MODEL 2
REMARK VINA RESULT:      -9.7      0.868      2.398
REMARK SMILES CCCCCC(=O)N[C@H](C)C(=O)NCCCNC(=O)c1ccc(-c2c3nc(c(-c4c(F)c(F)c(F)c(F)c4F)c4ccc([nH]4)c(-c4c(F)c(F)c(F)c(F)c4F)c4nc(c(-c5c(F)c(F)c(F)c(F)c5F)c5ccc2[nH]5)C=C4)C=C3)cc1
REMARK SMILES IDX 11 1 12 2 13 3 9 5 10 6 8 7 6 8 7 9 5 11 4 12 3 13 2 14 1 15
REMARK SMILES IDX 14 16 15 17 16 18 17 19 18 20 19 22 20 23 21 24 82 25 22 26
REMARK SMILES IDX 81 27 23 28 24 29 25 30 75 31 26 32 80 33 74 34 76 35 27 36
REMARK SMILES IDX 79 37 73 38 72 39 28 41 60 42 40 43 59 44 41 45 44 46 58 47
REMARK SMILES IDX 77 48 42 49 43 50 57 52 78 53 45 54 29 55 30 56 38 57 31 58
REMARK SMILES IDX 32 59 36 60 39 61 33 62 34 63 37 64 35 65 61 66 62 67 70 68
REMARK SMILES IDX 63 69 64 70 68 71 71 72 65 73 66 74 69 75 67 76 46 77 47 78
REMARK SMILES IDX 55 79 48 80 49 81 53 82 56 83 50 84 51 85 54 86 52 87
REMARK H PARENT 13 4 8 10 17 21 76 40 44 51
REMARK Flexibility Score: inf
ROOT
ATOM      1  C   UNL A   1      32.913  35.648  31.744  1.00  0.00     0.242 C 
ATOM      2  O   UNL A   1      31.778  35.600  32.227  1.00  0.00    -0.273 OA
ATOM      3  N   UNL A   1      33.088  35.114  30.501  1.00  0.00    -0.354 N 
ATOM      4  H   UNL A   1      32.443  35.386  29.809  1.00  0.00     0.163 HD
ENDROOT
BRANCH   1   5
ATOM      5  C   UNL A   1      34.108  36.204  32.544  1.00  0.00     0.168 C 
ATOM      6  C   UNL A   1      33.829  37.650  32.928  1.00  0.00     0.041 C 
BRANCH   5   7
ATOM      7  N   UNL A   1      34.427  35.383  33.712  1.00  0.00    -0.345 N 
ATOM      8  C   UNL A   1      35.374  34.419  33.867  1.00  0.00     0.220 C 
ATOM      9  O   UNL A   1      35.228  33.619  34.794  1.00  0.00    -0.275 OA
ATOM     10  H   UNL A   1      33.871  35.553  34.507  1.00  0.00     0.164 HD
BRANCH   8  11
ATOM     11  C   UNL A   1      36.608  34.382  32.989  1.00  0.00     0.100 C 
BRANCH  11  12
ATOM     12  C   UNL A   1      37.445  33.102  33.066  1.00  0.00     0.010 C 
BRANCH  12  13
ATOM     13  C   UNL A   1      38.667  33.119  33.990  1.00  0.00     0.000 C 
BRANCH  13  14
ATOM     14  C   UNL A   1      38.915  31.842  34.801  1.00  0.00    -0.003 C 
ATOM     15  C   UNL A   1      38.155  30.641  34.268  1.00  0.00     0.004 C 
ENDBRANCH  13  14
ENDBRANCH  12  13
ENDBRANCH  11  12
ENDBRANCH   8  11
ENDBRANCH   5   7
ENDBRANCH   1   5
BRANCH   3  16
ATOM     16  C   UNL A   1      34.128  34.189  30.097  1.00  0.00     0.117 C 
BRANCH  16  17
ATOM     17  C   UNL A   1      34.384  34.317  28.598  1.00  0.00     0.042 C 
BRANCH  17  18
ATOM     18  C   UNL A   1      35.066  33.092  27.997  1.00  0.00     0.118 C 
BRANCH  18  19
ATOM     19  N   UNL A   1      34.136  31.987  27.807  1.00  0.00    -0.352 N 
ATOM     20  C   UNL A   1      34.393  30.643  27.755  1.00  0.00     0.251 C 
ATOM     21  H   UNL A   1      33.192  32.243  27.700  1.00  0.00     0.163 HD
ATOM     22  O   UNL A   1      33.531  29.863  27.349  1.00  0.00    -0.269 OA
BRANCH  20  23
ATOM     23  C   UNL A   1      35.712  30.131  28.174  1.00  0.00     0.039 A 
ATOM     24  C   UNL A   1      36.758  30.114  27.252  1.00  0.00     0.014 A 
ATOM     25  C   UNL A   1      35.909  29.663  29.477  1.00  0.00     0.014 A 
ATOM     26  C   UNL A   1      38.022  29.681  27.652  1.00  0.00     0.010 A 
ATOM     27  C   UNL A   1      37.186  29.310  29.898  1.00  0.00     0.010 A 
ATOM     28  C   UNL A   1      38.253  29.306  28.986  1.00  0.00    -0.014 A 
BRANCH  28  29
ATOM     29  C   UNL A   1      39.604  28.900  29.447  1.00  0.00     0.031 A 
ATOM     30  C   UNL A   1      40.388  29.796  30.364  1.00  0.00     0.074 A 
ATOM     31  C   UNL A   1      40.149  27.760  28.982  1.00  0.00     0.049 A 
ATOM     32  N   UNL A   1      41.606  29.650  30.822  1.00  0.00    -0.248 NA
ATOM     33  C   UNL A   1      39.729  31.038  30.800  1.00  0.00     0.031 C 
ATOM     34  C   UNL A   1      39.509  26.838  28.042  1.00  0.00     0.029 A 
ATOM     35  N   UNL A   1      41.372  27.186  29.228  1.00  0.00    -0.354 N 
ATOM     36  C   UNL A   1      41.862  30.785  31.581  1.00  0.00     0.074 A 
ATOM     37  C   UNL A   1      40.696  31.634  31.481  1.00  0.00     0.031 C 
ATOM     38  C   UNL A   1      40.335  25.807  27.805  1.00  0.00     0.029 A 
ATOM     39  C   UNL A   1      41.575  26.012  28.546  1.00  0.00     0.049 A 
ATOM     40  H   UNL A   1      42.039  27.580  29.836  1.00  0.00     0.167 HD
ATOM     41  C   UNL A   1      42.962  31.079  32.314  1.00  0.00     0.037 A 
ATOM     42  C   UNL A   1      42.648  25.198  28.516  1.00  0.00     0.037 A 
ATOM     43  C   UNL A   1      44.104  30.213  32.437  1.00  0.00     0.049 A 
ATOM     44  C   UNL A   1      43.851  25.541  29.352  1.00  0.00     0.074 A 
ATOM     45  C   UNL A   1      45.235  30.382  33.217  1.00  0.00     0.029 A 
ATOM     46  N   UNL A   1      44.263  29.016  31.756  1.00  0.00    -0.354 N 
ATOM     47  N   UNL A   1      44.048  26.575  30.133  1.00  0.00    -0.248 NA
ATOM     48  C   UNL A   1      44.979  24.599  29.308  1.00  0.00     0.031 C 
ATOM     49  C   UNL A   1      46.100  29.311  32.970  1.00  0.00     0.029 A 
ATOM     50  C   UNL A   1      45.486  28.447  32.078  1.00  0.00     0.049 A 
ATOM     51  H   UNL A   1      43.606  28.626  31.135  1.00  0.00     0.167 HD
ATOM     52  C   UNL A   1      45.305  26.396  30.694  1.00  0.00     0.074 A 
ATOM     53  C   UNL A   1      45.818  25.144  30.177  1.00  0.00     0.031 C 
ATOM     54  C   UNL A   1      45.977  27.196  31.557  1.00  0.00     0.037 A 
BRANCH  41  55
ATOM     55  C   UNL A   1      42.983  32.390  33.045  1.00  0.00     0.064 A 
ATOM     56  C   UNL A   1      43.464  33.564  32.444  1.00  0.00     0.173 A 
ATOM     57  C   UNL A   1      42.475  32.485  34.350  1.00  0.00     0.173 A 
ATOM     58  F   UNL A   1      43.971  33.527  31.202  1.00  0.00    -0.203 F 
ATOM     59  C   UNL A   1      43.461  34.775  33.131  1.00  0.00     0.198 A 
ATOM     60  C   UNL A   1      42.446  33.703  35.022  1.00  0.00     0.198 A 
ATOM     61  F   UNL A   1      41.999  31.394  34.970  1.00  0.00    -0.203 F 
ATOM     62  F   UNL A   1      43.969  35.872  32.552  1.00  0.00    -0.200 F 
ATOM     63  C   UNL A   1      42.945  34.846  34.415  1.00  0.00     0.200 A 
ATOM     64  F   UNL A   1      41.933  33.772  36.259  1.00  0.00    -0.200 F 
ATOM     65  F   UNL A   1      42.933  36.014  35.071  1.00  0.00    -0.200 F 
ENDBRANCH  41  55
BRANCH  42  66
ATOM     66  C   UNL A   1      42.624  23.968  27.681  1.00  0.00     0.064 A 
ATOM     67  C   UNL A   1      42.215  22.739  28.219  1.00  0.00     0.173 A 
ATOM     68  C   UNL A   1      43.015  23.993  26.335  1.00  0.00     0.173 A 
ATOM     69  F   UNL A   1      41.850  22.660  29.507  1.00  0.00    -0.203 F 
ATOM     70  C   UNL A   1      42.222  21.578  27.448  1.00  0.00     0.198 A 
ATOM     71  C   UNL A   1      42.993  22.836  25.557  1.00  0.00     0.198 A 
ATOM     72  F   UNL A   1      43.408  25.144  25.770  1.00  0.00    -0.203 F 
ATOM     73  F   UNL A   1      41.874  20.408  28.001  1.00  0.00    -0.200 F 
ATOM     74  C   UNL A   1      42.606  21.628  26.116  1.00  0.00     0.200 A 
ATOM     75  F   UNL A   1      43.350  22.894  24.266  1.00  0.00    -0.200 F 
ATOM     76  F   UNL A   1      42.611  20.512  25.375  1.00  0.00    -0.200 F 
ENDBRANCH  42  66
BRANCH  54  77
ATOM     77  C   UNL A   1      47.324  26.728  32.023  1.00  0.00     0.064 A 
ATOM     78  C   UNL A   1      47.463  25.828  33.090  1.00  0.00     0.173 A 
ATOM     79  C   UNL A   1      48.489  27.155  31.367  1.00  0.00     0.173 A 
ATOM     80  F   UNL A   1      46.381  25.401  33.757  1.00  0.00    -0.203 F 
ATOM     81  C   UNL A   1      48.721  25.395  33.500  1.00  0.00     0.198 A 
ATOM     82  C   UNL A   1      49.742  26.696  31.760  1.00  0.00     0.198 A 
ATOM     83  F   UNL A   1      48.411  28.010  30.336  1.00  0.00    -0.203 F 
ATOM     84  F   UNL A   1      48.833  24.575  34.555  1.00  0.00    -0.200 F 
ATOM     85  C   UNL A   1      49.858  25.823  32.832  1.00  0.00     0.200 A 
ATOM     86  F   UNL A   1      50.839  27.099  31.104  1.00  0.00    -0.200 F 
ATOM     87  F   UNL A   1      51.067  25.399  33.225  1.00  0.00    -0.200 F 
ENDBRANCH  54  77
ENDBRANCH  28  29
ENDBRANCH  20  23
ENDBRANCH  18  19
ENDBRANCH  17  18
ENDBRANCH  16  17
ENDBRANCH   3  16
TORSDOF 15
ENDMDL
MODEL 3
REMARK VINA RESULT:      -9.6      5.282     10.250
REMARK SMILES CCCCCC(=O)N[C@H](C)C(=O)NCCCNC(=O)c1ccc(-c2c3nc(c(-c4c(F)c(F)c(F)c(F)c4F)c4ccc([nH]4)c(-c4c(F)c(F)c(F)c(F)c4F)c4nc(c(-c5c(F)c(F)c(F)c(F)c5F)c5ccc2[nH]5)C=C4)C=C3)cc1
REMARK SMILES IDX 11 1 12 2 13 3 9 5 10 6 8 7 6 8 7 9 5 11 4 12 3 13 2 14 1 15
REMARK SMILES IDX 14 16 15 17 16 18 17 19 18 20 19 22 20 23 21 24 82 25 22 26
REMARK SMILES IDX 81 27 23 28 24 29 25 30 75 31 26 32 80 33 74 34 76 35 27 36
REMARK SMILES IDX 79 37 73 38 72 39 28 41 60 42 40 43 59 44 41 45 44 46 58 47
REMARK SMILES IDX 77 48 42 49 43 50 57 52 78 53 45 54 29 55 30 56 38 57 31 58
REMARK SMILES IDX 32 59 36 60 39 61 33 62 34 63 37 64 35 65 61 66 62 67 70 68
REMARK SMILES IDX 63 69 64 70 68 71 71 72 65 73 66 74 69 75 67 76 46 77 47 78
REMARK SMILES IDX 55 79 48 80 49 81 53 82 56 83 50 84 51 85 54 86 52 87
REMARK H PARENT 13 4 8 10 17 21 76 40 44 51
REMARK Flexibility Score: inf
ROOT
ATOM      1  C   UNL A   1      36.163  22.444  25.906  1.00  0.00     0.242 C 
ATOM      2  O   UNL A   1      36.344  23.664  25.937  1.00  0.00    -0.273 OA
ATOM      3  N   UNL A   1      37.227  21.661  25.567  1.00  0.00    -0.354 N 
ATOM      4  H   UNL A   1      38.075  21.839  26.035  1.00  0.00     0.163 HD
ENDROOT
BRANCH   1   5
ATOM      5  C   UNL A   1      34.771  21.828  26.153  1.00  0.00     0.168 C 
ATOM      6  C   UNL A   1      34.218  22.341  27.474  1.00  0.00     0.041 C 
BRANCH   5   7
ATOM      7  N   UNL A   1      33.849  22.074  25.044  1.00  0.00    -0.345 N 
ATOM      8  C   UNL A   1      33.181  21.191  24.254  1.00  0.00     0.220 C 
ATOM      9  O   UNL A   1      32.757  21.602  23.171  1.00  0.00    -0.275 OA
ATOM     10  H   UNL A   1      33.688  23.023  24.838  1.00  0.00     0.164 HD
BRANCH   8  11
ATOM     11  C   UNL A   1      32.893  19.779  24.722  1.00  0.00     0.100 C 
BRANCH  11  12
ATOM     12  C   UNL A   1      34.036  18.774  24.557  1.00  0.00     0.010 C 
BRANCH  12  13
ATOM     13  C   UNL A   1      33.652  17.304  24.361  1.00  0.00     0.000 C 
BRANCH  13  14
ATOM     14  C   UNL A   1      33.306  16.524  25.634  1.00  0.00    -0.003 C 
ATOM     15  C   UNL A   1      32.759  15.136  25.353  1.00  0.00     0.004 C 
ENDBRANCH  13  14
ENDBRANCH  12  13
ENDBRANCH  11  12
ENDBRANCH   8  11
ENDBRANCH   5   7
ENDBRANCH   1   5
BRANCH   3  16
ATOM     16  C   UNL A   1      37.237  20.594  24.586  1.00  0.00     0.117 C 
BRANCH  16  17
ATOM     17  C   UNL A   1      38.180  19.482  25.036  1.00  0.00     0.042 C 
BRANCH  17  18
ATOM     18  C   UNL A   1      39.385  19.994  25.815  1.00  0.00     0.118 C 
BRANCH  18  19
ATOM     19  N   UNL A   1      40.425  18.981  25.942  1.00  0.00    -0.352 N 
ATOM     20  C   UNL A   1      41.777  19.146  26.079  1.00  0.00     0.251 C 
ATOM     21  H   UNL A   1      40.110  18.048  25.926  1.00  0.00     0.163 HD
ATOM     22  O   UNL A   1      42.536  18.187  25.932  1.00  0.00    -0.269 OA
BRANCH  20  23
ATOM     23  C   UNL A   1      42.327  20.479  26.391  1.00  0.00     0.039 A 
ATOM     24  C   UNL A   1      42.821  21.269  25.352  1.00  0.00     0.014 A 
ATOM     25  C   UNL A   1      42.358  20.943  27.709  1.00  0.00     0.014 A 
ATOM     26  C   UNL A   1      43.295  22.551  25.629  1.00  0.00     0.010 A 
ATOM     27  C   UNL A   1      42.753  22.250  27.972  1.00  0.00     0.010 A 
ATOM     28  C   UNL A   1      43.234  23.063  26.936  1.00  0.00    -0.014 A 
BRANCH  28  29
ATOM     29  C   UNL A   1      43.677  24.447  27.240  1.00  0.00     0.031 A 
ATOM     30  C   UNL A   1      42.689  25.459  27.747  1.00  0.00     0.074 A 
ATOM     31  C   UNL A   1      44.951  24.806  26.992  1.00  0.00     0.049 A 
ATOM     32  N   UNL A   1      42.866  26.730  28.007  1.00  0.00    -0.248 NA
ATOM     33  C   UNL A   1      41.311  24.989  27.963  1.00  0.00     0.031 C 
ATOM     34  C   UNL A   1      45.986  23.928  26.443  1.00  0.00     0.029 A 
ATOM     35  N   UNL A   1      45.590  26.009  27.156  1.00  0.00    -0.354 N 
ATOM     36  C   UNL A   1      41.622  27.211  28.396  1.00  0.00     0.074 A 
ATOM     37  C   UNL A   1      40.689  26.112  28.290  1.00  0.00     0.031 C 
ATOM     38  C   UNL A   1      47.134  24.615  26.335  1.00  0.00     0.029 A 
ATOM     39  C   UNL A   1      46.908  25.989  26.770  1.00  0.00     0.049 A 
ATOM     40  H   UNL A   1      45.146  26.810  27.518  1.00  0.00     0.167 HD
ATOM     41  C   UNL A   1      41.296  28.454  28.826  1.00  0.00     0.037 A 
ATOM     42  C   UNL A   1      47.827  26.973  26.761  1.00  0.00     0.037 A 
ATOM     43  C   UNL A   1      42.237  29.533  28.962  1.00  0.00     0.049 A 
ATOM     44  C   UNL A   1      47.440  28.340  27.258  1.00  0.00     0.074 A 
ATOM     45  C   UNL A   1      42.024  30.806  29.463  1.00  0.00     0.029 A 
ATOM     46  N   UNL A   1      43.571  29.468  28.590  1.00  0.00    -0.354 N 
ATOM     47  N   UNL A   1      46.283  28.762  27.704  1.00  0.00    -0.248 NA
ATOM     48  C   UNL A   1      48.493  29.367  27.257  1.00  0.00     0.031 C 
ATOM     49  C   UNL A   1      43.217  31.526  29.349  1.00  0.00     0.029 A 
ATOM     50  C   UNL A   1      44.188  30.687  28.827  1.00  0.00     0.049 A 
ATOM     51  H   UNL A   1      44.015  28.675  28.214  1.00  0.00     0.167 HD
ATOM     52  C   UNL A   1      46.471  30.089  28.062  1.00  0.00     0.074 A 
ATOM     53  C   UNL A   1      47.861  30.399  27.798  1.00  0.00     0.031 C 
ATOM     54  C   UNL A   1      45.575  30.974  28.563  1.00  0.00     0.037 A 
BRANCH  41  55
ATOM     55  C   UNL A   1      39.861  28.713  29.185  1.00  0.00     0.064 A 
ATOM     56  C   UNL A   1      39.377  28.509  30.486  1.00  0.00     0.173 A 
ATOM     57  C   UNL A   1      38.968  29.215  28.225  1.00  0.00     0.173 A 
ATOM     58  F   UNL A   1      40.186  28.020  31.439  1.00  0.00    -0.203 F 
ATOM     59  C   UNL A   1      38.047  28.771  30.806  1.00  0.00     0.198 A 
ATOM     60  C   UNL A   1      37.647  29.504  28.556  1.00  0.00     0.198 A 
ATOM     61  F   UNL A   1      39.379  29.432  26.967  1.00  0.00    -0.203 F 
ATOM     62  F   UNL A   1      37.598  28.523  32.044  1.00  0.00    -0.200 F 
ATOM     63  C   UNL A   1      37.186  29.275  29.845  1.00  0.00     0.200 A 
ATOM     64  F   UNL A   1      36.820  30.005  27.629  1.00  0.00    -0.200 F 
ATOM     65  F   UNL A   1      35.909  29.537  30.157  1.00  0.00    -0.200 F 
ENDBRANCH  41  55
BRANCH  42  66
ATOM     66  C   UNL A   1      49.207  26.697  26.282  1.00  0.00     0.064 A 
ATOM     67  C   UNL A   1      49.574  26.951  24.953  1.00  0.00     0.173 A 
ATOM     68  C   UNL A   1      50.184  26.167  27.138  1.00  0.00     0.173 A 
ATOM     69  F   UNL A   1      48.670  27.440  24.091  1.00  0.00    -0.203 F 
ATOM     70  C   UNL A   1      50.857  26.663  24.493  1.00  0.00     0.198 A 
ATOM     71  C   UNL A   1      51.475  25.907  26.684  1.00  0.00     0.198 A 
ATOM     72  F   UNL A   1      49.886  25.911  28.421  1.00  0.00    -0.203 F 
ATOM     73  F   UNL A   1      51.166  26.870  23.205  1.00  0.00    -0.200 F 
ATOM     74  C   UNL A   1      51.809  26.146  25.360  1.00  0.00     0.200 A 
ATOM     75  F   UNL A   1      52.395  25.422  27.530  1.00  0.00    -0.200 F 
ATOM     76  F   UNL A   1      53.042  25.871  24.917  1.00  0.00    -0.200 F 
ENDBRANCH  42  66
BRANCH  54  77
ATOM     77  C   UNL A   1      46.077  32.351  28.888  1.00  0.00     0.064 A 
ATOM     78  C   UNL A   1      46.050  33.387  27.943  1.00  0.00     0.173 A 
ATOM     79  C   UNL A   1      46.555  32.645  30.175  1.00  0.00     0.173 A 
ATOM     80  F   UNL A   1      45.616  33.151  26.696  1.00  0.00    -0.203 F 
ATOM     81  C   UNL A   1      46.510  34.661  28.267  1.00  0.00     0.198 A 
ATOM     82  C   UNL A   1      46.984  33.928  30.503  1.00  0.00     0.198 A 
ATOM     83  F   UNL A   1      46.594  31.692  31.118  1.00  0.00    -0.203 F 
ATOM     84  F   UNL A   1      46.523  35.623  27.333  1.00  0.00    -0.200 F 
ATOM     85  C   UNL A   1      46.969  34.932  29.546  1.00  0.00     0.200 A 
ATOM     86  F   UNL A   1      47.413  34.192  31.744  1.00  0.00    -0.200 F 
ATOM     87  F   UNL A   1      47.404  36.161  29.857  1.00  0.00    -0.200 F 
ENDBRANCH  54  77
ENDBRANCH  28  29
ENDBRANCH  20  23
ENDBRANCH  18  19
ENDBRANCH  17  18
ENDBRANCH  16  17
ENDBRANCH   3  16
TORSDOF 15
ENDMDL
