MODEL 1
REMARK VINA RESULT:      -9.9      0.000      0.000
REMARK SMILES C[C@@H](C(=O)NCCCNC(=O)c1ccc(-c2c3nc(c(-c4c(F)c(F)c(F)c(F)c4F)c4ccc([nH]4)c(-c4c(F)c(F)c(F)c(F)c4F)c4nc(c(-c5c(F)c(F)c(F)c(F)c5F)c5ccc2[nH]5)C=C4)C=C3)cc1)c1ccc(-c2cccc(OC(=O)NCCCc3ccccc3)c2)c(F)c1
REMARK SMILES IDX 1 1 2 2 3 3 4 4 5 5 6 7 7 8 8 9 9 10 10 11 11 13 12 14 13 15
REMARK SMILES IDX 74 16 14 17 73 18 15 19 16 20 17 21 67 22 18 23 72 24 66 25
REMARK SMILES IDX 68 26 19 27 71 28 65 29 64 30 20 32 52 33 32 34 51 35 33 36
REMARK SMILES IDX 36 37 50 38 69 39 34 40 35 41 49 43 70 44 37 45 21 46 22 47
REMARK SMILES IDX 30 48 23 49 24 50 28 51 31 52 25 53 26 54 29 55 27 56 53 57
REMARK SMILES IDX 54 58 62 59 55 60 56 61 60 62 63 63 57 64 58 65 61 66 59 67
REMARK SMILES IDX 38 68 39 69 47 70 40 71 41 72 45 73 48 74 42 75 43 76 46 77
REMARK SMILES IDX 44 78 75 79 76 80 100 81 77 82 98 83 78 84 99 85 79 86 80 87
REMARK SMILES IDX 97 88 81 89 83 90 82 91 84 92 85 93 86 94 87 95 88 97 89 98
REMARK SMILES IDX 90 99 91 100 92 101 96 102 93 103 95 104 94 105
REMARK H PARENT 5 6 9 12 68 31 36 42 87 96
REMARK Flexibility Score: inf
ROOT
ATOM      1  C   UNL A   1      45.384  25.411  26.666  1.00  0.00     0.023 C 
ATOM      2  C   UNL A   1      44.609  24.172  27.128  1.00  0.00     0.105 C 
ENDROOT
BRANCH   2   3
ATOM      3  C   UNL A   1      45.172  22.878  26.523  1.00  0.00     0.227 C 
ATOM      4  O   UNL A   1      46.378  22.640  26.434  1.00  0.00    -0.274 OA
ATOM      5  N   UNL A   1      44.324  21.907  26.082  1.00  0.00    -0.356 N 
ATOM      6  H   UNL A   1      44.752  21.047  25.867  1.00  0.00     0.163 HD
BRANCH   5   7
ATOM      7  C   UNL A   1      42.891  21.946  25.880  1.00  0.00     0.117 C 
BRANCH   7   8
ATOM      8  C   UNL A   1      42.167  21.092  26.919  1.00  0.00     0.042 C 
BRANCH   8   9
ATOM      9  C   UNL A   1      40.973  21.789  27.565  1.00  0.00     0.118 C 
BRANCH   9  10
ATOM     10  N   UNL A   1      39.851  21.930  26.650  1.00  0.00    -0.352 N 
ATOM     11  C   UNL A   1      39.054  23.017  26.396  1.00  0.00     0.251 C 
ATOM     12  H   UNL A   1      39.630  21.121  26.133  1.00  0.00     0.163 HD
ATOM     13  O   UNL A   1      38.031  22.879  25.733  1.00  0.00    -0.269 OA
BRANCH  11  14
ATOM     14  C   UNL A   1      39.410  24.350  26.930  1.00  0.00     0.039 A 
ATOM     15  C   UNL A   1      39.008  24.682  28.227  1.00  0.00     0.014 A 
ATOM     16  C   UNL A   1      40.103  25.282  26.152  1.00  0.00     0.014 A 
ATOM     17  C   UNL A   1      39.350  25.923  28.764  1.00  0.00     0.010 A 
ATOM     18  C   UNL A   1      40.508  26.490  26.715  1.00  0.00     0.010 A 
ATOM     19  C   UNL A   1      40.132  26.825  28.024  1.00  0.00    -0.014 A 
BRANCH  19  20
ATOM     20  C   UNL A   1      40.564  28.122  28.602  1.00  0.00     0.031 A 
ATOM     21  C   UNL A   1      41.996  28.332  29.006  1.00  0.00     0.074 A 
ATOM     22  C   UNL A   1      39.652  29.089  28.822  1.00  0.00     0.049 A 
ATOM     23  N   UNL A   1      42.549  29.364  29.595  1.00  0.00    -0.248 NA
ATOM     24  C   UNL A   1      42.928  27.226  28.736  1.00  0.00     0.031 C 
ATOM     25  C   UNL A   1      38.224  28.989  28.515  1.00  0.00     0.029 A 
ATOM     26  N   UNL A   1      39.786  30.340  29.369  1.00  0.00    -0.354 N 
ATOM     27  C   UNL A   1      43.883  29.025  29.778  1.00  0.00     0.074 A 
ATOM     28  C   UNL A   1      44.048  27.674  29.284  1.00  0.00     0.031 C 
ATOM     29  C   UNL A   1      37.619  30.137  28.859  1.00  0.00     0.029 A 
ATOM     30  C   UNL A   1      38.605  31.038  29.447  1.00  0.00     0.049 A 
ATOM     31  H   UNL A   1      40.648  30.705  29.676  1.00  0.00     0.167 HD
ATOM     32  C   UNL A   1      44.884  29.779  30.291  1.00  0.00     0.037 A 
ATOM     33  C   UNL A   1      38.347  32.261  29.946  1.00  0.00     0.037 A 
ATOM     34  C   UNL A   1      44.721  31.131  30.758  1.00  0.00     0.049 A 
ATOM     35  C   UNL A   1      39.475  33.076  30.516  1.00  0.00     0.074 A 
ATOM     36  C   UNL A   1      45.685  32.000  31.240  1.00  0.00     0.029 A 
ATOM     37  N   UNL A   1      43.512  31.811  30.802  1.00  0.00    -0.354 N 
ATOM     38  N   UNL A   1      40.745  32.770  30.622  1.00  0.00    -0.248 NA
ATOM     39  C   UNL A   1      39.135  34.411  31.028  1.00  0.00     0.031 C 
ATOM     40  C   UNL A   1      45.052  33.188  31.619  1.00  0.00     0.029 A 
ATOM     41  C   UNL A   1      43.703  33.080  31.323  1.00  0.00     0.049 A 
ATOM     42  H   UNL A   1      42.648  31.445  30.506  1.00  0.00     0.167 HD
ATOM     43  C   UNL A   1      41.360  33.881  31.183  1.00  0.00     0.074 A 
ATOM     44  C   UNL A   1      40.325  34.874  31.383  1.00  0.00     0.031 C 
ATOM     45  C   UNL A   1      42.664  34.062  31.503  1.00  0.00     0.037 A 
BRANCH  32  46
ATOM     46  C   UNL A   1      46.249  29.160  30.374  1.00  0.00     0.064 A 
ATOM     47  C   UNL A   1      46.675  28.468  31.518  1.00  0.00     0.173 A 
ATOM     48  C   UNL A   1      47.127  29.220  29.280  1.00  0.00     0.173 A 
ATOM     49  F   UNL A   1      45.880  28.389  32.594  1.00  0.00    -0.203 F 
ATOM     50  C   UNL A   1      47.939  27.885  31.574  1.00  0.00     0.198 A 
ATOM     51  C   UNL A   1      48.377  28.610  29.328  1.00  0.00     0.198 A 
ATOM     52  F   UNL A   1      46.767  29.864  28.158  1.00  0.00    -0.203 F 
ATOM     53  F   UNL A   1      48.341  27.270  32.695  1.00  0.00    -0.200 F 
ATOM     54  C   UNL A   1      48.785  27.949  30.477  1.00  0.00     0.200 A 
ATOM     55  F   UNL A   1      49.188  28.661  28.263  1.00  0.00    -0.200 F 
ATOM     56  F   UNL A   1      49.997  27.380  30.530  1.00  0.00    -0.200 F 
ENDBRANCH  32  46
BRANCH  33  57
ATOM     57  C   UNL A   1      36.962  32.800  29.909  1.00  0.00     0.064 A 
ATOM     58  C   UNL A   1      36.141  32.752  31.044  1.00  0.00     0.173 A 
ATOM     59  C   UNL A   1      36.428  33.367  28.742  1.00  0.00     0.173 A 
ATOM     60  F   UNL A   1      36.600  32.201  32.178  1.00  0.00    -0.203 F 
ATOM     61  C   UNL A   1      34.833  33.230  31.008  1.00  0.00     0.198 A 
ATOM     62  C   UNL A   1      35.130  33.870  28.715  1.00  0.00     0.198 A 
ATOM     63  F   UNL A   1      37.174  33.442  27.630  1.00  0.00    -0.203 F 
ATOM     64  F   UNL A   1      34.055  33.128  32.094  1.00  0.00    -0.200 F 
ATOM     65  C   UNL A   1      34.330  33.793  29.845  1.00  0.00     0.200 A 
ATOM     66  F   UNL A   1      34.653  34.428  27.593  1.00  0.00    -0.200 F 
ATOM     67  F   UNL A   1      33.073  34.256  29.811  1.00  0.00    -0.200 F 
ENDBRANCH  33  57
BRANCH  45  68
ATOM     68  C   UNL A   1      43.057  35.398  32.064  1.00  0.00     0.064 A 
ATOM     69  C   UNL A   1      43.601  36.407  31.257  1.00  0.00     0.173 A 
ATOM     70  C   UNL A   1      42.846  35.685  33.422  1.00  0.00     0.173 A 
ATOM     71  F   UNL A   1      43.837  36.176  29.956  1.00  0.00    -0.203 F 
ATOM     72  C   UNL A   1      43.943  37.646  31.792  1.00  0.00     0.198 A 
ATOM     73  C   UNL A   1      43.160  36.935  33.947  1.00  0.00     0.198 A 
ATOM     74  F   UNL A   1      42.321  34.757  34.236  1.00  0.00    -0.203 F 
ATOM     75  F   UNL A   1      44.505  38.579  31.012  1.00  0.00    -0.200 F 
ATOM     76  C   UNL A   1      43.714  37.912  33.134  1.00  0.00     0.200 A 
ATOM     77  F   UNL A   1      42.925  37.195  35.241  1.00  0.00    -0.200 F 
ATOM     78  F   UNL A   1      44.036  39.108  33.646  1.00  0.00    -0.200 F 
ENDBRANCH  45  68
ENDBRANCH  19  20
ENDBRANCH  11  14
ENDBRANCH   9  10
ENDBRANCH   8   9
ENDBRANCH   7   8
ENDBRANCH   5   7
ENDBRANCH   2   3
BRANCH   2  79
ATOM     79  C   UNL A   1      44.552  24.078  28.647  1.00  0.00    -0.033 A 
ATOM     80  C   UNL A   1      43.525  23.351  29.267  1.00  0.00     0.005 A 
ATOM     81  C   UNL A   1      45.531  24.675  29.451  1.00  0.00     0.044 A 
ATOM     82  C   UNL A   1      43.442  23.280  30.662  1.00  0.00     0.012 A 
ATOM     83  C   UNL A   1      45.439  24.604  30.834  1.00  0.00     0.131 A 
ATOM     84  C   UNL A   1      44.384  23.934  31.468  1.00  0.00     0.018 A 
ATOM     85  F   UNL A   1      46.378  25.232  31.560  1.00  0.00    -0.206 F 
BRANCH  84  86
ATOM     86  C   UNL A   1      44.216  24.015  32.921  1.00  0.00    -0.012 A 
ATOM     87  C   UNL A   1      43.894  22.902  33.710  1.00  0.00     0.009 A 
ATOM     88  C   UNL A   1      44.374  25.263  33.547  1.00  0.00     0.056 A 
ATOM     89  C   UNL A   1      43.744  23.036  35.094  1.00  0.00     0.004 A 
ATOM     90  C   UNL A   1      44.210  25.397  34.918  1.00  0.00     0.133 A 
ATOM     91  C   UNL A   1      43.902  24.284  35.699  1.00  0.00     0.047 A 
BRANCH  90  92
ATOM     92  O   UNL A   1      44.377  26.617  35.613  1.00  0.00    -0.410 OA
BRANCH  92  93
ATOM     93  C   UNL A   1      43.397  27.255  36.373  1.00  0.00     0.412 C 
ATOM     94  O   UNL A   1      42.889  26.850  37.409  1.00  0.00    -0.224 OA
ATOM     95  N   UNL A   1      43.029  28.467  35.859  1.00  0.00    -0.321 N 
ATOM     96  H   UNL A   1      42.262  28.918  36.279  1.00  0.00     0.167 HD
BRANCH  95  97
ATOM     97  C   UNL A   1      43.667  29.140  34.755  1.00  0.00     0.120 C 
BRANCH  97  98
ATOM     98  C   UNL A   1      42.702  29.846  33.803  1.00  0.00     0.026 C 
BRANCH  98  99
ATOM     99  C   UNL A   1      41.994  29.011  32.728  1.00  0.00     0.037 C 
BRANCH  99 100
ATOM    100  C   UNL A   1      40.487  29.002  32.626  1.00  0.00    -0.048 A 
ATOM    101  C   UNL A   1      39.653  30.051  33.024  1.00  0.00     0.004 A 
ATOM    102  C   UNL A   1      39.877  27.827  32.145  1.00  0.00     0.004 A 
ATOM    103  C   UNL A   1      38.262  29.934  32.950  1.00  0.00     0.000 A 
ATOM    104  C   UNL A   1      38.488  27.712  32.061  1.00  0.00     0.000 A 
ATOM    105  C   UNL A   1      37.679  28.766  32.467  1.00  0.00     0.000 A 
ENDBRANCH  99 100
ENDBRANCH  98  99
ENDBRANCH  97  98
ENDBRANCH  95  97
ENDBRANCH  92  93
ENDBRANCH  90  92
ENDBRANCH  84  86
ENDBRANCH   2  79
TORSDOF 18
ENDMDL
MODEL 2
REMARK VINA RESULT:      -9.9      1.239      2.154
REMARK SMILES C[C@@H](C(=O)NCCCNC(=O)c1ccc(-c2c3nc(c(-c4c(F)c(F)c(F)c(F)c4F)c4ccc([nH]4)c(-c4c(F)c(F)c(F)c(F)c4F)c4nc(c(-c5c(F)c(F)c(F)c(F)c5F)c5ccc2[nH]5)C=C4)C=C3)cc1)c1ccc(-c2cccc(OC(=O)NCCCc3ccccc3)c2)c(F)c1
REMARK SMILES IDX 1 1 2 2 3 3 4 4 5 5 6 7 7 8 8 9 9 10 10 11 11 13 12 14 13 15
REMARK SMILES IDX 74 16 14 17 73 18 15 19 16 20 17 21 67 22 18 23 72 24 66 25
REMARK SMILES IDX 68 26 19 27 71 28 65 29 64 30 20 32 52 33 32 34 51 35 33 36
REMARK SMILES IDX 36 37 50 38 69 39 34 40 35 41 49 43 70 44 37 45 21 46 22 47
REMARK SMILES IDX 30 48 23 49 24 50 28 51 31 52 25 53 26 54 29 55 27 56 53 57
REMARK SMILES IDX 54 58 62 59 55 60 56 61 60 62 63 63 57 64 58 65 61 66 59 67
REMARK SMILES IDX 38 68 39 69 47 70 40 71 41 72 45 73 48 74 42 75 43 76 46 77
REMARK SMILES IDX 44 78 75 79 76 80 100 81 77 82 98 83 78 84 99 85 79 86 80 87
REMARK SMILES IDX 97 88 81 89 83 90 82 91 84 92 85 93 86 94 87 95 88 97 89 98
REMARK SMILES IDX 90 99 91 100 92 101 96 102 93 103 95 104 94 105
REMARK H PARENT 5 6 9 12 68 31 36 42 87 96
REMARK Flexibility Score: inf
ROOT
ATOM      1  C   UNL A   1      45.394  25.315  26.459  1.00  0.00     0.023 C 
ATOM      2  C   UNL A   1      44.611  24.094  26.953  1.00  0.00     0.105 C 
ENDROOT
BRANCH   2   3
ATOM      3  C   UNL A   1      45.163  22.781  26.379  1.00  0.00     0.227 C 
ATOM      4  O   UNL A   1      46.367  22.537  26.283  1.00  0.00    -0.274 OA
ATOM      5  N   UNL A   1      44.307  21.800  25.977  1.00  0.00    -0.356 N 
ATOM      6  H   UNL A   1      44.730  20.933  25.783  1.00  0.00     0.163 HD
BRANCH   5   7
ATOM      7  C   UNL A   1      42.871  21.838  25.792  1.00  0.00     0.117 C 
BRANCH   7   8
ATOM      8  C   UNL A   1      42.153  21.099  26.919  1.00  0.00     0.042 C 
BRANCH   8   9
ATOM      9  C   UNL A   1      41.001  21.886  27.536  1.00  0.00     0.118 C 
BRANCH   9  10
ATOM     10  N   UNL A   1      39.925  22.131  26.588  1.00  0.00    -0.352 N 
ATOM     11  C   UNL A   1      39.150  23.248  26.406  1.00  0.00     0.251 C 
ATOM     12  H   UNL A   1      39.724  21.381  25.983  1.00  0.00     0.163 HD
ATOM     13  O   UNL A   1      38.160  23.189  25.684  1.00  0.00    -0.269 OA
BRANCH  11  14
ATOM     14  C   UNL A   1      39.490  24.517  27.086  1.00  0.00     0.039 A 
ATOM     15  C   UNL A   1      39.021  24.726  28.386  1.00  0.00     0.014 A 
ATOM     16  C   UNL A   1      40.233  25.509  26.442  1.00  0.00     0.014 A 
ATOM     17  C   UNL A   1      39.347  25.903  29.061  1.00  0.00     0.010 A 
ATOM     18  C   UNL A   1      40.619  26.650  27.141  1.00  0.00     0.010 A 
ATOM     19  C   UNL A   1      40.175  26.862  28.455  1.00  0.00    -0.014 A 
BRANCH  19  20
ATOM     20  C   UNL A   1      40.588  28.089  29.180  1.00  0.00     0.031 A 
ATOM     21  C   UNL A   1      41.981  28.212  29.732  1.00  0.00     0.074 A 
ATOM     22  C   UNL A   1      39.688  29.068  29.397  1.00  0.00     0.049 A 
ATOM     23  N   UNL A   1      42.506  29.170  30.455  1.00  0.00    -0.248 NA
ATOM     24  C   UNL A   1      42.902  27.098  29.454  1.00  0.00     0.031 C 
ATOM     25  C   UNL A   1      38.294  29.047  28.952  1.00  0.00     0.029 A 
ATOM     26  N   UNL A   1      39.807  30.264  30.060  1.00  0.00    -0.354 N 
ATOM     27  C   UNL A   1      43.806  28.767  30.731  1.00  0.00     0.074 A 
ATOM     28  C   UNL A   1      43.977  27.457  30.140  1.00  0.00     0.031 C 
ATOM     29  C   UNL A   1      37.693  30.184  29.336  1.00  0.00     0.029 A 
ATOM     30  C   UNL A   1      38.645  30.996  30.088  1.00  0.00     0.049 A 
ATOM     31  H   UNL A   1      40.646  30.569  30.476  1.00  0.00     0.167 HD
ATOM     32  C   UNL A   1      44.775  29.439  31.398  1.00  0.00     0.037 A 
ATOM     33  C   UNL A   1      38.376  32.183  30.664  1.00  0.00     0.037 A 
ATOM     34  C   UNL A   1      44.608  30.752  31.962  1.00  0.00     0.049 A 
ATOM     35  C   UNL A   1      39.468  32.905  31.404  1.00  0.00     0.074 A 
ATOM     36  C   UNL A   1      45.546  31.542  32.604  1.00  0.00     0.029 A 
ATOM     37  N   UNL A   1      43.421  31.471  31.952  1.00  0.00    -0.354 N 
ATOM     38  N   UNL A   1      40.713  32.544  31.600  1.00  0.00    -0.248 NA
ATOM     39  C   UNL A   1      39.120  34.204  31.996  1.00  0.00     0.031 C 
ATOM     40  C   UNL A   1      44.916  32.717  33.023  1.00  0.00     0.029 A 
ATOM     41  C   UNL A   1      43.598  32.685  32.596  1.00  0.00     0.049 A 
ATOM     42  H   UNL A   1      42.578  31.163  31.547  1.00  0.00     0.167 HD
ATOM     43  C   UNL A   1      41.304  33.581  32.309  1.00  0.00     0.074 A 
ATOM     44  C   UNL A   1      40.284  34.592  32.497  1.00  0.00     0.031 C 
ATOM     45  C   UNL A   1      42.576  33.686  32.763  1.00  0.00     0.037 A 
BRANCH  32  46
ATOM     46  C   UNL A   1      46.107  28.764  31.552  1.00  0.00     0.064 A 
ATOM     47  C   UNL A   1      46.482  28.142  32.753  1.00  0.00     0.173 A 
ATOM     48  C   UNL A   1      47.003  28.700  30.474  1.00  0.00     0.173 A 
ATOM     49  F   UNL A   1      45.668  28.183  33.817  1.00  0.00    -0.203 F 
ATOM     50  C   UNL A   1      47.716  27.507  32.877  1.00  0.00     0.198 A 
ATOM     51  C   UNL A   1      48.222  28.037  30.592  1.00  0.00     0.198 A 
ATOM     52  F   UNL A   1      46.692  29.272  29.300  1.00  0.00    -0.203 F 
ATOM     53  F   UNL A   1      48.070  26.961  34.048  1.00  0.00    -0.200 F 
ATOM     54  C   UNL A   1      48.581  27.447  31.794  1.00  0.00     0.200 A 
ATOM     55  F   UNL A   1      49.051  27.969  29.541  1.00  0.00    -0.200 F 
ATOM     56  F   UNL A   1      49.763  26.828  31.913  1.00  0.00    -0.200 F 
ENDBRANCH  32  46
BRANCH  33  57
ATOM     57  C   UNL A   1      37.017  32.774  30.546  1.00  0.00     0.064 A 
ATOM     58  C   UNL A   1      36.705  33.656  29.502  1.00  0.00     0.173 A 
ATOM     59  C   UNL A   1      36.006  32.475  31.471  1.00  0.00     0.173 A 
ATOM     60  F   UNL A   1      37.645  33.988  28.604  1.00  0.00    -0.203 F 
ATOM     61  C   UNL A   1      35.442  34.235  29.401  1.00  0.00     0.198 A 
ATOM     62  C   UNL A   1      34.734  33.032  31.352  1.00  0.00     0.198 A 
ATOM     63  F   UNL A   1      36.250  31.632  32.484  1.00  0.00    -0.203 F 
ATOM     64  F   UNL A   1      35.187  35.112  28.421  1.00  0.00    -0.200 F 
ATOM     65  C   UNL A   1      34.456  33.918  30.323  1.00  0.00     0.200 A 
ATOM     66  F   UNL A   1      33.780  32.711  32.237  1.00  0.00    -0.200 F 
ATOM     67  F   UNL A   1      33.240  34.472  30.224  1.00  0.00    -0.200 F 
ENDBRANCH  33  57
BRANCH  45  68
ATOM     68  C   UNL A   1      42.953  34.956  33.471  1.00  0.00     0.064 A 
ATOM     69  C   UNL A   1      43.048  35.021  34.868  1.00  0.00     0.173 A 
ATOM     70  C   UNL A   1      43.262  36.110  32.735  1.00  0.00     0.173 A 
ATOM     71  F   UNL A   1      42.748  33.949  35.616  1.00  0.00    -0.203 F 
ATOM     72  C   UNL A   1      43.416  36.204  35.505  1.00  0.00     0.198 A 
ATOM     73  C   UNL A   1      43.658  37.282  33.374  1.00  0.00     0.198 A 
ATOM     74  F   UNL A   1      43.193  36.098  31.396  1.00  0.00    -0.203 F 
ATOM     75  F   UNL A   1      43.455  36.257  36.843  1.00  0.00    -0.200 F 
ATOM     76  C   UNL A   1      43.728  37.330  34.758  1.00  0.00     0.200 A 
ATOM     77  F   UNL A   1      43.973  38.364  32.650  1.00  0.00    -0.200 F 
ATOM     78  F   UNL A   1      44.090  38.464  35.373  1.00  0.00    -0.200 F 
ENDBRANCH  45  68
ENDBRANCH  19  20
ENDBRANCH  11  14
ENDBRANCH   9  10
ENDBRANCH   8   9
ENDBRANCH   7   8
ENDBRANCH   5   7
ENDBRANCH   2   3
BRANCH   2  79
ATOM     79  C   UNL A   1      44.558  24.038  28.474  1.00  0.00    -0.033 A 
ATOM     80  C   UNL A   1      43.497  23.382  29.116  1.00  0.00     0.005 A 
ATOM     81  C   UNL A   1      45.571  24.602  29.260  1.00  0.00     0.044 A 
ATOM     82  C   UNL A   1      43.418  23.347  30.512  1.00  0.00     0.012 A 
ATOM     83  C   UNL A   1      45.483  24.568  30.644  1.00  0.00     0.131 A 
ATOM     84  C   UNL A   1      44.398  23.969  31.298  1.00  0.00     0.018 A 
ATOM     85  F   UNL A   1      46.457  25.162  31.351  1.00  0.00    -0.206 F 
BRANCH  84  86
ATOM     86  C   UNL A   1      44.242  24.093  32.750  1.00  0.00    -0.012 A 
ATOM     87  C   UNL A   1      44.411  23.012  33.625  1.00  0.00     0.009 A 
ATOM     88  C   UNL A   1      43.898  25.347  33.284  1.00  0.00     0.056 A 
ATOM     89  C   UNL A   1      44.250  23.185  35.003  1.00  0.00     0.004 A 
ATOM     90  C   UNL A   1      43.724  25.513  34.650  1.00  0.00     0.133 A 
ATOM     91  C   UNL A   1      43.905  24.437  35.517  1.00  0.00     0.047 A 
BRANCH  90  92
ATOM     92  O   UNL A   1      43.401  26.751  35.255  1.00  0.00    -0.410 OA
BRANCH  92  93
ATOM     93  C   UNL A   1      42.242  27.017  35.983  1.00  0.00     0.412 C 
ATOM     94  O   UNL A   1      42.074  26.858  37.184  1.00  0.00    -0.224 OA
ATOM     95  N   UNL A   1      41.234  27.526  35.214  1.00  0.00    -0.321 N 
ATOM     96  H   UNL A   1      40.352  27.628  35.639  1.00  0.00     0.167 HD
BRANCH  95  97
ATOM     97  C   UNL A   1      41.350  27.926  33.834  1.00  0.00     0.120 C 
BRANCH  97  98
ATOM     98  C   UNL A   1      41.016  29.395  33.572  1.00  0.00     0.026 C 
BRANCH  98  99
ATOM     99  C   UNL A   1      39.560  29.852  33.727  1.00  0.00     0.037 C 
BRANCH  99 100
ATOM    100  C   UNL A   1      39.216  31.064  34.561  1.00  0.00    -0.048 A 
ATOM    101  C   UNL A   1      37.947  31.645  34.640  1.00  0.00     0.004 A 
ATOM    102  C   UNL A   1      40.265  31.685  35.266  1.00  0.00     0.004 A 
ATOM    103  C   UNL A   1      37.731  32.805  35.391  1.00  0.00     0.000 A 
ATOM    104  C   UNL A   1      40.050  32.837  36.024  1.00  0.00     0.000 A 
ATOM    105  C   UNL A   1      38.781  33.400  36.084  1.00  0.00     0.000 A 
ENDBRANCH  99 100
ENDBRANCH  98  99
ENDBRANCH  97  98
ENDBRANCH  95  97
ENDBRANCH  92  93
ENDBRANCH  90  92
ENDBRANCH  84  86
ENDBRANCH   2  79
TORSDOF 18
ENDMDL
MODEL 3
REMARK VINA RESULT:      -9.7      3.458     10.647
REMARK SMILES C[C@@H](C(=O)NCCCNC(=O)c1ccc(-c2c3nc(c(-c4c(F)c(F)c(F)c(F)c4F)c4ccc([nH]4)c(-c4c(F)c(F)c(F)c(F)c4F)c4nc(c(-c5c(F)c(F)c(F)c(F)c5F)c5ccc2[nH]5)C=C4)C=C3)cc1)c1ccc(-c2cccc(OC(=O)NCCCc3ccccc3)c2)c(F)c1
REMARK SMILES IDX 1 1 2 2 3 3 4 4 5 5 6 7 7 8 8 9 9 10 10 11 11 13 12 14 13 15
REMARK SMILES IDX 74 16 14 17 73 18 15 19 16 20 17 21 67 22 18 23 72 24 66 25
REMARK SMILES IDX 68 26 19 27 71 28 65 29 64 30 20 32 52 33 32 34 51 35 33 36
REMARK SMILES IDX 36 37 50 38 69 39 34 40 35 41 49 43 70 44 37 45 21 46 22 47
REMARK SMILES IDX 30 48 23 49 24 50 28 51 31 52 25 53 26 54 29 55 27 56 53 57
REMARK SMILES IDX 54 58 62 59 55 60 56 61 60 62 63 63 57 64 58 65 61 66 59 67
REMARK SMILES IDX 38 68 39 69 47 70 40 71 41 72 45 73 48 74 42 75 43 76 46 77
REMARK SMILES IDX 44 78 75 79 76 80 100 81 77 82 98 83 78 84 99 85 79 86 80 87
REMARK SMILES IDX 97 88 81 89 83 90 82 91 84 92 85 93 86 94 87 95 88 97 89 98
REMARK SMILES IDX 90 99 91 100 92 101 96 102 93 103 95 104 94 105
REMARK H PARENT 5 6 9 12 68 31 36 42 87 96
REMARK Flexibility Score: inf
ROOT
ATOM      1  C   UNL A   1      36.214  33.725  27.974  1.00  0.00     0.023 C 
ATOM      2  C   UNL A   1      36.254  32.961  29.302  1.00  0.00     0.105 C 
ENDROOT
BRANCH   2   3
ATOM      3  C   UNL A   1      34.906  32.303  29.632  1.00  0.00     0.227 C 
ATOM      4  O   UNL A   1      34.222  31.704  28.799  1.00  0.00    -0.274 OA
ATOM      5  N   UNL A   1      34.426  32.335  30.906  1.00  0.00    -0.356 N 
ATOM      6  H   UNL A   1      33.650  31.753  31.074  1.00  0.00     0.163 HD
BRANCH   5   7
ATOM      7  C   UNL A   1      34.883  33.093  32.052  1.00  0.00     0.117 C 
BRANCH   7   8
ATOM      8  C   UNL A   1      35.906  32.300  32.863  1.00  0.00     0.042 C 
BRANCH   8   9
ATOM      9  C   UNL A   1      36.838  33.171  33.700  1.00  0.00     0.118 C 
BRANCH   9  10
ATOM     10  N   UNL A   1      36.927  32.721  35.081  1.00  0.00    -0.352 N 
ATOM     11  C   UNL A   1      37.813  31.856  35.669  1.00  0.00     0.251 C 
ATOM     12  H   UNL A   1      36.247  33.098  35.686  1.00  0.00     0.163 HD
ATOM     13  O   UNL A   1      37.601  31.450  36.807  1.00  0.00    -0.269 OA
BRANCH  11  14
ATOM     14  C   UNL A   1      39.012  31.395  34.936  1.00  0.00     0.039 A 
ATOM     15  C   UNL A   1      40.229  32.043  35.168  1.00  0.00     0.014 A 
ATOM     16  C   UNL A   1      38.939  30.358  34.003  1.00  0.00     0.014 A 
ATOM     17  C   UNL A   1      41.382  31.613  34.510  1.00  0.00     0.010 A 
ATOM     18  C   UNL A   1      40.102  29.881  33.402  1.00  0.00     0.010 A 
ATOM     19  C   UNL A   1      41.334  30.507  33.645  1.00  0.00    -0.014 A 
BRANCH  19  20
ATOM     20  C   UNL A   1      42.561  29.992  32.987  1.00  0.00     0.031 A 
ATOM     21  C   UNL A   1      43.133  30.700  31.790  1.00  0.00     0.074 A 
ATOM     22  C   UNL A   1      43.124  28.851  33.428  1.00  0.00     0.049 A 
ATOM     23  N   UNL A   1      44.149  30.364  31.036  1.00  0.00    -0.248 NA
ATOM     24  C   UNL A   1      42.457  31.938  31.368  1.00  0.00     0.031 C 
ATOM     25  C   UNL A   1      42.637  28.049  34.552  1.00  0.00     0.029 A 
ATOM     26  N   UNL A   1      44.219  28.159  32.977  1.00  0.00    -0.354 N 
ATOM     27  C   UNL A   1      44.224  31.336  30.046  1.00  0.00     0.074 A 
ATOM     28  C   UNL A   1      43.121  32.247  30.265  1.00  0.00     0.031 C 
ATOM     29  C   UNL A   1      43.440  26.986  34.714  1.00  0.00     0.029 A 
ATOM     30  C   UNL A   1      44.475  27.009  33.684  1.00  0.00     0.049 A 
ATOM     31  H   UNL A   1      44.772  28.458  32.218  1.00  0.00     0.167 HD
ATOM     32  C   UNL A   1      45.142  31.468  29.058  1.00  0.00     0.037 A 
ATOM     33  C   UNL A   1      45.429  26.074  33.514  1.00  0.00     0.037 A 
ATOM     34  C   UNL A   1      46.251  30.573  28.860  1.00  0.00     0.049 A 
ATOM     35  C   UNL A   1      46.432  26.242  32.406  1.00  0.00     0.074 A 
ATOM     36  C   UNL A   1      47.269  30.654  27.925  1.00  0.00     0.029 A 
ATOM     37  N   UNL A   1      46.488  29.430  29.610  1.00  0.00    -0.354 N 
ATOM     38  N   UNL A   1      46.532  27.201  31.518  1.00  0.00    -0.248 NA
ATOM     39  C   UNL A   1      47.460  25.200  32.281  1.00  0.00     0.031 C 
ATOM     40  C   UNL A   1      48.095  29.536  28.080  1.00  0.00     0.029 A 
ATOM     41  C   UNL A   1      47.624  28.786  29.145  1.00  0.00     0.049 A 
ATOM     42  H   UNL A   1      45.932  29.123  30.362  1.00  0.00     0.167 HD
ATOM     43  C   UNL A   1      47.648  26.896  30.750  1.00  0.00     0.074 A 
ATOM     44  C   UNL A   1      48.199  25.669  31.286  1.00  0.00     0.031 C 
ATOM     45  C   UNL A   1      48.168  27.572  29.697  1.00  0.00     0.037 A 
BRANCH  32  46
ATOM     46  C   UNL A   1      44.986  32.625  28.116  1.00  0.00     0.064 A 
ATOM     47  C   UNL A   1      45.523  33.889  28.407  1.00  0.00     0.173 A 
ATOM     48  C   UNL A   1      44.331  32.460  26.885  1.00  0.00     0.173 A 
ATOM     49  F   UNL A   1      46.150  34.104  29.573  1.00  0.00    -0.203 F 
ATOM     50  C   UNL A   1      45.384  34.950  27.515  1.00  0.00     0.198 A 
ATOM     51  C   UNL A   1      44.222  33.515  25.983  1.00  0.00     0.198 A 
ATOM     52  F   UNL A   1      43.806  31.271  26.553  1.00  0.00    -0.203 F 
ATOM     53  F   UNL A   1      45.864  36.159  27.837  1.00  0.00    -0.200 F 
ATOM     54  C   UNL A   1      44.741  34.760  26.301  1.00  0.00     0.200 A 
ATOM     55  F   UNL A   1      43.612  33.326  24.804  1.00  0.00    -0.200 F 
ATOM     56  F   UNL A   1      44.617  35.780  25.441  1.00  0.00    -0.200 F 
ENDBRANCH  32  46
BRANCH  33  57
ATOM     57  C   UNL A   1      45.494  24.906  34.430  1.00  0.00     0.064 A 
ATOM     58  C   UNL A   1      46.233  24.966  35.620  1.00  0.00     0.173 A 
ATOM     59  C   UNL A   1      44.828  23.707  34.136  1.00  0.00     0.173 A 
ATOM     60  F   UNL A   1      46.904  26.084  35.935  1.00  0.00    -0.203 F 
ATOM     61  C   UNL A   1      46.321  23.865  36.470  1.00  0.00     0.198 A 
ATOM     62  C   UNL A   1      44.893  22.617  35.001  1.00  0.00     0.198 A 
ATOM     63  F   UNL A   1      44.103  23.600  33.013  1.00  0.00    -0.203 F 
ATOM     64  F   UNL A   1      47.073  23.935  37.576  1.00  0.00    -0.200 F 
ATOM     65  C   UNL A   1      45.646  22.694  36.162  1.00  0.00     0.200 A 
ATOM     66  F   UNL A   1      44.227  21.492  34.707  1.00  0.00    -0.200 F 
ATOM     67  F   UNL A   1      45.728  21.636  36.981  1.00  0.00    -0.200 F 
ENDBRANCH  33  57
BRANCH  45  68
ATOM     68  C   UNL A   1      49.421  27.025  29.079  1.00  0.00     0.064 A 
ATOM     69  C   UNL A   1      49.387  26.204  27.944  1.00  0.00     0.173 A 
ATOM     70  C   UNL A   1      50.677  27.363  29.608  1.00  0.00     0.173 A 
ATOM     71  F   UNL A   1      48.211  25.840  27.410  1.00  0.00    -0.203 F 
ATOM     72  C   UNL A   1      50.562  25.720  27.374  1.00  0.00     0.198 A 
ATOM     73  C   UNL A   1      51.851  26.902  29.018  1.00  0.00     0.198 A 
ATOM     74  F   UNL A   1      50.765  28.152  30.689  1.00  0.00    -0.203 F 
ATOM     75  F   UNL A   1      50.503  24.898  26.317  1.00  0.00    -0.200 F 
ATOM     76  C   UNL A   1      51.792  26.076  27.906  1.00  0.00     0.200 A 
ATOM     77  F   UNL A   1      53.038  27.259  29.525  1.00  0.00    -0.200 F 
ATOM     78  F   UNL A   1      52.922  25.616  27.352  1.00  0.00    -0.200 F 
ENDBRANCH  45  68
ENDBRANCH  19  20
ENDBRANCH  11  14
ENDBRANCH   9  10
ENDBRANCH   8   9
ENDBRANCH   7   8
ENDBRANCH   5   7
ENDBRANCH   2   3
BRANCH   2  79
ATOM     79  C   UNL A   1      37.376  31.932  29.324  1.00  0.00    -0.033 A 
ATOM     80  C   UNL A   1      38.451  32.085  30.213  1.00  0.00     0.005 A 
ATOM     81  C   UNL A   1      37.347  30.803  28.497  1.00  0.00     0.044 A 
ATOM     82  C   UNL A   1      39.504  31.164  30.226  1.00  0.00     0.012 A 
ATOM     83  C   UNL A   1      38.399  29.897  28.511  1.00  0.00     0.131 A 
ATOM     84  C   UNL A   1      39.508  30.070  29.350  1.00  0.00     0.018 A 
ATOM     85  F   UNL A   1      38.344  28.855  27.666  1.00  0.00    -0.206 F 
BRANCH  84  86
ATOM     86  C   UNL A   1      40.678  29.197  29.228  1.00  0.00    -0.012 A 
ATOM     87  C   UNL A   1      41.047  28.281  30.223  1.00  0.00     0.009 A 
ATOM     88  C   UNL A   1      41.468  29.291  28.070  1.00  0.00     0.056 A 
ATOM     89  C   UNL A   1      42.174  27.472  30.056  1.00  0.00     0.004 A 
ATOM     90  C   UNL A   1      42.596  28.498  27.913  1.00  0.00     0.133 A 
ATOM     91  C   UNL A   1      42.950  27.580  28.900  1.00  0.00     0.047 A 
BRANCH  90  92
ATOM     92  O   UNL A   1      43.421  28.525  26.764  1.00  0.00    -0.410 OA
BRANCH  92  93
ATOM     93  C   UNL A   1      43.026  28.166  25.476  1.00  0.00     0.412 C 
ATOM     94  O   UNL A   1      41.951  28.403  24.943  1.00  0.00    -0.224 OA
ATOM     95  N   UNL A   1      44.000  27.501  24.787  1.00  0.00    -0.321 N 
ATOM     96  H   UNL A   1      43.751  27.117  23.915  1.00  0.00     0.167 HD
BRANCH  95  97
ATOM     97  C   UNL A   1      45.361  27.313  25.225  1.00  0.00     0.120 C 
BRANCH  97  98
ATOM     98  C   UNL A   1      45.790  25.850  25.343  1.00  0.00     0.026 C 
BRANCH  98  99
ATOM     99  C   UNL A   1      44.716  24.796  25.644  1.00  0.00     0.037 C 
BRANCH  99 100
ATOM    100  C   UNL A   1      44.326  24.476  27.068  1.00  0.00    -0.048 A 
ATOM    101  C   UNL A   1      43.046  24.092  27.478  1.00  0.00     0.004 A 
ATOM    102  C   UNL A   1      45.313  24.631  28.060  1.00  0.00     0.004 A 
ATOM    103  C   UNL A   1      42.758  23.874  28.829  1.00  0.00     0.000 A 
ATOM    104  C   UNL A   1      45.030  24.404  29.408  1.00  0.00     0.000 A 
ATOM    105  C   UNL A   1      43.749  24.028  29.794  1.00  0.00     0.000 A 
ENDBRANCH  99 100
ENDBRANCH  98  99
ENDBRANCH  97  98
ENDBRANCH  95  97
ENDBRANCH  92  93
ENDBRANCH  90  92
ENDBRANCH  84  86
ENDBRANCH   2  79
TORSDOF 18
ENDMDL
