MODEL 1
REMARK VINA RESULT:     -12.7      0.000      0.000
REMARK SMILES O=C(NCCCNC(=O)c1cc(S(=O)(=O)Nc2cccc(Cl)c2)ccc1O)c1ccc(-c2c3nc(c(-c4c(F)c(F)c(F)c(F)c4F)c4ccc([nH]4)c(-c4c(F)c(F)c(F)c(F)c4F)c4nc(c(-c5c(F)c(F)c(F)c(F)c5F)c5ccc2[nH]5)C=C4)C=C3)cc1
REMARK SMILES IDX 5 1 4 2 3 3 1 4 2 5 28 7 29 8 90 9 30 10 89 11 31 12 32 13
REMARK SMILES IDX 33 14 83 15 34 16 88 17 82 18 84 19 35 20 87 21 81 22 80 23
REMARK SMILES IDX 36 25 68 26 48 27 67 28 49 29 52 30 66 31 85 32 50 33 51 34
REMARK SMILES IDX 65 36 86 37 53 38 37 39 38 40 46 41 39 42 40 43 44 44 47 45
REMARK SMILES IDX 41 46 42 47 45 48 43 49 69 50 70 51 78 52 71 53 72 54 76 55
REMARK SMILES IDX 79 56 73 57 74 58 77 59 75 60 54 61 55 62 63 63 56 64 57 65
REMARK SMILES IDX 61 66 64 67 58 68 59 69 62 70 60 71 6 72 7 73 8 74 9 76
REMARK SMILES IDX 10 77 11 78 26 79 12 80 25 81 24 82 27 83 13 85 14 86 15 87
REMARK SMILES IDX 16 88 17 90 18 91 23 92 19 93 21 94 20 95 22 96
REMARK H PARENT 3 6 84 24 52 35 7 75 27 84 16 89
REMARK Flexibility Score: inf
ROOT
ATOM      1  C   UNL A   1      31.514  32.324  26.929  1.00  0.00     0.042 C 
ENDROOT
BRANCH   1   2
ATOM      2  C   UNL A   1      32.773  33.155  27.077  1.00  0.00     0.118 C 
BRANCH   2   3
ATOM      3  N   UNL A   1      32.510  34.458  27.676  1.00  0.00    -0.352 N 
ATOM      4  O   UNL A   1      32.490  36.054  29.260  1.00  0.00    -0.269 OA
ATOM      5  C   UNL A   1      33.013  35.036  28.814  1.00  0.00     0.251 C 
ATOM      6  H   UNL A   1      31.866  35.014  27.182  1.00  0.00     0.163 HD
BRANCH   5   7
ATOM      7  C   UNL A   1      34.170  34.440  29.515  1.00  0.00     0.039 A 
ATOM      8  C   UNL A   1      33.993  33.649  30.651  1.00  0.00     0.014 A 
ATOM      9  C   UNL A   1      35.454  34.624  28.990  1.00  0.00     0.014 A 
ATOM     10  C   UNL A   1      35.095  33.167  31.344  1.00  0.00     0.010 A 
ATOM     11  C   UNL A   1      36.557  34.047  29.626  1.00  0.00     0.010 A 
ATOM     12  C   UNL A   1      36.386  33.329  30.818  1.00  0.00    -0.014 A 
BRANCH  12  13
ATOM     13  C   UNL A   1      37.520  32.633  31.470  1.00  0.00     0.031 A 
ATOM     14  C   UNL A   1      38.220  31.488  30.802  1.00  0.00     0.074 A 
ATOM     15  C   UNL A   1      37.910  33.059  32.688  1.00  0.00     0.049 A 
ATOM     16  N   UNL A   1      39.212  30.759  31.248  1.00  0.00    -0.248 NA
ATOM     17  C   UNL A   1      37.746  31.100  29.464  1.00  0.00     0.031 C 
ATOM     18  C   UNL A   1      37.282  34.152  33.436  1.00  0.00     0.029 A 
ATOM     19  N   UNL A   1      38.923  32.636  33.508  1.00  0.00    -0.354 N 
ATOM     20  C   UNL A   1      39.462  29.813  30.266  1.00  0.00     0.074 A 
ATOM     21  C   UNL A   1      38.513  30.050  29.198  1.00  0.00     0.031 C 
ATOM     22  C   UNL A   1      37.940  34.332  34.589  1.00  0.00     0.029 A 
ATOM     23  C   UNL A   1      38.991  33.328  34.691  1.00  0.00     0.049 A 
ATOM     24  H   UNL A   1      39.541  31.907  33.272  1.00  0.00     0.167 HD
ATOM     25  C   UNL A   1      40.403  28.840  30.261  1.00  0.00     0.037 A 
ATOM     26  C   UNL A   1      39.789  33.153  35.760  1.00  0.00     0.037 A 
ATOM     27  C   UNL A   1      41.367  28.641  31.313  1.00  0.00     0.049 A 
ATOM     28  C   UNL A   1      40.808  32.054  35.729  1.00  0.00     0.074 A 
ATOM     29  C   UNL A   1      42.424  27.748  31.355  1.00  0.00     0.029 A 
ATOM     30  N   UNL A   1      41.384  29.339  32.511  1.00  0.00    -0.354 N 
ATOM     31  N   UNL A   1      41.076  31.205  34.767  1.00  0.00    -0.248 NA
ATOM     32  C   UNL A   1      41.628  31.877  36.935  1.00  0.00     0.031 C 
ATOM     33  C   UNL A   1      43.051  27.872  32.599  1.00  0.00     0.029 A 
ATOM     34  C   UNL A   1      42.409  28.868  33.317  1.00  0.00     0.049 A 
ATOM     35  H   UNL A   1      40.762  30.062  32.754  1.00  0.00     0.167 HD
ATOM     36  C   UNL A   1      42.091  30.394  35.248  1.00  0.00     0.074 A 
ATOM     37  C   UNL A   1      42.412  30.870  36.578  1.00  0.00     0.031 C 
ATOM     38  C   UNL A   1      42.698  29.344  34.644  1.00  0.00     0.037 A 
BRANCH  25  39
ATOM     39  C   UNL A   1      40.442  27.898  29.097  1.00  0.00     0.064 A 
ATOM     40  C   UNL A   1      39.669  26.728  29.067  1.00  0.00     0.173 A 
ATOM     41  C   UNL A   1      41.198  28.215  27.959  1.00  0.00     0.173 A 
ATOM     42  F   UNL A   1      38.935  26.377  30.134  1.00  0.00    -0.203 F 
ATOM     43  C   UNL A   1      39.658  25.906  27.942  1.00  0.00     0.198 A 
ATOM     44  C   UNL A   1      41.170  27.402  26.828  1.00  0.00     0.198 A 
ATOM     45  F   UNL A   1      41.951  29.326  27.936  1.00  0.00    -0.203 F 
ATOM     46  F   UNL A   1      38.929  24.782  27.942  1.00  0.00    -0.200 F 
ATOM     47  C   UNL A   1      40.402  26.248  26.822  1.00  0.00     0.200 A 
ATOM     48  F   UNL A   1      41.882  27.739  25.743  1.00  0.00    -0.200 F 
ATOM     49  F   UNL A   1      40.378  25.464  25.736  1.00  0.00    -0.200 F 
ENDBRANCH  25  39
BRANCH  26  50
ATOM     50  C   UNL A   1      39.619  34.018  36.954  1.00  0.00     0.064 A 
ATOM     51  C   UNL A   1      38.844  33.604  38.045  1.00  0.00     0.173 A 
ATOM     52  C   UNL A   1      40.247  35.270  37.033  1.00  0.00     0.173 A 
ATOM     53  F   UNL A   1      38.211  32.423  38.006  1.00  0.00    -0.203 F 
ATOM     54  C   UNL A   1      38.694  34.416  39.166  1.00  0.00     0.198 A 
ATOM     55  C   UNL A   1      40.119  36.069  38.167  1.00  0.00     0.198 A 
ATOM     56  F   UNL A   1      41.004  35.709  36.016  1.00  0.00    -0.203 F 
ATOM     57  F   UNL A   1      37.918  34.014  40.183  1.00  0.00    -0.200 F 
ATOM     58  C   UNL A   1      39.337  35.644  39.230  1.00  0.00     0.200 A 
ATOM     59  F   UNL A   1      40.755  37.246  38.230  1.00  0.00    -0.200 F 
ATOM     60  F   UNL A   1      39.200  36.420  40.313  1.00  0.00    -0.200 F 
ENDBRANCH  26  50
BRANCH  38  61
ATOM     61  C   UNL A   1      43.762  28.637  35.425  1.00  0.00     0.064 A 
ATOM     62  C   UNL A   1      45.113  28.991  35.294  1.00  0.00     0.173 A 
ATOM     63  C   UNL A   1      43.428  27.624  36.335  1.00  0.00     0.173 A 
ATOM     64  F   UNL A   1      45.480  29.941  34.421  1.00  0.00    -0.203 F 
ATOM     65  C   UNL A   1      46.095  28.342  36.037  1.00  0.00     0.198 A 
ATOM     66  C   UNL A   1      44.410  26.994  37.092  1.00  0.00     0.198 A 
ATOM     67  F   UNL A   1      42.149  27.253  36.493  1.00  0.00    -0.203 F 
ATOM     68  F   UNL A   1      47.384  28.669  35.870  1.00  0.00    -0.200 F 
ATOM     69  C   UNL A   1      45.742  27.350  36.940  1.00  0.00     0.200 A 
ATOM     70  F   UNL A   1      44.068  26.042  37.971  1.00  0.00    -0.200 F 
ATOM     71  F   UNL A   1      46.688  26.731  37.660  1.00  0.00    -0.200 F 
ENDBRANCH  38  61
ENDBRANCH  12  13
ENDBRANCH   5   7
ENDBRANCH   2   3
ENDBRANCH   1   2
BRANCH   1  72
ATOM     72  C   UNL A   1      31.781  30.834  26.866  1.00  0.00     0.118 C 
BRANCH  72  73
ATOM     73  N   UNL A   1      33.120  30.465  27.309  1.00  0.00    -0.352 N 
ATOM     74  C   UNL A   1      33.839  29.323  27.032  1.00  0.00     0.255 C 
ATOM     75  H   UNL A   1      33.573  31.122  27.885  1.00  0.00     0.163 HD
ATOM     76  O   UNL A   1      34.947  29.150  27.528  1.00  0.00    -0.269 OA
BRANCH  74  77
ATOM     77  C   UNL A   1      33.212  28.256  26.226  1.00  0.00     0.082 A 
ATOM     78  C   UNL A   1      33.544  28.184  24.869  1.00  0.00     0.040 A 
ATOM     79  C   UNL A   1      32.379  27.286  26.793  1.00  0.00     0.128 A 
ATOM     80  C   UNL A   1      33.186  27.047  24.140  1.00  0.00     0.088 A 
ATOM     81  C   UNL A   1      32.133  26.107  26.105  1.00  0.00     0.048 A 
ATOM     82  C   UNL A   1      32.610  25.962  24.804  1.00  0.00     0.026 A 
BRANCH  79  83
ATOM     83  O   UNL A   1      31.862  27.456  28.046  1.00  0.00    -0.507 OA
ATOM     84  H   UNL A   1      32.044  28.240  28.525  1.00  0.00     0.293 HD
ENDBRANCH  79  83
BRANCH  80  85
ATOM     85  S   UNL A   1      33.346  27.138  22.366  1.00  0.00     0.261 S 
ATOM     86  O   UNL A   1      34.081  28.351  22.084  1.00  0.00    -0.201 OA
ATOM     87  O   UNL A   1      33.827  25.842  21.934  1.00  0.00    -0.201 OA
BRANCH  85  88
ATOM     88  N   UNL A   1      31.820  27.289  21.680  1.00  0.00    -0.280 N 
ATOM     89  H   UNL A   1      31.687  26.925  20.774  1.00  0.00     0.180 HD
BRANCH  88  90
ATOM     90  C   UNL A   1      30.705  27.904  22.314  1.00  0.00     0.050 A 
ATOM     91  C   UNL A   1      29.740  27.196  23.035  1.00  0.00     0.027 A 
ATOM     92  C   UNL A   1      30.519  29.266  22.054  1.00  0.00     0.047 A 
ATOM     93  C   UNL A   1      28.531  27.818  23.368  1.00  0.00     0.004 A 
ATOM     94  C   UNL A   1      29.315  29.878  22.394  1.00  0.00     0.043 A 
ATOM     95  C   UNL A   1      28.308  29.152  23.027  1.00  0.00     0.020 A 
ATOM     96  Cl  UNL A   1      29.043  31.517  21.951  1.00  0.00    -0.084 Cl
ENDBRANCH  88  90
ENDBRANCH  85  88
ENDBRANCH  80  85
ENDBRANCH  74  77
ENDBRANCH  72  73
ENDBRANCH   1  72
TORSDOF 14
ENDMDL
MODEL 2
REMARK VINA RESULT:     -12.7      0.051      1.121
REMARK SMILES O=C(NCCCNC(=O)c1cc(S(=O)(=O)Nc2cccc(Cl)c2)ccc1O)c1ccc(-c2c3nc(c(-c4c(F)c(F)c(F)c(F)c4F)c4ccc([nH]4)c(-c4c(F)c(F)c(F)c(F)c4F)c4nc(c(-c5c(F)c(F)c(F)c(F)c5F)c5ccc2[nH]5)C=C4)C=C3)cc1
REMARK SMILES IDX 5 1 4 2 3 3 1 4 2 5 28 7 29 8 90 9 30 10 89 11 31 12 32 13
REMARK SMILES IDX 33 14 83 15 34 16 88 17 82 18 84 19 35 20 87 21 81 22 80 23
REMARK SMILES IDX 36 25 68 26 48 27 67 28 49 29 52 30 66 31 85 32 50 33 51 34
REMARK SMILES IDX 65 36 86 37 53 38 37 39 38 40 46 41 39 42 40 43 44 44 47 45
REMARK SMILES IDX 41 46 42 47 45 48 43 49 69 50 70 51 78 52 71 53 72 54 76 55
REMARK SMILES IDX 79 56 73 57 74 58 77 59 75 60 54 61 55 62 63 63 56 64 57 65
REMARK SMILES IDX 61 66 64 67 58 68 59 69 62 70 60 71 6 72 7 73 8 74 9 76
REMARK SMILES IDX 10 77 11 78 26 79 12 80 25 81 24 82 27 83 13 85 14 86 15 87
REMARK SMILES IDX 16 88 17 90 18 91 23 92 19 93 21 94 20 95 22 96
REMARK H PARENT 3 6 84 24 52 35 7 75 27 84 16 89
REMARK Flexibility Score: inf
ROOT
ATOM      1  C   UNL A   1      31.530  32.349  26.895  1.00  0.00     0.042 C 
ENDROOT
BRANCH   1   2
ATOM      2  C   UNL A   1      32.785  33.176  27.094  1.00  0.00     0.118 C 
BRANCH   2   3
ATOM      3  N   UNL A   1      32.506  34.464  27.716  1.00  0.00    -0.352 N 
ATOM      4  O   UNL A   1      32.464  36.032  29.327  1.00  0.00    -0.269 OA
ATOM      5  C   UNL A   1      32.999  35.028  28.865  1.00  0.00     0.251 C 
ATOM      6  H   UNL A   1      31.856  35.022  27.230  1.00  0.00     0.163 HD
BRANCH   5   7
ATOM      7  C   UNL A   1      34.162  34.434  29.558  1.00  0.00     0.039 A 
ATOM      8  C   UNL A   1      33.998  33.687  30.725  1.00  0.00     0.014 A 
ATOM      9  C   UNL A   1      35.435  34.573  28.995  1.00  0.00     0.014 A 
ATOM     10  C   UNL A   1      35.108  33.207  31.408  1.00  0.00     0.010 A 
ATOM     11  C   UNL A   1      36.543  33.996  29.624  1.00  0.00     0.010 A 
ATOM     12  C   UNL A   1      36.387  33.323  30.845  1.00  0.00    -0.014 A 
BRANCH  12  13
ATOM     13  C   UNL A   1      37.524  32.627  31.493  1.00  0.00     0.031 A 
ATOM     14  C   UNL A   1      38.222  31.484  30.823  1.00  0.00     0.074 A 
ATOM     15  C   UNL A   1      37.916  33.052  32.711  1.00  0.00     0.049 A 
ATOM     16  N   UNL A   1      39.215  30.754  31.266  1.00  0.00    -0.248 NA
ATOM     17  C   UNL A   1      37.745  31.096  29.486  1.00  0.00     0.031 C 
ATOM     18  C   UNL A   1      37.290  34.145  33.462  1.00  0.00     0.029 A 
ATOM     19  N   UNL A   1      38.932  32.629  33.527  1.00  0.00    -0.354 N 
ATOM     20  C   UNL A   1      39.463  29.809  30.282  1.00  0.00     0.074 A 
ATOM     21  C   UNL A   1      38.512  30.046  29.217  1.00  0.00     0.031 C 
ATOM     22  C   UNL A   1      37.951  34.324  34.613  1.00  0.00     0.029 A 
ATOM     23  C   UNL A   1      39.003  33.320  34.712  1.00  0.00     0.049 A 
ATOM     24  H   UNL A   1      39.549  31.901  33.289  1.00  0.00     0.167 HD
ATOM     25  C   UNL A   1      40.405  28.837  30.274  1.00  0.00     0.037 A 
ATOM     26  C   UNL A   1      39.804  33.145  35.778  1.00  0.00     0.037 A 
ATOM     27  C   UNL A   1      41.372  28.637  31.323  1.00  0.00     0.049 A 
ATOM     28  C   UNL A   1      40.823  32.046  35.744  1.00  0.00     0.074 A 
ATOM     29  C   UNL A   1      42.429  27.744  31.362  1.00  0.00     0.029 A 
ATOM     30  N   UNL A   1      41.392  29.334  32.522  1.00  0.00    -0.354 N 
ATOM     31  N   UNL A   1      41.089  31.199  34.780  1.00  0.00    -0.248 NA
ATOM     32  C   UNL A   1      41.646  31.869  36.947  1.00  0.00     0.031 C 
ATOM     33  C   UNL A   1      43.060  27.868  32.605  1.00  0.00     0.029 A 
ATOM     34  C   UNL A   1      42.418  28.863  33.325  1.00  0.00     0.049 A 
ATOM     35  H   UNL A   1      40.770  30.057  32.767  1.00  0.00     0.167 HD
ATOM     36  C   UNL A   1      42.105  30.388  35.258  1.00  0.00     0.074 A 
ATOM     37  C   UNL A   1      42.430  30.862  36.587  1.00  0.00     0.031 C 
ATOM     38  C   UNL A   1      42.711  29.339  34.651  1.00  0.00     0.037 A 
BRANCH  25  39
ATOM     39  C   UNL A   1      40.441  27.895  29.109  1.00  0.00     0.064 A 
ATOM     40  C   UNL A   1      39.663  26.729  29.077  1.00  0.00     0.173 A 
ATOM     41  C   UNL A   1      41.200  28.210  27.972  1.00  0.00     0.173 A 
ATOM     42  F   UNL A   1      38.926  26.380  30.143  1.00  0.00    -0.203 F 
ATOM     43  C   UNL A   1      39.650  25.908  27.952  1.00  0.00     0.198 A 
ATOM     44  C   UNL A   1      41.170  27.399  26.841  1.00  0.00     0.198 A 
ATOM     45  F   UNL A   1      41.957  29.318  27.951  1.00  0.00    -0.203 F 
ATOM     46  F   UNL A   1      38.917  24.787  27.950  1.00  0.00    -0.200 F 
ATOM     47  C   UNL A   1      40.396  26.248  26.833  1.00  0.00     0.200 A 
ATOM     48  F   UNL A   1      41.884  27.733  25.757  1.00  0.00    -0.200 F 
ATOM     49  F   UNL A   1      40.371  25.465  25.746  1.00  0.00    -0.200 F 
ENDBRANCH  25  39
BRANCH  26  50
ATOM     50  C   UNL A   1      39.636  34.009  36.973  1.00  0.00     0.064 A 
ATOM     51  C   UNL A   1      38.866  33.593  38.066  1.00  0.00     0.173 A 
ATOM     52  C   UNL A   1      40.263  35.262  37.051  1.00  0.00     0.173 A 
ATOM     53  F   UNL A   1      38.234  32.412  38.028  1.00  0.00    -0.203 F 
ATOM     54  C   UNL A   1      38.719  34.405  39.189  1.00  0.00     0.198 A 
ATOM     55  C   UNL A   1      40.138  36.060  38.186  1.00  0.00     0.198 A 
ATOM     56  F   UNL A   1      41.016  35.702  36.032  1.00  0.00    -0.203 F 
ATOM     57  F   UNL A   1      37.946  34.001  40.207  1.00  0.00    -0.200 F 
ATOM     58  C   UNL A   1      39.360  35.634  39.250  1.00  0.00     0.200 A 
ATOM     59  F   UNL A   1      40.773  37.238  38.247  1.00  0.00    -0.200 F 
ATOM     60  F   UNL A   1      39.225  36.409  40.335  1.00  0.00    -0.200 F 
ENDBRANCH  26  50
BRANCH  38  61
ATOM     61  C   UNL A   1      43.777  28.631  35.429  1.00  0.00     0.064 A 
ATOM     62  C   UNL A   1      43.459  27.581  36.304  1.00  0.00     0.173 A 
ATOM     63  C   UNL A   1      45.127  28.980  35.276  1.00  0.00     0.173 A 
ATOM     64  F   UNL A   1      42.180  27.228  36.497  1.00  0.00    -0.203 F 
ATOM     65  C   UNL A   1      44.457  26.915  37.010  1.00  0.00     0.198 A 
ATOM     66  C   UNL A   1      46.122  28.296  35.966  1.00  0.00     0.198 A 
ATOM     67  F   UNL A   1      45.477  29.976  34.450  1.00  0.00    -0.203 F 
ATOM     68  F   UNL A   1      44.129  25.941  37.869  1.00  0.00    -0.200 F 
ATOM     69  C   UNL A   1      45.787  27.268  36.835  1.00  0.00     0.200 A 
ATOM     70  F   UNL A   1      47.408  28.631  35.790  1.00  0.00    -0.200 F 
ATOM     71  F   UNL A   1      46.746  26.621  37.511  1.00  0.00    -0.200 F 
ENDBRANCH  38  61
ENDBRANCH  12  13
ENDBRANCH   5   7
ENDBRANCH   2   3
ENDBRANCH   1   2
BRANCH   1  72
ATOM     72  C   UNL A   1      31.791  30.856  26.872  1.00  0.00     0.118 C 
BRANCH  72  73
ATOM     73  N   UNL A   1      33.136  30.495  27.303  1.00  0.00    -0.352 N 
ATOM     74  C   UNL A   1      33.859  29.357  27.022  1.00  0.00     0.255 C 
ATOM     75  H   UNL A   1      33.591  31.157  27.873  1.00  0.00     0.163 HD
ATOM     76  O   UNL A   1      34.972  29.191  27.508  1.00  0.00    -0.269 OA
BRANCH  74  77
ATOM     77  C   UNL A   1      33.230  28.285  26.225  1.00  0.00     0.082 A 
ATOM     78  C   UNL A   1      33.570  28.193  24.871  1.00  0.00     0.040 A 
ATOM     79  C   UNL A   1      32.387  27.327  26.797  1.00  0.00     0.128 A 
ATOM     80  C   UNL A   1      33.209  27.050  24.154  1.00  0.00     0.088 A 
ATOM     81  C   UNL A   1      32.137  26.142  26.122  1.00  0.00     0.048 A 
ATOM     82  C   UNL A   1      32.622  25.977  24.827  1.00  0.00     0.026 A 
BRANCH  79  83
ATOM     83  O   UNL A   1      31.862  27.516  28.045  1.00  0.00    -0.507 OA
ATOM     84  H   UNL A   1      32.349  27.988  28.691  1.00  0.00     0.293 HD
ENDBRANCH  79  83
BRANCH  80  85
ATOM     85  S   UNL A   1      33.382  27.119  22.380  1.00  0.00     0.261 S 
ATOM     86  O   UNL A   1      34.140  28.315  22.088  1.00  0.00    -0.201 OA
ATOM     87  O   UNL A   1      33.842  25.810  21.965  1.00  0.00    -0.201 OA
BRANCH  85  88
ATOM     88  N   UNL A   1      31.863  27.289  21.682  1.00  0.00    -0.280 N 
ATOM     89  H   UNL A   1      31.740  26.954  20.764  1.00  0.00     0.180 HD
BRANCH  88  90
ATOM     90  C   UNL A   1      30.740  27.882  22.324  1.00  0.00     0.050 A 
ATOM     91  C   UNL A   1      29.787  27.154  23.039  1.00  0.00     0.027 A 
ATOM     92  C   UNL A   1      30.534  29.244  22.077  1.00  0.00     0.047 A 
ATOM     93  C   UNL A   1      28.569  27.754  23.380  1.00  0.00     0.004 A 
ATOM     94  C   UNL A   1      29.322  29.834  22.425  1.00  0.00     0.043 A 
ATOM     95  C   UNL A   1      28.327  29.088  23.052  1.00  0.00     0.020 A 
ATOM     96  Cl  UNL A   1      29.025  31.474  21.997  1.00  0.00    -0.084 Cl
ENDBRANCH  88  90
ENDBRANCH  85  88
ENDBRANCH  80  85
ENDBRANCH  74  77
ENDBRANCH  72  73
ENDBRANCH   1  72
TORSDOF 14
ENDMDL
MODEL 3
REMARK VINA RESULT:     -12.7      1.651      2.714
REMARK SMILES O=C(NCCCNC(=O)c1cc(S(=O)(=O)Nc2cccc(Cl)c2)ccc1O)c1ccc(-c2c3nc(c(-c4c(F)c(F)c(F)c(F)c4F)c4ccc([nH]4)c(-c4c(F)c(F)c(F)c(F)c4F)c4nc(c(-c5c(F)c(F)c(F)c(F)c5F)c5ccc2[nH]5)C=C4)C=C3)cc1
REMARK SMILES IDX 5 1 4 2 3 3 1 4 2 5 28 7 29 8 90 9 30 10 89 11 31 12 32 13
REMARK SMILES IDX 33 14 83 15 34 16 88 17 82 18 84 19 35 20 87 21 81 22 80 23
REMARK SMILES IDX 36 25 68 26 48 27 67 28 49 29 52 30 66 31 85 32 50 33 51 34
REMARK SMILES IDX 65 36 86 37 53 38 37 39 38 40 46 41 39 42 40 43 44 44 47 45
REMARK SMILES IDX 41 46 42 47 45 48 43 49 69 50 70 51 78 52 71 53 72 54 76 55
REMARK SMILES IDX 79 56 73 57 74 58 77 59 75 60 54 61 55 62 63 63 56 64 57 65
REMARK SMILES IDX 61 66 64 67 58 68 59 69 62 70 60 71 6 72 7 73 8 74 9 76
REMARK SMILES IDX 10 77 11 78 26 79 12 80 25 81 24 82 27 83 13 85 14 86 15 87
REMARK SMILES IDX 16 88 17 90 18 91 23 92 19 93 21 94 20 95 22 96
REMARK H PARENT 3 6 84 24 52 35 7 75 27 84 16 89
REMARK Flexibility Score: inf
ROOT
ATOM      1  C   UNL A   1      31.350  32.495  26.486  1.00  0.00     0.042 C 
ENDROOT
BRANCH   1   2
ATOM      2  C   UNL A   1      32.560  32.957  27.273  1.00  0.00     0.118 C 
BRANCH   2   3
ATOM      3  N   UNL A   1      32.436  34.339  27.721  1.00  0.00    -0.352 N 
ATOM      4  O   UNL A   1      32.636  36.108  29.093  1.00  0.00    -0.269 OA
ATOM      5  C   UNL A   1      33.051  35.004  28.750  1.00  0.00     0.251 C 
ATOM      6  H   UNL A   1      31.806  34.884  27.196  1.00  0.00     0.163 HD
BRANCH   5   7
ATOM      7  C   UNL A   1      34.201  34.402  29.458  1.00  0.00     0.039 A 
ATOM      8  C   UNL A   1      34.028  33.730  30.669  1.00  0.00     0.014 A 
ATOM      9  C   UNL A   1      35.468  34.454  28.867  1.00  0.00     0.014 A 
ATOM     10  C   UNL A   1      35.129  33.244  31.360  1.00  0.00     0.010 A 
ATOM     11  C   UNL A   1      36.562  33.868  29.510  1.00  0.00     0.010 A 
ATOM     12  C   UNL A   1      36.402  33.273  30.771  1.00  0.00    -0.014 A 
BRANCH  12  13
ATOM     13  C   UNL A   1      37.520  32.567  31.440  1.00  0.00     0.031 A 
ATOM     14  C   UNL A   1      38.222  31.419  30.781  1.00  0.00     0.074 A 
ATOM     15  C   UNL A   1      37.893  32.989  32.664  1.00  0.00     0.049 A 
ATOM     16  N   UNL A   1      39.201  30.682  31.243  1.00  0.00    -0.248 NA
ATOM     17  C   UNL A   1      37.767  31.036  29.436  1.00  0.00     0.031 C 
ATOM     18  C   UNL A   1      37.262  34.086  33.404  1.00  0.00     0.029 A 
ATOM     19  N   UNL A   1      38.890  32.557  33.500  1.00  0.00    -0.354 N 
ATOM     20  C   UNL A   1      39.460  29.735  30.262  1.00  0.00     0.074 A 
ATOM     21  C   UNL A   1      38.531  29.981  29.180  1.00  0.00     0.031 C 
ATOM     22  C   UNL A   1      37.902  34.259  34.568  1.00  0.00     0.029 A 
ATOM     23  C   UNL A   1      38.944  33.247  34.686  1.00  0.00     0.049 A 
ATOM     24  H   UNL A   1      39.506  31.825  33.273  1.00  0.00     0.167 HD
ATOM     25  C   UNL A   1      40.394  28.756  30.272  1.00  0.00     0.037 A 
ATOM     26  C   UNL A   1      39.723  33.065  35.767  1.00  0.00     0.037 A 
ATOM     27  C   UNL A   1      41.339  28.548  31.339  1.00  0.00     0.049 A 
ATOM     28  C   UNL A   1      40.735  31.958  35.751  1.00  0.00     0.074 A 
ATOM     29  C   UNL A   1      42.389  27.647  31.396  1.00  0.00     0.029 A 
ATOM     30  N   UNL A   1      41.342  29.244  32.538  1.00  0.00    -0.354 N 
ATOM     31  N   UNL A   1      41.012  31.109  34.791  1.00  0.00    -0.248 NA
ATOM     32  C   UNL A   1      41.533  31.773  36.969  1.00  0.00     0.031 C 
ATOM     33  C   UNL A   1      42.997  27.764  32.651  1.00  0.00     0.029 A 
ATOM     34  C   UNL A   1      42.350  28.764  33.360  1.00  0.00     0.049 A 
ATOM     35  H   UNL A   1      40.722  29.971  32.771  1.00  0.00     0.167 HD
ATOM     36  C   UNL A   1      42.013  30.290  35.287  1.00  0.00     0.074 A 
ATOM     37  C   UNL A   1      42.315  30.761  36.624  1.00  0.00     0.031 C 
ATOM     38  C   UNL A   1      42.622  29.236  34.692  1.00  0.00     0.037 A 
BRANCH  25  39
ATOM     39  C   UNL A   1      40.445  27.815  29.106  1.00  0.00     0.064 A 
ATOM     40  C   UNL A   1      39.660  26.653  29.060  1.00  0.00     0.173 A 
ATOM     41  C   UNL A   1      41.226  28.125  27.983  1.00  0.00     0.173 A 
ATOM     42  F   UNL A   1      38.902  26.309  30.112  1.00  0.00    -0.203 F 
ATOM     43  C   UNL A   1      39.662  25.833  27.934  1.00  0.00     0.198 A 
ATOM     44  C   UNL A   1      41.210  27.315  26.851  1.00  0.00     0.198 A 
ATOM     45  F   UNL A   1      41.990  29.228  27.977  1.00  0.00    -0.203 F 
ATOM     46  F   UNL A   1      38.921  24.717  27.919  1.00  0.00    -0.200 F 
ATOM     47  C   UNL A   1      40.430  26.169  26.829  1.00  0.00     0.200 A 
ATOM     48  F   UNL A   1      41.946  27.646  25.781  1.00  0.00    -0.200 F 
ATOM     49  F   UNL A   1      40.418  25.387  25.740  1.00  0.00    -0.200 F 
ENDBRANCH  25  39
BRANCH  26  50
ATOM     50  C   UNL A   1      39.540  33.929  36.960  1.00  0.00     0.064 A 
ATOM     51  C   UNL A   1      40.128  35.197  37.032  1.00  0.00     0.173 A 
ATOM     52  C   UNL A   1      38.754  33.507  38.043  1.00  0.00     0.173 A 
ATOM     53  F   UNL A   1      40.902  35.635  36.029  1.00  0.00    -0.203 F 
ATOM     54  C   UNL A   1      39.946  36.008  38.150  1.00  0.00     0.198 A 
ATOM     55  C   UNL A   1      38.551  34.330  39.148  1.00  0.00     0.198 A 
ATOM     56  F   UNL A   1      38.165  32.302  38.018  1.00  0.00    -0.203 F 
ATOM     57  F   UNL A   1      40.549  37.204  38.213  1.00  0.00    -0.200 F 
ATOM     58  C   UNL A   1      39.153  35.577  39.204  1.00  0.00     0.200 A 
ATOM     59  F   UNL A   1      37.769  33.915  40.154  1.00  0.00    -0.200 F 
ATOM     60  F   UNL A   1      38.971  36.362  40.274  1.00  0.00    -0.200 F 
ENDBRANCH  26  50
BRANCH  38  61
ATOM     61  C   UNL A   1      43.667  28.520  35.489  1.00  0.00     0.064 A 
ATOM     62  C   UNL A   1      45.024  28.861  35.377  1.00  0.00     0.173 A 
ATOM     63  C   UNL A   1      43.311  27.510  36.394  1.00  0.00     0.173 A 
ATOM     64  F   UNL A   1      45.412  29.807  34.509  1.00  0.00    -0.203 F 
ATOM     65  C   UNL A   1      45.988  28.204  36.135  1.00  0.00     0.198 A 
ATOM     66  C   UNL A   1      44.276  26.873  37.167  1.00  0.00     0.198 A 
ATOM     67  F   UNL A   1      42.026  27.152  36.535  1.00  0.00    -0.203 F 
ATOM     68  F   UNL A   1      47.283  28.518  35.986  1.00  0.00    -0.200 F 
ATOM     69  C   UNL A   1      45.613  27.216  37.034  1.00  0.00     0.200 A 
ATOM     70  F   UNL A   1      43.912  25.924  38.041  1.00  0.00    -0.200 F 
ATOM     71  F   UNL A   1      46.543  26.589  37.767  1.00  0.00    -0.200 F 
ENDBRANCH  38  61
ENDBRANCH  12  13
ENDBRANCH   5   7
ENDBRANCH   2   3
ENDBRANCH   1   2
BRANCH   1  72
ATOM     72  C   UNL A   1      31.279  30.990  26.321  1.00  0.00     0.118 C 
BRANCH  72  73
ATOM     73  N   UNL A   1      31.050  30.568  24.945  1.00  0.00    -0.352 N 
ATOM     74  C   UNL A   1      31.274  29.336  24.370  1.00  0.00     0.255 C 
ATOM     75  H   UNL A   1      30.687  31.257  24.343  1.00  0.00     0.163 HD
ATOM     76  O   UNL A   1      31.068  29.162  23.173  1.00  0.00    -0.269 OA
BRANCH  74  77
ATOM     77  C   UNL A   1      31.876  28.261  25.183  1.00  0.00     0.082 A 
ATOM     78  C   UNL A   1      31.126  27.098  25.385  1.00  0.00     0.040 A 
ATOM     79  C   UNL A   1      33.183  28.342  25.675  1.00  0.00     0.128 A 
ATOM     80  C   UNL A   1      31.752  25.967  25.916  1.00  0.00     0.088 A 
ATOM     81  C   UNL A   1      33.834  27.188  26.085  1.00  0.00     0.048 A 
ATOM     82  C   UNL A   1      33.133  25.985  26.125  1.00  0.00     0.026 A 
BRANCH  79  83
ATOM     83  O   UNL A   1      33.850  29.534  25.690  1.00  0.00    -0.507 OA
ATOM     84  H   UNL A   1      33.587  30.225  25.116  1.00  0.00     0.293 HD
ENDBRANCH  79  83
BRANCH  80  85
ATOM     85  S   UNL A   1      30.697  24.629  26.444  1.00  0.00     0.261 S 
ATOM     86  O   UNL A   1      31.404  23.946  27.505  1.00  0.00    -0.201 OA
ATOM     87  O   UNL A   1      29.385  25.205  26.655  1.00  0.00    -0.201 OA
BRANCH  85  88
ATOM     88  N   UNL A   1      30.500  23.546  25.176  1.00  0.00    -0.280 N 
ATOM     89  H   UNL A   1      29.659  23.035  25.136  1.00  0.00     0.180 HD
BRANCH  88  90
ATOM     90  C   UNL A   1      31.462  23.314  24.153  1.00  0.00     0.050 A 
ATOM     91  C   UNL A   1      32.441  22.320  24.226  1.00  0.00     0.027 A 
ATOM     92  C   UNL A   1      31.491  24.244  23.108  1.00  0.00     0.047 A 
ATOM     93  C   UNL A   1      33.523  22.347  23.338  1.00  0.00     0.004 A 
ATOM     94  C   UNL A   1      32.568  24.259  22.225  1.00  0.00     0.043 A 
ATOM     95  C   UNL A   1      33.599  23.331  22.351  1.00  0.00     0.020 A 
ATOM     96  Cl  UNL A   1      32.662  25.489  21.026  1.00  0.00    -0.084 Cl
ENDBRANCH  88  90
ENDBRANCH  85  88
ENDBRANCH  80  85
ENDBRANCH  74  77
ENDBRANCH  72  73
ENDBRANCH   1  72
TORSDOF 14
ENDMDL
