MODEL 1
REMARK VINA RESULT:     -13.3      0.000      0.000
REMARK SMILES C=CCn1nc(C(=O)NCCCNC(=O)c2ccc(-c3c4nc(c(-c5c(F)c(F)c(F)c(F)c5F)c5ccc([nH]5)c(-c5c(F)c(F)c(F)c(F)c5F)c5nc(c(-c6c(F)c(F)c(F)c(F)c6F)c6ccc3[nH]6)C=C5)C=C4)cc2)c2c1CC[C@@H]([NH+]1CCC(C(C)(C)O)CC1)C2
REMARK SMILES IDX 10 1 9 2 7 3 8 4 6 6 4 7 5 8 80 9 79 10 81 11 94 12 82 13
REMARK SMILES IDX 83 14 3 15 2 16 1 17 84 18 85 19 93 20 86 22 92 23 87 24
REMARK SMILES IDX 88 25 89 26 90 27 91 28 11 30 12 31 13 32 14 33 15 35 16 36
REMARK SMILES IDX 17 37 78 38 18 39 77 40 19 41 20 42 21 43 71 44 22 45 76 46
REMARK SMILES IDX 70 47 72 48 23 49 75 50 69 51 68 52 24 54 56 55 36 56 55 57
REMARK SMILES IDX 37 58 40 59 54 60 73 61 38 62 39 63 53 65 74 66 41 67 25 68
REMARK SMILES IDX 26 69 34 70 27 71 28 72 32 73 35 74 29 75 30 76 33 77 31 78
REMARK SMILES IDX 57 79 58 80 66 81 59 82 60 83 64 84 67 85 61 86 62 87 65 88
REMARK SMILES IDX 63 89 42 90 43 91 51 92 44 93 45 94 49 95 52 96 46 97 47 98
REMARK SMILES IDX 50 99 48 100
REMARK H PARENT 9 5 84 21 91 29 13 34 72 53 40 64
REMARK Flexibility Score: inf
ROOT
ATOM      1  C   UNL A   1      38.977  20.871  25.513  1.00  0.00     0.118 C 
ENDROOT
BRANCH   1   2
ATOM      2  N   UNL A   1      38.556  22.242  25.792  1.00  0.00    -0.351 N 
ATOM      3  C   UNL A   1      37.359  22.941  25.742  1.00  0.00     0.272 C 
ATOM      4  O   UNL A   1      37.433  24.084  26.211  1.00  0.00    -0.267 OA
ATOM      5  H   UNL A   1      39.305  22.809  26.088  1.00  0.00     0.163 HD
BRANCH   3   6
ATOM      6  C   UNL A   1      36.079  22.409  25.195  1.00  0.00     0.153 A 
ATOM      7  N   UNL A   1      34.511  20.954  24.865  1.00  0.00    -0.265 N 
ATOM      8  N   UNL A   1      35.756  21.105  25.375  1.00  0.00    -0.167 NA
ATOM      9  C   UNL A   1      34.089  22.065  24.198  1.00  0.00     0.043 A 
ATOM     10  C   UNL A   1      34.981  23.042  24.558  1.00  0.00     0.012 A 
ATOM     11  C   UNL A   1      32.837  22.282  23.426  1.00  0.00     0.062 C 
ATOM     12  C   UNL A   1      34.669  24.453  24.350  1.00  0.00     0.105 C 
ATOM     13  C   UNL A   1      32.636  23.788  23.126  1.00  0.00     0.072 C 
ATOM     14  C   UNL A   1      33.199  24.812  24.141  1.00  0.00     0.189 C 
BRANCH   7  15
ATOM     15  C   UNL A   1      33.702  19.807  25.268  1.00  0.00     0.171 C 
BRANCH  15  16
ATOM     16  C   UNL A   1      33.680  18.713  24.245  1.00  0.00    -0.011 C 
ATOM     17  C   UNL A   1      34.523  17.671  24.250  1.00  0.00     0.006 C 
ENDBRANCH  15  16
ENDBRANCH   7  15
BRANCH  14  18
ATOM     18  N   UNL A   1      32.619  25.225  25.438  1.00  0.00    -0.332 N 
ATOM     19  C   UNL A   1      31.181  25.276  25.612  1.00  0.00     0.262 C 
ATOM     20  C   UNL A   1      33.234  26.368  26.088  1.00  0.00     0.262 C 
ATOM     21  H   UNL A   1      32.896  24.371  25.921  1.00  0.00     0.348 HD
ATOM     22  C   UNL A   1      30.551  26.501  24.978  1.00  0.00     0.068 C 
ATOM     23  C   UNL A   1      32.854  27.669  25.414  1.00  0.00     0.068 C 
ATOM     24  C   UNL A   1      31.346  27.827  25.082  1.00  0.00     0.031 C 
BRANCH  24  25
ATOM     25  C   UNL A   1      31.142  28.758  23.833  1.00  0.00     0.062 C 
ATOM     26  C   UNL A   1      32.368  28.828  22.918  1.00  0.00     0.042 C 
ATOM     27  C   UNL A   1      29.904  28.329  23.041  1.00  0.00     0.042 C 
BRANCH  25  28
ATOM     28  O   UNL A   1      30.901  30.101  24.259  1.00  0.00    -0.390 OA
ATOM     29  H   UNL A   1      30.072  30.419  23.869  1.00  0.00     0.211 HD
ENDBRANCH  25  28
ENDBRANCH  24  25
ENDBRANCH  14  18
ENDBRANCH   3   6
ENDBRANCH   1   2
BRANCH   1  30
ATOM     30  C   UNL A   1      40.107  20.392  26.445  1.00  0.00     0.042 C 
BRANCH  30  31
ATOM     31  C   UNL A   1      40.959  21.421  27.122  1.00  0.00     0.118 C 
BRANCH  31  32
ATOM     32  N   UNL A   1      42.103  21.830  26.312  1.00  0.00    -0.352 N 
ATOM     33  C   UNL A   1      42.443  23.127  25.959  1.00  0.00     0.251 C 
ATOM     34  H   UNL A   1      42.693  21.112  25.983  1.00  0.00     0.163 HD
ATOM     35  O   UNL A   1      43.102  23.372  24.971  1.00  0.00    -0.269 OA
BRANCH  33  36
ATOM     36  C   UNL A   1      41.926  24.198  26.828  1.00  0.00     0.039 A 
ATOM     37  C   UNL A   1      42.596  24.567  27.990  1.00  0.00     0.014 A 
ATOM     38  C   UNL A   1      40.870  24.954  26.330  1.00  0.00     0.014 A 
ATOM     39  C   UNL A   1      42.259  25.783  28.575  1.00  0.00     0.010 A 
ATOM     40  C   UNL A   1      40.742  26.251  26.751  1.00  0.00     0.010 A 
ATOM     41  C   UNL A   1      41.373  26.658  27.913  1.00  0.00    -0.014 A 
BRANCH  41  42
ATOM     42  C   UNL A   1      41.177  28.025  28.389  1.00  0.00     0.031 A 
ATOM     43  C   UNL A   1      42.209  28.986  27.926  1.00  0.00     0.074 A 
ATOM     44  C   UNL A   1      40.127  28.453  29.126  1.00  0.00     0.049 A 
ATOM     45  N   UNL A   1      43.181  29.447  28.638  1.00  0.00    -0.248 NA
ATOM     46  C   UNL A   1      42.289  29.344  26.501  1.00  0.00     0.031 C 
ATOM     47  C   UNL A   1      38.883  27.761  29.478  1.00  0.00     0.029 A 
ATOM     48  N   UNL A   1      39.944  29.679  29.690  1.00  0.00    -0.354 N 
ATOM     49  C   UNL A   1      43.888  30.312  27.817  1.00  0.00     0.074 A 
ATOM     50  C   UNL A   1      43.403  30.083  26.479  1.00  0.00     0.031 C 
ATOM     51  C   UNL A   1      37.992  28.641  29.983  1.00  0.00     0.029 A 
ATOM     52  C   UNL A   1      38.664  29.910  30.175  1.00  0.00     0.049 A 
ATOM     53  H   UNL A   1      40.664  30.349  29.751  1.00  0.00     0.167 HD
ATOM     54  C   UNL A   1      44.628  31.313  28.367  1.00  0.00     0.037 A 
ATOM     55  C   UNL A   1      38.186  31.059  30.714  1.00  0.00     0.037 A 
ATOM     56  C   UNL A   1      44.895  31.053  29.765  1.00  0.00     0.049 A 
ATOM     57  C   UNL A   1      39.356  31.832  31.199  1.00  0.00     0.074 A 
ATOM     58  C   UNL A   1      45.483  30.008  30.456  1.00  0.00     0.029 A 
ATOM     59  N   UNL A   1      44.167  31.742  30.706  1.00  0.00    -0.354 N 
ATOM     60  N   UNL A   1      40.084  31.471  32.218  1.00  0.00    -0.248 NA
ATOM     61  C   UNL A   1      39.997  32.741  30.262  1.00  0.00     0.031 C 
ATOM     62  C   UNL A   1      44.669  29.828  31.616  1.00  0.00     0.029 A 
ATOM     63  C   UNL A   1      43.695  30.824  31.611  1.00  0.00     0.049 A 
ATOM     64  H   UNL A   1      44.014  32.714  30.727  1.00  0.00     0.167 HD
ATOM     65  C   UNL A   1      41.387  31.710  31.812  1.00  0.00     0.074 A 
ATOM     66  C   UNL A   1      41.268  32.575  30.640  1.00  0.00     0.031 C 
ATOM     67  C   UNL A   1      42.424  30.955  32.283  1.00  0.00     0.037 A 
BRANCH  54  68
ATOM     68  C   UNL A   1      44.743  32.691  27.768  1.00  0.00     0.064 A 
ATOM     69  C   UNL A   1      45.954  33.067  27.153  1.00  0.00     0.173 A 
ATOM     70  C   UNL A   1      43.852  33.748  28.056  1.00  0.00     0.173 A 
ATOM     71  F   UNL A   1      46.881  32.146  26.851  1.00  0.00    -0.203 F 
ATOM     72  C   UNL A   1      46.284  34.408  26.937  1.00  0.00     0.198 A 
ATOM     73  C   UNL A   1      44.164  35.079  27.790  1.00  0.00     0.198 A 
ATOM     74  F   UNL A   1      42.703  33.557  28.713  1.00  0.00    -0.203 F 
ATOM     75  F   UNL A   1      47.504  34.725  26.482  1.00  0.00    -0.200 F 
ATOM     76  C   UNL A   1      45.393  35.412  27.264  1.00  0.00     0.200 A 
ATOM     77  F   UNL A   1      43.294  36.039  28.134  1.00  0.00    -0.200 F 
ATOM     78  F   UNL A   1      45.735  36.699  27.124  1.00  0.00    -0.200 F 
ENDBRANCH  54  68
BRANCH  55  79
ATOM     79  C   UNL A   1      36.834  31.649  30.593  1.00  0.00     0.064 A 
ATOM     80  C   UNL A   1      36.047  31.891  31.732  1.00  0.00     0.173 A 
ATOM     81  C   UNL A   1      36.409  32.264  29.398  1.00  0.00     0.173 A 
ATOM     82  F   UNL A   1      36.400  31.375  32.918  1.00  0.00    -0.203 F 
ATOM     83  C   UNL A   1      34.932  32.733  31.688  1.00  0.00     0.198 A 
ATOM     84  C   UNL A   1      35.292  33.099  29.355  1.00  0.00     0.198 A 
ATOM     85  F   UNL A   1      37.127  32.147  28.272  1.00  0.00    -0.203 F 
ATOM     86  F   UNL A   1      34.251  33.000  32.812  1.00  0.00    -0.200 F 
ATOM     87  C   UNL A   1      34.564  33.347  30.503  1.00  0.00     0.200 A 
ATOM     88  F   UNL A   1      34.968  33.716  28.209  1.00  0.00    -0.200 F 
ATOM     89  F   UNL A   1      33.539  34.211  30.477  1.00  0.00    -0.200 F 
ENDBRANCH  55  79
BRANCH  67  90
ATOM     90  C   UNL A   1      42.160  30.044  33.452  1.00  0.00     0.064 A 
ATOM     91  C   UNL A   1      41.726  28.709  33.346  1.00  0.00     0.173 A 
ATOM     92  C   UNL A   1      42.460  30.518  34.738  1.00  0.00     0.173 A 
ATOM     93  F   UNL A   1      41.521  28.139  32.153  1.00  0.00    -0.203 F 
ATOM     94  C   UNL A   1      41.541  27.915  34.479  1.00  0.00     0.198 A 
ATOM     95  C   UNL A   1      42.314  29.709  35.863  1.00  0.00     0.198 A 
ATOM     96  F   UNL A   1      42.930  31.764  34.903  1.00  0.00    -0.203 F 
ATOM     97  F   UNL A   1      41.099  26.655  34.351  1.00  0.00    -0.200 F 
ATOM     98  C   UNL A   1      41.840  28.414  35.734  1.00  0.00     0.200 A 
ATOM     99  F   UNL A   1      42.652  30.182  37.069  1.00  0.00    -0.200 F 
ATOM    100  F   UNL A   1      41.691  27.643  36.820  1.00  0.00    -0.200 F 
ENDBRANCH  67  90
ENDBRANCH  41  42
ENDBRANCH  33  36
ENDBRANCH  31  32
ENDBRANCH  30  31
ENDBRANCH   1  30
TORSDOF 15
ENDMDL
MODEL 2
REMARK VINA RESULT:     -13.3      3.362      9.071
REMARK SMILES C=CCn1nc(C(=O)NCCCNC(=O)c2ccc(-c3c4nc(c(-c5c(F)c(F)c(F)c(F)c5F)c5ccc([nH]5)c(-c5c(F)c(F)c(F)c(F)c5F)c5nc(c(-c6c(F)c(F)c(F)c(F)c6F)c6ccc3[nH]6)C=C5)C=C4)cc2)c2c1CC[C@@H]([NH+]1CCC(C(C)(C)O)CC1)C2
REMARK SMILES IDX 10 1 9 2 7 3 8 4 6 6 4 7 5 8 80 9 79 10 81 11 94 12 82 13
REMARK SMILES IDX 83 14 3 15 2 16 1 17 84 18 85 19 93 20 86 22 92 23 87 24
REMARK SMILES IDX 88 25 89 26 90 27 91 28 11 30 12 31 13 32 14 33 15 35 16 36
REMARK SMILES IDX 17 37 78 38 18 39 77 40 19 41 20 42 21 43 71 44 22 45 76 46
REMARK SMILES IDX 70 47 72 48 23 49 75 50 69 51 68 52 24 54 56 55 36 56 55 57
REMARK SMILES IDX 37 58 40 59 54 60 73 61 38 62 39 63 53 65 74 66 41 67 25 68
REMARK SMILES IDX 26 69 34 70 27 71 28 72 32 73 35 74 29 75 30 76 33 77 31 78
REMARK SMILES IDX 57 79 58 80 66 81 59 82 60 83 64 84 67 85 61 86 62 87 65 88
REMARK SMILES IDX 63 89 42 90 43 91 51 92 44 93 45 94 49 95 52 96 46 97 47 98
REMARK SMILES IDX 50 99 48 100
REMARK H PARENT 9 5 84 21 91 29 13 34 72 53 40 64
REMARK Flexibility Score: inf
ROOT
ATOM      1  C   UNL A   1      33.831  29.656  26.837  1.00  0.00     0.118 C 
ENDROOT
BRANCH   1   2
ATOM      2  N   UNL A   1      32.702  29.119  27.596  1.00  0.00    -0.351 N 
ATOM      3  C   UNL A   1      31.729  28.156  27.376  1.00  0.00     0.272 C 
ATOM      4  O   UNL A   1      31.034  27.919  28.372  1.00  0.00    -0.267 OA
ATOM      5  H   UNL A   1      32.612  29.545  28.479  1.00  0.00     0.163 HD
BRANCH   3   6
ATOM      6  C   UNL A   1      31.506  27.443  26.086  1.00  0.00     0.153 A 
ATOM      7  N   UNL A   1      31.335  27.224  23.940  1.00  0.00    -0.265 N 
ATOM      8  N   UNL A   1      31.436  28.144  24.929  1.00  0.00    -0.167 NA
ATOM      9  C   UNL A   1      31.153  25.964  24.425  1.00  0.00     0.043 A 
ATOM     10  C   UNL A   1      31.446  26.064  25.761  1.00  0.00     0.012 A 
ATOM     11  C   UNL A   1      30.911  24.696  23.687  1.00  0.00     0.062 C 
ATOM     12  C   UNL A   1      31.724  24.871  26.557  1.00  0.00     0.105 C 
ATOM     13  C   UNL A   1      31.094  23.476  24.625  1.00  0.00     0.072 C 
ATOM     14  C   UNL A   1      32.102  23.604  25.792  1.00  0.00     0.189 C 
BRANCH   7  15
ATOM     15  C   UNL A   1      31.665  27.602  22.568  1.00  0.00     0.171 C 
BRANCH  15  16
ATOM     16  C   UNL A   1      33.118  27.433  22.245  1.00  0.00    -0.011 C 
ATOM     17  C   UNL A   1      34.028  28.408  22.373  1.00  0.00     0.006 C 
ENDBRANCH  15  16
ENDBRANCH   7  15
BRANCH  14  18
ATOM     18  N   UNL A   1      33.577  23.499  25.741  1.00  0.00    -0.332 N 
ATOM     19  C   UNL A   1      34.250  23.274  24.476  1.00  0.00     0.262 C 
ATOM     20  C   UNL A   1      34.208  22.707  26.782  1.00  0.00     0.262 C 
ATOM     21  H   UNL A   1      33.731  24.490  25.929  1.00  0.00     0.348 HD
ATOM     22  C   UNL A   1      34.164  21.834  24.009  1.00  0.00     0.068 C 
ATOM     23  C   UNL A   1      34.015  21.223  26.551  1.00  0.00     0.068 C 
ATOM     24  C   UNL A   1      34.275  20.739  25.099  1.00  0.00     0.031 C 
BRANCH  24  25
ATOM     25  C   UNL A   1      33.416  19.465  24.772  1.00  0.00     0.062 C 
ATOM     26  C   UNL A   1      32.524  19.631  23.538  1.00  0.00     0.042 C 
ATOM     27  C   UNL A   1      34.316  18.235  24.622  1.00  0.00     0.042 C 
BRANCH  25  28
ATOM     28  O   UNL A   1      32.528  19.182  25.855  1.00  0.00    -0.390 OA
ATOM     29  H   UNL A   1      31.614  19.176  25.530  1.00  0.00     0.211 HD
ENDBRANCH  25  28
ENDBRANCH  24  25
ENDBRANCH  14  18
ENDBRANCH   3   6
ENDBRANCH   1   2
BRANCH   1  30
ATOM     30  C   UNL A   1      35.154  29.611  27.624  1.00  0.00     0.042 C 
BRANCH  30  31
ATOM     31  C   UNL A   1      36.009  30.840  27.657  1.00  0.00     0.118 C 
BRANCH  31  32
ATOM     32  N   UNL A   1      35.520  31.843  28.600  1.00  0.00    -0.352 N 
ATOM     33  C   UNL A   1      35.693  31.834  29.975  1.00  0.00     0.251 C 
ATOM     34  H   UNL A   1      35.017  32.600  28.222  1.00  0.00     0.163 HD
ATOM     35  O   UNL A   1      34.933  32.412  30.722  1.00  0.00    -0.269 OA
BRANCH  33  36
ATOM     36  C   UNL A   1      36.832  31.052  30.487  1.00  0.00     0.039 A 
ATOM     37  C   UNL A   1      36.669  29.736  30.909  1.00  0.00     0.014 A 
ATOM     38  C   UNL A   1      38.097  31.611  30.333  1.00  0.00     0.014 A 
ATOM     39  C   UNL A   1      37.810  28.955  31.055  1.00  0.00     0.010 A 
ATOM     40  C   UNL A   1      39.170  30.770  30.217  1.00  0.00     0.010 A 
ATOM     41  C   UNL A   1      39.062  29.458  30.643  1.00  0.00    -0.014 A 
BRANCH  41  42
ATOM     42  C   UNL A   1      40.232  28.587  30.575  1.00  0.00     0.031 A 
ATOM     43  C   UNL A   1      40.910  28.372  31.878  1.00  0.00     0.074 A 
ATOM     44  C   UNL A   1      40.664  27.944  29.467  1.00  0.00     0.049 A 
ATOM     45  N   UNL A   1      42.011  28.929  32.253  1.00  0.00    -0.248 NA
ATOM     46  C   UNL A   1      40.232  27.612  32.939  1.00  0.00     0.031 C 
ATOM     47  C   UNL A   1      40.024  27.801  28.155  1.00  0.00     0.029 A 
ATOM     48  N   UNL A   1      41.803  27.213  29.313  1.00  0.00    -0.354 N 
ATOM     49  C   UNL A   1      42.281  28.441  33.523  1.00  0.00     0.074 A 
ATOM     50  C   UNL A   1      41.080  27.775  33.960  1.00  0.00     0.031 C 
ATOM     51  C   UNL A   1      40.658  26.852  27.433  1.00  0.00     0.029 A 
ATOM     52  C   UNL A   1      41.860  26.466  28.144  1.00  0.00     0.049 A 
ATOM     53  H   UNL A   1      42.530  27.215  29.977  1.00  0.00     0.167 HD
ATOM     54  C   UNL A   1      43.562  28.422  33.981  1.00  0.00     0.037 A 
ATOM     55  C   UNL A   1      42.833  25.598  27.772  1.00  0.00     0.037 A 
ATOM     56  C   UNL A   1      44.402  29.316  33.215  1.00  0.00     0.049 A 
ATOM     57  C   UNL A   1      44.059  25.971  28.520  1.00  0.00     0.074 A 
ATOM     58  C   UNL A   1      44.350  30.666  32.913  1.00  0.00     0.029 A 
ATOM     59  N   UNL A   1      45.251  28.771  32.280  1.00  0.00    -0.354 N 
ATOM     60  N   UNL A   1      44.731  27.066  28.298  1.00  0.00    -0.248 NA
ATOM     61  C   UNL A   1      44.259  25.368  29.828  1.00  0.00     0.031 C 
ATOM     62  C   UNL A   1      44.731  30.752  31.539  1.00  0.00     0.029 A 
ATOM     63  C   UNL A   1      45.078  29.471  31.113  1.00  0.00     0.049 A 
ATOM     64  H   UNL A   1      45.868  28.018  32.423  1.00  0.00     0.167 HD
ATOM     65  C   UNL A   1      45.050  27.536  29.563  1.00  0.00     0.074 A 
ATOM     66  C   UNL A   1      44.815  26.406  30.459  1.00  0.00     0.031 C 
ATOM     67  C   UNL A   1      45.194  28.872  29.804  1.00  0.00     0.037 A 
BRANCH  54  68
ATOM     68  C   UNL A   1      44.129  27.308  34.824  1.00  0.00     0.064 A 
ATOM     69  C   UNL A   1      43.990  25.979  34.379  1.00  0.00     0.173 A 
ATOM     70  C   UNL A   1      44.503  27.462  36.178  1.00  0.00     0.173 A 
ATOM     71  F   UNL A   1      43.623  25.717  33.116  1.00  0.00    -0.203 F 
ATOM     72  C   UNL A   1      44.118  24.894  35.250  1.00  0.00     0.198 A 
ATOM     73  C   UNL A   1      44.681  26.375  37.029  1.00  0.00     0.198 A 
ATOM     74  F   UNL A   1      44.590  28.660  36.765  1.00  0.00    -0.203 F 
ATOM     75  F   UNL A   1      43.837  23.658  34.816  1.00  0.00    -0.200 F 
ATOM     76  C   UNL A   1      44.454  25.093  36.575  1.00  0.00     0.200 A 
ATOM     77  F   UNL A   1      44.986  26.592  38.316  1.00  0.00    -0.200 F 
ATOM     78  F   UNL A   1      44.508  24.062  37.428  1.00  0.00    -0.200 F 
ENDBRANCH  54  68
BRANCH  55  79
ATOM     79  C   UNL A   1      42.706  24.320  27.035  1.00  0.00     0.064 A 
ATOM     80  C   UNL A   1      43.210  24.186  25.730  1.00  0.00     0.173 A 
ATOM     81  C   UNL A   1      42.362  23.126  27.698  1.00  0.00     0.173 A 
ATOM     82  F   UNL A   1      43.597  25.269  25.041  1.00  0.00    -0.203 F 
ATOM     83  C   UNL A   1      43.403  22.932  25.143  1.00  0.00     0.198 A 
ATOM     84  C   UNL A   1      42.550  21.875  27.108  1.00  0.00     0.198 A 
ATOM     85  F   UNL A   1      41.933  23.143  28.968  1.00  0.00    -0.203 F 
ATOM     86  F   UNL A   1      43.958  22.842  23.926  1.00  0.00    -0.200 F 
ATOM     87  C   UNL A   1      43.086  21.777  25.838  1.00  0.00     0.200 A 
ATOM     88  F   UNL A   1      42.273  20.763  27.806  1.00  0.00    -0.200 F 
ATOM     89  F   UNL A   1      43.339  20.574  25.305  1.00  0.00    -0.200 F 
ENDBRANCH  55  79
BRANCH  67  90
ATOM     90  C   UNL A   1      45.271  29.800  28.621  1.00  0.00     0.064 A 
ATOM     91  C   UNL A   1      44.156  30.327  27.943  1.00  0.00     0.173 A 
ATOM     92  C   UNL A   1      46.536  30.255  28.220  1.00  0.00     0.173 A 
ATOM     93  F   UNL A   1      42.908  30.034  28.327  1.00  0.00    -0.203 F 
ATOM     94  C   UNL A   1      44.308  31.214  26.876  1.00  0.00     0.198 A 
ATOM     95  C   UNL A   1      46.683  31.173  27.183  1.00  0.00     0.198 A 
ATOM     96  F   UNL A   1      47.636  29.834  28.861  1.00  0.00    -0.203 F 
ATOM     97  F   UNL A   1      43.230  31.679  26.228  1.00  0.00    -0.200 F 
ATOM     98  C   UNL A   1      45.571  31.639  26.501  1.00  0.00     0.200 A 
ATOM     99  F   UNL A   1      47.903  31.618  26.858  1.00  0.00    -0.200 F 
ATOM    100  F   UNL A   1      45.718  32.514  25.496  1.00  0.00    -0.200 F 
ENDBRANCH  67  90
ENDBRANCH  41  42
ENDBRANCH  33  36
ENDBRANCH  31  32
ENDBRANCH  30  31
ENDBRANCH   1  30
TORSDOF 15
ENDMDL
MODEL 3
REMARK VINA RESULT:     -13.1      2.367      3.212
REMARK SMILES C=CCn1nc(C(=O)NCCCNC(=O)c2ccc(-c3c4nc(c(-c5c(F)c(F)c(F)c(F)c5F)c5ccc([nH]5)c(-c5c(F)c(F)c(F)c(F)c5F)c5nc(c(-c6c(F)c(F)c(F)c(F)c6F)c6ccc3[nH]6)C=C5)C=C4)cc2)c2c1CC[C@@H]([NH+]1CCC(C(C)(C)O)CC1)C2
REMARK SMILES IDX 10 1 9 2 7 3 8 4 6 6 4 7 5 8 80 9 79 10 81 11 94 12 82 13
REMARK SMILES IDX 83 14 3 15 2 16 1 17 84 18 85 19 93 20 86 22 92 23 87 24
REMARK SMILES IDX 88 25 89 26 90 27 91 28 11 30 12 31 13 32 14 33 15 35 16 36
REMARK SMILES IDX 17 37 78 38 18 39 77 40 19 41 20 42 21 43 71 44 22 45 76 46
REMARK SMILES IDX 70 47 72 48 23 49 75 50 69 51 68 52 24 54 56 55 36 56 55 57
REMARK SMILES IDX 37 58 40 59 54 60 73 61 38 62 39 63 53 65 74 66 41 67 25 68
REMARK SMILES IDX 26 69 34 70 27 71 28 72 32 73 35 74 29 75 30 76 33 77 31 78
REMARK SMILES IDX 57 79 58 80 66 81 59 82 60 83 64 84 67 85 61 86 62 87 65 88
REMARK SMILES IDX 63 89 42 90 43 91 51 92 44 93 45 94 49 95 52 96 46 97 47 98
REMARK SMILES IDX 50 99 48 100
REMARK H PARENT 9 5 84 21 91 29 13 34 72 53 40 64
REMARK Flexibility Score: inf
ROOT
ATOM      1  C   UNL A   1      39.360  19.851  25.531  1.00  0.00     0.118 C 
ENDROOT
BRANCH   1   2
ATOM      2  N   UNL A   1      39.154  21.265  25.843  1.00  0.00    -0.351 N 
ATOM      3  C   UNL A   1      38.087  22.148  25.780  1.00  0.00     0.272 C 
ATOM      4  O   UNL A   1      38.326  23.250  26.289  1.00  0.00    -0.267 OA
ATOM      5  H   UNL A   1      39.973  21.694  26.181  1.00  0.00     0.163 HD
BRANCH   3   6
ATOM      6  C   UNL A   1      36.759  21.844  25.175  1.00  0.00     0.153 A 
ATOM      7  N   UNL A   1      35.017  20.650  24.701  1.00  0.00    -0.265 N 
ATOM      8  N   UNL A   1      36.261  20.585  25.233  1.00  0.00    -0.167 NA
ATOM      9  C   UNL A   1      34.762  21.863  24.134  1.00  0.00     0.043 A 
ATOM     10  C   UNL A   1      35.769  22.674  24.588  1.00  0.00     0.012 A 
ATOM     11  C   UNL A   1      33.566  22.315  23.373  1.00  0.00     0.062 C 
ATOM     12  C   UNL A   1      35.653  24.128  24.507  1.00  0.00     0.105 C 
ATOM     13  C   UNL A   1      33.575  23.855  23.210  1.00  0.00     0.072 C 
ATOM     14  C   UNL A   1      34.249  24.699  24.319  1.00  0.00     0.189 C 
BRANCH   7  15
ATOM     15  C   UNL A   1      34.054  19.591  24.991  1.00  0.00     0.171 C 
BRANCH  15  16
ATOM     16  C   UNL A   1      34.436  18.269  24.398  1.00  0.00    -0.011 C 
ATOM     17  C   UNL A   1      33.793  17.122  24.658  1.00  0.00     0.006 C 
ENDBRANCH  15  16
ENDBRANCH   7  15
BRANCH  14  18
ATOM     18  N   UNL A   1      33.702  25.069  25.643  1.00  0.00    -0.332 N 
ATOM     19  C   UNL A   1      32.467  24.476  26.116  1.00  0.00     0.262 C 
ATOM     20  C   UNL A   1      33.733  26.480  25.985  1.00  0.00     0.262 C 
ATOM     21  H   UNL A   1      34.428  24.578  26.165  1.00  0.00     0.348 HD
ATOM     22  C   UNL A   1      31.235  25.084  25.474  1.00  0.00     0.068 C 
ATOM     23  C   UNL A   1      32.672  27.262  25.240  1.00  0.00     0.068 C 
ATOM     24  C   UNL A   1      31.261  26.613  25.225  1.00  0.00     0.031 C 
BRANCH  24  25
ATOM     25  C   UNL A   1      30.467  27.033  23.936  1.00  0.00     0.062 C 
ATOM     26  C   UNL A   1      31.174  26.652  22.632  1.00  0.00     0.042 C 
ATOM     27  C   UNL A   1      29.050  26.455  23.967  1.00  0.00     0.042 C 
BRANCH  25  28
ATOM     28  O   UNL A   1      30.320  28.454  23.893  1.00  0.00    -0.390 OA
ATOM     29  H   UNL A   1      29.805  28.749  24.661  1.00  0.00     0.211 HD
ENDBRANCH  25  28
ENDBRANCH  24  25
ENDBRANCH  14  18
ENDBRANCH   3   6
ENDBRANCH   1   2
BRANCH   1  30
ATOM     30  C   UNL A   1      40.706  19.315  26.055  1.00  0.00     0.042 C 
BRANCH  30  31
ATOM     31  C   UNL A   1      41.874  20.251  26.115  1.00  0.00     0.118 C 
BRANCH  31  32
ATOM     32  N   UNL A   1      43.106  19.651  25.611  1.00  0.00    -0.352 N 
ATOM     33  C   UNL A   1      44.143  20.312  24.971  1.00  0.00     0.251 C 
ATOM     34  H   UNL A   1      43.210  18.680  25.736  1.00  0.00     0.163 HD
ATOM     35  O   UNL A   1      44.897  19.742  24.212  1.00  0.00    -0.269 OA
BRANCH  33  36
ATOM     36  C   UNL A   1      44.257  21.758  25.231  1.00  0.00     0.039 A 
ATOM     37  C   UNL A   1      43.550  22.684  24.470  1.00  0.00     0.014 A 
ATOM     38  C   UNL A   1      44.928  22.134  26.390  1.00  0.00     0.014 A 
ATOM     39  C   UNL A   1      43.431  23.977  24.968  1.00  0.00     0.010 A 
ATOM     40  C   UNL A   1      44.578  23.314  26.991  1.00  0.00     0.010 A 
ATOM     41  C   UNL A   1      43.893  24.274  26.267  1.00  0.00    -0.014 A 
BRANCH  41  42
ATOM     42  C   UNL A   1      43.582  25.554  26.897  1.00  0.00     0.031 A 
ATOM     43  C   UNL A   1      44.518  26.651  26.546  1.00  0.00     0.074 A 
ATOM     44  C   UNL A   1      42.507  25.798  27.680  1.00  0.00     0.049 A 
ATOM     45  N   UNL A   1      45.453  27.113  27.305  1.00  0.00    -0.248 NA
ATOM     46  C   UNL A   1      44.549  27.175  25.172  1.00  0.00     0.031 C 
ATOM     47  C   UNL A   1      41.334  24.961  27.951  1.00  0.00     0.029 A 
ATOM     48  N   UNL A   1      42.222  26.931  28.382  1.00  0.00    -0.354 N 
ATOM     49  C   UNL A   1      46.070  28.127  26.588  1.00  0.00     0.074 A 
ATOM     50  C   UNL A   1      45.592  28.009  25.233  1.00  0.00     0.031 C 
ATOM     51  C   UNL A   1      40.374  25.694  28.556  1.00  0.00     0.029 A 
ATOM     52  C   UNL A   1      40.932  26.988  28.893  1.00  0.00     0.049 A 
ATOM     53  H   UNL A   1      42.879  27.651  28.518  1.00  0.00     0.167 HD
ATOM     54  C   UNL A   1      46.724  29.120  27.249  1.00  0.00     0.037 A 
ATOM     55  C   UNL A   1      40.360  28.019  29.561  1.00  0.00     0.037 A 
ATOM     56  C   UNL A   1      47.031  28.727  28.607  1.00  0.00     0.049 A 
ATOM     57  C   UNL A   1      41.461  28.834  30.130  1.00  0.00     0.074 A 
ATOM     58  C   UNL A   1      47.718  27.667  29.171  1.00  0.00     0.029 A 
ATOM     59  N   UNL A   1      46.255  29.235  29.622  1.00  0.00    -0.354 N 
ATOM     60  N   UNL A   1      42.231  28.426  31.100  1.00  0.00    -0.248 NA
ATOM     61  C   UNL A   1      42.008  29.899  29.303  1.00  0.00     0.031 C 
ATOM     62  C   UNL A   1      46.938  27.282  30.304  1.00  0.00     0.029 A 
ATOM     63  C   UNL A   1      45.878  28.181  30.416  1.00  0.00     0.049 A 
ATOM     64  H   UNL A   1      46.016  30.181  29.755  1.00  0.00     0.167 HD
ATOM     65  C   UNL A   1      43.503  28.827  30.721  1.00  0.00     0.074 A 
ATOM     66  C   UNL A   1      43.293  29.806  29.657  1.00  0.00     0.031 C 
ATOM     67  C   UNL A   1      44.608  28.119  31.100  1.00  0.00     0.037 A 
BRANCH  54  68
ATOM     68  C   UNL A   1      46.709  30.564  26.812  1.00  0.00     0.064 A 
ATOM     69  C   UNL A   1      47.903  31.307  26.878  1.00  0.00     0.173 A 
ATOM     70  C   UNL A   1      45.528  31.320  26.648  1.00  0.00     0.173 A 
ATOM     71  F   UNL A   1      49.083  30.692  27.050  1.00  0.00    -0.203 F 
ATOM     72  C   UNL A   1      47.901  32.705  26.880  1.00  0.00     0.198 A 
ATOM     73  C   UNL A   1      45.535  32.711  26.597  1.00  0.00     0.198 A 
ATOM     74  F   UNL A   1      44.313  30.761  26.653  1.00  0.00    -0.203 F 
ATOM     75  F   UNL A   1      49.045  33.370  27.089  1.00  0.00    -0.200 F 
ATOM     76  C   UNL A   1      46.716  33.405  26.749  1.00  0.00     0.200 A 
ATOM     77  F   UNL A   1      44.373  33.371  26.490  1.00  0.00    -0.200 F 
ATOM     78  F   UNL A   1      46.703  34.742  26.822  1.00  0.00    -0.200 F 
ENDBRANCH  54  68
BRANCH  55  79
ATOM     79  C   UNL A   1      38.959  28.495  29.511  1.00  0.00     0.064 A 
ATOM     80  C   UNL A   1      38.201  28.633  30.686  1.00  0.00     0.173 A 
ATOM     81  C   UNL A   1      38.437  29.108  28.355  1.00  0.00     0.173 A 
ATOM     82  F   UNL A   1      38.643  28.112  31.840  1.00  0.00    -0.203 F 
ATOM     83  C   UNL A   1      37.018  29.377  30.714  1.00  0.00     0.198 A 
ATOM     84  C   UNL A   1      37.252  29.846  28.383  1.00  0.00     0.198 A 
ATOM     85  F   UNL A   1      39.116  29.089  27.199  1.00  0.00    -0.203 F 
ATOM     86  F   UNL A   1      36.363  29.549  31.870  1.00  0.00    -0.200 F 
ATOM     87  C   UNL A   1      36.552  29.995  29.565  1.00  0.00     0.200 A 
ATOM     88  F   UNL A   1      36.831  30.469  27.272  1.00  0.00    -0.200 F 
ATOM     89  F   UNL A   1      35.458  30.768  29.607  1.00  0.00    -0.200 F 
ENDBRANCH  55  79
BRANCH  67  90
ATOM     90  C   UNL A   1      44.441  27.060  32.158  1.00  0.00     0.064 A 
ATOM     91  C   UNL A   1      44.235  25.692  31.896  1.00  0.00     0.173 A 
ATOM     92  C   UNL A   1      44.600  27.436  33.499  1.00  0.00     0.173 A 
ATOM     93  F   UNL A   1      44.181  25.226  30.643  1.00  0.00    -0.203 F 
ATOM     94  C   UNL A   1      44.128  24.764  32.932  1.00  0.00     0.198 A 
ATOM     95  C   UNL A   1      44.535  26.500  34.529  1.00  0.00     0.198 A 
ATOM     96  F   UNL A   1      44.854  28.716  33.813  1.00  0.00    -0.203 F 
ATOM     97  F   UNL A   1      43.902  23.470  32.656  1.00  0.00    -0.200 F 
ATOM     98  C   UNL A   1      44.283  25.168  34.247  1.00  0.00     0.200 A 
ATOM     99  F   UNL A   1      44.735  26.891  35.795  1.00  0.00    -0.200 F 
ATOM    100  F   UNL A   1      44.210  24.273  35.242  1.00  0.00    -0.200 F 
ENDBRANCH  67  90
ENDBRANCH  41  42
ENDBRANCH  33  36
ENDBRANCH  31  32
ENDBRANCH  30  31
ENDBRANCH   1  30
TORSDOF 15
ENDMDL
