MODEL 1
REMARK VINA RESULT:     -12.9      0.000      0.000
REMARK SMILES C[C@@H]1[NH2+]CC[C@H]1C(=O)Nc1ccc(C(=O)NCCCNC(=O)c2ccc(-c3c4nc(c(-c5c(F)c(F)c(F)c(F)c5F)c5ccc([nH]5)c(-c5c(F)c(F)c(F)c(F)c5F)c5nc(c(-c6c(F)c(F)c(F)c(F)c6F)c6ccc3[nH]6)C=C5)C=C4)cc2)c(Cl)c1
REMARK SMILES IDX 18 1 17 2 16 3 14 4 15 5 13 7 10 8 11 9 88 10 12 11 86 12
REMARK SMILES IDX 87 13 9 14 7 15 8 16 6 18 1 19 2 20 3 21 4 22 5 25 19 26
REMARK SMILES IDX 20 27 21 28 22 30 23 31 24 32 85 33 25 34 84 35 26 36 27 37
REMARK SMILES IDX 28 38 78 39 29 40 83 41 77 42 79 43 30 44 82 45 76 46 75 47
REMARK SMILES IDX 31 49 63 50 43 51 62 52 44 53 47 54 61 55 80 56 45 57 46 58
REMARK SMILES IDX 60 60 81 61 48 62 32 63 33 64 41 65 34 66 35 67 39 68 42 69
REMARK SMILES IDX 36 70 37 71 40 72 38 73 64 74 65 75 73 76 66 77 67 78 71 79
REMARK SMILES IDX 74 80 68 81 69 82 72 83 70 84 49 85 50 86 58 87 51 88 52 89
REMARK SMILES IDX 56 90 59 91 53 92 54 93 57 94 55 95
REMARK H PARENT 16 6 9 17 3 23 3 24 20 29 79 48 47 59
REMARK Flexibility Score: inf
ROOT
ATOM      1  C   UNL A   1      31.378  32.070  26.501  1.00  0.00     0.042 C 
ENDROOT
BRANCH   1   2
ATOM      2  C   UNL A   1      31.402  30.570  26.208  1.00  0.00     0.118 C 
BRANCH   2   3
ATOM      3  N   UNL A   1      32.169  30.317  25.005  1.00  0.00    -0.352 N 
ATOM      4  C   UNL A   1      32.515  29.162  24.366  1.00  0.00     0.252 C 
ATOM      5  O   UNL A   1      33.277  29.247  23.400  1.00  0.00    -0.269 OA
ATOM      6  H   UNL A   1      32.504  31.132  24.566  1.00  0.00     0.163 HD
BRANCH   4   7
ATOM      7  C   UNL A   1      31.945  27.831  24.674  1.00  0.00     0.058 A 
ATOM      8  C   UNL A   1      30.877  25.530  25.865  1.00  0.00     0.042 A 
ATOM      9  C   UNL A   1      32.129  25.981  26.256  1.00  0.00     0.027 A 
ATOM     10  C   UNL A   1      30.223  26.124  24.791  1.00  0.00     0.047 A 
ATOM     11  C   UNL A   1      32.664  27.121  25.656  1.00  0.00     0.017 A 
ATOM     12  C   UNL A   1      30.711  27.321  24.251  1.00  0.00     0.055 A 
ATOM     13  Cl  UNL A   1      29.591  28.154  23.246  1.00  0.00    -0.083 Cl
BRANCH   8  14
ATOM     14  N   UNL A   1      30.221  24.526  26.573  1.00  0.00    -0.326 N 
ATOM     15  C   UNL A   1      30.655  23.250  26.822  1.00  0.00     0.233 C 
ATOM     16  O   UNL A   1      29.986  22.586  27.624  1.00  0.00    -0.274 OA
ATOM     17  H   UNL A   1      29.337  24.761  26.939  1.00  0.00     0.169 HD
BRANCH  15  18
ATOM     18  C   UNL A   1      31.912  22.625  26.206  1.00  0.00     0.142 C 
ATOM     19  C   UNL A   1      34.195  22.953  27.255  1.00  0.00     0.076 C 
ATOM     20  C   UNL A   1      32.928  22.100  27.219  1.00  0.00     0.192 C 
ATOM     21  N   UNL A   1      33.282  20.729  26.815  1.00  0.00    -0.343 N 
ATOM     22  C   UNL A   1      32.858  20.553  25.427  1.00  0.00     0.261 C 
ATOM     23  H   UNL A   1      32.802  20.056  27.413  1.00  0.00     0.346 HD
ATOM     24  H   UNL A   1      34.285  20.577  26.904  1.00  0.00     0.346 HD
ATOM     25  C   UNL A   1      31.694  21.499  25.206  1.00  0.00     0.081 C 
ENDBRANCH  15  18
ENDBRANCH   8  14
ENDBRANCH   4   7
ENDBRANCH   2   3
ENDBRANCH   1   2
BRANCH   1  26
ATOM     26  C   UNL A   1      32.650  32.591  27.155  1.00  0.00     0.118 C 
BRANCH  26  27
ATOM     27  N   UNL A   1      32.518  33.977  27.562  1.00  0.00    -0.352 N 
ATOM     28  C   UNL A   1      33.097  34.635  28.619  1.00  0.00     0.251 C 
ATOM     29  H   UNL A   1      31.926  34.525  26.998  1.00  0.00     0.163 HD
ATOM     30  O   UNL A   1      32.653  35.732  28.961  1.00  0.00    -0.269 OA
BRANCH  28  31
ATOM     31  C   UNL A   1      34.239  34.046  29.352  1.00  0.00     0.039 A 
ATOM     32  C   UNL A   1      35.538  34.389  28.964  1.00  0.00     0.014 A 
ATOM     33  C   UNL A   1      34.046  33.114  30.375  1.00  0.00     0.014 A 
ATOM     34  C   UNL A   1      36.636  33.829  29.623  1.00  0.00     0.010 A 
ATOM     35  C   UNL A   1      35.137  32.622  31.089  1.00  0.00     0.010 A 
ATOM     36  C   UNL A   1      36.444  32.957  30.707  1.00  0.00    -0.014 A 
BRANCH  36  37
ATOM     37  C   UNL A   1      37.593  32.355  31.429  1.00  0.00     0.031 A 
ATOM     38  C   UNL A   1      38.345  31.204  30.820  1.00  0.00     0.074 A 
ATOM     39  C   UNL A   1      37.918  32.801  32.658  1.00  0.00     0.049 A 
ATOM     40  N   UNL A   1      39.318  30.487  31.322  1.00  0.00    -0.248 NA
ATOM     41  C   UNL A   1      37.924  30.780  29.475  1.00  0.00     0.031 C 
ATOM     42  C   UNL A   1      37.234  33.876  33.376  1.00  0.00     0.029 A 
ATOM     43  N   UNL A   1      38.900  32.393  33.527  1.00  0.00    -0.354 N 
ATOM     44  C   UNL A   1      39.607  29.519  30.369  1.00  0.00     0.074 A 
ATOM     45  C   UNL A   1      38.673  29.704  29.281  1.00  0.00     0.031 C 
ATOM     46  C   UNL A   1      37.826  34.055  34.568  1.00  0.00     0.029 A 
ATOM     47  C   UNL A   1      38.906  33.085  34.713  1.00  0.00     0.049 A 
ATOM     48  H   UNL A   1      39.538  31.673  33.319  1.00  0.00     0.167 HD
ATOM     49  C   UNL A   1      40.579  28.575  30.389  1.00  0.00     0.037 A 
ATOM     50  C   UNL A   1      39.692  32.946  35.798  1.00  0.00     0.037 A 
ATOM     51  C   UNL A   1      41.528  28.418  31.459  1.00  0.00     0.049 A 
ATOM     52  C   UNL A   1      40.775  31.902  35.789  1.00  0.00     0.074 A 
ATOM     53  C   UNL A   1      42.593  27.538  31.548  1.00  0.00     0.029 A 
ATOM     54  N   UNL A   1      41.525  29.162  32.630  1.00  0.00    -0.354 N 
ATOM     55  N   UNL A   1      41.082  31.036  34.854  1.00  0.00    -0.248 NA
ATOM     56  C   UNL A   1      41.627  31.822  36.984  1.00  0.00     0.031 C 
ATOM     57  C   UNL A   1      43.209  27.723  32.791  1.00  0.00     0.029 A 
ATOM     58  C   UNL A   1      42.558  28.749  33.456  1.00  0.00     0.049 A 
ATOM     59  H   UNL A   1      40.883  29.877  32.843  1.00  0.00     0.167 HD
ATOM     60  C   UNL A   1      42.174  30.326  35.334  1.00  0.00     0.074 A 
ATOM     61  C   UNL A   1      42.486  30.874  36.638  1.00  0.00     0.031 C 
ATOM     62  C   UNL A   1      42.856  29.312  34.748  1.00  0.00     0.037 A 
BRANCH  49  63
ATOM     63  C   UNL A   1      40.666  27.644  29.214  1.00  0.00     0.064 A 
ATOM     64  C   UNL A   1      41.605  27.836  28.189  1.00  0.00     0.173 A 
ATOM     65  C   UNL A   1      39.817  26.531  29.123  1.00  0.00     0.173 A 
ATOM     66  F   UNL A   1      42.432  28.892  28.221  1.00  0.00    -0.203 F 
ATOM     67  C   UNL A   1      41.667  26.970  27.101  1.00  0.00     0.198 A 
ATOM     68  C   UNL A   1      39.904  25.648  28.048  1.00  0.00     0.198 A 
ATOM     69  F   UNL A   1      38.905  26.293  30.078  1.00  0.00    -0.203 F 
ATOM     70  F   UNL A   1      42.536  27.208  26.107  1.00  0.00    -0.200 F 
ATOM     71  C   UNL A   1      40.822  25.874  27.034  1.00  0.00     0.200 A 
ATOM     72  F   UNL A   1      39.095  24.581  27.991  1.00  0.00    -0.200 F 
ATOM     73  F   UNL A   1      40.886  25.039  25.988  1.00  0.00    -0.200 F 
ENDBRANCH  49  63
BRANCH  50  74
ATOM     74  C   UNL A   1      39.497  33.838  36.970  1.00  0.00     0.064 A 
ATOM     75  C   UNL A   1      40.075  35.115  37.006  1.00  0.00     0.173 A 
ATOM     76  C   UNL A   1      38.727  33.439  38.072  1.00  0.00     0.173 A 
ATOM     77  F   UNL A   1      40.836  35.533  35.985  1.00  0.00    -0.203 F 
ATOM     78  C   UNL A   1      39.903  35.952  38.107  1.00  0.00     0.198 A 
ATOM     79  C   UNL A   1      38.534  34.287  39.160  1.00  0.00     0.198 A 
ATOM     80  F   UNL A   1      38.148  32.229  38.084  1.00  0.00    -0.203 F 
ATOM     81  F   UNL A   1      40.500  37.151  38.132  1.00  0.00    -0.200 F 
ATOM     82  C   UNL A   1      39.128  35.540  39.180  1.00  0.00     0.200 A 
ATOM     83  F   UNL A   1      37.771  33.891  40.189  1.00  0.00    -0.200 F 
ATOM     84  F   UNL A   1      38.958  36.348  40.235  1.00  0.00    -0.200 F 
ENDBRANCH  50  74
BRANCH  62  85
ATOM     85  C   UNL A   1      44.026  28.749  35.499  1.00  0.00     0.064 A 
ATOM     86  C   UNL A   1      43.873  27.703  36.422  1.00  0.00     0.173 A 
ATOM     87  C   UNL A   1      45.321  29.235  35.264  1.00  0.00     0.173 A 
ATOM     88  F   UNL A   1      42.654  27.215  36.692  1.00  0.00    -0.203 F 
ATOM     89  C   UNL A   1      44.972  27.180  37.097  1.00  0.00     0.198 A 
ATOM     90  C   UNL A   1      46.421  28.690  35.920  1.00  0.00     0.198 A 
ATOM     91  F   UNL A   1      45.521  30.231  34.387  1.00  0.00    -0.203 F 
ATOM     92  F   UNL A   1      44.797  26.212  38.007  1.00  0.00    -0.200 F 
ATOM     93  C   UNL A   1      46.245  27.668  36.841  1.00  0.00     0.200 A 
ATOM     94  F   UNL A   1      47.651  29.155  35.662  1.00  0.00    -0.200 F 
ATOM     95  F   UNL A   1      47.302  27.159  37.488  1.00  0.00    -0.200 F 
ENDBRANCH  62  85
ENDBRANCH  36  37
ENDBRANCH  28  31
ENDBRANCH  26  27
ENDBRANCH   1  26
TORSDOF 12
ENDMDL
MODEL 2
REMARK VINA RESULT:     -12.9      0.111      1.605
REMARK SMILES C[C@@H]1[NH2+]CC[C@H]1C(=O)Nc1ccc(C(=O)NCCCNC(=O)c2ccc(-c3c4nc(c(-c5c(F)c(F)c(F)c(F)c5F)c5ccc([nH]5)c(-c5c(F)c(F)c(F)c(F)c5F)c5nc(c(-c6c(F)c(F)c(F)c(F)c6F)c6ccc3[nH]6)C=C5)C=C4)cc2)c(Cl)c1
REMARK SMILES IDX 18 1 17 2 16 3 14 4 15 5 13 7 10 8 11 9 88 10 12 11 86 12
REMARK SMILES IDX 87 13 9 14 7 15 8 16 6 18 1 19 2 20 3 21 4 22 5 25 19 26
REMARK SMILES IDX 20 27 21 28 22 30 23 31 24 32 85 33 25 34 84 35 26 36 27 37
REMARK SMILES IDX 28 38 78 39 29 40 83 41 77 42 79 43 30 44 82 45 76 46 75 47
REMARK SMILES IDX 31 49 63 50 43 51 62 52 44 53 47 54 61 55 80 56 45 57 46 58
REMARK SMILES IDX 60 60 81 61 48 62 32 63 33 64 41 65 34 66 35 67 39 68 42 69
REMARK SMILES IDX 36 70 37 71 40 72 38 73 64 74 65 75 73 76 66 77 67 78 71 79
REMARK SMILES IDX 74 80 68 81 69 82 72 83 70 84 49 85 50 86 58 87 51 88 52 89
REMARK SMILES IDX 56 90 59 91 53 92 54 93 57 94 55 95
REMARK H PARENT 16 6 9 17 3 23 3 24 20 29 79 48 47 59
REMARK Flexibility Score: inf
ROOT
ATOM      1  C   UNL A   1      31.405  32.067  26.498  1.00  0.00     0.042 C 
ENDROOT
BRANCH   1   2
ATOM      2  C   UNL A   1      31.414  30.568  26.201  1.00  0.00     0.118 C 
BRANCH   2   3
ATOM      3  N   UNL A   1      32.214  30.307  25.021  1.00  0.00    -0.352 N 
ATOM      4  C   UNL A   1      32.594  29.146  24.411  1.00  0.00     0.252 C 
ATOM      5  O   UNL A   1      33.376  29.227  23.462  1.00  0.00    -0.269 OA
ATOM      6  H   UNL A   1      32.545  31.119  24.574  1.00  0.00     0.163 HD
BRANCH   4   7
ATOM      7  C   UNL A   1      32.038  27.812  24.730  1.00  0.00     0.058 A 
ATOM      8  C   UNL A   1      30.987  25.512  25.939  1.00  0.00     0.042 A 
ATOM      9  C   UNL A   1      32.228  25.985  26.339  1.00  0.00     0.027 A 
ATOM     10  C   UNL A   1      30.338  26.082  24.849  1.00  0.00     0.047 A 
ATOM     11  C   UNL A   1      32.755  27.125  25.730  1.00  0.00     0.017 A 
ATOM     12  C   UNL A   1      30.817  27.279  24.299  1.00  0.00     0.055 A 
ATOM     13  Cl  UNL A   1      29.698  28.083  23.270  1.00  0.00    -0.083 Cl
BRANCH   8  14
ATOM     14  N   UNL A   1      30.337  24.508  26.652  1.00  0.00    -0.326 N 
ATOM     15  C   UNL A   1      30.767  23.228  26.888  1.00  0.00     0.233 C 
ATOM     16  O   UNL A   1      30.107  22.565  27.697  1.00  0.00    -0.274 OA
ATOM     17  H   UNL A   1      29.461  24.746  27.033  1.00  0.00     0.169 HD
BRANCH  15  18
ATOM     18  C   UNL A   1      32.010  22.599  26.249  1.00  0.00     0.142 C 
ATOM     19  C   UNL A   1      34.315  22.929  27.249  1.00  0.00     0.076 C 
ATOM     20  C   UNL A   1      33.046  22.077  27.242  1.00  0.00     0.192 C 
ATOM     21  N   UNL A   1      33.390  20.704  26.837  1.00  0.00    -0.343 N 
ATOM     22  C   UNL A   1      32.938  20.523  25.459  1.00  0.00     0.261 C 
ATOM     23  H   UNL A   1      32.922  20.034  27.448  1.00  0.00     0.346 HD
ATOM     24  H   UNL A   1      34.395  20.551  26.907  1.00  0.00     0.346 HD
ATOM     25  C   UNL A   1      31.771  21.469  25.258  1.00  0.00     0.081 C 
ENDBRANCH  15  18
ENDBRANCH   8  14
ENDBRANCH   4   7
ENDBRANCH   2   3
ENDBRANCH   1   2
BRANCH   1  26
ATOM     26  C   UNL A   1      32.651  32.561  27.218  1.00  0.00     0.118 C 
BRANCH  26  27
ATOM     27  N   UNL A   1      32.542  33.960  27.585  1.00  0.00    -0.352 N 
ATOM     28  C   UNL A   1      33.147  34.643  28.611  1.00  0.00     0.251 C 
ATOM     29  H   UNL A   1      31.947  34.499  27.015  1.00  0.00     0.163 HD
ATOM     30  O   UNL A   1      32.723  35.755  28.928  1.00  0.00    -0.269 OA
BRANCH  28  31
ATOM     31  C   UNL A   1      34.294  34.062  29.343  1.00  0.00     0.039 A 
ATOM     32  C   UNL A   1      35.591  34.395  28.939  1.00  0.00     0.014 A 
ATOM     33  C   UNL A   1      34.108  33.145  30.382  1.00  0.00     0.014 A 
ATOM     34  C   UNL A   1      36.693  33.843  29.596  1.00  0.00     0.010 A 
ATOM     35  C   UNL A   1      35.204  32.661  31.093  1.00  0.00     0.010 A 
ATOM     36  C   UNL A   1      36.508  32.988  30.695  1.00  0.00    -0.014 A 
BRANCH  36  37
ATOM     37  C   UNL A   1      37.662  32.394  31.415  1.00  0.00     0.031 A 
ATOM     38  C   UNL A   1      38.421  31.246  30.806  1.00  0.00     0.074 A 
ATOM     39  C   UNL A   1      37.987  32.842  32.643  1.00  0.00     0.049 A 
ATOM     40  N   UNL A   1      39.399  30.536  31.307  1.00  0.00    -0.248 NA
ATOM     41  C   UNL A   1      38.000  30.818  29.462  1.00  0.00     0.031 C 
ATOM     42  C   UNL A   1      37.298  33.914  33.361  1.00  0.00     0.029 A 
ATOM     43  N   UNL A   1      38.973  32.441  33.511  1.00  0.00    -0.354 N 
ATOM     44  C   UNL A   1      39.693  29.569  30.355  1.00  0.00     0.074 A 
ATOM     45  C   UNL A   1      38.756  29.748  29.268  1.00  0.00     0.031 C 
ATOM     46  C   UNL A   1      37.890  34.097  34.552  1.00  0.00     0.029 A 
ATOM     47  C   UNL A   1      38.977  33.135  34.696  1.00  0.00     0.049 A 
ATOM     48  H   UNL A   1      39.615  31.725  33.303  1.00  0.00     0.167 HD
ATOM     49  C   UNL A   1      40.671  28.632  30.374  1.00  0.00     0.037 A 
ATOM     50  C   UNL A   1      39.765  33.001  35.780  1.00  0.00     0.037 A 
ATOM     51  C   UNL A   1      41.623  28.481  31.442  1.00  0.00     0.049 A 
ATOM     52  C   UNL A   1      40.854  31.964  35.770  1.00  0.00     0.074 A 
ATOM     53  C   UNL A   1      42.692  27.608  31.530  1.00  0.00     0.029 A 
ATOM     54  N   UNL A   1      41.616  29.226  32.613  1.00  0.00    -0.354 N 
ATOM     55  N   UNL A   1      41.166  31.099  34.836  1.00  0.00    -0.248 NA
ATOM     56  C   UNL A   1      41.709  31.890  36.964  1.00  0.00     0.031 C 
ATOM     57  C   UNL A   1      43.310  27.798  32.772  1.00  0.00     0.029 A 
ATOM     58  C   UNL A   1      42.654  28.821  33.437  1.00  0.00     0.049 A 
ATOM     59  H   UNL A   1      40.970  29.937  32.826  1.00  0.00     0.167 HD
ATOM     60  C   UNL A   1      42.263  30.397  35.314  1.00  0.00     0.074 A 
ATOM     61  C   UNL A   1      42.574  30.948  36.618  1.00  0.00     0.031 C 
ATOM     62  C   UNL A   1      42.950  29.386  34.728  1.00  0.00     0.037 A 
BRANCH  49  63
ATOM     63  C   UNL A   1      40.762  27.699  29.200  1.00  0.00     0.064 A 
ATOM     64  C   UNL A   1      41.719  27.879  28.188  1.00  0.00     0.173 A 
ATOM     65  C   UNL A   1      39.898  26.599  29.095  1.00  0.00     0.173 A 
ATOM     66  F   UNL A   1      42.560  28.923  28.234  1.00  0.00    -0.203 F 
ATOM     67  C   UNL A   1      41.784  27.013  27.100  1.00  0.00     0.198 A 
ATOM     68  C   UNL A   1      39.988  25.716  28.021  1.00  0.00     0.198 A 
ATOM     69  F   UNL A   1      38.969  26.374  30.036  1.00  0.00    -0.203 F 
ATOM     70  F   UNL A   1      42.670  27.239  26.120  1.00  0.00    -0.200 F 
ATOM     71  C   UNL A   1      40.924  25.929  27.021  1.00  0.00     0.200 A 
ATOM     72  F   UNL A   1      39.164  24.661  27.951  1.00  0.00    -0.200 F 
ATOM     73  F   UNL A   1      40.992  25.094  25.974  1.00  0.00    -0.200 F 
ENDBRANCH  49  63
BRANCH  50  74
ATOM     74  C   UNL A   1      39.567  33.893  36.951  1.00  0.00     0.064 A 
ATOM     75  C   UNL A   1      38.788  33.485  38.043  1.00  0.00     0.173 A 
ATOM     76  C   UNL A   1      40.156  35.164  37.010  1.00  0.00     0.173 A 
ATOM     77  F   UNL A   1      38.188  32.286  38.025  1.00  0.00    -0.203 F 
ATOM     78  C   UNL A   1      38.591  34.321  39.140  1.00  0.00     0.198 A 
ATOM     79  C   UNL A   1      39.981  35.988  38.119  1.00  0.00     0.198 A 
ATOM     80  F   UNL A   1      40.916  35.599  35.994  1.00  0.00    -0.203 F 
ATOM     81  F   UNL A   1      37.808  33.921  40.152  1.00  0.00    -0.200 F 
ATOM     82  C   UNL A   1      39.193  35.570  39.180  1.00  0.00     0.200 A 
ATOM     83  F   UNL A   1      40.577  37.188  38.161  1.00  0.00    -0.200 F 
ATOM     84  F   UNL A   1      39.009  36.370  40.238  1.00  0.00    -0.200 F 
ENDBRANCH  50  74
BRANCH  62  85
ATOM     85  C   UNL A   1      44.125  28.831  35.478  1.00  0.00     0.064 A 
ATOM     86  C   UNL A   1      45.421  29.334  35.290  1.00  0.00     0.173 A 
ATOM     87  C   UNL A   1      43.946  27.810  36.423  1.00  0.00     0.173 A 
ATOM     88  F   UNL A   1      45.646  30.299  34.387  1.00  0.00    -0.203 F 
ATOM     89  C   UNL A   1      46.498  28.819  36.007  1.00  0.00     0.198 A 
ATOM     90  C   UNL A   1      45.020  27.317  37.158  1.00  0.00     0.198 A 
ATOM     91  F   UNL A   1      42.724  27.299  36.643  1.00  0.00    -0.203 F 
ATOM     92  F   UNL A   1      47.734  29.284  35.780  1.00  0.00    -0.200 F 
ATOM     93  C   UNL A   1      46.295  27.818  36.945  1.00  0.00     0.200 A 
ATOM     94  F   UNL A   1      44.820  26.359  38.073  1.00  0.00    -0.200 F 
ATOM     95  F   UNL A   1      47.333  27.328  37.638  1.00  0.00    -0.200 F 
ENDBRANCH  62  85
ENDBRANCH  36  37
ENDBRANCH  28  31
ENDBRANCH  26  27
ENDBRANCH   1  26
TORSDOF 12
ENDMDL
MODEL 3
REMARK VINA RESULT:     -12.8      0.795      7.387
REMARK SMILES C[C@@H]1[NH2+]CC[C@H]1C(=O)Nc1ccc(C(=O)NCCCNC(=O)c2ccc(-c3c4nc(c(-c5c(F)c(F)c(F)c(F)c5F)c5ccc([nH]5)c(-c5c(F)c(F)c(F)c(F)c5F)c5nc(c(-c6c(F)c(F)c(F)c(F)c6F)c6ccc3[nH]6)C=C5)C=C4)cc2)c(Cl)c1
REMARK SMILES IDX 18 1 17 2 16 3 14 4 15 5 13 7 10 8 11 9 88 10 12 11 86 12
REMARK SMILES IDX 87 13 9 14 7 15 8 16 6 18 1 19 2 20 3 21 4 22 5 25 19 26
REMARK SMILES IDX 20 27 21 28 22 30 23 31 24 32 85 33 25 34 84 35 26 36 27 37
REMARK SMILES IDX 28 38 78 39 29 40 83 41 77 42 79 43 30 44 82 45 76 46 75 47
REMARK SMILES IDX 31 49 63 50 43 51 62 52 44 53 47 54 61 55 80 56 45 57 46 58
REMARK SMILES IDX 60 60 81 61 48 62 32 63 33 64 41 65 34 66 35 67 39 68 42 69
REMARK SMILES IDX 36 70 37 71 40 72 38 73 64 74 65 75 73 76 66 77 67 78 71 79
REMARK SMILES IDX 74 80 68 81 69 82 72 83 70 84 49 85 50 86 58 87 51 88 52 89
REMARK SMILES IDX 56 90 59 91 53 92 54 93 57 94 55 95
REMARK H PARENT 16 6 9 17 3 23 3 24 20 29 79 48 47 59
REMARK Flexibility Score: inf
ROOT
ATOM      1  C   UNL A   1      31.403  32.042  26.852  1.00  0.00     0.042 C 
ENDROOT
BRANCH   1   2
ATOM      2  C   UNL A   1      31.499  30.549  26.540  1.00  0.00     0.118 C 
BRANCH   2   3
ATOM      3  N   UNL A   1      32.226  30.352  25.302  1.00  0.00    -0.352 N 
ATOM      4  C   UNL A   1      32.547  29.228  24.598  1.00  0.00     0.252 C 
ATOM      5  O   UNL A   1      33.277  29.358  23.613  1.00  0.00    -0.269 OA
ATOM      6  H   UNL A   1      32.549  31.186  24.891  1.00  0.00     0.163 HD
BRANCH   4   7
ATOM      7  C   UNL A   1      31.983  27.885  24.862  1.00  0.00     0.058 A 
ATOM      8  C   UNL A   1      30.891  25.554  25.970  1.00  0.00     0.042 A 
ATOM      9  C   UNL A   1      32.114  26.019  26.430  1.00  0.00     0.027 A 
ATOM     10  C   UNL A   1      30.284  26.151  24.870  1.00  0.00     0.047 A 
ATOM     11  C   UNL A   1      32.661  27.174  25.871  1.00  0.00     0.017 A 
ATOM     12  C   UNL A   1      30.781  27.362  24.369  1.00  0.00     0.055 A 
ATOM     13  Cl  UNL A   1      29.701  28.189  23.317  1.00  0.00    -0.083 Cl
BRANCH   8  14
ATOM     14  N   UNL A   1      30.215  24.531  26.631  1.00  0.00    -0.326 N 
ATOM     15  C   UNL A   1      30.644  23.250  26.861  1.00  0.00     0.233 C 
ATOM     16  O   UNL A   1      29.952  22.566  27.626  1.00  0.00    -0.274 OA
ATOM     17  H   UNL A   1      29.321  24.756  26.976  1.00  0.00     0.169 HD
BRANCH  15  18
ATOM     18  C   UNL A   1      31.920  22.643  26.269  1.00  0.00     0.142 C 
ATOM     19  C   UNL A   1      34.170  22.953  27.392  1.00  0.00     0.076 C 
ATOM     20  C   UNL A   1      32.908  22.097  27.299  1.00  0.00     0.192 C 
ATOM     21  N   UNL A   1      33.278  20.736  26.876  1.00  0.00    -0.343 N 
ATOM     22  C   UNL A   1      32.895  20.591  25.472  1.00  0.00     0.261 C 
ATOM     23  H   UNL A   1      32.783  20.049  27.444  1.00  0.00     0.346 HD
ATOM     24  H   UNL A   1      34.279  20.585  26.991  1.00  0.00     0.346 HD
ATOM     25  C   UNL A   1      31.735  21.538  25.238  1.00  0.00     0.081 C 
ENDBRANCH  15  18
ENDBRANCH   8  14
ENDBRANCH   4   7
ENDBRANCH   2   3
ENDBRANCH   1   2
BRANCH   1  26
ATOM     26  C   UNL A   1      32.750  32.747  26.914  1.00  0.00     0.118 C 
BRANCH  26  27
ATOM     27  N   UNL A   1      32.643  34.063  27.515  1.00  0.00    -0.352 N 
ATOM     28  C   UNL A   1      33.235  34.556  28.651  1.00  0.00     0.251 C 
ATOM     29  H   UNL A   1      32.059  34.696  27.037  1.00  0.00     0.163 HD
ATOM     30  O   UNL A   1      32.811  35.600  29.148  1.00  0.00    -0.269 OA
BRANCH  28  31
ATOM     31  C   UNL A   1      34.369  33.850  29.288  1.00  0.00     0.039 A 
ATOM     32  C   UNL A   1      35.672  34.239  28.966  1.00  0.00     0.014 A 
ATOM     33  C   UNL A   1      34.163  32.768  30.150  1.00  0.00     0.014 A 
ATOM     34  C   UNL A   1      36.762  33.575  29.535  1.00  0.00     0.010 A 
ATOM     35  C   UNL A   1      35.246  32.162  30.783  1.00  0.00     0.010 A 
ATOM     36  C   UNL A   1      36.557  32.544  30.466  1.00  0.00    -0.014 A 
BRANCH  36  37
ATOM     37  C   UNL A   1      37.697  31.827  31.090  1.00  0.00     0.031 A 
ATOM     38  C   UNL A   1      38.141  32.185  32.482  1.00  0.00     0.074 A 
ATOM     39  C   UNL A   1      38.373  30.901  30.383  1.00  0.00     0.049 A 
ATOM     40  N   UNL A   1      39.161  31.739  33.170  1.00  0.00    -0.248 NA
ATOM     41  C   UNL A   1      37.348  33.207  33.184  1.00  0.00     0.031 C 
ATOM     42  C   UNL A   1      38.072  30.501  29.008  1.00  0.00     0.029 A 
ATOM     43  N   UNL A   1      39.464  30.137  30.719  1.00  0.00    -0.354 N 
ATOM     44  C   UNL A   1      39.145  32.440  34.369  1.00  0.00     0.074 A 
ATOM     45  C   UNL A   1      38.047  33.378  34.296  1.00  0.00     0.031 C 
ATOM     46  C   UNL A   1      38.944  29.556  28.623  1.00  0.00     0.029 A 
ATOM     47  C   UNL A   1      39.887  29.308  29.709  1.00  0.00     0.049 A 
ATOM     48  H   UNL A   1      39.901  30.180  31.600  1.00  0.00     0.167 HD
ATOM     49  C   UNL A   1      39.958  32.298  35.444  1.00  0.00     0.037 A 
ATOM     50  C   UNL A   1      40.924  28.451  29.664  1.00  0.00     0.037 A 
ATOM     51  C   UNL A   1      41.028  31.339  35.525  1.00  0.00     0.049 A 
ATOM     52  C   UNL A   1      41.802  28.299  30.876  1.00  0.00     0.074 A 
ATOM     53  C   UNL A   1      41.867  31.068  36.591  1.00  0.00     0.029 A 
ATOM     54  N   UNL A   1      41.404  30.491  34.493  1.00  0.00    -0.354 N 
ATOM     55  N   UNL A   1      41.736  28.919  32.029  1.00  0.00    -0.248 NA
ATOM     56  C   UNL A   1      42.895  27.320  30.783  1.00  0.00     0.031 C 
ATOM     57  C   UNL A   1      42.778  30.083  36.190  1.00  0.00     0.029 A 
ATOM     58  C   UNL A   1      42.476  29.708  34.891  1.00  0.00     0.049 A 
ATOM     59  H   UNL A   1      40.974  30.452  33.608  1.00  0.00     0.167 HD
ATOM     60  C   UNL A   1      42.758  28.391  32.806  1.00  0.00     0.074 A 
ATOM     61  C   UNL A   1      43.420  27.388  31.998  1.00  0.00     0.031 C 
ATOM     62  C   UNL A   1      43.116  28.710  34.074  1.00  0.00     0.037 A 
BRANCH  49  63
ATOM     63  C   UNL A   1      39.717  33.199  36.621  1.00  0.00     0.064 A 
ATOM     64  C   UNL A   1      40.398  34.418  36.767  1.00  0.00     0.173 A 
ATOM     65  C   UNL A   1      38.776  32.854  37.602  1.00  0.00     0.173 A 
ATOM     66  F   UNL A   1      41.317  34.790  35.864  1.00  0.00    -0.203 F 
ATOM     67  C   UNL A   1      40.172  35.238  37.870  1.00  0.00     0.198 A 
ATOM     68  C   UNL A   1      38.529  33.693  38.687  1.00  0.00     0.198 A 
ATOM     69  F   UNL A   1      38.090  31.704  37.510  1.00  0.00    -0.203 F 
ATOM     70  F   UNL A   1      40.875  36.370  38.015  1.00  0.00    -0.200 F 
ATOM     71  C   UNL A   1      39.233  34.879  38.824  1.00  0.00     0.200 A 
ATOM     72  F   UNL A   1      37.612  33.350  39.603  1.00  0.00    -0.200 F 
ATOM     73  F   UNL A   1      39.014  35.672  39.882  1.00  0.00    -0.200 F 
ENDBRANCH  49  63
BRANCH  50  74
ATOM     74  C   UNL A   1      41.169  27.652  28.436  1.00  0.00     0.064 A 
ATOM     75  C   UNL A   1      42.059  28.102  27.450  1.00  0.00     0.173 A 
ATOM     76  C   UNL A   1      40.528  26.423  28.224  1.00  0.00     0.173 A 
ATOM     77  F   UNL A   1      42.680  29.280  27.598  1.00  0.00    -0.203 F 
ATOM     78  C   UNL A   1      42.285  27.361  26.292  1.00  0.00     0.198 A 
ATOM     79  C   UNL A   1      40.776  25.670  27.079  1.00  0.00     0.198 A 
ATOM     80  F   UNL A   1      39.673  25.945  29.140  1.00  0.00    -0.203 F 
ATOM     81  F   UNL A   1      43.109  27.834  25.347  1.00  0.00    -0.200 F 
ATOM     82  C   UNL A   1      41.648  26.142  26.110  1.00  0.00     0.200 A 
ATOM     83  F   UNL A   1      40.170  24.485  26.913  1.00  0.00    -0.200 F 
ATOM     84  F   UNL A   1      41.871  25.427  24.999  1.00  0.00    -0.200 F 
ENDBRANCH  50  74
BRANCH  62  85
ATOM     85  C   UNL A   1      44.257  27.944  34.677  1.00  0.00     0.064 A 
ATOM     86  C   UNL A   1      45.580  28.400  34.580  1.00  0.00     0.173 A 
ATOM     87  C   UNL A   1      44.019  26.762  35.393  1.00  0.00     0.173 A 
ATOM     88  F   UNL A   1      45.861  29.517  33.893  1.00  0.00    -0.203 F 
ATOM     89  C   UNL A   1      46.625  27.687  35.160  1.00  0.00     0.198 A 
ATOM     90  C   UNL A   1      45.062  26.066  35.996  1.00  0.00     0.198 A 
ATOM     91  F   UNL A   1      42.770  26.287  35.518  1.00  0.00    -0.203 F 
ATOM     92  F   UNL A   1      47.887  28.116  35.018  1.00  0.00    -0.200 F 
ATOM     93  C   UNL A   1      46.365  26.526  35.873  1.00  0.00     0.200 A 
ATOM     94  F   UNL A   1      44.808  24.952  36.695  1.00  0.00    -0.200 F 
ATOM     95  F   UNL A   1      47.373  25.844  36.437  1.00  0.00    -0.200 F 
ENDBRANCH  62  85
ENDBRANCH  36  37
ENDBRANCH  28  31
ENDBRANCH  26  27
ENDBRANCH   1  26
TORSDOF 12
ENDMDL
