MODEL 1
REMARK VINA RESULT:     -13.9      0.000      0.000
REMARK SMILES C[C@@H](C(=O)NCCCNC(=O)c1ccc(-c2c3nc(c(-c4c(F)c(F)c(F)c(F)c4F)c4ccc([nH]4)c(-c4c(F)c(F)c(F)c(F)c4F)c4nc(c(-c5c(F)c(F)c(F)c(F)c5F)c5ccc2[nH]5)C=C4)C=C3)cc1)[N@@H+]1CCc2n[nH]c(C(c3ccccc3)c3ccccc3)c2C1
REMARK SMILES IDX 6 1 5 2 3 3 4 4 2 6 1 7 75 8 76 9 96 10 77 12 95 13 78 14
REMARK SMILES IDX 81 15 79 16 80 17 82 19 83 20 84 21 88 22 85 23 87 24 86 25
REMARK SMILES IDX 89 26 90 27 94 28 91 29 93 30 92 31 7 32 8 33 9 34 10 35
REMARK SMILES IDX 11 37 12 38 13 39 74 40 14 41 73 42 15 43 16 44 17 45 67 46
REMARK SMILES IDX 18 47 72 48 66 49 68 50 19 51 71 52 65 53 64 54 20 56 52 57
REMARK SMILES IDX 32 58 51 59 33 60 36 61 50 62 69 63 34 64 35 65 49 67 70 68
REMARK SMILES IDX 37 69 21 70 22 71 30 72 23 73 24 74 28 75 31 76 25 77 26 78
REMARK SMILES IDX 29 79 27 80 53 81 54 82 62 83 55 84 56 85 60 86 63 87 57 88
REMARK SMILES IDX 58 89 61 90 59 91 38 92 39 93 47 94 40 95 41 96 45 97 48 98
REMARK SMILES IDX 42 99 43 100 46 101 44 102
REMARK H PARENT 5 5 75 11 80 18 9 36 68 55 36 66
REMARK Flexibility Score: inf
ROOT
ATOM      1  C   UNL A   1      33.049  22.578  28.048  1.00  0.00     0.118 C 
ENDROOT
BRANCH   1   2
ATOM      2  N   UNL A   1      32.389  23.282  26.900  1.00  0.00    -0.351 N 
ATOM      3  C   UNL A   1      31.776  24.499  26.579  1.00  0.00     0.278 C 
ATOM      4  O   UNL A   1      31.796  25.428  27.398  1.00  0.00    -0.268 OA
ATOM      5  H   UNL A   1      32.385  22.694  26.111  1.00  0.00     0.163 HD
BRANCH   3   6
ATOM      6  C   UNL A   1      30.993  24.753  25.013  1.00  0.00     0.271 C 
ATOM      7  C   UNL A   1      29.525  25.213  24.793  1.00  0.00     0.086 C 
BRANCH   6   8
ATOM      8  N   UNL A   1      31.338  23.676  23.996  1.00  0.00    -0.321 N 
ATOM      9  C   UNL A   1      32.801  23.344  23.707  1.00  0.00     0.269 C 
ATOM     10  C   UNL A   1      30.755  24.085  22.748  1.00  0.00     0.303 C 
ATOM     11  H   UNL A   1      30.979  22.821  24.423  1.00  0.00     0.349 HD
ATOM     12  C   UNL A   1      33.380  23.727  22.257  1.00  0.00     0.120 C 
ATOM     13  C   UNL A   1      31.494  25.366  22.326  1.00  0.00     0.052 A 
ATOM     14  C   UNL A   1      32.770  25.025  21.835  1.00  0.00     0.077 A 
ATOM     15  C   UNL A   1      31.664  26.784  22.538  1.00  0.00     0.056 A 
ATOM     16  N   UNL A   1      33.277  26.015  21.114  1.00  0.00    -0.180 NA
ATOM     17  N   UNL A   1      32.350  26.977  21.329  1.00  0.00    -0.281 N 
ATOM     18  H   UNL A   1      32.177  27.723  20.710  1.00  0.00     0.190 HD
BRANCH  15  19
ATOM     19  C   UNL A   1      31.383  28.175  23.452  1.00  0.00     0.098 C 
BRANCH  19  20
ATOM     20  C   UNL A   1      30.078  29.110  23.477  1.00  0.00    -0.035 A 
ATOM     21  C   UNL A   1      28.826  28.581  23.083  1.00  0.00     0.005 A 
ATOM     22  C   UNL A   1      30.023  30.510  23.655  1.00  0.00     0.005 A 
ATOM     23  C   UNL A   1      27.622  29.325  23.124  1.00  0.00     0.000 A 
ATOM     24  C   UNL A   1      28.836  31.268  23.707  1.00  0.00     0.000 A 
ATOM     25  C   UNL A   1      27.621  30.661  23.490  1.00  0.00     0.000 A 
ENDBRANCH  19  20
BRANCH  19  26
ATOM     26  C   UNL A   1      32.122  28.183  24.840  1.00  0.00    -0.035 A 
ATOM     27  C   UNL A   1      31.506  28.642  26.020  1.00  0.00     0.005 A 
ATOM     28  C   UNL A   1      33.503  27.917  24.944  1.00  0.00     0.005 A 
ATOM     29  C   UNL A   1      32.224  28.841  27.207  1.00  0.00     0.000 A 
ATOM     30  C   UNL A   1      34.223  28.101  26.127  1.00  0.00     0.000 A 
ATOM     31  C   UNL A   1      33.585  28.576  27.258  1.00  0.00     0.000 A 
ENDBRANCH  19  26
ENDBRANCH  15  19
ENDBRANCH   6   8
ENDBRANCH   3   6
ENDBRANCH   1   2
BRANCH   1  32
ATOM     32  C   UNL A   1      34.303  21.829  27.455  1.00  0.00     0.042 C 
BRANCH  32  33
ATOM     33  C   UNL A   1      35.246  22.394  26.396  1.00  0.00     0.118 C 
BRANCH  33  34
ATOM     34  N   UNL A   1      36.290  21.484  25.954  1.00  0.00    -0.352 N 
ATOM     35  C   UNL A   1      37.649  21.567  25.806  1.00  0.00     0.251 C 
ATOM     36  H   UNL A   1      35.938  20.599  25.703  1.00  0.00     0.163 HD
ATOM     37  O   UNL A   1      38.204  20.559  25.306  1.00  0.00    -0.269 OA
BRANCH  35  38
ATOM     38  C   UNL A   1      38.533  22.720  26.160  1.00  0.00     0.039 A 
ATOM     39  C   UNL A   1      39.670  22.461  26.954  1.00  0.00     0.014 A 
ATOM     40  C   UNL A   1      38.255  24.055  25.862  1.00  0.00     0.014 A 
ATOM     41  C   UNL A   1      40.506  23.493  27.420  1.00  0.00     0.010 A 
ATOM     42  C   UNL A   1      39.135  25.079  26.256  1.00  0.00     0.010 A 
ATOM     43  C   UNL A   1      40.259  24.822  27.062  1.00  0.00    -0.014 A 
BRANCH  43  44
ATOM     44  C   UNL A   1      41.089  25.966  27.562  1.00  0.00     0.031 A 
ATOM     45  C   UNL A   1      40.431  27.085  28.335  1.00  0.00     0.074 A 
ATOM     46  C   UNL A   1      42.400  26.071  27.258  1.00  0.00     0.049 A 
ATOM     47  N   UNL A   1      40.888  28.275  28.645  1.00  0.00    -0.248 NA
ATOM     48  C   UNL A   1      39.051  26.838  28.774  1.00  0.00     0.031 C 
ATOM     49  C   UNL A   1      43.177  25.082  26.515  1.00  0.00     0.029 A 
ATOM     50  N   UNL A   1      43.301  27.081  27.507  1.00  0.00    -0.354 N 
ATOM     51  C   UNL A   1      39.829  28.937  29.254  1.00  0.00     0.074 A 
ATOM     52  C   UNL A   1      38.698  28.039  29.238  1.00  0.00     0.031 C 
ATOM     53  C   UNL A   1      44.432  25.535  26.358  1.00  0.00     0.029 A 
ATOM     54  C   UNL A   1      44.538  26.870  26.945  1.00  0.00     0.049 A 
ATOM     55  H   UNL A   1      43.082  27.881  28.039  1.00  0.00     0.167 HD
ATOM     56  C   UNL A   1      39.800  30.185  29.797  1.00  0.00     0.037 A 
ATOM     57  C   UNL A   1      45.624  27.666  26.876  1.00  0.00     0.037 A 
ATOM     58  C   UNL A   1      40.943  31.056  29.877  1.00  0.00     0.049 A 
ATOM     59  C   UNL A   1      45.589  29.034  27.506  1.00  0.00     0.074 A 
ATOM     60  C   UNL A   1      41.040  32.301  30.479  1.00  0.00     0.029 A 
ATOM     61  N   UNL A   1      42.194  30.772  29.347  1.00  0.00    -0.354 N 
ATOM     62  N   UNL A   1      44.593  29.639  28.106  1.00  0.00    -0.248 NA
ATOM     63  C   UNL A   1      46.826  29.828  27.453  1.00  0.00     0.031 C 
ATOM     64  C   UNL A   1      42.336  32.786  30.274  1.00  0.00     0.029 A 
ATOM     65  C   UNL A   1      43.062  31.822  29.592  1.00  0.00     0.049 A 
ATOM     66  H   UNL A   1      42.428  29.945  28.867  1.00  0.00     0.167 HD
ATOM     67  C   UNL A   1      45.087  30.868  28.525  1.00  0.00     0.074 A 
ATOM     68  C   UNL A   1      46.475  30.922  28.115  1.00  0.00     0.031 C 
ATOM     69  C   UNL A   1      44.447  31.859  29.193  1.00  0.00     0.037 A 
BRANCH  56  70
ATOM     70  C   UNL A   1      38.484  30.680  30.332  1.00  0.00     0.064 A 
ATOM     71  C   UNL A   1      38.210  30.730  31.707  1.00  0.00     0.173 A 
ATOM     72  C   UNL A   1      37.480  31.118  29.453  1.00  0.00     0.173 A 
ATOM     73  F   UNL A   1      39.130  30.323  32.594  1.00  0.00    -0.203 F 
ATOM     74  C   UNL A   1      36.964  31.139  32.178  1.00  0.00     0.198 A 
ATOM     75  C   UNL A   1      36.250  31.564  29.928  1.00  0.00     0.198 A 
ATOM     76  F   UNL A   1      37.690  31.110  28.127  1.00  0.00    -0.203 F 
ATOM     77  F   UNL A   1      36.700  31.099  33.492  1.00  0.00    -0.200 F 
ATOM     78  C   UNL A   1      35.986  31.558  31.289  1.00  0.00     0.200 A 
ATOM     79  F   UNL A   1      35.312  31.988  29.068  1.00  0.00    -0.200 F 
ATOM     80  F   UNL A   1      34.786  31.946  31.743  1.00  0.00    -0.200 F 
ENDBRANCH  56  70
BRANCH  57  81
ATOM     81  C   UNL A   1      46.845  27.177  26.178  1.00  0.00     0.064 A 
ATOM     82  C   UNL A   1      47.057  27.449  24.819  1.00  0.00     0.173 A 
ATOM     83  C   UNL A   1      47.840  26.464  26.862  1.00  0.00     0.173 A 
ATOM     84  F   UNL A   1      46.124  28.107  24.115  1.00  0.00    -0.203 F 
ATOM     85  C   UNL A   1      48.217  27.025  24.172  1.00  0.00     0.198 A 
ATOM     86  C   UNL A   1      49.011  26.064  26.221  1.00  0.00     0.198 A 
ATOM     87  F   UNL A   1      47.688  26.180  28.164  1.00  0.00    -0.203 F 
ATOM     88  F   UNL A   1      48.383  27.276  22.866  1.00  0.00    -0.200 F 
ATOM     89  C   UNL A   1      49.197  26.342  24.876  1.00  0.00     0.200 A 
ATOM     90  F   UNL A   1      49.964  25.419  26.909  1.00  0.00    -0.200 F 
ATOM     91  F   UNL A   1      50.321  25.953  24.258  1.00  0.00    -0.200 F 
ENDBRANCH  57  81
BRANCH  69  92
ATOM     92  C   UNL A   1      45.239  33.076  29.571  1.00  0.00     0.064 A 
ATOM     93  C   UNL A   1      45.985  33.134  30.756  1.00  0.00     0.173 A 
ATOM     94  C   UNL A   1      45.324  34.165  28.687  1.00  0.00     0.173 A 
ATOM     95  F   UNL A   1      45.928  32.125  31.639  1.00  0.00    -0.203 F 
ATOM     96  C   UNL A   1      46.782  34.238  31.047  1.00  0.00     0.198 A 
ATOM     97  C   UNL A   1      46.141  35.255  28.969  1.00  0.00     0.198 A 
ATOM     98  F   UNL A   1      44.633  34.156  27.537  1.00  0.00    -0.203 F 
ATOM     99  F   UNL A   1      47.468  34.283  32.198  1.00  0.00    -0.200 F 
ATOM    100  C   UNL A   1      46.869  35.293  30.149  1.00  0.00     0.200 A 
ATOM    101  F   UNL A   1      46.235  36.265  28.093  1.00  0.00    -0.200 F 
ATOM    102  F   UNL A   1      47.653  36.344  30.421  1.00  0.00    -0.200 F 
ENDBRANCH  69  92
ENDBRANCH  43  44
ENDBRANCH  35  38
ENDBRANCH  33  34
ENDBRANCH  32  33
ENDBRANCH   1  32
TORSDOF 14
ENDMDL
MODEL 2
REMARK VINA RESULT:     -13.4      2.786      7.801
REMARK SMILES C[C@@H](C(=O)NCCCNC(=O)c1ccc(-c2c3nc(c(-c4c(F)c(F)c(F)c(F)c4F)c4ccc([nH]4)c(-c4c(F)c(F)c(F)c(F)c4F)c4nc(c(-c5c(F)c(F)c(F)c(F)c5F)c5ccc2[nH]5)C=C4)C=C3)cc1)[N@@H+]1CCc2n[nH]c(C(c3ccccc3)c3ccccc3)c2C1
REMARK SMILES IDX 6 1 5 2 3 3 4 4 2 6 1 7 75 8 76 9 96 10 77 12 95 13 78 14
REMARK SMILES IDX 81 15 79 16 80 17 82 19 83 20 84 21 88 22 85 23 87 24 86 25
REMARK SMILES IDX 89 26 90 27 94 28 91 29 93 30 92 31 7 32 8 33 9 34 10 35
REMARK SMILES IDX 11 37 12 38 13 39 74 40 14 41 73 42 15 43 16 44 17 45 67 46
REMARK SMILES IDX 18 47 72 48 66 49 68 50 19 51 71 52 65 53 64 54 20 56 52 57
REMARK SMILES IDX 32 58 51 59 33 60 36 61 50 62 69 63 34 64 35 65 49 67 70 68
REMARK SMILES IDX 37 69 21 70 22 71 30 72 23 73 24 74 28 75 31 76 25 77 26 78
REMARK SMILES IDX 29 79 27 80 53 81 54 82 62 83 55 84 56 85 60 86 63 87 57 88
REMARK SMILES IDX 58 89 61 90 59 91 38 92 39 93 47 94 40 95 41 96 45 97 48 98
REMARK SMILES IDX 42 99 43 100 46 101 44 102
REMARK H PARENT 5 5 75 11 80 18 9 36 68 55 36 66
REMARK Flexibility Score: inf
ROOT
ATOM      1  C   UNL A   1      35.376  25.180  25.841  1.00  0.00     0.118 C 
ENDROOT
BRANCH   1   2
ATOM      2  N   UNL A   1      34.013  24.601  25.607  1.00  0.00    -0.351 N 
ATOM      3  C   UNL A   1      33.040  23.821  26.244  1.00  0.00     0.278 C 
ATOM      4  O   UNL A   1      33.186  23.512  27.434  1.00  0.00    -0.268 OA
ATOM      5  H   UNL A   1      33.697  24.852  24.709  1.00  0.00     0.163 HD
BRANCH   3   6
ATOM      6  C   UNL A   1      31.584  23.286  25.392  1.00  0.00     0.271 C 
ATOM      7  C   UNL A   1      30.268  22.795  26.057  1.00  0.00     0.086 C 
BRANCH   6   8
ATOM      8  N   UNL A   1      31.891  22.412  24.185  1.00  0.00    -0.321 N 
ATOM      9  C   UNL A   1      33.311  22.366  23.621  1.00  0.00     0.269 C 
ATOM     10  C   UNL A   1      31.040  22.867  23.120  1.00  0.00     0.303 C 
ATOM     11  H   UNL A   1      31.741  21.465  24.532  1.00  0.00     0.349 HD
ATOM     12  C   UNL A   1      33.557  23.013  22.170  1.00  0.00     0.120 C 
ATOM     13  C   UNL A   1      31.500  24.295  22.780  1.00  0.00     0.052 A 
ATOM     14  C   UNL A   1      32.702  24.233  22.047  1.00  0.00     0.077 A 
ATOM     15  C   UNL A   1      31.501  25.685  23.169  1.00  0.00     0.056 A 
ATOM     16  N   UNL A   1      32.924  25.373  21.409  1.00  0.00    -0.180 NA
ATOM     17  N   UNL A   1      31.922  26.135  21.909  1.00  0.00    -0.281 N 
ATOM     18  H   UNL A   1      31.536  26.910  21.443  1.00  0.00     0.190 HD
BRANCH  15  19
ATOM     19  C   UNL A   1      31.192  26.888  24.312  1.00  0.00     0.098 C 
BRANCH  19  20
ATOM     20  C   UNL A   1      32.212  27.578  25.342  1.00  0.00    -0.035 A 
ATOM     21  C   UNL A   1      31.806  27.825  26.674  1.00  0.00     0.005 A 
ATOM     22  C   UNL A   1      33.453  28.185  25.050  1.00  0.00     0.005 A 
ATOM     23  C   UNL A   1      32.662  28.383  27.655  1.00  0.00     0.000 A 
ATOM     24  C   UNL A   1      34.323  28.739  26.011  1.00  0.00     0.000 A 
ATOM     25  C   UNL A   1      33.945  28.793  27.332  1.00  0.00     0.000 A 
ENDBRANCH  19  20
BRANCH  19  26
ATOM     26  C   UNL A   1      30.039  27.875  23.898  1.00  0.00    -0.035 A 
ATOM     27  C   UNL A   1      28.737  27.429  23.597  1.00  0.00     0.005 A 
ATOM     28  C   UNL A   1      30.293  29.232  23.614  1.00  0.00     0.005 A 
ATOM     29  C   UNL A   1      27.771  28.275  23.034  1.00  0.00     0.000 A 
ATOM     30  C   UNL A   1      29.332  30.084  23.064  1.00  0.00     0.000 A 
ATOM     31  C   UNL A   1      28.071  29.602  22.762  1.00  0.00     0.000 A 
ENDBRANCH  19  26
ENDBRANCH  15  19
ENDBRANCH   6   8
ENDBRANCH   3   6
ENDBRANCH   1   2
BRANCH   1  32
ATOM     32  C   UNL A   1      36.414  24.090  25.373  1.00  0.00     0.042 C 
BRANCH  32  33
ATOM     33  C   UNL A   1      36.672  22.761  26.080  1.00  0.00     0.118 C 
BRANCH  33  34
ATOM     34  N   UNL A   1      38.052  22.303  26.041  1.00  0.00    -0.352 N 
ATOM     35  C   UNL A   1      39.264  22.851  26.366  1.00  0.00     0.251 C 
ATOM     36  H   UNL A   1      38.134  21.382  25.702  1.00  0.00     0.163 HD
ATOM     37  O   UNL A   1      40.267  22.144  26.106  1.00  0.00    -0.269 OA
BRANCH  35  38
ATOM     38  C   UNL A   1      39.521  24.191  26.980  1.00  0.00     0.039 A 
ATOM     39  C   UNL A   1      40.178  25.162  26.195  1.00  0.00     0.014 A 
ATOM     40  C   UNL A   1      39.263  24.516  28.312  1.00  0.00     0.014 A 
ATOM     41  C   UNL A   1      40.550  26.415  26.715  1.00  0.00     0.010 A 
ATOM     42  C   UNL A   1      39.559  25.799  28.810  1.00  0.00     0.010 A 
ATOM     43  C   UNL A   1      40.229  26.760  28.032  1.00  0.00    -0.014 A 
BRANCH  43  44
ATOM     44  C   UNL A   1      40.637  28.062  28.653  1.00  0.00     0.031 A 
ATOM     45  C   UNL A   1      42.045  28.235  29.172  1.00  0.00     0.074 A 
ATOM     46  C   UNL A   1      39.747  29.059  28.849  1.00  0.00     0.049 A 
ATOM     47  N   UNL A   1      42.546  29.159  29.956  1.00  0.00    -0.248 NA
ATOM     48  C   UNL A   1      43.004  27.189  28.787  1.00  0.00     0.031 C 
ATOM     49  C   UNL A   1      38.353  29.044  28.414  1.00  0.00     0.029 A 
ATOM     50  N   UNL A   1      39.879  30.265  29.498  1.00  0.00    -0.354 N 
ATOM     51  C   UNL A   1      43.855  28.770  30.210  1.00  0.00     0.074 A 
ATOM     52  C   UNL A   1      44.064  27.511  29.532  1.00  0.00     0.031 C 
ATOM     53  C   UNL A   1      37.754  30.177  28.816  1.00  0.00     0.029 A 
ATOM     54  C   UNL A   1      38.706  30.979  29.581  1.00  0.00     0.049 A 
ATOM     55  H   UNL A   1      40.733  30.588  29.868  1.00  0.00     0.167 HD
ATOM     56  C   UNL A   1      44.812  29.410  30.934  1.00  0.00     0.037 A 
ATOM     57  C   UNL A   1      38.416  32.128  30.224  1.00  0.00     0.037 A 
ATOM     58  C   UNL A   1      44.630  30.697  31.552  1.00  0.00     0.049 A 
ATOM     59  C   UNL A   1      39.493  32.844  30.998  1.00  0.00     0.074 A 
ATOM     60  C   UNL A   1      45.558  31.468  32.234  1.00  0.00     0.029 A 
ATOM     61  N   UNL A   1      43.440  31.411  31.556  1.00  0.00    -0.354 N 
ATOM     62  N   UNL A   1      40.736  32.482  31.207  1.00  0.00    -0.248 NA
ATOM     63  C   UNL A   1      39.130  34.124  31.623  1.00  0.00     0.031 C 
ATOM     64  C   UNL A   1      44.917  32.625  32.688  1.00  0.00     0.029 A 
ATOM     65  C   UNL A   1      43.605  32.603  32.243  1.00  0.00     0.049 A 
ATOM     66  H   UNL A   1      42.602  31.114  31.134  1.00  0.00     0.167 HD
ATOM     67  C   UNL A   1      41.310  33.499  31.959  1.00  0.00     0.074 A 
ATOM     68  C   UNL A   1      40.280  34.496  32.169  1.00  0.00     0.031 C 
ATOM     69  C   UNL A   1      42.578  33.596  32.431  1.00  0.00     0.037 A 
BRANCH  56  70
ATOM     70  C   UNL A   1      46.136  28.717  31.104  1.00  0.00     0.064 A 
ATOM     71  C   UNL A   1      46.398  27.865  32.189  1.00  0.00     0.173 A 
ATOM     72  C   UNL A   1      47.162  28.904  30.163  1.00  0.00     0.173 A 
ATOM     73  F   UNL A   1      45.457  27.650  33.121  1.00  0.00    -0.203 F 
ATOM     74  C   UNL A   1      47.650  27.279  32.357  1.00  0.00     0.198 A 
ATOM     75  C   UNL A   1      48.400  28.283  30.312  1.00  0.00     0.198 A 
ATOM     76  F   UNL A   1      46.966  29.692  29.095  1.00  0.00    -0.203 F 
ATOM     77  F   UNL A   1      47.899  26.536  33.445  1.00  0.00    -0.200 F 
ATOM     78  C   UNL A   1      48.649  27.485  31.418  1.00  0.00     0.200 A 
ATOM     79  F   UNL A   1      49.358  28.468  29.393  1.00  0.00    -0.200 F 
ATOM     80  F   UNL A   1      49.855  26.924  31.585  1.00  0.00    -0.200 F 
ENDBRANCH  56  70
BRANCH  57  81
ATOM     81  C   UNL A   1      37.034  32.674  30.156  1.00  0.00     0.064 A 
ATOM     82  C   UNL A   1      36.099  32.401  31.164  1.00  0.00     0.173 A 
ATOM     83  C   UNL A   1      36.631  33.510  29.104  1.00  0.00     0.173 A 
ATOM     84  F   UNL A   1      36.428  31.587  32.178  1.00  0.00    -0.203 F 
ATOM     85  C   UNL A   1      34.815  32.941  31.122  1.00  0.00     0.198 A 
ATOM     86  C   UNL A   1      35.355  34.071  29.078  1.00  0.00     0.198 A 
ATOM     87  F   UNL A   1      37.487  33.807  28.115  1.00  0.00    -0.203 F 
ATOM     88  F   UNL A   1      33.932  32.642  32.086  1.00  0.00    -0.200 F 
ATOM     89  C   UNL A   1      34.447  33.784  30.085  1.00  0.00     0.200 A 
ATOM     90  F   UNL A   1      35.010  34.900  28.081  1.00  0.00    -0.200 F 
ATOM     91  F   UNL A   1      33.219  34.320  30.056  1.00  0.00    -0.200 F 
ENDBRANCH  57  81
BRANCH  69  92
ATOM     92  C   UNL A   1      42.952  34.839  33.184  1.00  0.00     0.064 A 
ATOM     93  C   UNL A   1      43.357  36.008  32.524  1.00  0.00     0.173 A 
ATOM     94  C   UNL A   1      42.816  34.885  34.581  1.00  0.00     0.173 A 
ATOM     95  F   UNL A   1      43.514  36.011  31.192  1.00  0.00    -0.203 F 
ATOM     96  C   UNL A   1      43.618  37.176  33.236  1.00  0.00     0.198 A 
ATOM     97  C   UNL A   1      43.053  36.062  35.285  1.00  0.00     0.198 A 
ATOM     98  F   UNL A   1      42.427  33.795  35.257  1.00  0.00    -0.203 F 
ATOM     99  F   UNL A   1      44.027  38.276  32.588  1.00  0.00    -0.200 F 
ATOM    100  C   UNL A   1      43.455  37.206  34.614  1.00  0.00     0.200 A 
ATOM    101  F   UNL A   1      42.880  36.092  36.614  1.00  0.00    -0.200 F 
ATOM    102  F   UNL A   1      43.685  38.338  35.293  1.00  0.00    -0.200 F 
ENDBRANCH  69  92
ENDBRANCH  43  44
ENDBRANCH  35  38
ENDBRANCH  33  34
ENDBRANCH  32  33
ENDBRANCH   1  32
TORSDOF 14
ENDMDL
MODEL 3
REMARK VINA RESULT:     -13.2      0.529      2.259
REMARK SMILES C[C@@H](C(=O)NCCCNC(=O)c1ccc(-c2c3nc(c(-c4c(F)c(F)c(F)c(F)c4F)c4ccc([nH]4)c(-c4c(F)c(F)c(F)c(F)c4F)c4nc(c(-c5c(F)c(F)c(F)c(F)c5F)c5ccc2[nH]5)C=C4)C=C3)cc1)[N@@H+]1CCc2n[nH]c(C(c3ccccc3)c3ccccc3)c2C1
REMARK SMILES IDX 6 1 5 2 3 3 4 4 2 6 1 7 75 8 76 9 96 10 77 12 95 13 78 14
REMARK SMILES IDX 81 15 79 16 80 17 82 19 83 20 84 21 88 22 85 23 87 24 86 25
REMARK SMILES IDX 89 26 90 27 94 28 91 29 93 30 92 31 7 32 8 33 9 34 10 35
REMARK SMILES IDX 11 37 12 38 13 39 74 40 14 41 73 42 15 43 16 44 17 45 67 46
REMARK SMILES IDX 18 47 72 48 66 49 68 50 19 51 71 52 65 53 64 54 20 56 52 57
REMARK SMILES IDX 32 58 51 59 33 60 36 61 50 62 69 63 34 64 35 65 49 67 70 68
REMARK SMILES IDX 37 69 21 70 22 71 30 72 23 73 24 74 28 75 31 76 25 77 26 78
REMARK SMILES IDX 29 79 27 80 53 81 54 82 62 83 55 84 56 85 60 86 63 87 57 88
REMARK SMILES IDX 58 89 61 90 59 91 38 92 39 93 47 94 40 95 41 96 45 97 48 98
REMARK SMILES IDX 42 99 43 100 46 101 44 102
REMARK H PARENT 5 5 75 11 80 18 9 36 68 55 36 66
REMARK Flexibility Score: inf
ROOT
ATOM      1  C   UNL A   1      33.187  22.335  27.968  1.00  0.00     0.118 C 
ENDROOT
BRANCH   1   2
ATOM      2  N   UNL A   1      32.531  23.144  26.889  1.00  0.00    -0.351 N 
ATOM      3  C   UNL A   1      31.313  23.760  26.581  1.00  0.00     0.278 C 
ATOM      4  O   UNL A   1      30.417  23.807  27.435  1.00  0.00    -0.268 OA
ATOM      5  H   UNL A   1      33.168  23.289  26.153  1.00  0.00     0.163 HD
BRANCH   3   6
ATOM      6  C   UNL A   1      31.028  24.503  25.000  1.00  0.00     0.271 C 
ATOM      7  C   UNL A   1      29.758  25.294  24.581  1.00  0.00     0.086 C 
BRANCH   6   8
ATOM      8  N   UNL A   1      31.473  23.622  23.842  1.00  0.00    -0.321 N 
ATOM      9  C   UNL A   1      32.959  23.333  23.634  1.00  0.00     0.269 C 
ATOM     10  C   UNL A   1      31.005  24.254  22.639  1.00  0.00     0.303 C 
ATOM     11  H   UNL A   1      31.083  22.708  24.074  1.00  0.00     0.349 HD
ATOM     12  C   UNL A   1      33.667  23.964  22.336  1.00  0.00     0.120 C 
ATOM     13  C   UNL A   1      31.771  25.582  22.524  1.00  0.00     0.052 A 
ATOM     14  C   UNL A   1      33.090  25.322  22.099  1.00  0.00     0.077 A 
ATOM     15  C   UNL A   1      31.911  26.938  23.001  1.00  0.00     0.056 A 
ATOM     16  N   UNL A   1      33.654  26.421  21.618  1.00  0.00    -0.180 NA
ATOM     17  N   UNL A   1      32.704  27.338  21.915  1.00  0.00    -0.281 N 
ATOM     18  H   UNL A   1      32.584  28.183  21.427  1.00  0.00     0.190 HD
BRANCH  15  19
ATOM     19  C   UNL A   1      31.536  28.145  24.120  1.00  0.00     0.098 C 
BRANCH  19  20
ATOM     20  C   UNL A   1      32.471  28.778  25.261  1.00  0.00    -0.035 A 
ATOM     21  C   UNL A   1      33.619  28.077  25.699  1.00  0.00     0.005 A 
ATOM     22  C   UNL A   1      32.197  29.898  26.077  1.00  0.00     0.005 A 
ATOM     23  C   UNL A   1      34.520  28.590  26.664  1.00  0.00     0.000 A 
ATOM     24  C   UNL A   1      33.081  30.429  27.038  1.00  0.00     0.000 A 
ATOM     25  C   UNL A   1      34.276  29.798  27.297  1.00  0.00     0.000 A 
ENDBRANCH  19  20
BRANCH  19  26
ATOM     26  C   UNL A   1      30.479  29.187  23.598  1.00  0.00    -0.035 A 
ATOM     27  C   UNL A   1      30.242  30.412  24.252  1.00  0.00     0.005 A 
ATOM     28  C   UNL A   1      29.574  28.868  22.566  1.00  0.00     0.005 A 
ATOM     29  C   UNL A   1      29.166  31.242  23.910  1.00  0.00     0.000 A 
ATOM     30  C   UNL A   1      28.506  29.696  22.212  1.00  0.00     0.000 A 
ATOM     31  C   UNL A   1      28.294  30.881  22.894  1.00  0.00     0.000 A 
ENDBRANCH  19  26
ENDBRANCH  15  19
ENDBRANCH   6   8
ENDBRANCH   3   6
ENDBRANCH   1   2
BRANCH   1  32
ATOM     32  C   UNL A   1      34.712  22.230  27.588  1.00  0.00     0.042 C 
BRANCH  32  33
ATOM     33  C   UNL A   1      35.278  22.356  26.175  1.00  0.00     0.118 C 
BRANCH  33  34
ATOM     34  N   UNL A   1      36.320  21.397  25.843  1.00  0.00    -0.352 N 
ATOM     35  C   UNL A   1      37.686  21.439  25.767  1.00  0.00     0.251 C 
ATOM     36  H   UNL A   1      35.958  20.509  25.620  1.00  0.00     0.163 HD
ATOM     37  O   UNL A   1      38.240  20.392  25.353  1.00  0.00    -0.269 OA
BRANCH  35  38
ATOM     38  C   UNL A   1      38.581  22.588  26.108  1.00  0.00     0.039 A 
ATOM     39  C   UNL A   1      39.694  22.335  26.937  1.00  0.00     0.014 A 
ATOM     40  C   UNL A   1      38.332  23.917  25.764  1.00  0.00     0.014 A 
ATOM     41  C   UNL A   1      40.536  23.367  27.393  1.00  0.00     0.010 A 
ATOM     42  C   UNL A   1      39.220  24.939  26.149  1.00  0.00     0.010 A 
ATOM     43  C   UNL A   1      40.319  24.689  26.989  1.00  0.00    -0.014 A 
BRANCH  43  44
ATOM     44  C   UNL A   1      41.156  25.833  27.475  1.00  0.00     0.031 A 
ATOM     45  C   UNL A   1      40.517  26.933  28.290  1.00  0.00     0.074 A 
ATOM     46  C   UNL A   1      42.453  25.958  27.123  1.00  0.00     0.049 A 
ATOM     47  N   UNL A   1      40.972  28.123  28.602  1.00  0.00    -0.248 NA
ATOM     48  C   UNL A   1      39.157  26.664  28.778  1.00  0.00     0.031 C 
ATOM     49  C   UNL A   1      43.212  24.989  26.336  1.00  0.00     0.029 A 
ATOM     50  N   UNL A   1      43.353  26.974  27.354  1.00  0.00    -0.354 N 
ATOM     51  C   UNL A   1      39.931  28.764  29.262  1.00  0.00     0.074 A 
ATOM     52  C   UNL A   1      38.810  27.854  29.275  1.00  0.00     0.031 C 
ATOM     53  C   UNL A   1      44.455  25.458  26.138  1.00  0.00     0.029 A 
ATOM     54  C   UNL A   1      44.569  26.785  26.741  1.00  0.00     0.049 A 
ATOM     55  H   UNL A   1      43.145  27.763  27.906  1.00  0.00     0.167 HD
ATOM     56  C   UNL A   1      39.910  30.003  29.825  1.00  0.00     0.037 A 
ATOM     57  C   UNL A   1      45.644  27.594  26.643  1.00  0.00     0.037 A 
ATOM     58  C   UNL A   1      41.046  30.885  29.875  1.00  0.00     0.049 A 
ATOM     59  C   UNL A   1      45.619  28.951  27.297  1.00  0.00     0.074 A 
ATOM     60  C   UNL A   1      41.153  32.121  30.493  1.00  0.00     0.029 A 
ATOM     61  N   UNL A   1      42.278  30.623  29.293  1.00  0.00    -0.354 N 
ATOM     62  N   UNL A   1      44.640  29.536  27.943  1.00  0.00    -0.248 NA
ATOM     63  C   UNL A   1      46.844  29.759  27.209  1.00  0.00     0.031 C 
ATOM     64  C   UNL A   1      42.435  32.624  30.246  1.00  0.00     0.029 A 
ATOM     65  C   UNL A   1      43.144  31.679  29.521  1.00  0.00     0.049 A 
ATOM     66  H   UNL A   1      42.503  29.806  28.792  1.00  0.00     0.167 HD
ATOM     67  C   UNL A   1      45.137  30.763  28.363  1.00  0.00     0.074 A 
ATOM     68  C   UNL A   1      46.508  30.840  27.901  1.00  0.00     0.031 C 
ATOM     69  C   UNL A   1      44.512  31.737  29.071  1.00  0.00     0.037 A 
BRANCH  56  70
ATOM     70  C   UNL A   1      38.611  30.475  30.417  1.00  0.00     0.064 A 
ATOM     71  C   UNL A   1      37.571  30.986  29.624  1.00  0.00     0.173 A 
ATOM     72  C   UNL A   1      38.399  30.414  31.804  1.00  0.00     0.173 A 
ATOM     73  F   UNL A   1      37.717  31.071  28.293  1.00  0.00    -0.203 F 
ATOM     74  C   UNL A   1      36.399  31.471  30.199  1.00  0.00     0.198 A 
ATOM     75  C   UNL A   1      37.209  30.862  32.373  1.00  0.00     0.198 A 
ATOM     76  F   UNL A   1      39.349  29.920  32.613  1.00  0.00    -0.203 F 
ATOM     77  F   UNL A   1      35.456  32.028  29.426  1.00  0.00    -0.200 F 
ATOM     78  C   UNL A   1      36.217  31.406  31.572  1.00  0.00     0.200 A 
ATOM     79  F   UNL A   1      37.027  30.781  33.699  1.00  0.00    -0.200 F 
ATOM     80  F   UNL A   1      35.090  31.878  32.124  1.00  0.00    -0.200 F 
ENDBRANCH  56  70
BRANCH  57  81
ATOM     81  C   UNL A   1      46.842  27.129  25.892  1.00  0.00     0.064 A 
ATOM     82  C   UNL A   1      47.027  27.472  24.545  1.00  0.00     0.173 A 
ATOM     83  C   UNL A   1      47.843  26.369  26.513  1.00  0.00     0.173 A 
ATOM     84  F   UNL A   1      46.086  28.177  23.900  1.00  0.00    -0.203 F 
ATOM     85  C   UNL A   1      48.165  27.070  23.849  1.00  0.00     0.198 A 
ATOM     86  C   UNL A   1      48.993  25.990  25.824  1.00  0.00     0.198 A 
ATOM     87  F   UNL A   1      47.717  26.016  27.801  1.00  0.00    -0.203 F 
ATOM     88  F   UNL A   1      48.304  27.389  22.555  1.00  0.00    -0.200 F 
ATOM     89  C   UNL A   1      49.153  26.339  24.491  1.00  0.00     0.200 A 
ATOM     90  F   UNL A   1      49.953  25.298  26.454  1.00  0.00    -0.200 F 
ATOM     91  F   UNL A   1      50.257  25.970  23.827  1.00  0.00    -0.200 F 
ENDBRANCH  57  81
BRANCH  69  92
ATOM     92  C   UNL A   1      45.306  32.957  29.437  1.00  0.00     0.064 A 
ATOM     93  C   UNL A   1      46.098  33.003  30.592  1.00  0.00     0.173 A 
ATOM     94  C   UNL A   1      45.343  34.061  28.569  1.00  0.00     0.173 A 
ATOM     95  F   UNL A   1      46.088  31.980  31.459  1.00  0.00    -0.203 F 
ATOM     96  C   UNL A   1      46.894  34.112  30.869  1.00  0.00     0.198 A 
ATOM     97  C   UNL A   1      46.159  35.156  28.837  1.00  0.00     0.198 A 
ATOM     98  F   UNL A   1      44.607  34.063  27.448  1.00  0.00    -0.203 F 
ATOM     99  F   UNL A   1      47.626  34.145  31.993  1.00  0.00    -0.200 F 
ATOM    100  C   UNL A   1      46.933  35.182  29.987  1.00  0.00     0.200 A 
ATOM    101  F   UNL A   1      46.206  36.182  27.975  1.00  0.00    -0.200 F 
ATOM    102  F   UNL A   1      47.717  36.238  30.245  1.00  0.00    -0.200 F 
ENDBRANCH  69  92
ENDBRANCH  43  44
ENDBRANCH  35  38
ENDBRANCH  33  34
ENDBRANCH  32  33
ENDBRANCH   1  32
TORSDOF 14
ENDMDL
