MODEL 1
REMARK VINA RESULT:     -12.4      0.000      0.000
REMARK SMILES COCC[C@H](NC(=O)c1ccc(C)cc1F)C(=O)NCCCNC(=O)c1ccc(-c2c3nc(c(-c4c(F)c(F)c(F)c(F)c4F)c4ccc([nH]4)c(-c4c(F)c(F)c(F)c(F)c4F)c4nc(c(-c5c(F)c(F)c(F)c(F)c5F)c5ccc2[nH]5)C=C4)C=C3)cc1
REMARK SMILES IDX 20 1 19 2 17 3 18 4 5 6 4 7 3 8 2 9 1 10 6 11 7 12 8 14 9 15
REMARK SMILES IDX 10 16 15 17 11 18 14 19 16 20 12 21 13 22 21 23 22 24 23 25
REMARK SMILES IDX 24 26 25 28 26 29 27 30 88 31 28 32 87 33 29 34 30 35 31 36
REMARK SMILES IDX 81 37 32 38 86 39 80 40 82 41 33 42 85 43 79 44 78 45 34 47
REMARK SMILES IDX 66 48 46 49 65 50 47 51 50 52 64 53 83 54 48 55 49 56 63 58
REMARK SMILES IDX 84 59 51 60 35 61 36 62 44 63 37 64 38 65 42 66 45 67 39 68
REMARK SMILES IDX 40 69 43 70 41 71 67 72 68 73 76 74 69 75 70 76 74 77 77 78
REMARK SMILES IDX 71 79 72 80 75 81 73 82 52 83 53 84 61 85 54 86 55 87 59 88
REMARK SMILES IDX 62 89 56 90 57 91 60 92 58 93
REMARK H PARENT 19 5 6 13 23 27 82 46 50 57
REMARK Flexibility Score: inf
ROOT
ATOM      1  C   UNL A   1      32.036  28.756  25.765  1.00  0.00     0.117 C 
ENDROOT
BRANCH   1   2
ATOM      2  N   UNL A   1      31.042  27.788  25.364  1.00  0.00    -0.354 N 
ATOM      3  C   UNL A   1      30.558  27.592  24.107  1.00  0.00     0.242 C 
ATOM      4  O   UNL A   1      29.689  26.736  23.935  1.00  0.00    -0.273 OA
ATOM      5  H   UNL A   1      30.676  27.211  26.073  1.00  0.00     0.163 HD
BRANCH   3   6
ATOM      6  C   UNL A   1      31.218  28.326  22.917  1.00  0.00     0.173 C 
BRANCH   6   7
ATOM      7  C   UNL A   1      30.159  29.284  22.351  1.00  0.00     0.063 C 
BRANCH   7   8
ATOM      8  C   UNL A   1      29.588  30.285  23.350  1.00  0.00     0.162 C 
BRANCH   8   9
ATOM      9  O   UNL A   1      28.169  30.353  23.344  1.00  0.00    -0.385 OA
ATOM     10  C   UNL A   1      27.531  29.261  22.694  1.00  0.00     0.194 C 
ENDBRANCH   8   9
ENDBRANCH   7   8
ENDBRANCH   6   7
BRANCH   6  11
ATOM     11  N   UNL A   1      31.978  27.387  22.041  1.00  0.00    -0.340 N 
ATOM     12  C   UNL A   1      32.793  26.282  22.142  1.00  0.00     0.254 C 
ATOM     13  H   UNL A   1      31.861  27.636  21.095  1.00  0.00     0.164 HD
ATOM     14  O   UNL A   1      33.359  25.877  21.129  1.00  0.00    -0.269 OA
BRANCH  12  15
ATOM     15  C   UNL A   1      33.044  25.594  23.415  1.00  0.00     0.075 A 
ATOM     16  C   UNL A   1      34.038  26.036  24.284  1.00  0.00     0.017 A 
ATOM     17  C   UNL A   1      32.338  24.431  23.721  1.00  0.00     0.136 A 
ATOM     18  C   UNL A   1      34.477  25.189  25.307  1.00  0.00     0.004 A 
ATOM     19  C   UNL A   1      32.785  23.573  24.719  1.00  0.00     0.043 A 
ATOM     20  F   UNL A   1      31.259  24.062  23.022  1.00  0.00    -0.206 F 
ATOM     21  C   UNL A   1      33.910  23.916  25.471  1.00  0.00    -0.048 A 
ATOM     22  C   UNL A   1      34.494  22.922  26.428  1.00  0.00     0.044 C 
ENDBRANCH  12  15
ENDBRANCH   6  11
ENDBRANCH   3   6
ENDBRANCH   1   2
BRANCH   1  23
ATOM     23  C   UNL A   1      32.888  28.210  26.902  1.00  0.00     0.042 C 
BRANCH  23  24
ATOM     24  C   UNL A   1      34.227  28.891  26.884  1.00  0.00     0.118 C 
BRANCH  24  25
ATOM     25  N   UNL A   1      34.089  30.303  27.268  1.00  0.00    -0.352 N 
ATOM     26  C   UNL A   1      34.864  31.020  28.147  1.00  0.00     0.251 C 
ATOM     27  H   UNL A   1      33.350  30.795  26.843  1.00  0.00     0.163 HD
ATOM     28  O   UNL A   1      34.538  32.114  28.564  1.00  0.00    -0.269 OA
BRANCH  26  29
ATOM     29  C   UNL A   1      36.130  30.402  28.534  1.00  0.00     0.039 A 
ATOM     30  C   UNL A   1      36.241  29.614  29.683  1.00  0.00     0.014 A 
ATOM     31  C   UNL A   1      37.180  30.572  27.639  1.00  0.00     0.014 A 
ATOM     32  C   UNL A   1      37.442  28.960  29.920  1.00  0.00     0.010 A 
ATOM     33  C   UNL A   1      38.259  29.762  27.752  1.00  0.00     0.010 A 
ATOM     34  C   UNL A   1      38.431  29.051  28.943  1.00  0.00    -0.014 A 
BRANCH  34  35
ATOM     35  C   UNL A   1      39.778  28.549  29.068  1.00  0.00     0.031 A 
ATOM     36  C   UNL A   1      40.065  27.159  28.717  1.00  0.00     0.074 A 
ATOM     37  C   UNL A   1      40.685  29.538  29.235  1.00  0.00     0.049 A 
ATOM     38  N   UNL A   1      41.082  26.506  29.148  1.00  0.00    -0.248 NA
ATOM     39  C   UNL A   1      39.188  26.354  27.868  1.00  0.00     0.031 C 
ATOM     40  C   UNL A   1      42.102  29.585  28.936  1.00  0.00     0.029 A 
ATOM     41  N   UNL A   1      40.417  30.809  29.778  1.00  0.00    -0.354 N 
ATOM     42  C   UNL A   1      41.204  25.391  28.344  1.00  0.00     0.074 A 
ATOM     43  C   UNL A   1      39.916  25.241  27.714  1.00  0.00     0.031 C 
ATOM     44  C   UNL A   1      42.637  30.651  29.565  1.00  0.00     0.029 A 
ATOM     45  C   UNL A   1      41.595  31.233  30.403  1.00  0.00     0.049 A 
ATOM     46  H   UNL A   1      39.567  31.303  29.727  1.00  0.00     0.167 HD
ATOM     47  C   UNL A   1      42.457  24.888  28.136  1.00  0.00     0.037 A 
ATOM     48  C   UNL A   1      41.605  31.295  31.770  1.00  0.00     0.037 A 
ATOM     49  C   UNL A   1      43.431  25.745  28.813  1.00  0.00     0.049 A 
ATOM     50  C   UNL A   1      42.523  30.246  32.335  1.00  0.00     0.074 A 
ATOM     51  C   UNL A   1      44.207  26.790  28.335  1.00  0.00     0.029 A 
ATOM     52  N   UNL A   1      43.425  25.848  30.196  1.00  0.00    -0.354 N 
ATOM     53  N   UNL A   1      42.747  29.095  31.763  1.00  0.00    -0.248 NA
ATOM     54  C   UNL A   1      43.322  30.452  33.536  1.00  0.00     0.031 C 
ATOM     55  C   UNL A   1      44.634  27.555  29.447  1.00  0.00     0.029 A 
ATOM     56  C   UNL A   1      44.115  26.976  30.594  1.00  0.00     0.049 A 
ATOM     57  H   UNL A   1      42.991  25.210  30.807  1.00  0.00     0.167 HD
ATOM     58  C   UNL A   1      43.751  28.453  32.434  1.00  0.00     0.074 A 
ATOM     59  C   UNL A   1      44.057  29.328  33.552  1.00  0.00     0.031 C 
ATOM     60  C   UNL A   1      44.291  27.277  32.001  1.00  0.00     0.037 A 
BRANCH  47  61
ATOM     61  C   UNL A   1      42.888  23.883  27.086  1.00  0.00     0.064 A 
ATOM     62  C   UNL A   1      42.627  22.504  27.284  1.00  0.00     0.173 A 
ATOM     63  C   UNL A   1      43.560  24.179  25.887  1.00  0.00     0.173 A 
ATOM     64  F   UNL A   1      41.902  22.066  28.321  1.00  0.00    -0.203 F 
ATOM     65  C   UNL A   1      43.086  21.511  26.416  1.00  0.00     0.198 A 
ATOM     66  C   UNL A   1      44.035  23.182  25.024  1.00  0.00     0.198 A 
ATOM     67  F   UNL A   1      43.739  25.437  25.473  1.00  0.00    -0.203 F 
ATOM     68  F   UNL A   1      42.822  20.224  26.682  1.00  0.00    -0.200 F 
ATOM     69  C   UNL A   1      43.809  21.848  25.294  1.00  0.00     0.200 A 
ATOM     70  F   UNL A   1      44.707  23.529  23.917  1.00  0.00    -0.200 F 
ATOM     71  F   UNL A   1      44.260  20.898  24.466  1.00  0.00    -0.200 F 
ENDBRANCH  47  61
BRANCH  48  72
ATOM     72  C   UNL A   1      40.263  31.689  32.313  1.00  0.00     0.064 A 
ATOM     73  C   UNL A   1      39.767  32.952  31.926  1.00  0.00     0.173 A 
ATOM     74  C   UNL A   1      39.323  30.730  32.722  1.00  0.00     0.173 A 
ATOM     75  F   UNL A   1      40.621  33.914  31.540  1.00  0.00    -0.203 F 
ATOM     76  C   UNL A   1      38.400  33.181  31.776  1.00  0.00     0.198 A 
ATOM     77  C   UNL A   1      37.951  30.975  32.595  1.00  0.00     0.198 A 
ATOM     78  F   UNL A   1      39.723  29.515  33.121  1.00  0.00    -0.203 F 
ATOM     79  F   UNL A   1      37.971  34.339  31.253  1.00  0.00    -0.200 F 
ATOM     80  C   UNL A   1      37.495  32.178  32.075  1.00  0.00     0.200 A 
ATOM     81  F   UNL A   1      37.069  30.009  32.892  1.00  0.00    -0.200 F 
ATOM     82  F   UNL A   1      36.190  32.358  31.826  1.00  0.00    -0.200 F 
ENDBRANCH  48  72
BRANCH  60  83
ATOM     83  C   UNL A   1      45.140  26.345  32.822  1.00  0.00     0.064 A 
ATOM     84  C   UNL A   1      44.609  25.424  33.737  1.00  0.00     0.173 A 
ATOM     85  C   UNL A   1      46.533  26.230  32.576  1.00  0.00     0.173 A 
ATOM     86  F   UNL A   1      43.290  25.334  33.952  1.00  0.00    -0.203 F 
ATOM     87  C   UNL A   1      45.419  24.517  34.419  1.00  0.00     0.198 A 
ATOM     88  C   UNL A   1      47.323  25.271  33.200  1.00  0.00     0.198 A 
ATOM     89  F   UNL A   1      47.166  27.020  31.697  1.00  0.00    -0.203 F 
ATOM     90  F   UNL A   1      44.871  23.699  35.328  1.00  0.00    -0.200 F 
ATOM     91  C   UNL A   1      46.770  24.431  34.142  1.00  0.00     0.200 A 
ATOM     92  F   UNL A   1      48.615  25.155  32.865  1.00  0.00    -0.200 F 
ATOM     93  F   UNL A   1      47.533  23.525  34.764  1.00  0.00    -0.200 F 
ENDBRANCH  60  83
ENDBRANCH  34  35
ENDBRANCH  26  29
ENDBRANCH  24  25
ENDBRANCH  23  24
ENDBRANCH   1  23
TORSDOF 15
ENDMDL
MODEL 2
REMARK VINA RESULT:     -12.3      1.360      2.001
REMARK SMILES COCC[C@H](NC(=O)c1ccc(C)cc1F)C(=O)NCCCNC(=O)c1ccc(-c2c3nc(c(-c4c(F)c(F)c(F)c(F)c4F)c4ccc([nH]4)c(-c4c(F)c(F)c(F)c(F)c4F)c4nc(c(-c5c(F)c(F)c(F)c(F)c5F)c5ccc2[nH]5)C=C4)C=C3)cc1
REMARK SMILES IDX 20 1 19 2 17 3 18 4 5 6 4 7 3 8 2 9 1 10 6 11 7 12 8 14 9 15
REMARK SMILES IDX 10 16 15 17 11 18 14 19 16 20 12 21 13 22 21 23 22 24 23 25
REMARK SMILES IDX 24 26 25 28 26 29 27 30 88 31 28 32 87 33 29 34 30 35 31 36
REMARK SMILES IDX 81 37 32 38 86 39 80 40 82 41 33 42 85 43 79 44 78 45 34 47
REMARK SMILES IDX 66 48 46 49 65 50 47 51 50 52 64 53 83 54 48 55 49 56 63 58
REMARK SMILES IDX 84 59 51 60 35 61 36 62 44 63 37 64 38 65 42 66 45 67 39 68
REMARK SMILES IDX 40 69 43 70 41 71 67 72 68 73 76 74 69 75 70 76 74 77 77 78
REMARK SMILES IDX 71 79 72 80 75 81 73 82 52 83 53 84 61 85 54 86 55 87 59 88
REMARK SMILES IDX 62 89 56 90 57 91 60 92 58 93
REMARK H PARENT 19 5 6 13 23 27 82 46 50 57
REMARK Flexibility Score: inf
ROOT
ATOM      1  C   UNL A   1      32.844  26.975  26.398  1.00  0.00     0.117 C 
ENDROOT
BRANCH   1   2
ATOM      2  N   UNL A   1      31.625  26.302  26.780  1.00  0.00    -0.354 N 
ATOM      3  C   UNL A   1      30.758  25.657  25.952  1.00  0.00     0.242 C 
ATOM      4  O   UNL A   1      29.744  25.152  26.436  1.00  0.00    -0.273 OA
ATOM      5  H   UNL A   1      31.397  26.312  27.738  1.00  0.00     0.163 HD
BRANCH   3   6
ATOM      6  C   UNL A   1      31.144  25.438  24.471  1.00  0.00     0.173 C 
BRANCH   6   7
ATOM      7  C   UNL A   1      30.225  26.344  23.640  1.00  0.00     0.063 C 
BRANCH   7   8
ATOM      8  C   UNL A   1      30.913  27.532  22.976  1.00  0.00     0.162 C 
BRANCH   8   9
ATOM      9  O   UNL A   1      30.112  28.186  22.001  1.00  0.00    -0.385 OA
ATOM     10  C   UNL A   1      29.652  29.476  22.388  1.00  0.00     0.194 C 
ENDBRANCH   8   9
ENDBRANCH   7   8
ENDBRANCH   6   7
BRANCH   6  11
ATOM     11  N   UNL A   1      31.317  23.990  24.154  1.00  0.00    -0.340 N 
ATOM     12  C   UNL A   1      32.316  23.047  24.056  1.00  0.00     0.254 C 
ATOM     13  H   UNL A   1      30.444  23.580  23.950  1.00  0.00     0.164 HD
ATOM     14  O   UNL A   1      32.034  21.939  23.603  1.00  0.00    -0.269 OA
BRANCH  12  15
ATOM     15  C   UNL A   1      33.708  23.323  24.434  1.00  0.00     0.075 A 
ATOM     16  C   UNL A   1      34.710  23.398  23.469  1.00  0.00     0.017 A 
ATOM     17  C   UNL A   1      34.050  23.425  25.782  1.00  0.00     0.136 A 
ATOM     18  C   UNL A   1      36.048  23.328  23.869  1.00  0.00     0.004 A 
ATOM     19  C   UNL A   1      35.376  23.329  26.185  1.00  0.00     0.043 A 
ATOM     20  F   UNL A   1      33.117  23.540  26.734  1.00  0.00    -0.206 F 
ATOM     21  C   UNL A   1      36.382  23.203  25.226  1.00  0.00    -0.048 A 
ATOM     22  C   UNL A   1      37.790  22.931  25.659  1.00  0.00     0.044 C 
ENDBRANCH  12  15
ENDBRANCH   6  11
ENDBRANCH   3   6
ENDBRANCH   1   2
BRANCH   1  23
ATOM     23  C   UNL A   1      33.058  28.220  27.246  1.00  0.00     0.042 C 
BRANCH  23  24
ATOM     24  C   UNL A   1      34.265  28.958  26.740  1.00  0.00     0.118 C 
BRANCH  24  25
ATOM     25  N   UNL A   1      34.165  30.388  27.064  1.00  0.00    -0.352 N 
ATOM     26  C   UNL A   1      34.953  31.118  27.921  1.00  0.00     0.251 C 
ATOM     27  H   UNL A   1      33.445  30.884  26.611  1.00  0.00     0.163 HD
ATOM     28  O   UNL A   1      34.656  32.237  28.289  1.00  0.00    -0.269 OA
BRANCH  26  29
ATOM     29  C   UNL A   1      36.196  30.480  28.347  1.00  0.00     0.039 A 
ATOM     30  C   UNL A   1      36.283  29.769  29.547  1.00  0.00     0.014 A 
ATOM     31  C   UNL A   1      37.247  30.547  27.439  1.00  0.00     0.014 A 
ATOM     32  C   UNL A   1      37.459  29.087  29.826  1.00  0.00     0.010 A 
ATOM     33  C   UNL A   1      38.295  29.706  27.606  1.00  0.00     0.010 A 
ATOM     34  C   UNL A   1      38.446  29.073  28.843  1.00  0.00    -0.014 A 
BRANCH  34  35
ATOM     35  C   UNL A   1      39.774  28.529  28.999  1.00  0.00     0.031 A 
ATOM     36  C   UNL A   1      40.022  27.126  28.670  1.00  0.00     0.074 A 
ATOM     37  C   UNL A   1      40.709  29.490  29.170  1.00  0.00     0.049 A 
ATOM     38  N   UNL A   1      41.008  26.446  29.128  1.00  0.00    -0.248 NA
ATOM     39  C   UNL A   1      39.135  26.339  27.815  1.00  0.00     0.031 C 
ATOM     40  C   UNL A   1      42.132  29.487  28.897  1.00  0.00     0.029 A 
ATOM     41  N   UNL A   1      40.473  30.777  29.692  1.00  0.00    -0.354 N 
ATOM     42  C   UNL A   1      41.110  25.318  28.341  1.00  0.00     0.074 A 
ATOM     43  C   UNL A   1      39.829  25.201  27.688  1.00  0.00     0.031 C 
ATOM     44  C   UNL A   1      42.690  30.544  29.523  1.00  0.00     0.029 A 
ATOM     45  C   UNL A   1      41.652  31.170  30.334  1.00  0.00     0.049 A 
ATOM     46  H   UNL A   1      39.640  31.297  29.620  1.00  0.00     0.167 HD
ATOM     47  C   UNL A   1      42.349  24.771  28.162  1.00  0.00     0.037 A 
ATOM     48  C   UNL A   1      41.639  31.250  31.700  1.00  0.00     0.037 A 
ATOM     49  C   UNL A   1      43.337  25.606  28.846  1.00  0.00     0.049 A 
ATOM     50  C   UNL A   1      42.512  30.179  32.295  1.00  0.00     0.074 A 
ATOM     51  C   UNL A   1      44.156  26.618  28.370  1.00  0.00     0.029 A 
ATOM     52  N   UNL A   1      43.310  25.727  30.228  1.00  0.00    -0.354 N 
ATOM     53  N   UNL A   1      42.709  29.014  31.742  1.00  0.00    -0.248 NA
ATOM     54  C   UNL A   1      43.296  30.375  33.508  1.00  0.00     0.031 C 
ATOM     55  C   UNL A   1      44.587  27.384  29.480  1.00  0.00     0.029 A 
ATOM     56  C   UNL A   1      44.029  26.836  30.625  1.00  0.00     0.049 A 
ATOM     57  H   UNL A   1      42.844  25.111  30.838  1.00  0.00     0.167 HD
ATOM     58  C   UNL A   1      43.680  28.349  32.439  1.00  0.00     0.074 A 
ATOM     59  C   UNL A   1      43.993  29.228  33.552  1.00  0.00     0.031 C 
ATOM     60  C   UNL A   1      44.189  27.150  32.031  1.00  0.00     0.037 A 
BRANCH  47  61
ATOM     61  C   UNL A   1      42.765  23.740  27.132  1.00  0.00     0.064 A 
ATOM     62  C   UNL A   1      42.488  22.369  27.359  1.00  0.00     0.173 A 
ATOM     63  C   UNL A   1      43.440  24.003  25.927  1.00  0.00     0.173 A 
ATOM     64  F   UNL A   1      41.759  21.962  28.406  1.00  0.00    -0.203 F 
ATOM     65  C   UNL A   1      42.933  21.352  26.512  1.00  0.00     0.198 A 
ATOM     66  C   UNL A   1      43.901  22.982  25.084  1.00  0.00     0.198 A 
ATOM     67  F   UNL A   1      43.634  25.249  25.487  1.00  0.00    -0.203 F 
ATOM     68  F   UNL A   1      42.653  20.074  26.805  1.00  0.00    -0.200 F 
ATOM     69  C   UNL A   1      43.659  21.657  25.383  1.00  0.00     0.200 A 
ATOM     70  F   UNL A   1      44.577  23.297  23.970  1.00  0.00    -0.200 F 
ATOM     71  F   UNL A   1      44.097  20.684  24.574  1.00  0.00    -0.200 F 
ENDBRANCH  47  61
BRANCH  48  72
ATOM     72  C   UNL A   1      40.301  31.693  32.214  1.00  0.00     0.064 A 
ATOM     73  C   UNL A   1      39.510  30.713  32.850  1.00  0.00     0.173 A 
ATOM     74  C   UNL A   1      40.043  33.034  32.538  1.00  0.00     0.173 A 
ATOM     75  F   UNL A   1      39.701  29.414  32.567  1.00  0.00    -0.203 F 
ATOM     76  C   UNL A   1      38.640  31.043  33.889  1.00  0.00     0.198 A 
ATOM     77  C   UNL A   1      39.150  33.362  33.564  1.00  0.00     0.198 A 
ATOM     78  F   UNL A   1      40.743  34.019  31.960  1.00  0.00    -0.203 F 
ATOM     79  F   UNL A   1      38.025  30.071  34.578  1.00  0.00    -0.200 F 
ATOM     80  C   UNL A   1      38.491  32.365  34.271  1.00  0.00     0.200 A 
ATOM     81  F   UNL A   1      38.995  34.643  33.932  1.00  0.00    -0.200 F 
ATOM     82  F   UNL A   1      37.743  32.673  35.339  1.00  0.00    -0.200 F 
ENDBRANCH  48  72
BRANCH  60  83
ATOM     83  C   UNL A   1      44.992  26.202  32.879  1.00  0.00     0.064 A 
ATOM     84  C   UNL A   1      44.415  25.314  33.798  1.00  0.00     0.173 A 
ATOM     85  C   UNL A   1      46.383  26.035  32.657  1.00  0.00     0.173 A 
ATOM     86  F   UNL A   1      43.090  25.272  33.993  1.00  0.00    -0.203 F 
ATOM     87  C   UNL A   1      45.182  24.389  34.506  1.00  0.00     0.198 A 
ATOM     88  C   UNL A   1      47.130  25.059  33.308  1.00  0.00     0.198 A 
ATOM     89  F   UNL A   1      47.058  26.789  31.777  1.00  0.00    -0.203 F 
ATOM     90  F   UNL A   1      44.592  23.605  35.418  1.00  0.00    -0.200 F 
ATOM     91  C   UNL A   1      46.534  24.253  34.253  1.00  0.00     0.200 A 
ATOM     92  F   UNL A   1      48.422  24.894  32.996  1.00  0.00    -0.200 F 
ATOM     93  F   UNL A   1      47.255  23.330  34.900  1.00  0.00    -0.200 F 
ENDBRANCH  60  83
ENDBRANCH  34  35
ENDBRANCH  26  29
ENDBRANCH  24  25
ENDBRANCH  23  24
ENDBRANCH   1  23
TORSDOF 15
ENDMDL
MODEL 3
REMARK VINA RESULT:     -12.2      3.203      8.946
REMARK SMILES COCC[C@H](NC(=O)c1ccc(C)cc1F)C(=O)NCCCNC(=O)c1ccc(-c2c3nc(c(-c4c(F)c(F)c(F)c(F)c4F)c4ccc([nH]4)c(-c4c(F)c(F)c(F)c(F)c4F)c4nc(c(-c5c(F)c(F)c(F)c(F)c5F)c5ccc2[nH]5)C=C4)C=C3)cc1
REMARK SMILES IDX 20 1 19 2 17 3 18 4 5 6 4 7 3 8 2 9 1 10 6 11 7 12 8 14 9 15
REMARK SMILES IDX 10 16 15 17 11 18 14 19 16 20 12 21 13 22 21 23 22 24 23 25
REMARK SMILES IDX 24 26 25 28 26 29 27 30 88 31 28 32 87 33 29 34 30 35 31 36
REMARK SMILES IDX 81 37 32 38 86 39 80 40 82 41 33 42 85 43 79 44 78 45 34 47
REMARK SMILES IDX 66 48 46 49 65 50 47 51 50 52 64 53 83 54 48 55 49 56 63 58
REMARK SMILES IDX 84 59 51 60 35 61 36 62 44 63 37 64 38 65 42 66 45 67 39 68
REMARK SMILES IDX 40 69 43 70 41 71 67 72 68 73 76 74 69 75 70 76 74 77 77 78
REMARK SMILES IDX 71 79 72 80 75 81 73 82 52 83 53 84 61 85 54 86 55 87 59 88
REMARK SMILES IDX 62 89 56 90 57 91 60 92 58 93
REMARK H PARENT 19 5 6 13 23 27 82 46 50 57
REMARK Flexibility Score: inf
ROOT
ATOM      1  C   UNL A   1      34.860  24.488  25.608  1.00  0.00     0.117 C 
ENDROOT
BRANCH   1   2
ATOM      2  N   UNL A   1      34.917  24.340  24.173  1.00  0.00    -0.354 N 
ATOM      3  C   UNL A   1      34.050  23.637  23.393  1.00  0.00     0.242 C 
ATOM      4  O   UNL A   1      34.253  23.589  22.179  1.00  0.00    -0.273 OA
ATOM      5  H   UNL A   1      35.659  24.793  23.711  1.00  0.00     0.163 HD
BRANCH   3   6
ATOM      6  C   UNL A   1      32.760  23.061  24.022  1.00  0.00     0.173 C 
BRANCH   6   7
ATOM      7  C   UNL A   1      32.866  21.532  23.914  1.00  0.00     0.063 C 
BRANCH   7   8
ATOM      8  C   UNL A   1      32.631  20.772  25.215  1.00  0.00     0.162 C 
BRANCH   8   9
ATOM      9  O   UNL A   1      32.050  19.488  25.032  1.00  0.00    -0.385 OA
ATOM     10  C   UNL A   1      32.781  18.423  25.626  1.00  0.00     0.194 C 
ENDBRANCH   8   9
ENDBRANCH   7   8
ENDBRANCH   6   7
BRANCH   6  11
ATOM     11  N   UNL A   1      31.546  23.799  23.567  1.00  0.00    -0.340 N 
ATOM     12  C   UNL A   1      30.942  25.027  23.722  1.00  0.00     0.254 C 
ATOM     13  H   UNL A   1      31.007  23.231  22.969  1.00  0.00     0.164 HD
ATOM     14  O   UNL A   1      29.814  25.187  23.263  1.00  0.00    -0.269 OA
BRANCH  12  15
ATOM     15  C   UNL A   1      31.575  26.137  24.448  1.00  0.00     0.075 A 
ATOM     16  C   UNL A   1      32.566  26.910  23.848  1.00  0.00     0.017 A 
ATOM     17  C   UNL A   1      31.243  26.367  25.783  1.00  0.00     0.136 A 
ATOM     18  C   UNL A   1      33.373  27.725  24.650  1.00  0.00     0.004 A 
ATOM     19  C   UNL A   1      32.056  27.154  26.588  1.00  0.00     0.043 A 
ATOM     20  F   UNL A   1      30.183  25.782  26.351  1.00  0.00    -0.206 F 
ATOM     21  C   UNL A   1      33.176  27.779  26.038  1.00  0.00    -0.048 A 
ATOM     22  C   UNL A   1      34.146  28.488  26.934  1.00  0.00     0.044 C 
ENDBRANCH  12  15
ENDBRANCH   6  11
ENDBRANCH   3   6
ENDBRANCH   1   2
BRANCH   1  23
ATOM     23  C   UNL A   1      35.941  23.650  26.277  1.00  0.00     0.042 C 
BRANCH  23  24
ATOM     24  C   UNL A   1      37.228  23.813  25.519  1.00  0.00     0.118 C 
BRANCH  24  25
ATOM     25  N   UNL A   1      38.185  22.765  25.902  1.00  0.00    -0.352 N 
ATOM     26  C   UNL A   1      39.432  22.921  26.456  1.00  0.00     0.251 C 
ATOM     27  H   UNL A   1      37.895  21.838  25.741  1.00  0.00     0.163 HD
ATOM     28  O   UNL A   1      40.232  22.008  26.532  1.00  0.00    -0.269 OA
BRANCH  26  29
ATOM     29  C   UNL A   1      39.738  24.248  26.982  1.00  0.00     0.039 A 
ATOM     30  C   UNL A   1      40.302  25.244  26.181  1.00  0.00     0.014 A 
ATOM     31  C   UNL A   1      39.343  24.480  28.295  1.00  0.00     0.014 A 
ATOM     32  C   UNL A   1      40.449  26.516  26.714  1.00  0.00     0.010 A 
ATOM     33  C   UNL A   1      39.279  25.760  28.731  1.00  0.00     0.010 A 
ATOM     34  C   UNL A   1      39.933  26.746  27.988  1.00  0.00    -0.014 A 
BRANCH  34  35
ATOM     35  C   UNL A   1      40.102  27.959  28.752  1.00  0.00     0.031 A 
ATOM     36  C   UNL A   1      39.109  29.026  28.641  1.00  0.00     0.074 A 
ATOM     37  C   UNL A   1      41.043  27.835  29.716  1.00  0.00     0.049 A 
ATOM     38  N   UNL A   1      39.339  30.253  28.935  1.00  0.00    -0.248 NA
ATOM     39  C   UNL A   1      37.755  28.805  28.136  1.00  0.00     0.031 C 
ATOM     40  C   UNL A   1      41.218  28.546  30.965  1.00  0.00     0.029 A 
ATOM     41  N   UNL A   1      42.121  26.929  29.693  1.00  0.00    -0.354 N 
ATOM     42  C   UNL A   1      38.111  30.870  29.046  1.00  0.00     0.074 A 
ATOM     43  C   UNL A   1      37.191  30.000  28.356  1.00  0.00     0.031 C 
ATOM     44  C   UNL A   1      42.461  28.299  31.428  1.00  0.00     0.029 A 
ATOM     45  C   UNL A   1      43.164  27.533  30.405  1.00  0.00     0.049 A 
ATOM     46  H   UNL A   1      42.138  26.045  29.261  1.00  0.00     0.167 HD
ATOM     47  C   UNL A   1      37.996  31.915  29.918  1.00  0.00     0.037 A 
ATOM     48  C   UNL A   1      44.259  27.951  29.700  1.00  0.00     0.037 A 
ATOM     49  C   UNL A   1      39.273  32.098  30.609  1.00  0.00     0.049 A 
ATOM     50  C   UNL A   1      44.340  29.453  29.699  1.00  0.00     0.074 A 
ATOM     51  C   UNL A   1      39.712  31.640  31.841  1.00  0.00     0.029 A 
ATOM     52  N   UNL A   1      40.401  32.482  29.898  1.00  0.00    -0.354 N 
ATOM     53  N   UNL A   1      43.296  30.235  29.748  1.00  0.00    -0.248 NA
ATOM     54  C   UNL A   1      45.601  30.182  29.733  1.00  0.00     0.031 C 
ATOM     55  C   UNL A   1      41.126  31.709  31.850  1.00  0.00     0.029 A 
ATOM     56  C   UNL A   1      41.541  32.205  30.624  1.00  0.00     0.049 A 
ATOM     57  H   UNL A   1      40.390  32.893  29.003  1.00  0.00     0.167 HD
ATOM     58  C   UNL A   1      43.716  31.527  29.908  1.00  0.00     0.074 A 
ATOM     59  C   UNL A   1      45.165  31.446  29.862  1.00  0.00     0.031 C 
ATOM     60  C   UNL A   1      42.850  32.562  30.112  1.00  0.00     0.037 A 
BRANCH  47  61
ATOM     61  C   UNL A   1      36.722  32.553  30.436  1.00  0.00     0.064 A 
ATOM     62  C   UNL A   1      36.054  33.526  29.651  1.00  0.00     0.173 A 
ATOM     63  C   UNL A   1      36.108  32.284  31.671  1.00  0.00     0.173 A 
ATOM     64  F   UNL A   1      36.449  33.817  28.404  1.00  0.00    -0.203 F 
ATOM     65  C   UNL A   1      34.939  34.233  30.103  1.00  0.00     0.198 A 
ATOM     66  C   UNL A   1      34.999  33.005  32.133  1.00  0.00     0.198 A 
ATOM     67  F   UNL A   1      36.517  31.284  32.458  1.00  0.00    -0.203 F 
ATOM     68  F   UNL A   1      34.374  35.158  29.313  1.00  0.00    -0.200 F 
ATOM     69  C   UNL A   1      34.422  33.988  31.355  1.00  0.00     0.200 A 
ATOM     70  F   UNL A   1      34.485  32.731  33.341  1.00  0.00    -0.200 F 
ATOM     71  F   UNL A   1      33.359  34.673  31.796  1.00  0.00    -0.200 F 
ENDBRANCH  47  61
BRANCH  48  72
ATOM     72  C   UNL A   1      44.546  27.045  28.539  1.00  0.00     0.064 A 
ATOM     73  C   UNL A   1      44.230  27.540  27.255  1.00  0.00     0.173 A 
ATOM     74  C   UNL A   1      45.517  26.034  28.614  1.00  0.00     0.173 A 
ATOM     75  F   UNL A   1      43.297  28.497  27.120  1.00  0.00    -0.203 F 
ATOM     76  C   UNL A   1      44.976  27.179  26.133  1.00  0.00     0.198 A 
ATOM     77  C   UNL A   1      46.244  25.656  27.480  1.00  0.00     0.198 A 
ATOM     78  F   UNL A   1      45.854  25.504  29.797  1.00  0.00    -0.203 F 
ATOM     79  F   UNL A   1      44.753  27.788  24.959  1.00  0.00    -0.200 F 
ATOM     80  C   UNL A   1      46.008  26.265  26.255  1.00  0.00     0.200 A 
ATOM     81  F   UNL A   1      47.240  24.764  27.591  1.00  0.00    -0.200 F 
ATOM     82  F   UNL A   1      46.795  26.001  25.203  1.00  0.00    -0.200 F 
ENDBRANCH  48  72
BRANCH  60  83
ATOM     83  C   UNL A   1      43.177  34.023  29.965  1.00  0.00     0.064 A 
ATOM     84  C   UNL A   1      43.346  34.887  31.056  1.00  0.00     0.173 A 
ATOM     85  C   UNL A   1      43.509  34.565  28.696  1.00  0.00     0.173 A 
ATOM     86  F   UNL A   1      43.203  34.458  32.317  1.00  0.00    -0.203 F 
ATOM     87  C   UNL A   1      43.733  36.216  30.886  1.00  0.00     0.198 A 
ATOM     88  C   UNL A   1      43.969  35.868  28.540  1.00  0.00     0.198 A 
ATOM     89  F   UNL A   1      43.431  33.840  27.571  1.00  0.00    -0.203 F 
ATOM     90  F   UNL A   1      43.821  37.018  31.956  1.00  0.00    -0.200 F 
ATOM     91  C   UNL A   1      44.056  36.702  29.634  1.00  0.00     0.200 A 
ATOM     92  F   UNL A   1      44.347  36.298  27.329  1.00  0.00    -0.200 F 
ATOM     93  F   UNL A   1      44.474  37.965  29.483  1.00  0.00    -0.200 F 
ENDBRANCH  60  83
ENDBRANCH  34  35
ENDBRANCH  26  29
ENDBRANCH  24  25
ENDBRANCH  23  24
ENDBRANCH   1  23
TORSDOF 15
ENDMDL
