MODEL 1
REMARK VINA RESULT:     -12.9      0.000      0.000
REMARK SMILES Cc1ccc(Br)cc1C(=O)N1CCO[C@H](CC(=O)NCCCNC(=O)c2ccc(-c3c4nc(c(-c5c(F)c(F)c(F)c(F)c5F)c5ccc([nH]5)c(-c5c(F)c(F)c(F)c(F)c5F)c5nc(c(-c6c(F)c(F)c(F)c(F)c6F)c6ccc3[nH]6)C=C5)C=C4)cc2)C1
REMARK SMILES IDX 20 1 19 2 17 3 18 4 16 6 15 7 11 8 12 9 89 10 13 11 14 12
REMARK SMILES IDX 9 13 10 14 8 15 1 16 2 17 3 18 4 19 7 20 5 21 6 22 21 23
REMARK SMILES IDX 22 24 23 25 24 26 25 28 26 29 27 30 88 31 28 32 87 33 29 34
REMARK SMILES IDX 30 35 31 36 81 37 32 38 86 39 80 40 82 41 33 42 85 43 79 44
REMARK SMILES IDX 78 45 34 47 66 48 46 49 65 50 47 51 50 52 64 53 83 54 48 55
REMARK SMILES IDX 49 56 63 58 84 59 51 60 35 61 36 62 44 63 37 64 38 65 42 66
REMARK SMILES IDX 45 67 39 68 40 69 43 70 41 71 67 72 68 73 76 74 69 75 70 76
REMARK SMILES IDX 74 77 77 78 71 79 72 80 75 81 73 82 52 83 53 84 61 85 54 86
REMARK SMILES IDX 55 87 59 88 62 89 56 90 57 91 60 92 58 93
REMARK H PARENT 19 5 23 27 82 46 50 57
REMARK Flexibility Score: inf
ROOT
ATOM      1  C   UNL A   1      31.757  30.817  25.989  1.00  0.00     0.117 C 
ENDROOT
BRANCH   1   2
ATOM      2  N   UNL A   1      31.888  29.748  26.960  1.00  0.00    -0.356 N 
ATOM      3  C   UNL A   1      31.769  28.407  26.750  1.00  0.00     0.222 C 
ATOM      4  O   UNL A   1      31.641  27.656  27.715  1.00  0.00    -0.275 OA
ATOM      5  H   UNL A   1      32.089  30.025  27.883  1.00  0.00     0.163 HD
BRANCH   3   6
ATOM      6  C   UNL A   1      31.893  27.882  25.347  1.00  0.00     0.133 C 
BRANCH   6   7
ATOM      7  C   UNL A   1      30.694  27.067  24.844  1.00  0.00     0.147 C 
ATOM      8  N   UNL A   1      32.005  26.107  23.044  1.00  0.00    -0.334 N 
ATOM      9  C   UNL A   1      31.212  26.736  21.999  1.00  0.00     0.148 C 
ATOM     10  C   UNL A   1      31.200  25.761  24.219  1.00  0.00     0.152 C 
ATOM     11  C   UNL A   1      30.370  27.907  22.554  1.00  0.00     0.182 C 
ATOM     12  O   UNL A   1      29.849  27.751  23.888  1.00  0.00    -0.374 OA
BRANCH   8  13
ATOM     13  C   UNL A   1      33.242  25.500  22.906  1.00  0.00     0.254 C 
ATOM     14  O   UNL A   1      34.024  25.954  22.062  1.00  0.00    -0.269 OA
BRANCH  13  15
ATOM     15  C   UNL A   1      33.648  24.210  23.598  1.00  0.00     0.044 A 
ATOM     16  C   UNL A   1      31.866  22.506  22.755  1.00  0.00     0.045 C 
ATOM     17  C   UNL A   1      33.118  22.905  23.462  1.00  0.00    -0.038 A 
ATOM     18  C   UNL A   1      33.803  21.806  24.038  1.00  0.00     0.005 A 
ATOM     19  C   UNL A   1      35.007  21.964  24.711  1.00  0.00     0.016 A 
ATOM     20  C   UNL A   1      34.860  24.337  24.322  1.00  0.00     0.029 A 
ATOM     21  C   UNL A   1      35.530  23.235  24.856  1.00  0.00     0.018 A 
ATOM     22  Br  UNL A   1      37.184  23.470  25.736  1.00  0.00    -0.051 Br
ENDBRANCH  13  15
ENDBRANCH   8  13
ENDBRANCH   6   7
ENDBRANCH   3   6
ENDBRANCH   1   2
BRANCH   1  23
ATOM     23  C   UNL A   1      31.432  32.130  26.686  1.00  0.00     0.042 C 
BRANCH  23  24
ATOM     24  C   UNL A   1      32.666  32.786  27.287  1.00  0.00     0.118 C 
BRANCH  24  25
ATOM     25  N   UNL A   1      32.433  34.183  27.630  1.00  0.00    -0.352 N 
ATOM     26  C   UNL A   1      32.991  34.938  28.629  1.00  0.00     0.251 C 
ATOM     27  H   UNL A   1      31.781  34.652  27.062  1.00  0.00     0.163 HD
ATOM     28  O   UNL A   1      32.527  36.038  28.901  1.00  0.00    -0.269 OA
BRANCH  26  29
ATOM     29  C   UNL A   1      34.141  34.407  29.388  1.00  0.00     0.039 A 
ATOM     30  C   UNL A   1      33.913  33.818  30.633  1.00  0.00     0.014 A 
ATOM     31  C   UNL A   1      35.437  34.487  28.870  1.00  0.00     0.014 A 
ATOM     32  C   UNL A   1      34.981  33.256  31.334  1.00  0.00     0.010 A 
ATOM     33  C   UNL A   1      36.482  33.849  29.524  1.00  0.00     0.010 A 
ATOM     34  C   UNL A   1      36.266  33.237  30.768  1.00  0.00    -0.014 A 
BRANCH  34  35
ATOM     35  C   UNL A   1      37.404  32.588  31.464  1.00  0.00     0.031 A 
ATOM     36  C   UNL A   1      38.120  31.435  30.822  1.00  0.00     0.074 A 
ATOM     37  C   UNL A   1      37.744  32.995  32.702  1.00  0.00     0.049 A 
ATOM     38  N   UNL A   1      39.091  30.696  31.294  1.00  0.00    -0.248 NA
ATOM     39  C   UNL A   1      37.663  31.041  29.480  1.00  0.00     0.031 C 
ATOM     40  C   UNL A   1      37.092  34.073  33.446  1.00  0.00     0.029 A 
ATOM     41  N   UNL A   1      38.717  32.543  33.555  1.00  0.00    -0.354 N 
ATOM     42  C   UNL A   1      39.350  29.744  30.316  1.00  0.00     0.074 A 
ATOM     43  C   UNL A   1      38.391  29.958  29.254  1.00  0.00     0.031 C 
ATOM     44  C   UNL A   1      37.703  34.219  34.632  1.00  0.00     0.029 A 
ATOM     45  C   UNL A   1      38.758  33.219  34.749  1.00  0.00     0.049 A 
ATOM     46  H   UNL A   1      39.329  31.804  33.332  1.00  0.00     0.167 HD
ATOM     47  C   UNL A   1      40.316  28.796  30.294  1.00  0.00     0.037 A 
ATOM     48  C   UNL A   1      39.554  33.045  35.821  1.00  0.00     0.037 A 
ATOM     49  C   UNL A   1      41.273  28.598  31.352  1.00  0.00     0.049 A 
ATOM     50  C   UNL A   1      40.603  31.966  35.786  1.00  0.00     0.074 A 
ATOM     51  C   UNL A   1      42.327  27.703  31.407  1.00  0.00     0.029 A 
ATOM     52  N   UNL A   1      41.284  29.302  32.548  1.00  0.00    -0.354 N 
ATOM     53  N   UNL A   1      40.888  31.118  34.827  1.00  0.00    -0.248 NA
ATOM     54  C   UNL A   1      41.443  31.824  36.982  1.00  0.00     0.031 C 
ATOM     55  C   UNL A   1      42.937  27.824  32.660  1.00  0.00     0.029 A 
ATOM     56  C   UNL A   1      42.308  28.841  33.360  1.00  0.00     0.049 A 
ATOM     57  H   UNL A   1      40.658  30.024  32.785  1.00  0.00     0.167 HD
ATOM     58  C   UNL A   1      41.958  30.364  35.289  1.00  0.00     0.074 A 
ATOM     59  C   UNL A   1      42.279  30.865  36.609  1.00  0.00     0.031 C 
ATOM     60  C   UNL A   1      42.617  29.352  34.673  1.00  0.00     0.037 A 
BRANCH  47  61
ATOM     61  C   UNL A   1      40.374  27.898  29.091  1.00  0.00     0.064 A 
ATOM     62  C   UNL A   1      41.143  28.223  27.961  1.00  0.00     0.173 A 
ATOM     63  C   UNL A   1      39.654  26.693  29.065  1.00  0.00     0.173 A 
ATOM     64  F   UNL A   1      41.842  29.367  27.926  1.00  0.00    -0.203 F 
ATOM     65  C   UNL A   1      41.151  27.400  26.837  1.00  0.00     0.198 A 
ATOM     66  C   UNL A   1      39.696  25.855  27.954  1.00  0.00     0.198 A 
ATOM     67  F   UNL A   1      38.908  26.328  30.119  1.00  0.00    -0.203 F 
ATOM     68  F   UNL A   1      41.837  27.768  25.746  1.00  0.00    -0.200 F 
ATOM     69  C   UNL A   1      40.433  26.214  26.837  1.00  0.00     0.200 A 
ATOM     70  F   UNL A   1      39.013  24.701  27.961  1.00  0.00    -0.200 F 
ATOM     71  F   UNL A   1      40.442  25.424  25.754  1.00  0.00    -0.200 F 
ENDBRANCH  47  61
BRANCH  48  72
ATOM     72  C   UNL A   1      39.412  33.938  36.999  1.00  0.00     0.064 A 
ATOM     73  C   UNL A   1      38.667  33.537  38.117  1.00  0.00     0.173 A 
ATOM     74  C   UNL A   1      40.027  35.198  37.043  1.00  0.00     0.173 A 
ATOM     75  F   UNL A   1      38.046  32.349  38.115  1.00  0.00    -0.203 F 
ATOM     76  C   UNL A   1      38.529  34.368  39.226  1.00  0.00     0.198 A 
ATOM     77  C   UNL A   1      39.913  36.016  38.165  1.00  0.00     0.198 A 
ATOM     78  F   UNL A   1      40.757  35.626  36.002  1.00  0.00    -0.203 F 
ATOM     79  F   UNL A   1      37.779  33.976  40.265  1.00  0.00    -0.200 F 
ATOM     80  C   UNL A   1      39.158  35.603  39.253  1.00  0.00     0.200 A 
ATOM     81  F   UNL A   1      40.536  37.201  38.193  1.00  0.00    -0.200 F 
ATOM     82  F   UNL A   1      39.035  36.398  40.325  1.00  0.00    -0.200 F 
ENDBRANCH  48  72
BRANCH  60  83
ATOM     83  C   UNL A   1      43.780  28.741  35.403  1.00  0.00     0.064 A 
ATOM     84  C   UNL A   1      45.089  29.219  35.243  1.00  0.00     0.173 A 
ATOM     85  C   UNL A   1      43.572  27.688  36.308  1.00  0.00     0.173 A 
ATOM     86  F   UNL A   1      45.344  30.213  34.379  1.00  0.00    -0.203 F 
ATOM     87  C   UNL A   1      46.150  28.648  35.940  1.00  0.00     0.198 A 
ATOM     88  C   UNL A   1      44.630  27.143  37.030  1.00  0.00     0.198 A 
ATOM     89  F   UNL A   1      42.339  27.198  36.504  1.00  0.00    -0.203 F 
ATOM     90  F   UNL A   1      47.399  29.086  35.732  1.00  0.00    -0.200 F 
ATOM     91  C   UNL A   1      45.919  27.617  36.839  1.00  0.00     0.200 A 
ATOM     92  F   UNL A   1      44.401  26.159  37.910  1.00  0.00    -0.200 F 
ATOM     93  F   UNL A   1      46.940  27.077  37.518  1.00  0.00    -0.200 F 
ENDBRANCH  60  83
ENDBRANCH  34  35
ENDBRANCH  26  29
ENDBRANCH  24  25
ENDBRANCH  23  24
ENDBRANCH   1  23
TORSDOF 13
ENDMDL
MODEL 2
REMARK VINA RESULT:     -12.8      1.052      1.382
REMARK SMILES Cc1ccc(Br)cc1C(=O)N1CCO[C@H](CC(=O)NCCCNC(=O)c2ccc(-c3c4nc(c(-c5c(F)c(F)c(F)c(F)c5F)c5ccc([nH]5)c(-c5c(F)c(F)c(F)c(F)c5F)c5nc(c(-c6c(F)c(F)c(F)c(F)c6F)c6ccc3[nH]6)C=C5)C=C4)cc2)C1
REMARK SMILES IDX 20 1 19 2 17 3 18 4 16 6 15 7 11 8 12 9 89 10 13 11 14 12
REMARK SMILES IDX 9 13 10 14 8 15 1 16 2 17 3 18 4 19 7 20 5 21 6 22 21 23
REMARK SMILES IDX 22 24 23 25 24 26 25 28 26 29 27 30 88 31 28 32 87 33 29 34
REMARK SMILES IDX 30 35 31 36 81 37 32 38 86 39 80 40 82 41 33 42 85 43 79 44
REMARK SMILES IDX 78 45 34 47 66 48 46 49 65 50 47 51 50 52 64 53 83 54 48 55
REMARK SMILES IDX 49 56 63 58 84 59 51 60 35 61 36 62 44 63 37 64 38 65 42 66
REMARK SMILES IDX 45 67 39 68 40 69 43 70 41 71 67 72 68 73 76 74 69 75 70 76
REMARK SMILES IDX 74 77 77 78 71 79 72 80 75 81 73 82 52 83 53 84 61 85 54 86
REMARK SMILES IDX 55 87 59 88 62 89 56 90 57 91 60 92 58 93
REMARK H PARENT 19 5 23 27 82 46 50 57
REMARK Flexibility Score: inf
ROOT
ATOM      1  C   UNL A   1      31.730  30.757  26.089  1.00  0.00     0.117 C 
ENDROOT
BRANCH   1   2
ATOM      2  N   UNL A   1      31.826  29.789  27.164  1.00  0.00    -0.356 N 
ATOM      3  C   UNL A   1      31.671  28.438  27.090  1.00  0.00     0.222 C 
ATOM      4  O   UNL A   1      31.516  27.793  28.126  1.00  0.00    -0.275 OA
ATOM      5  H   UNL A   1      32.028  30.153  28.056  1.00  0.00     0.163 HD
BRANCH   3   6
ATOM      6  C   UNL A   1      31.789  27.770  25.749  1.00  0.00     0.133 C 
BRANCH   6   7
ATOM      7  C   UNL A   1      30.458  27.368  25.098  1.00  0.00     0.147 C 
ATOM      8  N   UNL A   1      31.129  25.040  24.989  1.00  0.00    -0.334 N 
ATOM      9  C   UNL A   1      31.126  25.005  23.534  1.00  0.00     0.148 C 
ATOM     10  C   UNL A   1      30.101  25.938  25.524  1.00  0.00     0.152 C 
ATOM     11  C   UNL A   1      31.159  26.428  22.934  1.00  0.00     0.182 C 
ATOM     12  O   UNL A   1      30.438  27.449  23.653  1.00  0.00    -0.374 OA
BRANCH   8  13
ATOM     13  C   UNL A   1      31.682  24.105  25.848  1.00  0.00     0.254 C 
ATOM     14  O   UNL A   1      31.321  24.113  27.030  1.00  0.00    -0.269 OA
BRANCH  13  15
ATOM     15  C   UNL A   1      32.827  23.176  25.484  1.00  0.00     0.044 A 
ATOM     16  C   UNL A   1      34.887  24.772  25.445  1.00  0.00     0.045 C 
ATOM     17  C   UNL A   1      34.216  23.440  25.403  1.00  0.00    -0.038 A 
ATOM     18  C   UNL A   1      35.127  22.363  25.267  1.00  0.00     0.005 A 
ATOM     19  C   UNL A   1      34.703  21.042  25.241  1.00  0.00     0.016 A 
ATOM     20  C   UNL A   1      32.429  21.818  25.418  1.00  0.00     0.029 A 
ATOM     21  C   UNL A   1      33.349  20.774  25.311  1.00  0.00     0.018 A 
ATOM     22  Br  UNL A   1      32.751  18.982  25.314  1.00  0.00    -0.051 Br
ENDBRANCH  13  15
ENDBRANCH   8  13
ENDBRANCH   6   7
ENDBRANCH   3   6
ENDBRANCH   1   2
BRANCH   1  23
ATOM     23  C   UNL A   1      31.434  32.142  26.646  1.00  0.00     0.042 C 
BRANCH  23  24
ATOM     24  C   UNL A   1      32.666  32.793  27.258  1.00  0.00     0.118 C 
BRANCH  24  25
ATOM     25  N   UNL A   1      32.437  34.192  27.593  1.00  0.00    -0.352 N 
ATOM     26  C   UNL A   1      33.007  34.954  28.581  1.00  0.00     0.251 C 
ATOM     27  H   UNL A   1      31.779  34.658  27.030  1.00  0.00     0.163 HD
ATOM     28  O   UNL A   1      32.547  36.057  28.850  1.00  0.00    -0.269 OA
BRANCH  26  29
ATOM     29  C   UNL A   1      34.166  34.428  29.330  1.00  0.00     0.039 A 
ATOM     30  C   UNL A   1      33.944  33.784  30.550  1.00  0.00     0.014 A 
ATOM     31  C   UNL A   1      35.463  34.566  28.828  1.00  0.00     0.014 A 
ATOM     32  C   UNL A   1      35.022  33.228  31.239  1.00  0.00     0.010 A 
ATOM     33  C   UNL A   1      36.520  33.934  29.468  1.00  0.00     0.010 A 
ATOM     34  C   UNL A   1      36.312  33.268  30.685  1.00  0.00    -0.014 A 
BRANCH  34  35
ATOM     35  C   UNL A   1      37.462  32.626  31.367  1.00  0.00     0.031 A 
ATOM     36  C   UNL A   1      38.179  31.479  30.715  1.00  0.00     0.074 A 
ATOM     37  C   UNL A   1      37.814  33.034  32.602  1.00  0.00     0.049 A 
ATOM     38  N   UNL A   1      39.160  30.746  31.175  1.00  0.00    -0.248 NA
ATOM     39  C   UNL A   1      37.709  31.083  29.378  1.00  0.00     0.031 C 
ATOM     40  C   UNL A   1      37.163  34.107  33.354  1.00  0.00     0.029 A 
ATOM     41  N   UNL A   1      38.801  32.587  33.443  1.00  0.00    -0.354 N 
ATOM     42  C   UNL A   1      39.414  29.797  30.193  1.00  0.00     0.074 A 
ATOM     43  C   UNL A   1      38.441  30.006  29.143  1.00  0.00     0.031 C 
ATOM     44  C   UNL A   1      37.788  34.256  34.533  1.00  0.00     0.029 A 
ATOM     45  C   UNL A   1      38.851  33.263  34.637  1.00  0.00     0.049 A 
ATOM     46  H   UNL A   1      39.415  31.853  33.211  1.00  0.00     0.167 HD
ATOM     47  C   UNL A   1      40.387  28.855  30.159  1.00  0.00     0.037 A 
ATOM     48  C   UNL A   1      39.661  33.093  35.699  1.00  0.00     0.037 A 
ATOM     49  C   UNL A   1      41.357  28.663  31.204  1.00  0.00     0.049 A 
ATOM     50  C   UNL A   1      40.716  32.021  35.650  1.00  0.00     0.074 A 
ATOM     51  C   UNL A   1      42.418  27.775  31.247  1.00  0.00     0.029 A 
ATOM     52  N   UNL A   1      41.378  29.366  32.401  1.00  0.00    -0.354 N 
ATOM     53  N   UNL A   1      40.996  31.176  34.687  1.00  0.00    -0.248 NA
ATOM     54  C   UNL A   1      41.572  31.884  36.836  1.00  0.00     0.031 C 
ATOM     55  C   UNL A   1      43.042  27.899  32.492  1.00  0.00     0.029 A 
ATOM     56  C   UNL A   1      42.414  28.910  33.201  1.00  0.00     0.049 A 
ATOM     57  H   UNL A   1      40.749  30.083  32.646  1.00  0.00     0.167 HD
ATOM     58  C   UNL A   1      42.076  30.430  35.136  1.00  0.00     0.074 A 
ATOM     59  C   UNL A   1      42.410  30.930  36.453  1.00  0.00     0.031 C 
ATOM     60  C   UNL A   1      42.735  29.422  34.510  1.00  0.00     0.037 A 
BRANCH  47  61
ATOM     61  C   UNL A   1      40.437  27.959  28.953  1.00  0.00     0.064 A 
ATOM     62  C   UNL A   1      41.196  28.286  27.819  1.00  0.00     0.173 A 
ATOM     63  C   UNL A   1      39.717  26.754  28.931  1.00  0.00     0.173 A 
ATOM     64  F   UNL A   1      41.895  29.431  27.780  1.00  0.00    -0.203 F 
ATOM     65  C   UNL A   1      41.198  27.466  26.693  1.00  0.00     0.198 A 
ATOM     66  C   UNL A   1      39.752  25.917  27.819  1.00  0.00     0.198 A 
ATOM     67  F   UNL A   1      38.980  26.386  29.990  1.00  0.00    -0.203 F 
ATOM     68  F   UNL A   1      41.875  27.836  25.597  1.00  0.00    -0.200 F 
ATOM     69  C   UNL A   1      40.481  26.279  26.697  1.00  0.00     0.200 A 
ATOM     70  F   UNL A   1      39.070  24.763  27.829  1.00  0.00    -0.200 F 
ATOM     71  F   UNL A   1      40.483  25.491  25.613  1.00  0.00    -0.200 F 
ENDBRANCH  47  61
BRANCH  48  72
ATOM     72  C   UNL A   1      39.526  33.983  36.880  1.00  0.00     0.064 A 
ATOM     73  C   UNL A   1      38.773  33.589  37.994  1.00  0.00     0.173 A 
ATOM     74  C   UNL A   1      40.157  35.235  36.930  1.00  0.00     0.173 A 
ATOM     75  F   UNL A   1      38.136  32.408  37.986  1.00  0.00    -0.203 F 
ATOM     76  C   UNL A   1      38.642  34.418  39.106  1.00  0.00     0.198 A 
ATOM     77  C   UNL A   1      40.050  36.051  38.055  1.00  0.00     0.198 A 
ATOM     78  F   UNL A   1      40.896  35.657  35.893  1.00  0.00    -0.203 F 
ATOM     79  F   UNL A   1      37.883  34.031  40.141  1.00  0.00    -0.200 F 
ATOM     80  C   UNL A   1      39.287  35.644  39.138  1.00  0.00     0.200 A 
ATOM     81  F   UNL A   1      40.689  37.228  38.089  1.00  0.00    -0.200 F 
ATOM     82  F   UNL A   1      39.170  36.436  40.213  1.00  0.00    -0.200 F 
ENDBRANCH  48  72
BRANCH  60  83
ATOM     83  C   UNL A   1      43.910  28.819  35.226  1.00  0.00     0.064 A 
ATOM     84  C   UNL A   1      45.214  29.304  35.049  1.00  0.00     0.173 A 
ATOM     85  C   UNL A   1      43.720  27.765  36.135  1.00  0.00     0.173 A 
ATOM     86  F   UNL A   1      45.453  30.299  34.181  1.00  0.00    -0.203 F 
ATOM     87  C   UNL A   1      46.288  28.740  35.733  1.00  0.00     0.198 A 
ATOM     88  C   UNL A   1      44.791  27.227  36.844  1.00  0.00     0.198 A 
ATOM     89  F   UNL A   1      42.493  27.268  36.347  1.00  0.00    -0.203 F 
ATOM     90  F   UNL A   1      47.531  29.184  35.509  1.00  0.00    -0.200 F 
ATOM     91  C   UNL A   1      46.074  27.708  36.636  1.00  0.00     0.200 A 
ATOM     92  F   UNL A   1      44.579  26.243  37.728  1.00  0.00    -0.200 F 
ATOM     93  F   UNL A   1      47.107  27.174  37.302  1.00  0.00    -0.200 F 
ENDBRANCH  60  83
ENDBRANCH  34  35
ENDBRANCH  26  29
ENDBRANCH  24  25
ENDBRANCH  23  24
ENDBRANCH   1  23
TORSDOF 13
ENDMDL
MODEL 3
REMARK VINA RESULT:     -12.8      0.800      1.541
REMARK SMILES Cc1ccc(Br)cc1C(=O)N1CCO[C@H](CC(=O)NCCCNC(=O)c2ccc(-c3c4nc(c(-c5c(F)c(F)c(F)c(F)c5F)c5ccc([nH]5)c(-c5c(F)c(F)c(F)c(F)c5F)c5nc(c(-c6c(F)c(F)c(F)c(F)c6F)c6ccc3[nH]6)C=C5)C=C4)cc2)C1
REMARK SMILES IDX 20 1 19 2 17 3 18 4 16 6 15 7 11 8 12 9 89 10 13 11 14 12
REMARK SMILES IDX 9 13 10 14 8 15 1 16 2 17 3 18 4 19 7 20 5 21 6 22 21 23
REMARK SMILES IDX 22 24 23 25 24 26 25 28 26 29 27 30 88 31 28 32 87 33 29 34
REMARK SMILES IDX 30 35 31 36 81 37 32 38 86 39 80 40 82 41 33 42 85 43 79 44
REMARK SMILES IDX 78 45 34 47 66 48 46 49 65 50 47 51 50 52 64 53 83 54 48 55
REMARK SMILES IDX 49 56 63 58 84 59 51 60 35 61 36 62 44 63 37 64 38 65 42 66
REMARK SMILES IDX 45 67 39 68 40 69 43 70 41 71 67 72 68 73 76 74 69 75 70 76
REMARK SMILES IDX 74 77 77 78 71 79 72 80 75 81 73 82 52 83 53 84 61 85 54 86
REMARK SMILES IDX 55 87 59 88 62 89 56 90 57 91 60 92 58 93
REMARK H PARENT 19 5 23 27 82 46 50 57
REMARK Flexibility Score: inf
ROOT
ATOM      1  C   UNL A   1      31.735  30.716  26.067  1.00  0.00     0.117 C 
ENDROOT
BRANCH   1   2
ATOM      2  N   UNL A   1      31.776  29.786  27.179  1.00  0.00    -0.356 N 
ATOM      3  C   UNL A   1      31.709  28.427  27.135  1.00  0.00     0.222 C 
ATOM      4  O   UNL A   1      31.486  27.802  28.170  1.00  0.00    -0.275 OA
ATOM      5  H   UNL A   1      31.865  30.186  28.074  1.00  0.00     0.163 HD
BRANCH   3   6
ATOM      6  C   UNL A   1      32.001  27.731  25.835  1.00  0.00     0.133 C 
BRANCH   6   7
ATOM      7  C   UNL A   1      30.769  27.235  25.065  1.00  0.00     0.147 C 
ATOM      8  N   UNL A   1      31.561  24.944  25.124  1.00  0.00    -0.334 N 
ATOM      9  C   UNL A   1      31.716  24.857  23.679  1.00  0.00     0.148 C 
ATOM     10  C   UNL A   1      30.439  25.805  25.510  1.00  0.00     0.152 C 
ATOM     11  C   UNL A   1      31.743  26.257  23.028  1.00  0.00     0.182 C 
ATOM     12  O   UNL A   1      30.900  27.262  23.624  1.00  0.00    -0.374 OA
BRANCH   8  13
ATOM     13  C   UNL A   1      32.064  24.071  26.074  1.00  0.00     0.254 C 
ATOM     14  O   UNL A   1      31.696  24.209  27.246  1.00  0.00    -0.269 OA
BRANCH  13  15
ATOM     15  C   UNL A   1      33.168  23.061  25.814  1.00  0.00     0.044 A 
ATOM     16  C   UNL A   1      31.856  20.942  25.051  1.00  0.00     0.045 C 
ATOM     17  C   UNL A   1      33.089  21.750  25.285  1.00  0.00    -0.038 A 
ATOM     18  C   UNL A   1      34.276  21.070  24.916  1.00  0.00     0.005 A 
ATOM     19  C   UNL A   1      35.526  21.664  25.026  1.00  0.00     0.016 A 
ATOM     20  C   UNL A   1      34.463  23.621  25.945  1.00  0.00     0.029 A 
ATOM     21  C   UNL A   1      35.615  22.941  25.548  1.00  0.00     0.018 A 
ATOM     22  Br  UNL A   1      37.301  23.783  25.673  1.00  0.00    -0.051 Br
ENDBRANCH  13  15
ENDBRANCH   8  13
ENDBRANCH   6   7
ENDBRANCH   3   6
ENDBRANCH   1   2
BRANCH   1  23
ATOM     23  C   UNL A   1      31.435  32.123  26.564  1.00  0.00     0.042 C 
BRANCH  23  24
ATOM     24  C   UNL A   1      32.604  32.728  27.327  1.00  0.00     0.118 C 
BRANCH  24  25
ATOM     25  N   UNL A   1      32.389  34.136  27.635  1.00  0.00    -0.352 N 
ATOM     26  C   UNL A   1      32.977  34.915  28.599  1.00  0.00     0.251 C 
ATOM     27  H   UNL A   1      31.726  34.594  27.071  1.00  0.00     0.163 HD
ATOM     28  O   UNL A   1      32.528  36.026  28.851  1.00  0.00    -0.269 OA
BRANCH  26  29
ATOM     29  C   UNL A   1      34.142  34.396  29.344  1.00  0.00     0.039 A 
ATOM     30  C   UNL A   1      33.930  33.757  30.567  1.00  0.00     0.014 A 
ATOM     31  C   UNL A   1      35.436  34.538  28.835  1.00  0.00     0.014 A 
ATOM     32  C   UNL A   1      35.014  33.208  31.252  1.00  0.00     0.010 A 
ATOM     33  C   UNL A   1      36.499  33.913  29.471  1.00  0.00     0.010 A 
ATOM     34  C   UNL A   1      36.301  33.252  30.692  1.00  0.00    -0.014 A 
BRANCH  34  35
ATOM     35  C   UNL A   1      37.457  32.618  31.370  1.00  0.00     0.031 A 
ATOM     36  C   UNL A   1      38.181  31.476  30.715  1.00  0.00     0.074 A 
ATOM     37  C   UNL A   1      37.809  33.027  32.604  1.00  0.00     0.049 A 
ATOM     38  N   UNL A   1      39.169  30.750  31.171  1.00  0.00    -0.248 NA
ATOM     39  C   UNL A   1      37.710  31.079  29.379  1.00  0.00     0.031 C 
ATOM     40  C   UNL A   1      37.152  34.094  33.360  1.00  0.00     0.029 A 
ATOM     41  N   UNL A   1      38.801  32.587  33.442  1.00  0.00    -0.354 N 
ATOM     42  C   UNL A   1      39.428  29.805  30.188  1.00  0.00     0.074 A 
ATOM     43  C   UNL A   1      38.450  30.007  29.141  1.00  0.00     0.031 C 
ATOM     44  C   UNL A   1      37.779  34.246  34.537  1.00  0.00     0.029 A 
ATOM     45  C   UNL A   1      38.849  33.261  34.637  1.00  0.00     0.049 A 
ATOM     46  H   UNL A   1      39.420  31.857  33.208  1.00  0.00     0.167 HD
ATOM     47  C   UNL A   1      40.407  28.870  30.151  1.00  0.00     0.037 A 
ATOM     48  C   UNL A   1      39.663  33.096  35.697  1.00  0.00     0.037 A 
ATOM     49  C   UNL A   1      41.381  28.684  31.193  1.00  0.00     0.049 A 
ATOM     50  C   UNL A   1      40.726  32.032  35.644  1.00  0.00     0.074 A 
ATOM     51  C   UNL A   1      42.448  27.804  31.232  1.00  0.00     0.029 A 
ATOM     52  N   UNL A   1      41.399  29.385  32.391  1.00  0.00    -0.354 N 
ATOM     53  N   UNL A   1      41.010  31.191  34.680  1.00  0.00    -0.248 NA
ATOM     54  C   UNL A   1      41.586  31.900  36.828  1.00  0.00     0.031 C 
ATOM     55  C   UNL A   1      43.075  27.931  32.476  1.00  0.00     0.029 A 
ATOM     56  C   UNL A   1      42.441  28.937  33.188  1.00  0.00     0.049 A 
ATOM     57  H   UNL A   1      40.766  30.097  32.639  1.00  0.00     0.167 HD
ATOM     58  C   UNL A   1      42.097  30.451  35.125  1.00  0.00     0.074 A 
ATOM     59  C   UNL A   1      42.430  30.953  36.442  1.00  0.00     0.031 C 
ATOM     60  C   UNL A   1      42.762  29.450  34.497  1.00  0.00     0.037 A 
BRANCH  47  61
ATOM     61  C   UNL A   1      40.460  27.975  28.944  1.00  0.00     0.064 A 
ATOM     62  C   UNL A   1      39.809  26.732  28.916  1.00  0.00     0.173 A 
ATOM     63  C   UNL A   1      41.170  28.366  27.797  1.00  0.00     0.173 A 
ATOM     64  F   UNL A   1      39.125  26.303  29.987  1.00  0.00    -0.203 F 
ATOM     65  C   UNL A   1      39.903  25.896  27.806  1.00  0.00     0.198 A 
ATOM     66  C   UNL A   1      41.230  27.545  26.675  1.00  0.00     0.198 A 
ATOM     67  F   UNL A   1      41.806  29.547  27.765  1.00  0.00    -0.203 F 
ATOM     68  F   UNL A   1      39.330  24.684  27.831  1.00  0.00    -0.200 F 
ATOM     69  C   UNL A   1      40.609  26.306  26.684  1.00  0.00     0.200 A 
ATOM     70  F   UNL A   1      41.900  27.948  25.586  1.00  0.00    -0.200 F 
ATOM     71  F   UNL A   1      40.699  25.500  25.617  1.00  0.00    -0.200 F 
ENDBRANCH  47  61
BRANCH  48  72
ATOM     72  C   UNL A   1      39.525  33.984  36.879  1.00  0.00     0.064 A 
ATOM     73  C   UNL A   1      38.773  33.585  37.992  1.00  0.00     0.173 A 
ATOM     74  C   UNL A   1      40.151  35.239  36.932  1.00  0.00     0.173 A 
ATOM     75  F   UNL A   1      38.141  32.402  37.983  1.00  0.00    -0.203 F 
ATOM     76  C   UNL A   1      38.639  34.412  39.106  1.00  0.00     0.198 A 
ATOM     77  C   UNL A   1      40.041  36.052  38.057  1.00  0.00     0.198 A 
ATOM     78  F   UNL A   1      40.888  35.665  35.895  1.00  0.00    -0.203 F 
ATOM     79  F   UNL A   1      37.881  34.021  40.140  1.00  0.00    -0.200 F 
ATOM     80  C   UNL A   1      39.279  35.640  39.140  1.00  0.00     0.200 A 
ATOM     81  F   UNL A   1      40.675  37.232  38.093  1.00  0.00    -0.200 F 
ATOM     82  F   UNL A   1      39.159  36.431  40.216  1.00  0.00    -0.200 F 
ENDBRANCH  48  72
BRANCH  60  83
ATOM     83  C   UNL A   1      43.943  28.854  35.209  1.00  0.00     0.064 A 
ATOM     84  C   UNL A   1      45.232  29.394  35.086  1.00  0.00     0.173 A 
ATOM     85  C   UNL A   1      43.774  27.751  36.060  1.00  0.00     0.173 A 
ATOM     86  F   UNL A   1      45.452  30.440  34.274  1.00  0.00    -0.203 F 
ATOM     87  C   UNL A   1      46.311  28.836  35.766  1.00  0.00     0.198 A 
ATOM     88  C   UNL A   1      44.848  27.217  36.766  1.00  0.00     0.198 A 
ATOM     89  F   UNL A   1      42.561  27.199  36.219  1.00  0.00    -0.203 F 
ATOM     90  F   UNL A   1      47.541  29.336  35.593  1.00  0.00    -0.200 F 
ATOM     91  C   UNL A   1      46.117  27.754  36.612  1.00  0.00     0.200 A 
ATOM     92  F   UNL A   1      44.654  26.182  37.595  1.00  0.00    -0.200 F 
ATOM     93  F   UNL A   1      47.154  27.225  37.274  1.00  0.00    -0.200 F 
ENDBRANCH  60  83
ENDBRANCH  34  35
ENDBRANCH  26  29
ENDBRANCH  24  25
ENDBRANCH  23  24
ENDBRANCH   1  23
TORSDOF 13
ENDMDL
