MODEL 1
REMARK VINA RESULT:     -10.4      0.000      0.000
REMARK SMILES C[NH+](C)Cc1noc(CCCCC(=O)NCCCNC(=O)c2ccc(-c3c4nc(c(-c5c(F)c(F)c(F)c(F)c5F)c5ccc([nH]5)c(-c5c(F)c(F)c(F)c(F)c5F)c5nc(c(-c6c(F)c(F)c(F)c(F)c6F)c6ccc3[nH]6)C=C5)C=C4)cc2)n1
REMARK SMILES IDX 13 1 14 2 15 3 12 5 11 6 10 7 9 8 8 9 5 10 6 11 85 12 7 13
REMARK SMILES IDX 4 14 2 15 1 16 3 17 16 19 17 20 18 21 19 22 20 23 21 25
REMARK SMILES IDX 22 26 23 27 84 28 24 29 83 30 25 31 26 32 27 33 77 34 28 35
REMARK SMILES IDX 82 36 76 37 78 38 29 39 81 40 75 41 74 42 30 44 62 45 42 46
REMARK SMILES IDX 61 47 43 48 46 49 60 50 79 51 44 52 45 53 59 55 80 56 47 57
REMARK SMILES IDX 31 58 32 59 40 60 33 61 34 62 38 63 41 64 35 65 36 66 39 67
REMARK SMILES IDX 37 68 63 69 64 70 72 71 65 72 66 73 70 74 73 75 67 76 68 77
REMARK SMILES IDX 71 78 69 79 48 80 49 81 57 82 50 83 51 84 55 85 58 86 52 87
REMARK SMILES IDX 53 88 56 89 54 90
REMARK H PARENT 15 4 2 18 19 24 78 43 46 54
REMARK Flexibility Score: inf
ROOT
ATOM      1  C   UNL A   1      31.457  22.936  25.783  1.00  0.00     0.219 C 
ATOM      2  O   UNL A   1      30.620  22.105  26.139  1.00  0.00    -0.275 OA
ATOM      3  N   UNL A   1      32.725  22.810  26.264  1.00  0.00    -0.356 N 
ATOM      4  H   UNL A   1      32.887  21.998  26.798  1.00  0.00     0.163 HD
ENDROOT
BRANCH   1   5
ATOM      5  C   UNL A   1      31.090  24.054  24.825  1.00  0.00     0.100 C 
BRANCH   5   6
ATOM      6  C   UNL A   1      31.085  23.636  23.352  1.00  0.00     0.010 C 
BRANCH   6   7
ATOM      7  C   UNL A   1      32.293  22.843  22.835  1.00  0.00     0.010 C 
BRANCH   7   8
ATOM      8  C   UNL A   1      32.058  21.373  22.482  1.00  0.00     0.100 C 
BRANCH   8   9
ATOM      9  C   UNL A   1      32.484  20.444  23.545  1.00  0.00     0.226 A 
ATOM     10  C   UNL A   1      32.815  18.891  24.906  1.00  0.00     0.226 A 
ATOM     11  N   UNL A   1      33.818  19.749  25.149  1.00  0.00    -0.056 NA
ATOM     12  N   UNL A   1      31.964  19.294  23.901  1.00  0.00    -0.191 NA
ATOM     13  O   UNL A   1      33.605  20.774  24.240  1.00  0.00    -0.339 OA
BRANCH  10  14
ATOM     14  C   UNL A   1      32.611  17.576  25.603  1.00  0.00     0.344 C 
BRANCH  14  15
ATOM     15  N   UNL A   1      32.698  16.343  24.795  1.00  0.00    -0.333 N 
ATOM     16  C   UNL A   1      33.891  16.285  23.958  1.00  0.00     0.332 C 
ATOM     17  C   UNL A   1      32.523  15.130  25.588  1.00  0.00     0.332 C 
ATOM     18  H   UNL A   1      31.904  16.387  24.156  1.00  0.00     0.348 HD
ENDBRANCH  14  15
ENDBRANCH  10  14
ENDBRANCH   8   9
ENDBRANCH   7   8
ENDBRANCH   6   7
ENDBRANCH   5   6
ENDBRANCH   1   5
BRANCH   3  19
ATOM     19  C   UNL A   1      33.875  23.681  26.115  1.00  0.00     0.117 C 
BRANCH  19  20
ATOM     20  C   UNL A   1      35.155  22.966  26.527  1.00  0.00     0.042 C 
BRANCH  20  21
ATOM     21  C   UNL A   1      36.411  23.555  25.911  1.00  0.00     0.118 C 
BRANCH  21  22
ATOM     22  N   UNL A   1      37.533  22.635  25.972  1.00  0.00    -0.352 N 
ATOM     23  C   UNL A   1      38.843  22.860  26.316  1.00  0.00     0.251 C 
ATOM     24  H   UNL A   1      37.321  21.705  25.728  1.00  0.00     0.163 HD
ATOM     25  O   UNL A   1      39.673  21.979  26.111  1.00  0.00    -0.269 OA
BRANCH  23  26
ATOM     26  C   UNL A   1      39.272  24.150  26.911  1.00  0.00     0.039 A 
ATOM     27  C   UNL A   1      39.974  25.054  26.107  1.00  0.00     0.014 A 
ATOM     28  C   UNL A   1      39.037  24.461  28.252  1.00  0.00     0.014 A 
ATOM     29  C   UNL A   1      40.403  26.274  26.636  1.00  0.00     0.010 A 
ATOM     30  C   UNL A   1      39.369  25.719  28.748  1.00  0.00     0.010 A 
ATOM     31  C   UNL A   1      40.082  26.629  27.956  1.00  0.00    -0.014 A 
BRANCH  31  32
ATOM     32  C   UNL A   1      40.535  27.919  28.539  1.00  0.00     0.031 A 
ATOM     33  C   UNL A   1      41.985  28.115  28.896  1.00  0.00     0.074 A 
ATOM     34  C   UNL A   1      39.640  28.894  28.788  1.00  0.00     0.049 A 
ATOM     35  N   UNL A   1      42.570  29.143  29.459  1.00  0.00    -0.248 NA
ATOM     36  C   UNL A   1      42.897  26.995  28.611  1.00  0.00     0.031 C 
ATOM     37  C   UNL A   1      38.201  28.804  28.538  1.00  0.00     0.029 A 
ATOM     38  N   UNL A   1      39.809  30.152  29.310  1.00  0.00    -0.354 N 
ATOM     39  C   UNL A   1      43.905  28.785  29.606  1.00  0.00     0.074 A 
ATOM     40  C   UNL A   1      44.031  27.423  29.141  1.00  0.00     0.031 C 
ATOM     41  C   UNL A   1      37.622  29.966  28.881  1.00  0.00     0.029 A 
ATOM     42  C   UNL A   1      38.641  30.868  29.408  1.00  0.00     0.049 A 
ATOM     43  H   UNL A   1      40.683  30.506  29.590  1.00  0.00     0.167 HD
ATOM     44  C   UNL A   1      44.938  29.535  30.057  1.00  0.00     0.037 A 
ATOM     45  C   UNL A   1      38.420  32.113  29.871  1.00  0.00     0.037 A 
ATOM     46  C   UNL A   1      44.814  30.901  30.492  1.00  0.00     0.049 A 
ATOM     47  C   UNL A   1      39.587  32.931  30.357  1.00  0.00     0.074 A 
ATOM     48  C   UNL A   1      45.804  31.764  30.924  1.00  0.00     0.029 A 
ATOM     49  N   UNL A   1      43.618  31.603  30.546  1.00  0.00    -0.354 N 
ATOM     50  N   UNL A   1      40.854  32.602  30.432  1.00  0.00    -0.248 NA
ATOM     51  C   UNL A   1      39.294  34.296  30.810  1.00  0.00     0.031 C 
ATOM     52  C   UNL A   1      45.203  32.977  31.279  1.00  0.00     0.029 A 
ATOM     53  C   UNL A   1      43.845  32.887  31.017  1.00  0.00     0.049 A 
ATOM     54  H   UNL A   1      42.739  31.243  30.288  1.00  0.00     0.167 HD
ATOM     55  C   UNL A   1      41.513  33.726  30.911  1.00  0.00     0.074 A 
ATOM     56  C   UNL A   1      40.506  34.753  31.091  1.00  0.00     0.031 C 
ATOM     57  C   UNL A   1      42.831  33.897  31.180  1.00  0.00     0.037 A 
BRANCH  44  58
ATOM     58  C   UNL A   1      46.298  28.894  30.089  1.00  0.00     0.064 A 
ATOM     59  C   UNL A   1      47.164  28.949  28.986  1.00  0.00     0.173 A 
ATOM     60  C   UNL A   1      46.753  28.238  31.243  1.00  0.00     0.173 A 
ATOM     61  F   UNL A   1      46.775  29.552  27.851  1.00  0.00    -0.203 F 
ATOM     62  C   UNL A   1      48.417  28.343  29.023  1.00  0.00     0.198 A 
ATOM     63  C   UNL A   1      48.020  27.663  31.290  1.00  0.00     0.198 A 
ATOM     64  F   UNL A   1      45.969  28.159  32.330  1.00  0.00    -0.203 F 
ATOM     65  F   UNL A   1      49.201  28.360  27.937  1.00  0.00    -0.200 F 
ATOM     66  C   UNL A   1      48.848  27.708  30.178  1.00  0.00     0.200 A 
ATOM     67  F   UNL A   1      48.440  27.060  32.411  1.00  0.00    -0.200 F 
ATOM     68  F   UNL A   1      50.056  27.129  30.216  1.00  0.00    -0.200 F 
ENDBRANCH  44  58
BRANCH  45  69
ATOM     69  C   UNL A   1      37.042  32.674  29.870  1.00  0.00     0.064 A 
ATOM     70  C   UNL A   1      36.199  32.518  30.979  1.00  0.00     0.173 A 
ATOM     71  C   UNL A   1      36.539  33.370  28.762  1.00  0.00     0.173 A 
ATOM     72  F   UNL A   1      36.627  31.844  32.056  1.00  0.00    -0.203 F 
ATOM     73  C   UNL A   1      34.897  33.014  30.970  1.00  0.00     0.198 A 
ATOM     74  C   UNL A   1      35.247  33.893  28.765  1.00  0.00     0.198 A 
ATOM     75  F   UNL A   1      37.307  33.555  27.679  1.00  0.00    -0.203 F 
ATOM     76  F   UNL A   1      34.095  32.806  32.023  1.00  0.00    -0.200 F 
ATOM     77  C   UNL A   1      34.424  33.706  29.865  1.00  0.00     0.200 A 
ATOM     78  F   UNL A   1      34.801  34.576  27.703  1.00  0.00    -0.200 F 
ATOM     79  F   UNL A   1      33.172  34.186  29.857  1.00  0.00    -0.200 F 
ENDBRANCH  45  69
BRANCH  57  80
ATOM     80  C   UNL A   1      43.265  35.252  31.656  1.00  0.00     0.064 A 
ATOM     81  C   UNL A   1      43.244  35.600  33.014  1.00  0.00     0.173 A 
ATOM     82  C   UNL A   1      43.736  36.206  30.741  1.00  0.00     0.173 A 
ATOM     83  F   UNL A   1      42.790  34.730  33.928  1.00  0.00    -0.203 F 
ATOM     84  C   UNL A   1      43.646  36.866  33.434  1.00  0.00     0.198 A 
ATOM     85  C   UNL A   1      44.170  37.457  31.167  1.00  0.00     0.198 A 
ATOM     86  F   UNL A   1      43.786  35.920  29.430  1.00  0.00    -0.203 F 
ATOM     87  F   UNL A   1      43.564  37.196  34.730  1.00  0.00    -0.200 F 
ATOM     88  C   UNL A   1      44.115  37.790  32.512  1.00  0.00     0.200 A 
ATOM     89  F   UNL A   1      44.638  38.343  30.277  1.00  0.00    -0.200 F 
ATOM     90  F   UNL A   1      44.507  39.004  32.920  1.00  0.00    -0.200 F 
ENDBRANCH  57  80
ENDBRANCH  31  32
ENDBRANCH  23  26
ENDBRANCH  21  22
ENDBRANCH  20  21
ENDBRANCH  19  20
ENDBRANCH   3  19
TORSDOF 16
ENDMDL
MODEL 2
REMARK VINA RESULT:     -10.4      3.631      6.047
REMARK SMILES C[NH+](C)Cc1noc(CCCCC(=O)NCCCNC(=O)c2ccc(-c3c4nc(c(-c5c(F)c(F)c(F)c(F)c5F)c5ccc([nH]5)c(-c5c(F)c(F)c(F)c(F)c5F)c5nc(c(-c6c(F)c(F)c(F)c(F)c6F)c6ccc3[nH]6)C=C5)C=C4)cc2)n1
REMARK SMILES IDX 13 1 14 2 15 3 12 5 11 6 10 7 9 8 8 9 5 10 6 11 85 12 7 13
REMARK SMILES IDX 4 14 2 15 1 16 3 17 16 19 17 20 18 21 19 22 20 23 21 25
REMARK SMILES IDX 22 26 23 27 84 28 24 29 83 30 25 31 26 32 27 33 77 34 28 35
REMARK SMILES IDX 82 36 76 37 78 38 29 39 81 40 75 41 74 42 30 44 62 45 42 46
REMARK SMILES IDX 61 47 43 48 46 49 60 50 79 51 44 52 45 53 59 55 80 56 47 57
REMARK SMILES IDX 31 58 32 59 40 60 33 61 34 62 38 63 41 64 35 65 36 66 39 67
REMARK SMILES IDX 37 68 63 69 64 70 72 71 65 72 66 73 70 74 73 75 67 76 68 77
REMARK SMILES IDX 71 78 69 79 48 80 49 81 57 82 50 83 51 84 55 85 58 86 52 87
REMARK SMILES IDX 53 88 56 89 54 90
REMARK H PARENT 15 4 2 18 19 24 78 43 46 54
REMARK Flexibility Score: inf
ROOT
ATOM      1  C   UNL A   1      44.007  23.093  29.376  1.00  0.00     0.219 C 
ATOM      2  O   UNL A   1      44.051  23.652  30.473  1.00  0.00    -0.275 OA
ATOM      3  N   UNL A   1      42.973  22.239  29.135  1.00  0.00    -0.356 N 
ATOM      4  H   UNL A   1      42.289  22.208  29.843  1.00  0.00     0.163 HD
ENDROOT
BRANCH   1   5
ATOM      5  C   UNL A   1      45.063  23.362  28.320  1.00  0.00     0.100 C 
BRANCH   5   6
ATOM      6  C   UNL A   1      44.830  24.643  27.515  1.00  0.00     0.010 C 
BRANCH   6   7
ATOM      7  C   UNL A   1      43.724  24.621  26.451  1.00  0.00     0.010 C 
BRANCH   7   8
ATOM      8  C   UNL A   1      44.161  24.416  25.000  1.00  0.00     0.100 C 
BRANCH   8   9
ATOM      9  C   UNL A   1      44.738  23.082  24.748  1.00  0.00     0.226 A 
ATOM     10  C   UNL A   1      45.202  21.105  24.248  1.00  0.00     0.226 A 
ATOM     11  N   UNL A   1      46.383  21.631  24.610  1.00  0.00    -0.056 NA
ATOM     12  N   UNL A   1      44.150  21.991  24.317  1.00  0.00    -0.191 NA
ATOM     13  O   UNL A   1      46.077  22.943  24.932  1.00  0.00    -0.339 OA
BRANCH  10  14
ATOM     14  C   UNL A   1      44.991  19.700  23.761  1.00  0.00     0.344 C 
BRANCH  14  15
ATOM     15  N   UNL A   1      44.854  18.631  24.771  1.00  0.00    -0.333 N 
ATOM     16  C   UNL A   1      46.029  18.490  25.624  1.00  0.00     0.332 C 
ATOM     17  C   UNL A   1      43.622  18.736  25.547  1.00  0.00     0.332 C 
ATOM     18  H   UNL A   1      44.786  17.765  24.235  1.00  0.00     0.348 HD
ENDBRANCH  14  15
ENDBRANCH  10  14
ENDBRANCH   8   9
ENDBRANCH   7   8
ENDBRANCH   6   7
ENDBRANCH   5   6
ENDBRANCH   1   5
BRANCH   3  19
ATOM     19  C   UNL A   1      42.721  21.368  28.004  1.00  0.00     0.117 C 
BRANCH  19  20
ATOM     20  C   UNL A   1      41.277  21.496  27.532  1.00  0.00     0.042 C 
BRANCH  20  21
ATOM     21  C   UNL A   1      41.138  22.103  26.148  1.00  0.00     0.118 C 
BRANCH  21  22
ATOM     22  N   UNL A   1      39.748  22.286  25.769  1.00  0.00    -0.352 N 
ATOM     23  C   UNL A   1      38.855  23.265  26.129  1.00  0.00     0.251 C 
ATOM     24  H   UNL A   1      39.390  21.601  25.159  1.00  0.00     0.163 HD
ATOM     25  O   UNL A   1      37.669  23.122  25.849  1.00  0.00    -0.269 OA
BRANCH  23  26
ATOM     26  C   UNL A   1      39.297  24.476  26.863  1.00  0.00     0.039 A 
ATOM     27  C   UNL A   1      38.951  24.602  28.213  1.00  0.00     0.014 A 
ATOM     28  C   UNL A   1      40.001  25.507  26.237  1.00  0.00     0.014 A 
ATOM     29  C   UNL A   1      39.340  25.733  28.933  1.00  0.00     0.010 A 
ATOM     30  C   UNL A   1      40.481  26.582  26.980  1.00  0.00     0.010 A 
ATOM     31  C   UNL A   1      40.130  26.724  28.329  1.00  0.00    -0.014 A 
BRANCH  31  32
ATOM     32  C   UNL A   1      40.549  27.938  29.077  1.00  0.00     0.031 A 
ATOM     33  C   UNL A   1      41.954  28.048  29.607  1.00  0.00     0.074 A 
ATOM     34  C   UNL A   1      39.658  28.920  29.315  1.00  0.00     0.049 A 
ATOM     35  N   UNL A   1      42.500  28.999  30.325  1.00  0.00    -0.248 NA
ATOM     36  C   UNL A   1      42.861  26.925  29.321  1.00  0.00     0.031 C 
ATOM     37  C   UNL A   1      38.254  28.907  28.902  1.00  0.00     0.029 A 
ATOM     38  N   UNL A   1      39.801  30.119  29.969  1.00  0.00    -0.354 N 
ATOM     39  C   UNL A   1      43.799  28.580  30.584  1.00  0.00     0.074 A 
ATOM     40  C   UNL A   1      43.940  27.261  30.010  1.00  0.00     0.031 C 
ATOM     41  C   UNL A   1      37.672  30.054  29.286  1.00  0.00     0.029 A 
ATOM     42  C   UNL A   1      38.649  30.866  30.004  1.00  0.00     0.049 A 
ATOM     43  H   UNL A   1      40.647  30.414  30.375  1.00  0.00     0.167 HD
ATOM     44  C   UNL A   1      44.795  29.247  31.214  1.00  0.00     0.037 A 
ATOM     45  C   UNL A   1      38.410  32.072  30.554  1.00  0.00     0.037 A 
ATOM     46  C   UNL A   1      44.659  30.572  31.758  1.00  0.00     0.049 A 
ATOM     47  C   UNL A   1      39.537  32.798  31.240  1.00  0.00     0.074 A 
ATOM     48  C   UNL A   1      45.617  31.355  32.375  1.00  0.00     0.029 A 
ATOM     49  N   UNL A   1      43.484  31.310  31.746  1.00  0.00    -0.354 N 
ATOM     50  N   UNL A   1      40.778  32.418  31.423  1.00  0.00    -0.248 NA
ATOM     51  C   UNL A   1      39.232  34.128  31.784  1.00  0.00     0.031 C 
ATOM     52  C   UNL A   1      45.012  32.552  32.774  1.00  0.00     0.029 A 
ATOM     53  C   UNL A   1      43.691  32.537  32.357  1.00  0.00     0.049 A 
ATOM     54  H   UNL A   1      42.630  31.007  31.360  1.00  0.00     0.167 HD
ATOM     55  C   UNL A   1      41.409  33.469  32.074  1.00  0.00     0.074 A 
ATOM     56  C   UNL A   1      40.416  34.512  32.237  1.00  0.00     0.031 C 
ATOM     57  C   UNL A   1      42.693  33.565  32.501  1.00  0.00     0.037 A 
BRANCH  44  58
ATOM     58  C   UNL A   1      46.124  28.555  31.335  1.00  0.00     0.064 A 
ATOM     59  C   UNL A   1      47.106  28.669  30.338  1.00  0.00     0.173 A 
ATOM     60  C   UNL A   1      46.432  27.791  32.471  1.00  0.00     0.173 A 
ATOM     61  F   UNL A   1      46.860  29.376  29.225  1.00  0.00    -0.203 F 
ATOM     62  C   UNL A   1      48.330  28.015  30.457  1.00  0.00     0.198 A 
ATOM     63  C   UNL A   1      47.670  27.168  32.602  1.00  0.00     0.198 A 
ATOM     64  F   UNL A   1      45.533  27.653  33.457  1.00  0.00    -0.203 F 
ATOM     65  F   UNL A   1      49.228  28.092  29.465  1.00  0.00    -0.200 F 
ATOM     66  C   UNL A   1      48.615  27.272  31.592  1.00  0.00     0.200 A 
ATOM     67  F   UNL A   1      47.948  26.460  33.706  1.00  0.00    -0.200 F 
ATOM     68  F   UNL A   1      49.795  26.648  31.708  1.00  0.00    -0.200 F 
ENDBRANCH  44  58
BRANCH  45  69
ATOM     69  C   UNL A   1      37.058  32.682  30.454  1.00  0.00     0.064 A 
ATOM     70  C   UNL A   1      36.705  33.480  29.358  1.00  0.00     0.173 A 
ATOM     71  C   UNL A   1      36.094  32.484  31.453  1.00  0.00     0.173 A 
ATOM     72  F   UNL A   1      37.598  33.714  28.385  1.00  0.00    -0.203 F 
ATOM     73  C   UNL A   1      35.449  34.079  29.277  1.00  0.00     0.198 A 
ATOM     74  C   UNL A   1      34.827  33.058  31.356  1.00  0.00     0.198 A 
ATOM     75  F   UNL A   1      36.377  31.722  32.519  1.00  0.00    -0.203 F 
ATOM     76  F   UNL A   1      35.157  34.879  28.242  1.00  0.00    -0.200 F 
ATOM     77  C   UNL A   1      34.510  33.863  30.273  1.00  0.00     0.200 A 
ATOM     78  F   UNL A   1      33.917  32.832  32.313  1.00  0.00    -0.200 F 
ATOM     79  F   UNL A   1      33.301  34.437  30.193  1.00  0.00    -0.200 F 
ENDBRANCH  45  69
BRANCH  57  80
ATOM     80  C   UNL A   1      43.106  34.856  33.146  1.00  0.00     0.064 A 
ATOM     81  C   UNL A   1      43.564  35.946  32.392  1.00  0.00     0.173 A 
ATOM     82  C   UNL A   1      43.014  35.012  34.538  1.00  0.00     0.173 A 
ATOM     83  F   UNL A   1      43.683  35.843  31.060  1.00  0.00    -0.203 F 
ATOM     84  C   UNL A   1      43.947  37.133  33.011  1.00  0.00     0.198 A 
ATOM     85  C   UNL A   1      43.366  36.211  35.150  1.00  0.00     0.198 A 
ATOM     86  F   UNL A   1      42.573  34.003  35.305  1.00  0.00    -0.203 F 
ATOM     87  F   UNL A   1      44.435  38.141  32.276  1.00  0.00    -0.200 F 
ATOM     88  C   UNL A   1      43.841  37.267  34.387  1.00  0.00     0.200 A 
ATOM     89  F   UNL A   1      43.247  36.345  36.478  1.00  0.00    -0.200 F 
ATOM     90  F   UNL A   1      44.205  38.412  34.979  1.00  0.00    -0.200 F 
ENDBRANCH  57  80
ENDBRANCH  31  32
ENDBRANCH  23  26
ENDBRANCH  21  22
ENDBRANCH  20  21
ENDBRANCH  19  20
ENDBRANCH   3  19
TORSDOF 16
ENDMDL
MODEL 3
REMARK VINA RESULT:     -10.3      3.172      8.622
REMARK SMILES C[NH+](C)Cc1noc(CCCCC(=O)NCCCNC(=O)c2ccc(-c3c4nc(c(-c5c(F)c(F)c(F)c(F)c5F)c5ccc([nH]5)c(-c5c(F)c(F)c(F)c(F)c5F)c5nc(c(-c6c(F)c(F)c(F)c(F)c6F)c6ccc3[nH]6)C=C5)C=C4)cc2)n1
REMARK SMILES IDX 13 1 14 2 15 3 12 5 11 6 10 7 9 8 8 9 5 10 6 11 85 12 7 13
REMARK SMILES IDX 4 14 2 15 1 16 3 17 16 19 17 20 18 21 19 22 20 23 21 25
REMARK SMILES IDX 22 26 23 27 84 28 24 29 83 30 25 31 26 32 27 33 77 34 28 35
REMARK SMILES IDX 82 36 76 37 78 38 29 39 81 40 75 41 74 42 30 44 62 45 42 46
REMARK SMILES IDX 61 47 43 48 46 49 60 50 79 51 44 52 45 53 59 55 80 56 47 57
REMARK SMILES IDX 31 58 32 59 40 60 33 61 34 62 38 63 41 64 35 65 36 66 39 67
REMARK SMILES IDX 37 68 63 69 64 70 72 71 65 72 66 73 70 74 73 75 67 76 68 77
REMARK SMILES IDX 71 78 69 79 48 80 49 81 57 82 50 83 51 84 55 85 58 86 52 87
REMARK SMILES IDX 53 88 56 89 54 90
REMARK H PARENT 15 4 2 18 19 24 78 43 46 54
REMARK Flexibility Score: inf
ROOT
ATOM      1  C   UNL A   1      37.433  23.095  25.759  1.00  0.00     0.219 C 
ATOM      2  O   UNL A   1      38.159  24.050  26.040  1.00  0.00    -0.275 OA
ATOM      3  N   UNL A   1      38.008  22.006  25.176  1.00  0.00    -0.356 N 
ATOM      4  H   UNL A   1      38.989  22.044  25.107  1.00  0.00     0.163 HD
ENDROOT
BRANCH   1   5
ATOM      5  C   UNL A   1      35.948  23.125  26.069  1.00  0.00     0.100 C 
BRANCH   5   6
ATOM      6  C   UNL A   1      35.130  24.008  25.123  1.00  0.00     0.010 C 
BRANCH   6   7
ATOM      7  C   UNL A   1      35.093  23.614  23.640  1.00  0.00     0.010 C 
BRANCH   7   8
ATOM      8  C   UNL A   1      33.762  23.093  23.094  1.00  0.00     0.100 C 
BRANCH   8   9
ATOM      9  C   UNL A   1      33.202  21.982  23.887  1.00  0.00     0.226 A 
ATOM     10  C   UNL A   1      32.752  20.234  24.942  1.00  0.00     0.226 A 
ATOM     11  N   UNL A   1      31.726  21.052  25.224  1.00  0.00    -0.056 NA
ATOM     12  N   UNL A   1      33.699  20.789  24.111  1.00  0.00    -0.191 NA
ATOM     13  O   UNL A   1      32.029  22.214  24.533  1.00  0.00    -0.339 OA
BRANCH  10  14
ATOM     14  C   UNL A   1      32.928  18.845  25.487  1.00  0.00     0.344 C 
BRANCH  14  15
ATOM     15  N   UNL A   1      32.352  17.722  24.720  1.00  0.00    -0.333 N 
ATOM     16  C   UNL A   1      32.787  17.692  23.328  1.00  0.00     0.332 C 
ATOM     17  C   UNL A   1      32.532  16.432  25.379  1.00  0.00     0.332 C 
ATOM     18  H   UNL A   1      31.348  17.900  24.701  1.00  0.00     0.348 HD
ENDBRANCH  14  15
ENDBRANCH  10  14
ENDBRANCH   8   9
ENDBRANCH   7   8
ENDBRANCH   6   7
ENDBRANCH   5   6
ENDBRANCH   1   5
BRANCH   3  19
ATOM     19  C   UNL A   1      37.404  20.801  24.640  1.00  0.00     0.117 C 
BRANCH  19  20
ATOM     20  C   UNL A   1      38.273  19.584  24.930  1.00  0.00     0.042 C 
BRANCH  20  21
ATOM     21  C   UNL A   1      39.191  19.759  26.126  1.00  0.00     0.118 C 
BRANCH  21  22
ATOM     22  N   UNL A   1      40.362  18.904  26.045  1.00  0.00    -0.352 N 
ATOM     23  C   UNL A   1      41.696  19.230  26.039  1.00  0.00     0.251 C 
ATOM     24  H   UNL A   1      40.171  17.940  25.984  1.00  0.00     0.163 HD
ATOM     25  O   UNL A   1      42.521  18.363  25.765  1.00  0.00    -0.269 OA
BRANCH  23  26
ATOM     26  C   UNL A   1      42.152  20.610  26.338  1.00  0.00     0.039 A 
ATOM     27  C   UNL A   1      42.466  21.456  25.269  1.00  0.00     0.014 A 
ATOM     28  C   UNL A   1      42.320  21.067  27.647  1.00  0.00     0.014 A 
ATOM     29  C   UNL A   1      42.909  22.758  25.512  1.00  0.00     0.010 A 
ATOM     30  C   UNL A   1      42.657  22.397  27.888  1.00  0.00     0.010 A 
ATOM     31  C   UNL A   1      42.985  23.249  26.825  1.00  0.00    -0.014 A 
BRANCH  31  32
ATOM     32  C   UNL A   1      43.460  24.629  27.106  1.00  0.00     0.031 A 
ATOM     33  C   UNL A   1      42.509  25.652  27.671  1.00  0.00     0.074 A 
ATOM     34  C   UNL A   1      44.728  24.975  26.814  1.00  0.00     0.049 A 
ATOM     35  N   UNL A   1      42.713  26.918  27.938  1.00  0.00    -0.248 NA
ATOM     36  C   UNL A   1      41.135  25.200  27.945  1.00  0.00     0.031 C 
ATOM     37  C   UNL A   1      45.729  24.092  26.213  1.00  0.00     0.029 A 
ATOM     38  N   UNL A   1      45.392  26.165  26.979  1.00  0.00    -0.354 N 
ATOM     39  C   UNL A   1      41.495  27.410  28.393  1.00  0.00     0.074 A 
ATOM     40  C   UNL A   1      40.541  26.328  28.300  1.00  0.00     0.031 C 
ATOM     41  C   UNL A   1      46.886  24.761  26.086  1.00  0.00     0.029 A 
ATOM     42  C   UNL A   1      46.700  26.128  26.561  1.00  0.00     0.049 A 
ATOM     43  H   UNL A   1      44.971  26.969  27.360  1.00  0.00     0.167 HD
ATOM     44  C   UNL A   1      41.206  28.641  28.876  1.00  0.00     0.037 A 
ATOM     45  C   UNL A   1      47.642  27.091  26.562  1.00  0.00     0.037 A 
ATOM     46  C   UNL A   1      42.166  29.706  28.994  1.00  0.00     0.049 A 
ATOM     47  C   UNL A   1      47.298  28.449  27.113  1.00  0.00     0.074 A 
ATOM     48  C   UNL A   1      41.988  30.976  29.512  1.00  0.00     0.029 A 
ATOM     49  N   UNL A   1      43.490  29.620  28.589  1.00  0.00    -0.354 N 
ATOM     50  N   UNL A   1      46.160  28.882  27.599  1.00  0.00    -0.248 NA
ATOM     51  C   UNL A   1      48.375  29.447  27.130  1.00  0.00     0.031 C 
ATOM     52  C   UNL A   1      43.194  31.674  29.382  1.00  0.00     0.029 A 
ATOM     53  C   UNL A   1      44.138  30.820  28.834  1.00  0.00     0.049 A 
ATOM     54  H   UNL A   1      43.907  28.824  28.187  1.00  0.00     0.167 HD
ATOM     55  C   UNL A   1      46.390  30.189  28.005  1.00  0.00     0.074 A 
ATOM     56  C   UNL A   1      47.784  30.472  27.726  1.00  0.00     0.031 C 
ATOM     57  C   UNL A   1      45.528  31.079  28.558  1.00  0.00     0.037 A 
BRANCH  44  58
ATOM     58  C   UNL A   1      39.793  28.896  29.324  1.00  0.00     0.064 A 
ATOM     59  C   UNL A   1      38.818  29.383  28.440  1.00  0.00     0.173 A 
ATOM     60  C   UNL A   1      39.402  28.626  30.644  1.00  0.00     0.173 A 
ATOM     61  F   UNL A   1      39.141  29.670  27.169  1.00  0.00    -0.203 F 
ATOM     62  C   UNL A   1      37.515  29.625  28.868  1.00  0.00     0.198 A 
ATOM     63  C   UNL A   1      38.090  28.837  31.060  1.00  0.00     0.198 A 
ATOM     64  F   UNL A   1      40.291  28.154  31.530  1.00  0.00    -0.203 F 
ATOM     65  F   UNL A   1      36.618  30.145  28.019  1.00  0.00    -0.200 F 
ATOM     66  C   UNL A   1      37.150  29.344  30.175  1.00  0.00     0.200 A 
ATOM     67  F   UNL A   1      37.735  28.552  32.321  1.00  0.00    -0.200 F 
ATOM     68  F   UNL A   1      35.895  29.571  30.586  1.00  0.00    -0.200 F 
ENDBRANCH  44  58
BRANCH  45  69
ATOM     69  C   UNL A   1      49.007  26.797  26.049  1.00  0.00     0.064 A 
ATOM     70  C   UNL A   1      49.998  26.278  26.893  1.00  0.00     0.173 A 
ATOM     71  C   UNL A   1      49.349  27.034  24.711  1.00  0.00     0.173 A 
ATOM     72  F   UNL A   1      49.725  26.051  28.186  1.00  0.00    -0.203 F 
ATOM     73  C   UNL A   1      51.287  26.032  26.425  1.00  0.00     0.198 A 
ATOM     74  C   UNL A   1      50.631  26.759  24.235  1.00  0.00     0.198 A 
ATOM     75  F   UNL A   1      48.436  27.522  23.859  1.00  0.00    -0.203 F 
ATOM     76  F   UNL A   1      52.229  25.585  27.266  1.00  0.00    -0.200 F 
ATOM     77  C   UNL A   1      51.601  26.268  25.095  1.00  0.00     0.200 A 
ATOM     78  F   UNL A   1      50.924  26.971  22.945  1.00  0.00    -0.200 F 
ATOM     79  F   UNL A   1      52.840  26.028  24.644  1.00  0.00    -0.200 F 
ENDBRANCH  45  69
BRANCH  57  80
ATOM     80  C   UNL A   1      46.078  32.423  28.935  1.00  0.00     0.064 A 
ATOM     81  C   UNL A   1      46.047  33.509  28.049  1.00  0.00     0.173 A 
ATOM     82  C   UNL A   1      46.616  32.634  30.214  1.00  0.00     0.173 A 
ATOM     83  F   UNL A   1      45.556  33.357  26.810  1.00  0.00    -0.203 F 
ATOM     84  C   UNL A   1      46.567  34.748  28.417  1.00  0.00     0.198 A 
ATOM     85  C   UNL A   1      47.103  33.882  30.590  1.00  0.00     0.198 A 
ATOM     86  F   UNL A   1      46.661  31.630  31.104  1.00  0.00    -0.203 F 
ATOM     87  F   UNL A   1      46.579  35.756  27.534  1.00  0.00    -0.200 F 
ATOM     88  C   UNL A   1      47.088  34.935  29.689  1.00  0.00     0.200 A 
ATOM     89  F   UNL A   1      47.591  34.065  31.825  1.00  0.00    -0.200 F 
ATOM     90  F   UNL A   1      47.581  36.129  30.042  1.00  0.00    -0.200 F 
ENDBRANCH  57  80
ENDBRANCH  31  32
ENDBRANCH  23  26
ENDBRANCH  21  22
ENDBRANCH  20  21
ENDBRANCH  19  20
ENDBRANCH   3  19
TORSDOF 16
ENDMDL
