MODEL 1
REMARK VINA RESULT:     -13.0      0.000      0.000
REMARK SMILES O=C(NCCCNC(=O)c1cccc(S(=O)(=O)Nc2ccccc2N2CCOCC2)c1)c1ccc(-c2c3nc(c(-c4c(F)c(F)c(F)c(F)c4F)c4ccc([nH]4)c(-c4c(F)c(F)c(F)c(F)c4F)c4nc(c(-c5c(F)c(F)c(F)c(F)c5F)c5ccc2[nH]5)C=C4)C=C3)cc1
REMARK SMILES IDX 6 1 5 2 4 3 3 4 1 5 2 6 32 8 33 9 94 10 34 11 93 12 35 13
REMARK SMILES IDX 36 14 37 15 87 16 38 17 92 18 86 19 88 20 39 21 91 22 85 23
REMARK SMILES IDX 84 24 40 26 72 27 52 28 71 29 53 30 56 31 70 32 89 33 54 34
REMARK SMILES IDX 55 35 69 37 90 38 57 39 41 40 42 41 50 42 43 43 44 44 48 45
REMARK SMILES IDX 51 46 45 47 46 48 49 49 47 50 73 51 74 52 82 53 75 54 76 55
REMARK SMILES IDX 80 56 83 57 77 58 78 59 81 60 79 61 58 62 59 63 67 64 60 65
REMARK SMILES IDX 61 66 65 67 68 68 62 69 63 70 66 71 64 72 7 73 8 74 9 76
REMARK SMILES IDX 10 77 11 78 31 79 12 80 14 81 13 82 15 83 16 84 17 85 18 86
REMARK SMILES IDX 19 88 20 89 24 90 21 91 23 92 22 93 25 94 26 95 30 96 27 97
REMARK SMILES IDX 29 98 28 99
REMARK H PARENT 3 7 88 25 56 36 7 75 18 87
REMARK Flexibility Score: inf
ROOT
ATOM      1  C   UNL A   1      33.928  34.310  27.944  1.00  0.00     0.118 C 
ENDROOT
BRANCH   1   2
ATOM      2  C   UNL A   1      33.261  34.579  29.280  1.00  0.00     0.042 C 
BRANCH   2   3
ATOM      3  C   UNL A   1      33.335  36.047  29.674  1.00  0.00     0.118 C 
BRANCH   3   4
ATOM      4  N   UNL A   1      32.480  36.377  30.808  1.00  0.00    -0.352 N 
ATOM      5  O   UNL A   1      31.609  36.253  32.879  1.00  0.00    -0.269 OA
ATOM      6  C   UNL A   1      32.542  35.990  32.126  1.00  0.00     0.251 C 
ATOM      7  H   UNL A   1      31.732  36.980  30.593  1.00  0.00     0.163 HD
BRANCH   6   8
ATOM      8  C   UNL A   1      33.701  35.218  32.631  1.00  0.00     0.039 A 
ATOM      9  C   UNL A   1      34.960  35.801  32.715  1.00  0.00     0.014 A 
ATOM     10  C   UNL A   1      33.529  33.893  33.043  1.00  0.00     0.014 A 
ATOM     11  C   UNL A   1      36.072  35.017  32.973  1.00  0.00     0.010 A 
ATOM     12  C   UNL A   1      34.634  33.140  33.460  1.00  0.00     0.010 A 
ATOM     13  C   UNL A   1      35.925  33.684  33.385  1.00  0.00    -0.014 A 
BRANCH  13  14
ATOM     14  C   UNL A   1      37.144  32.934  33.792  1.00  0.00     0.031 A 
ATOM     15  C   UNL A   1      37.823  31.973  32.857  1.00  0.00     0.074 A 
ATOM     16  C   UNL A   1      37.680  33.195  35.002  1.00  0.00     0.049 A 
ATOM     17  N   UNL A   1      38.918  31.279  33.048  1.00  0.00    -0.248 NA
ATOM     18  C   UNL A   1      37.193  31.747  31.548  1.00  0.00     0.031 C 
ATOM     19  C   UNL A   1      37.101  34.100  36.000  1.00  0.00     0.029 A 
ATOM     20  N   UNL A   1      38.848  32.773  35.583  1.00  0.00    -0.354 N 
ATOM     21  C   UNL A   1      39.084  30.509  31.904  1.00  0.00     0.074 A 
ATOM     22  C   UNL A   1      37.974  30.812  31.026  1.00  0.00     0.031 C 
ATOM     23  C   UNL A   1      37.957  34.240  37.020  1.00  0.00     0.029 A 
ATOM     24  C   UNL A   1      39.101  33.366  36.796  1.00  0.00     0.049 A 
ATOM     25  H   UNL A   1      39.448  32.110  35.170  1.00  0.00     0.167 HD
ATOM     26  C   UNL A   1      40.077  29.632  31.617  1.00  0.00     0.037 A 
ATOM     27  C   UNL A   1      40.133  33.216  37.647  1.00  0.00     0.037 A 
ATOM     28  C   UNL A   1      41.201  29.367  32.479  1.00  0.00     0.049 A 
ATOM     29  C   UNL A   1      41.226  32.254  37.291  1.00  0.00     0.074 A 
ATOM     30  C   UNL A   1      42.271  28.515  32.267  1.00  0.00     0.029 A 
ATOM     31  N   UNL A   1      41.402  29.958  33.719  1.00  0.00    -0.354 N 
ATOM     32  N   UNL A   1      41.365  31.530  36.208  1.00  0.00    -0.248 NA
ATOM     33  C   UNL A   1      42.293  32.075  38.282  1.00  0.00     0.031 C 
ATOM     34  C   UNL A   1      43.103  28.566  33.390  1.00  0.00     0.029 A 
ATOM     35  C   UNL A   1      42.572  29.478  34.287  1.00  0.00     0.049 A 
ATOM     36  H   UNL A   1      40.802  30.620  34.132  1.00  0.00     0.167 HD
ATOM     37  C   UNL A   1      42.533  30.806  36.386  1.00  0.00     0.074 A 
ATOM     38  C   UNL A   1      43.081  31.204  37.667  1.00  0.00     0.031 C 
ATOM     39  C   UNL A   1      43.095  29.884  35.567  1.00  0.00     0.037 A 
BRANCH  26  40
ATOM     40  C   UNL A   1      39.986  28.873  30.325  1.00  0.00     0.064 A 
ATOM     41  C   UNL A   1      40.523  29.376  29.132  1.00  0.00     0.173 A 
ATOM     42  C   UNL A   1      39.394  27.601  30.294  1.00  0.00     0.173 A 
ATOM     43  F   UNL A   1      41.088  30.593  29.106  1.00  0.00    -0.203 F 
ATOM     44  C   UNL A   1      40.456  28.641  27.950  1.00  0.00     0.198 A 
ATOM     45  C   UNL A   1      39.350  26.859  29.116  1.00  0.00     0.198 A 
ATOM     46  F   UNL A   1      38.869  27.072  31.408  1.00  0.00    -0.203 F 
ATOM     47  F   UNL A   1      40.946  29.156  26.813  1.00  0.00    -0.200 F 
ATOM     48  C   UNL A   1      39.877  27.381  27.944  1.00  0.00     0.200 A 
ATOM     49  F   UNL A   1      38.799  25.637  29.116  1.00  0.00    -0.200 F 
ATOM     50  F   UNL A   1      39.821  26.672  26.809  1.00  0.00    -0.200 F 
ENDBRANCH  26  40
BRANCH  27  51
ATOM     51  C   UNL A   1      40.159  33.989  38.914  1.00  0.00     0.064 A 
ATOM     52  C   UNL A   1      39.528  33.507  40.068  1.00  0.00     0.173 A 
ATOM     53  C   UNL A   1      40.849  35.207  39.008  1.00  0.00     0.173 A 
ATOM     54  F   UNL A   1      38.841  32.356  40.024  1.00  0.00    -0.203 F 
ATOM     55  C   UNL A   1      39.581  34.216  41.266  1.00  0.00     0.198 A 
ATOM     56  C   UNL A   1      40.928  35.899  40.214  1.00  0.00     0.198 A 
ATOM     57  F   UNL A   1      41.477  35.707  37.934  1.00  0.00    -0.203 F 
ATOM     58  F   UNL A   1      38.942  33.749  42.348  1.00  0.00    -0.200 F 
ATOM     59  C   UNL A   1      40.289  35.407  41.341  1.00  0.00     0.200 A 
ATOM     60  F   UNL A   1      41.631  37.038  40.284  1.00  0.00    -0.200 F 
ATOM     61  F   UNL A   1      40.355  36.079  42.497  1.00  0.00    -0.200 F 
ENDBRANCH  27  51
BRANCH  39  62
ATOM     62  C   UNL A   1      44.370  29.255  36.036  1.00  0.00     0.064 A 
ATOM     63  C   UNL A   1      45.614  29.848  35.774  1.00  0.00     0.173 A 
ATOM     64  C   UNL A   1      44.349  28.058  36.764  1.00  0.00     0.173 A 
ATOM     65  F   UNL A   1      45.684  30.985  35.064  1.00  0.00    -0.203 F 
ATOM     66  C   UNL A   1      46.794  29.250  36.204  1.00  0.00     0.198 A 
ATOM     67  C   UNL A   1      45.529  27.474  37.213  1.00  0.00     0.198 A 
ATOM     68  F   UNL A   1      43.182  27.455  37.039  1.00  0.00    -0.203 F 
ATOM     69  F   UNL A   1      47.975  29.807  35.903  1.00  0.00    -0.200 F 
ATOM     70  C   UNL A   1      46.750  28.066  36.928  1.00  0.00     0.200 A 
ATOM     71  F   UNL A   1      45.485  26.335  37.918  1.00  0.00    -0.200 F 
ATOM     72  F   UNL A   1      47.887  27.490  37.339  1.00  0.00    -0.200 F 
ENDBRANCH  39  62
ENDBRANCH  13  14
ENDBRANCH   6   8
ENDBRANCH   3   4
ENDBRANCH   2   3
ENDBRANCH   1   2
BRANCH   1  73
ATOM     73  N   UNL A   1      35.378  34.190  28.074  1.00  0.00    -0.352 N 
ATOM     74  C   UNL A   1      36.171  33.079  28.187  1.00  0.00     0.251 C 
ATOM     75  H   UNL A   1      35.863  35.046  28.082  1.00  0.00     0.163 HD
ATOM     76  O   UNL A   1      37.360  33.214  28.467  1.00  0.00    -0.269 OA
BRANCH  74  77
ATOM     77  C   UNL A   1      35.633  31.731  27.918  1.00  0.00     0.041 A 
ATOM     78  C   UNL A   1      36.461  30.611  28.011  1.00  0.00     0.014 A 
ATOM     79  C   UNL A   1      34.334  31.584  27.443  1.00  0.00     0.036 A 
ATOM     80  C   UNL A   1      35.966  29.352  27.655  1.00  0.00     0.002 A 
ATOM     81  C   UNL A   1      33.847  30.342  27.053  1.00  0.00     0.088 A 
ATOM     82  C   UNL A   1      34.656  29.212  27.175  1.00  0.00     0.022 A 
BRANCH  81  83
ATOM     83  S   UNL A   1      32.147  30.245  26.558  1.00  0.00     0.261 S 
ATOM     84  O   UNL A   1      31.554  29.114  27.246  1.00  0.00    -0.201 OA
ATOM     85  O   UNL A   1      31.583  31.569  26.714  1.00  0.00    -0.201 OA
BRANCH  83  86
ATOM     86  N   UNL A   1      32.114  29.838  24.911  1.00  0.00    -0.278 N 
ATOM     87  H   UNL A   1      32.942  29.851  24.377  1.00  0.00     0.180 HD
BRANCH  86  88
ATOM     88  C   UNL A   1      30.858  29.475  24.304  1.00  0.00     0.072 A 
ATOM     89  C   UNL A   1      29.933  30.469  23.966  1.00  0.00     0.029 A 
ATOM     90  C   UNL A   1      30.634  28.116  23.954  1.00  0.00     0.061 A 
ATOM     91  C   UNL A   1      28.785  30.134  23.247  1.00  0.00     0.002 A 
ATOM     92  C   UNL A   1      29.483  27.816  23.213  1.00  0.00     0.028 A 
ATOM     93  C   UNL A   1      28.564  28.812  22.866  1.00  0.00     0.002 A 
BRANCH  90  94
ATOM     94  N   UNL A   1      31.546  27.136  24.305  1.00  0.00    -0.365 N 
ATOM     95  C   UNL A   1      31.197  26.230  25.410  1.00  0.00     0.145 C 
ATOM     96  C   UNL A   1      32.537  26.584  23.376  1.00  0.00     0.145 C 
ATOM     97  C   UNL A   1      32.482  25.821  26.139  1.00  0.00     0.181 C 
ATOM     98  C   UNL A   1      33.773  26.142  24.185  1.00  0.00     0.181 C 
ATOM     99  O   UNL A   1      33.425  25.218  25.234  1.00  0.00    -0.378 OA
ENDBRANCH  90  94
ENDBRANCH  86  88
ENDBRANCH  83  86
ENDBRANCH  81  83
ENDBRANCH  74  77
ENDBRANCH   1  73
TORSDOF 14
ENDMDL
MODEL 2
REMARK VINA RESULT:     -13.0      2.321      7.944
REMARK SMILES O=C(NCCCNC(=O)c1cccc(S(=O)(=O)Nc2ccccc2N2CCOCC2)c1)c1ccc(-c2c3nc(c(-c4c(F)c(F)c(F)c(F)c4F)c4ccc([nH]4)c(-c4c(F)c(F)c(F)c(F)c4F)c4nc(c(-c5c(F)c(F)c(F)c(F)c5F)c5ccc2[nH]5)C=C4)C=C3)cc1
REMARK SMILES IDX 6 1 5 2 4 3 3 4 1 5 2 6 32 8 33 9 94 10 34 11 93 12 35 13
REMARK SMILES IDX 36 14 37 15 87 16 38 17 92 18 86 19 88 20 39 21 91 22 85 23
REMARK SMILES IDX 84 24 40 26 72 27 52 28 71 29 53 30 56 31 70 32 89 33 54 34
REMARK SMILES IDX 55 35 69 37 90 38 57 39 41 40 42 41 50 42 43 43 44 44 48 45
REMARK SMILES IDX 51 46 45 47 46 48 49 49 47 50 73 51 74 52 82 53 75 54 76 55
REMARK SMILES IDX 80 56 83 57 77 58 78 59 81 60 79 61 58 62 59 63 67 64 60 65
REMARK SMILES IDX 61 66 65 67 68 68 62 69 63 70 66 71 64 72 7 73 8 74 9 76
REMARK SMILES IDX 10 77 11 78 31 79 12 80 14 81 13 82 15 83 16 84 17 85 18 86
REMARK SMILES IDX 19 88 20 89 24 90 21 91 23 92 22 93 25 94 26 95 30 96 27 97
REMARK SMILES IDX 29 98 28 99
REMARK H PARENT 3 7 88 25 56 36 7 75 18 87
REMARK Flexibility Score: inf
ROOT
ATOM      1  C   UNL A   1      31.474  30.925  26.380  1.00  0.00     0.118 C 
ENDROOT
BRANCH   1   2
ATOM      2  C   UNL A   1      31.383  32.432  26.530  1.00  0.00     0.042 C 
BRANCH   2   3
ATOM      3  C   UNL A   1      32.603  33.014  27.229  1.00  0.00     0.118 C 
BRANCH   3   4
ATOM      4  N   UNL A   1      32.388  34.371  27.717  1.00  0.00    -0.352 N 
ATOM      5  O   UNL A   1      32.528  36.150  29.088  1.00  0.00    -0.269 OA
ATOM      6  C   UNL A   1      32.990  35.068  28.738  1.00  0.00     0.251 C 
ATOM      7  H   UNL A   1      31.693  34.874  27.233  1.00  0.00     0.163 HD
BRANCH   6   8
ATOM      8  C   UNL A   1      34.161  34.502  29.446  1.00  0.00     0.039 A 
ATOM      9  C   UNL A   1      35.442  34.635  28.921  1.00  0.00     0.014 A 
ATOM     10  C   UNL A   1      33.984  33.839  30.665  1.00  0.00     0.014 A 
ATOM     11  C   UNL A   1      36.493  33.918  29.468  1.00  0.00     0.010 A 
ATOM     12  C   UNL A   1      35.080  33.248  31.306  1.00  0.00     0.010 A 
ATOM     13  C   UNL A   1      36.340  33.244  30.688  1.00  0.00    -0.014 A 
BRANCH  13  14
ATOM     14  C   UNL A   1      37.540  32.616  31.302  1.00  0.00     0.031 A 
ATOM     15  C   UNL A   1      37.969  32.947  32.704  1.00  0.00     0.074 A 
ATOM     16  C   UNL A   1      38.199  31.674  30.597  1.00  0.00     0.049 A 
ATOM     17  N   UNL A   1      38.965  32.451  33.396  1.00  0.00    -0.248 NA
ATOM     18  C   UNL A   1      37.196  33.972  33.421  1.00  0.00     0.031 C 
ATOM     19  C   UNL A   1      37.883  31.279  29.222  1.00  0.00     0.029 A 
ATOM     20  N   UNL A   1      39.233  30.842  30.946  1.00  0.00    -0.354 N 
ATOM     21  C   UNL A   1      38.961  33.129  34.609  1.00  0.00     0.074 A 
ATOM     22  C   UNL A   1      37.871  34.079  34.558  1.00  0.00     0.031 C 
ATOM     23  C   UNL A   1      38.633  30.224  28.880  1.00  0.00     0.029 A 
ATOM     24  C   UNL A   1      39.548  29.925  29.973  1.00  0.00     0.049 A 
ATOM     25  H   UNL A   1      39.703  30.897  31.810  1.00  0.00     0.167 HD
ATOM     26  C   UNL A   1      39.794  32.967  35.665  1.00  0.00     0.037 A 
ATOM     27  C   UNL A   1      40.481  28.956  29.952  1.00  0.00     0.037 A 
ATOM     28  C   UNL A   1      40.852  31.990  35.724  1.00  0.00     0.049 A 
ATOM     29  C   UNL A   1      41.373  28.789  31.145  1.00  0.00     0.074 A 
ATOM     30  C   UNL A   1      41.733  31.731  36.760  1.00  0.00     0.029 A 
ATOM     31  N   UNL A   1      41.166  31.104  34.703  1.00  0.00    -0.354 N 
ATOM     32  N   UNL A   1      41.360  29.441  32.281  1.00  0.00    -0.248 NA
ATOM     33  C   UNL A   1      42.419  27.764  31.046  1.00  0.00     0.031 C 
ATOM     34  C   UNL A   1      42.600  30.712  36.354  1.00  0.00     0.029 A 
ATOM     35  C   UNL A   1      42.237  30.309  35.080  1.00  0.00     0.049 A 
ATOM     36  H   UNL A   1      40.698  31.050  33.839  1.00  0.00     0.167 HD
ATOM     37  C   UNL A   1      42.396  28.911  33.033  1.00  0.00     0.074 A 
ATOM     38  C   UNL A   1      42.995  27.859  32.237  1.00  0.00     0.031 C 
ATOM     39  C   UNL A   1      42.821  29.272  34.268  1.00  0.00     0.037 A 
BRANCH  26  40
ATOM     40  C   UNL A   1      39.613  33.881  36.843  1.00  0.00     0.064 A 
ATOM     41  C   UNL A   1      38.841  33.514  37.954  1.00  0.00     0.173 A 
ATOM     42  C   UNL A   1      40.264  35.124  36.878  1.00  0.00     0.173 A 
ATOM     43  F   UNL A   1      38.189  32.341  37.964  1.00  0.00    -0.203 F 
ATOM     44  C   UNL A   1      38.713  34.364  39.050  1.00  0.00     0.198 A 
ATOM     45  C   UNL A   1      40.153  35.962  37.985  1.00  0.00     0.198 A 
ATOM     46  F   UNL A   1      41.019  35.522  35.843  1.00  0.00    -0.203 F 
ATOM     47  F   UNL A   1      37.942  34.007  40.086  1.00  0.00    -0.200 F 
ATOM     48  C   UNL A   1      39.374  35.583  39.068  1.00  0.00     0.200 A 
ATOM     49  F   UNL A   1      40.802  37.134  38.005  1.00  0.00    -0.200 F 
ATOM     50  F   UNL A   1      39.256  36.396  40.127  1.00  0.00    -0.200 F 
ENDBRANCH  26  40
BRANCH  27  51
ATOM     51  C   UNL A   1      40.616  28.091  28.753  1.00  0.00     0.064 A 
ATOM     52  C   UNL A   1      39.933  26.872  28.661  1.00  0.00     0.173 A 
ATOM     53  C   UNL A   1      41.401  28.485  27.658  1.00  0.00     0.173 A 
ATOM     54  F   UNL A   1      39.185  26.444  29.688  1.00  0.00    -0.203 F 
ATOM     55  C   UNL A   1      40.034  26.076  27.522  1.00  0.00     0.198 A 
ATOM     56  C   UNL A   1      41.476  27.703  26.508  1.00  0.00     0.198 A 
ATOM     57  F   UNL A   1      42.068  29.647  27.694  1.00  0.00    -0.203 F 
ATOM     58  F   UNL A   1      39.395  24.898  27.471  1.00  0.00    -0.200 F 
ATOM     59  C   UNL A   1      40.797  26.496  26.442  1.00  0.00     0.200 A 
ATOM     60  F   UNL A   1      42.198  28.125  25.461  1.00  0.00    -0.200 F 
ATOM     61  F   UNL A   1      40.880  25.739  25.341  1.00  0.00    -0.200 F 
ENDBRANCH  27  51
BRANCH  39  62
ATOM     62  C   UNL A   1      43.984  28.513  34.828  1.00  0.00     0.064 A 
ATOM     63  C   UNL A   1      45.300  28.963  34.652  1.00  0.00     0.173 A 
ATOM     64  C   UNL A   1      43.780  27.334  35.558  1.00  0.00     0.173 A 
ATOM     65  F   UNL A   1      45.544  30.076  33.943  1.00  0.00    -0.203 F 
ATOM     66  C   UNL A   1      46.375  28.244  35.166  1.00  0.00     0.198 A 
ATOM     67  C   UNL A   1      44.855  26.630  36.092  1.00  0.00     0.198 A 
ATOM     68  F   UNL A   1      42.539  26.866  35.754  1.00  0.00    -0.203 F 
ATOM     69  F   UNL A   1      47.628  28.665  34.945  1.00  0.00    -0.200 F 
ATOM     70  C   UNL A   1      46.151  27.082  35.890  1.00  0.00     0.200 A 
ATOM     71  F   UNL A   1      44.638  25.512  36.797  1.00  0.00    -0.200 F 
ATOM     72  F   UNL A   1      47.187  26.390  36.383  1.00  0.00    -0.200 F 
ENDBRANCH  39  62
ENDBRANCH  13  14
ENDBRANCH   6   8
ENDBRANCH   3   4
ENDBRANCH   2   3
ENDBRANCH   1   2
BRANCH   1  73
ATOM     73  N   UNL A   1      31.112  30.489  25.034  1.00  0.00    -0.352 N 
ATOM     74  C   UNL A   1      31.424  29.341  24.357  1.00  0.00     0.251 C 
ATOM     75  H   UNL A   1      30.554  31.125  24.531  1.00  0.00     0.163 HD
ATOM     76  O   UNL A   1      31.163  29.256  23.160  1.00  0.00    -0.269 OA
BRANCH  74  77
ATOM     77  C   UNL A   1      32.014  28.182  25.058  1.00  0.00     0.041 A 
ATOM     78  C   UNL A   1      33.384  28.141  25.322  1.00  0.00     0.014 A 
ATOM     79  C   UNL A   1      31.229  27.069  25.340  1.00  0.00     0.036 A 
ATOM     80  C   UNL A   1      33.946  26.995  25.895  1.00  0.00     0.002 A 
ATOM     81  C   UNL A   1      31.786  25.914  25.876  1.00  0.00     0.088 A 
ATOM     82  C   UNL A   1      33.148  25.876  26.174  1.00  0.00     0.022 A 
BRANCH  81  83
ATOM     83  S   UNL A   1      30.685  24.588  26.293  1.00  0.00     0.261 S 
ATOM     84  O   UNL A   1      31.337  23.780  27.305  1.00  0.00    -0.201 OA
ATOM     85  O   UNL A   1      29.389  25.179  26.557  1.00  0.00    -0.201 OA
BRANCH  83  86
ATOM     86  N   UNL A   1      30.549  23.584  24.931  1.00  0.00    -0.278 N 
ATOM     87  H   UNL A   1      29.962  22.793  24.951  1.00  0.00     0.180 HD
BRANCH  86  88
ATOM     88  C   UNL A   1      31.306  23.905  23.747  1.00  0.00     0.072 A 
ATOM     89  C   UNL A   1      30.904  24.966  22.928  1.00  0.00     0.029 A 
ATOM     90  C   UNL A   1      32.517  23.206  23.498  1.00  0.00     0.061 A 
ATOM     91  C   UNL A   1      31.715  25.369  21.867  1.00  0.00     0.002 A 
ATOM     92  C   UNL A   1      33.320  23.650  22.439  1.00  0.00     0.028 A 
ATOM     93  C   UNL A   1      32.923  24.718  21.627  1.00  0.00     0.002 A 
BRANCH  90  94
ATOM     94  N   UNL A   1      32.901  22.147  24.304  1.00  0.00    -0.365 N 
ATOM     95  C   UNL A   1      32.620  20.782  23.833  1.00  0.00     0.145 C 
ATOM     96  C   UNL A   1      33.997  22.226  25.275  1.00  0.00     0.145 C 
ATOM     97  C   UNL A   1      32.359  19.884  25.048  1.00  0.00     0.181 C 
ATOM     98  C   UNL A   1      33.695  21.256  26.434  1.00  0.00     0.181 C 
ATOM     99  O   UNL A   1      33.469  19.913  25.965  1.00  0.00    -0.378 OA
ENDBRANCH  90  94
ENDBRANCH  86  88
ENDBRANCH  83  86
ENDBRANCH  81  83
ENDBRANCH  74  77
ENDBRANCH   1  73
TORSDOF 14
ENDMDL
MODEL 3
REMARK VINA RESULT:     -12.9      6.629     11.360
REMARK SMILES O=C(NCCCNC(=O)c1cccc(S(=O)(=O)Nc2ccccc2N2CCOCC2)c1)c1ccc(-c2c3nc(c(-c4c(F)c(F)c(F)c(F)c4F)c4ccc([nH]4)c(-c4c(F)c(F)c(F)c(F)c4F)c4nc(c(-c5c(F)c(F)c(F)c(F)c5F)c5ccc2[nH]5)C=C4)C=C3)cc1
REMARK SMILES IDX 6 1 5 2 4 3 3 4 1 5 2 6 32 8 33 9 94 10 34 11 93 12 35 13
REMARK SMILES IDX 36 14 37 15 87 16 38 17 92 18 86 19 88 20 39 21 91 22 85 23
REMARK SMILES IDX 84 24 40 26 72 27 52 28 71 29 53 30 56 31 70 32 89 33 54 34
REMARK SMILES IDX 55 35 69 37 90 38 57 39 41 40 42 41 50 42 43 43 44 44 48 45
REMARK SMILES IDX 51 46 45 47 46 48 49 49 47 50 73 51 74 52 82 53 75 54 76 55
REMARK SMILES IDX 80 56 83 57 77 58 78 59 81 60 79 61 58 62 59 63 67 64 60 65
REMARK SMILES IDX 61 66 65 67 68 68 62 69 63 70 66 71 64 72 7 73 8 74 9 76
REMARK SMILES IDX 10 77 11 78 31 79 12 80 14 81 13 82 15 83 16 84 17 85 18 86
REMARK SMILES IDX 19 88 20 89 24 90 21 91 23 92 22 93 25 94 26 95 30 96 27 97
REMARK SMILES IDX 29 98 28 99
REMARK H PARENT 3 7 88 25 56 36 7 75 18 87
REMARK Flexibility Score: inf
ROOT
ATOM      1  C   UNL A   1      37.362  20.323  24.773  1.00  0.00     0.118 C 
ENDROOT
BRANCH   1   2
ATOM      2  C   UNL A   1      38.342  19.228  25.148  1.00  0.00     0.042 C 
BRANCH   2   3
ATOM      3  C   UNL A   1      39.536  19.765  25.923  1.00  0.00     0.118 C 
BRANCH   3   4
ATOM      4  N   UNL A   1      40.664  18.841  25.947  1.00  0.00    -0.352 N 
ATOM      5  O   UNL A   1      42.803  18.147  25.874  1.00  0.00    -0.269 OA
ATOM      6  C   UNL A   1      42.016  19.072  26.050  1.00  0.00     0.251 C 
ATOM      7  H   UNL A   1      40.415  17.891  25.877  1.00  0.00     0.163 HD
BRANCH   6   8
ATOM      8  C   UNL A   1      42.528  20.434  26.324  1.00  0.00     0.039 A 
ATOM      9  C   UNL A   1      42.603  20.916  27.626  1.00  0.00     0.014 A 
ATOM     10  C   UNL A   1      42.956  21.243  25.267  1.00  0.00     0.014 A 
ATOM     11  C   UNL A   1      42.869  22.256  27.855  1.00  0.00     0.010 A 
ATOM     12  C   UNL A   1      43.381  22.554  25.516  1.00  0.00     0.010 A 
ATOM     13  C   UNL A   1      43.298  23.088  26.810  1.00  0.00    -0.014 A 
BRANCH  13  14
ATOM     14  C   UNL A   1      43.712  24.477  27.141  1.00  0.00     0.031 A 
ATOM     15  C   UNL A   1      45.091  24.983  26.821  1.00  0.00     0.074 A 
ATOM     16  C   UNL A   1      42.790  25.310  27.668  1.00  0.00     0.049 A 
ATOM     17  N   UNL A   1      45.588  26.181  27.005  1.00  0.00    -0.248 NA
ATOM     18  C   UNL A   1      46.040  24.027  26.234  1.00  0.00     0.031 C 
ATOM     19  C   UNL A   1      41.424  24.927  28.034  1.00  0.00     0.029 A 
ATOM     20  N   UNL A   1      42.838  26.653  27.942  1.00  0.00    -0.354 N 
ATOM     21  C   UNL A   1      46.913  26.111  26.594  1.00  0.00     0.074 A 
ATOM     22  C   UNL A   1      47.148  24.751  26.160  1.00  0.00     0.031 C 
ATOM     23  C   UNL A   1      40.737  26.020  28.389  1.00  0.00     0.029 A 
ATOM     24  C   UNL A   1      41.636  27.166  28.367  1.00  0.00     0.049 A 
ATOM     25  H   UNL A   1      43.653  27.196  27.844  1.00  0.00     0.167 HD
ATOM     26  C   UNL A   1      47.843  27.097  26.581  1.00  0.00     0.037 A 
ATOM     27  C   UNL A   1      41.293  28.419  28.716  1.00  0.00     0.037 A 
ATOM     28  C   UNL A   1      47.589  28.459  26.977  1.00  0.00     0.049 A 
ATOM     29  C   UNL A   1      42.340  29.492  28.671  1.00  0.00     0.074 A 
ATOM     30  C   UNL A   1      48.459  29.536  26.976  1.00  0.00     0.029 A 
ATOM     31  N   UNL A   1      46.369  28.932  27.440  1.00  0.00    -0.354 N 
ATOM     32  N   UNL A   1      43.589  29.408  28.285  1.00  0.00    -0.248 NA
ATOM     33  C   UNL A   1      41.935  30.827  29.126  1.00  0.00     0.031 C 
ATOM     34  C   UNL A   1      47.776  30.653  27.468  1.00  0.00     0.029 A 
ATOM     35  C   UNL A   1      46.469  30.282  27.739  1.00  0.00     0.049 A 
ATOM     36  H   UNL A   1      45.554  28.390  27.540  1.00  0.00     0.167 HD
ATOM     37  C   UNL A   1      44.123  30.675  28.453  1.00  0.00     0.074 A 
ATOM     38  C   UNL A   1      43.051  31.518  28.944  1.00  0.00     0.031 C 
ATOM     39  C   UNL A   1      45.390  31.100  28.233  1.00  0.00     0.037 A 
BRANCH  26  40
ATOM     40  C   UNL A   1      49.234  26.738  26.145  1.00  0.00     0.064 A 
ATOM     41  C   UNL A   1      49.657  26.891  24.817  1.00  0.00     0.173 A 
ATOM     42  C   UNL A   1      50.171  26.279  27.083  1.00  0.00     0.173 A 
ATOM     43  F   UNL A   1      48.795  27.314  23.880  1.00  0.00    -0.203 F 
ATOM     44  C   UNL A   1      50.962  26.582  24.440  1.00  0.00     0.198 A 
ATOM     45  C   UNL A   1      51.482  25.993  26.708  1.00  0.00     0.198 A 
ATOM     46  F   UNL A   1      49.821  26.119  28.368  1.00  0.00    -0.203 F 
ATOM     47  F   UNL A   1      51.334  26.703  23.158  1.00  0.00    -0.200 F 
ATOM     48  C   UNL A   1      51.875  26.141  25.386  1.00  0.00     0.200 A 
ATOM     49  F   UNL A   1      52.366  25.578  27.626  1.00  0.00    -0.200 F 
ATOM     50  F   UNL A   1      53.132  25.853  25.023  1.00  0.00    -0.200 F 
ENDBRANCH  26  40
BRANCH  27  51
ATOM     51  C   UNL A   1      39.903  28.708  29.148  1.00  0.00     0.064 A 
ATOM     52  C   UNL A   1      38.933  29.128  28.229  1.00  0.00     0.173 A 
ATOM     53  C   UNL A   1      39.506  28.532  30.483  1.00  0.00     0.173 A 
ATOM     54  F   UNL A   1      39.268  29.328  26.946  1.00  0.00    -0.203 F 
ATOM     55  C   UNL A   1      37.620  29.368  28.629  1.00  0.00     0.198 A 
ATOM     56  C   UNL A   1      38.185  28.742  30.875  1.00  0.00     0.198 A 
ATOM     57  F   UNL A   1      40.395  28.124  31.399  1.00  0.00    -0.203 F 
ATOM     58  F   UNL A   1      36.718  29.800  27.736  1.00  0.00    -0.200 F 
ATOM     59  C   UNL A   1      37.245  29.165  29.949  1.00  0.00     0.200 A 
ATOM     60  F   UNL A   1      37.826  28.523  32.147  1.00  0.00    -0.200 F 
ATOM     61  F   UNL A   1      35.979  29.378  30.329  1.00  0.00    -0.200 F 
ENDBRANCH  27  51
BRANCH  39  62
ATOM     62  C   UNL A   1      45.676  32.542  28.516  1.00  0.00     0.064 A 
ATOM     63  C   UNL A   1      46.142  32.960  29.770  1.00  0.00     0.173 A 
ATOM     64  C   UNL A   1      45.494  33.513  27.521  1.00  0.00     0.173 A 
ATOM     65  F   UNL A   1      46.312  32.068  30.759  1.00  0.00    -0.203 F 
ATOM     66  C   UNL A   1      46.394  34.304  30.027  1.00  0.00     0.198 A 
ATOM     67  C   UNL A   1      45.768  34.853  27.774  1.00  0.00     0.198 A 
ATOM     68  F   UNL A   1      45.051  33.160  26.306  1.00  0.00    -0.203 F 
ATOM     69  F   UNL A   1      46.793  34.689  31.247  1.00  0.00    -0.200 F 
ATOM     70  C   UNL A   1      46.211  35.249  29.027  1.00  0.00     0.200 A 
ATOM     71  F   UNL A   1      45.599  35.764  26.805  1.00  0.00    -0.200 F 
ATOM     72  F   UNL A   1      46.451  36.543  29.276  1.00  0.00    -0.200 F 
ENDBRANCH  39  62
ENDBRANCH  13  14
ENDBRANCH   6   8
ENDBRANCH   3   4
ENDBRANCH   2   3
ENDBRANCH   1   2
BRANCH   1  73
ATOM     73  N   UNL A   1      35.978  19.917  25.001  1.00  0.00    -0.352 N 
ATOM     74  C   UNL A   1      34.845  20.669  25.159  1.00  0.00     0.251 C 
ATOM     75  H   UNL A   1      35.837  18.944  25.050  1.00  0.00     0.163 HD
ATOM     76  O   UNL A   1      33.805  20.125  25.521  1.00  0.00    -0.269 OA
BRANCH  74  77
ATOM     77  C   UNL A   1      34.840  22.112  24.842  1.00  0.00     0.041 A 
ATOM     78  C   UNL A   1      35.429  23.027  25.717  1.00  0.00     0.014 A 
ATOM     79  C   UNL A   1      34.135  22.577  23.738  1.00  0.00     0.036 A 
ATOM     80  C   UNL A   1      35.329  24.397  25.456  1.00  0.00     0.002 A 
ATOM     81  C   UNL A   1      34.001  23.939  23.491  1.00  0.00     0.088 A 
ATOM     82  C   UNL A   1      34.614  24.859  24.341  1.00  0.00     0.022 A 
BRANCH  81  83
ATOM     83  S   UNL A   1      33.170  24.427  22.003  1.00  0.00     0.261 S 
ATOM     84  O   UNL A   1      33.653  25.746  21.645  1.00  0.00    -0.201 OA
ATOM     85  O   UNL A   1      33.292  23.328  21.068  1.00  0.00    -0.201 OA
BRANCH  83  86
ATOM     86  N   UNL A   1      31.527  24.634  22.376  1.00  0.00    -0.278 N 
ATOM     87  H   UNL A   1      30.879  24.858  21.669  1.00  0.00     0.180 HD
BRANCH  86  88
ATOM     88  C   UNL A   1      31.094  24.478  23.742  1.00  0.00     0.072 A 
ATOM     89  C   UNL A   1      30.976  23.197  24.294  1.00  0.00     0.029 A 
ATOM     90  C   UNL A   1      30.907  25.639  24.538  1.00  0.00     0.061 A 
ATOM     91  C   UNL A   1      30.701  23.050  25.654  1.00  0.00     0.002 A 
ATOM     92  C   UNL A   1      30.653  25.458  25.905  1.00  0.00     0.028 A 
ATOM     93  C   UNL A   1      30.547  24.178  26.458  1.00  0.00     0.002 A 
BRANCH  90  94
ATOM     94  N   UNL A   1      31.010  26.903  23.982  1.00  0.00    -0.365 N 
ATOM     95  C   UNL A   1      29.770  27.590  23.592  1.00  0.00     0.145 C 
ATOM     96  C   UNL A   1      32.136  27.807  24.234  1.00  0.00     0.145 C 
ATOM     97  C   UNL A   1      30.058  28.479  22.376  1.00  0.00     0.181 C 
ATOM     98  C   UNL A   1      32.328  28.706  22.997  1.00  0.00     0.181 C 
ATOM     99  O   UNL A   1      31.119  29.411  22.653  1.00  0.00    -0.378 OA
ENDBRANCH  90  94
ENDBRANCH  86  88
ENDBRANCH  83  86
ENDBRANCH  81  83
ENDBRANCH  74  77
ENDBRANCH   1  73
TORSDOF 14
ENDMDL
