MODEL 1
REMARK VINA RESULT:     -11.9      0.000      0.000
REMARK SMILES O=C(NCCCNC(=O)[C@@H]1C[C@H]1C(=O)N[C@@H]1CONC1=O)c1ccc(-c2c3nc(c(-c4c(F)c(F)c(F)c(F)c4F)c4ccc([nH]4)c(-c4c(F)c(F)c(F)c(F)c4F)c4nc(c(-c5c(F)c(F)c(F)c(F)c5F)c5ccc2[nH]5)C=C4)C=C3)cc1
REMARK SMILES IDX 5 1 4 2 3 3 1 4 2 5 22 7 23 8 84 9 24 10 83 11 25 12 26 13
REMARK SMILES IDX 27 14 77 15 28 16 82 17 76 18 78 19 29 20 81 21 75 22 74 23
REMARK SMILES IDX 30 25 62 26 42 27 61 28 43 29 46 30 60 31 79 32 44 33 45 34
REMARK SMILES IDX 59 36 80 37 47 38 31 39 32 40 40 41 33 42 34 43 38 44 41 45
REMARK SMILES IDX 35 46 36 47 39 48 37 49 63 50 64 51 72 52 65 53 66 54 70 55
REMARK SMILES IDX 73 56 67 57 68 58 71 59 69 60 48 61 49 62 57 63 50 64 51 65
REMARK SMILES IDX 55 66 58 67 52 68 53 69 56 70 54 71 6 72 7 73 8 74 9 76
REMARK SMILES IDX 10 77 11 78 12 79 13 80 14 81 15 82 16 84 17 85 20 86 18 87
REMARK SMILES IDX 19 88 21 89
REMARK H PARENT 3 6 78 24 46 35 7 75 15 83 19 90
REMARK Flexibility Score: inf
ROOT
ATOM      1  C   UNL A   1      34.651  33.572  28.202  1.00  0.00     0.042 C 
ENDROOT
BRANCH   1   2
ATOM      2  C   UNL A   1      34.699  32.382  29.154  1.00  0.00     0.118 C 
BRANCH   2   3
ATOM      3  N   UNL A   1      34.130  31.187  28.551  1.00  0.00    -0.352 N 
ATOM      4  O   UNL A   1      34.137  29.282  27.355  1.00  0.00    -0.269 OA
ATOM      5  C   UNL A   1      34.755  30.065  28.070  1.00  0.00     0.251 C 
ATOM      6  H   UNL A   1      33.148  31.182  28.478  1.00  0.00     0.163 HD
BRANCH   5   7
ATOM      7  C   UNL A   1      36.167  29.795  28.412  1.00  0.00     0.039 A 
ATOM      8  C   UNL A   1      36.516  29.296  29.670  1.00  0.00     0.014 A 
ATOM      9  C   UNL A   1      37.147  29.980  27.433  1.00  0.00     0.014 A 
ATOM     10  C   UNL A   1      37.852  29.091  29.988  1.00  0.00     0.010 A 
ATOM     11  C   UNL A   1      38.481  29.690  27.727  1.00  0.00     0.010 A 
ATOM     12  C   UNL A   1      38.844  29.257  29.012  1.00  0.00    -0.014 A 
BRANCH  12  13
ATOM     13  C   UNL A   1      40.248  28.895  29.320  1.00  0.00     0.031 A 
ATOM     14  C   UNL A   1      41.142  29.839  30.065  1.00  0.00     0.074 A 
ATOM     15  C   UNL A   1      40.715  27.705  28.894  1.00  0.00     0.049 A 
ATOM     16  N   UNL A   1      42.409  29.708  30.372  1.00  0.00    -0.248 NA
ATOM     17  C   UNL A   1      40.541  31.101  30.516  1.00  0.00     0.031 C 
ATOM     18  C   UNL A   1      39.936  26.718  28.144  1.00  0.00     0.029 A 
ATOM     19  N   UNL A   1      41.953  27.129  29.019  1.00  0.00    -0.354 N 
ATOM     20  C   UNL A   1      42.760  30.877  31.032  1.00  0.00     0.074 A 
ATOM     21  C   UNL A   1      41.583  31.718  31.055  1.00  0.00     0.031 C 
ATOM     22  C   UNL A   1      40.708  25.653  27.887  1.00  0.00     0.029 A 
ATOM     23  C   UNL A   1      42.051  25.912  28.393  1.00  0.00     0.049 A 
ATOM     24  H   UNL A   1      42.697  27.548  29.509  1.00  0.00     0.167 HD
ATOM     25  C   UNL A   1      43.958  31.209  31.573  1.00  0.00     0.037 A 
ATOM     26  C   UNL A   1      43.114  25.106  28.213  1.00  0.00     0.037 A 
ATOM     27  C   UNL A   1      45.121  30.357  31.540  1.00  0.00     0.049 A 
ATOM     28  C   UNL A   1      44.439  25.510  28.790  1.00  0.00     0.074 A 
ATOM     29  C   UNL A   1      46.366  30.576  32.104  1.00  0.00     0.029 A 
ATOM     30  N   UNL A   1      45.185  29.130  30.894  1.00  0.00    -0.354 N 
ATOM     31  N   UNL A   1      44.749  26.592  29.462  1.00  0.00    -0.248 NA
ATOM     32  C   UNL A   1      45.560  24.585  28.587  1.00  0.00     0.031 C 
ATOM     33  C   UNL A   1      47.202  29.514  31.741  1.00  0.00     0.029 A 
ATOM     34  C   UNL A   1      46.460  28.598  31.012  1.00  0.00     0.049 A 
ATOM     35  H   UNL A   1      44.435  28.700  30.423  1.00  0.00     0.167 HD
ATOM     36  C   UNL A   1      46.095  26.472  29.779  1.00  0.00     0.074 A 
ATOM     37  C   UNL A   1      46.538  25.203  29.235  1.00  0.00     0.031 C 
ATOM     38  C   UNL A   1      46.887  27.334  30.462  1.00  0.00     0.037 A 
BRANCH  25  39
ATOM     39  C   UNL A   1      44.082  32.565  32.209  1.00  0.00     0.064 A 
ATOM     40  C   UNL A   1      44.491  33.694  31.483  1.00  0.00     0.173 A 
ATOM     41  C   UNL A   1      43.773  32.741  33.568  1.00  0.00     0.173 A 
ATOM     42  F   UNL A   1      44.808  33.583  30.183  1.00  0.00    -0.203 F 
ATOM     43  C   UNL A   1      44.626  34.936  32.100  1.00  0.00     0.198 A 
ATOM     44  C   UNL A   1      43.875  33.990  34.173  1.00  0.00     0.198 A 
ATOM     45  F   UNL A   1      43.368  31.699  34.309  1.00  0.00    -0.203 F 
ATOM     46  F   UNL A   1      45.082  35.984  31.400  1.00  0.00    -0.200 F 
ATOM     47  C   UNL A   1      44.314  35.084  33.443  1.00  0.00     0.200 A 
ATOM     48  F   UNL A   1      43.557  34.134  35.467  1.00  0.00    -0.200 F 
ATOM     49  F   UNL A   1      44.447  36.279  34.036  1.00  0.00    -0.200 F 
ENDBRANCH  25  39
BRANCH  26  50
ATOM     50  C   UNL A   1      42.948  23.853  27.434  1.00  0.00     0.064 A 
ATOM     51  C   UNL A   1      43.254  23.800  26.068  1.00  0.00     0.173 A 
ATOM     52  C   UNL A   1      42.526  22.667  28.056  1.00  0.00     0.173 A 
ATOM     53  F   UNL A   1      43.645  24.911  25.426  1.00  0.00    -0.203 F 
ATOM     54  C   UNL A   1      43.140  22.610  25.353  1.00  0.00     0.198 A 
ATOM     55  C   UNL A   1      42.444  21.472  27.347  1.00  0.00     0.198 A 
ATOM     56  F   UNL A   1      42.231  22.663  29.364  1.00  0.00    -0.203 F 
ATOM     57  F   UNL A   1      43.411  22.592  24.040  1.00  0.00    -0.200 F 
ATOM     58  C   UNL A   1      42.746  21.445  25.994  1.00  0.00     0.200 A 
ATOM     59  F   UNL A   1      42.084  20.345  27.976  1.00  0.00    -0.200 F 
ATOM     60  F   UNL A   1      42.656  20.297  25.308  1.00  0.00    -0.200 F 
ENDBRANCH  26  50
BRANCH  38  61
ATOM     61  C   UNL A   1      48.313  26.924  30.691  1.00  0.00     0.064 A 
ATOM     62  C   UNL A   1      48.676  26.067  31.740  1.00  0.00     0.173 A 
ATOM     63  C   UNL A   1      49.321  27.346  29.809  1.00  0.00     0.173 A 
ATOM     64  F   UNL A   1      47.754  25.650  32.621  1.00  0.00    -0.203 F 
ATOM     65  C   UNL A   1      49.997  25.659  31.907  1.00  0.00     0.198 A 
ATOM     66  C   UNL A   1      50.634  26.912  29.960  1.00  0.00     0.198 A 
ATOM     67  F   UNL A   1      49.026  28.164  28.788  1.00  0.00    -0.203 F 
ATOM     68  F   UNL A   1      50.328  24.872  32.939  1.00  0.00    -0.200 F 
ATOM     69  C   UNL A   1      50.972  26.072  31.011  1.00  0.00     0.200 A 
ATOM     70  F   UNL A   1      51.571  27.299  29.084  1.00  0.00    -0.200 F 
ATOM     71  F   UNL A   1      52.240  25.665  31.163  1.00  0.00    -0.200 F 
ENDBRANCH  38  61
ENDBRANCH  12  13
ENDBRANCH   5   7
ENDBRANCH   2   3
ENDBRANCH   1   2
BRANCH   1  72
ATOM     72  C   UNL A   1      33.276  34.235  28.142  1.00  0.00     0.117 C 
BRANCH  72  73
ATOM     73  N   UNL A   1      33.397  35.672  28.255  1.00  0.00    -0.356 N 
ATOM     74  C   UNL A   1      33.269  36.477  29.348  1.00  0.00     0.223 C 
ATOM     75  H   UNL A   1      33.604  36.140  27.414  1.00  0.00     0.163 HD
ATOM     76  O   UNL A   1      33.296  37.694  29.200  1.00  0.00    -0.275 OA
BRANCH  74  77
ATOM     77  C   UNL A   1      33.177  35.917  30.719  1.00  0.00     0.091 C 
ATOM     78  C   UNL A   1      31.993  35.979  31.661  1.00  0.00     0.028 C 
ATOM     79  C   UNL A   1      33.149  36.908  31.863  1.00  0.00     0.091 C 
BRANCH  79  80
ATOM     80  C   UNL A   1      34.001  36.889  33.074  1.00  0.00     0.224 C 
ATOM     81  O   UNL A   1      33.922  37.844  33.842  1.00  0.00    -0.275 OA
ATOM     82  N   UNL A   1      34.813  35.857  33.442  1.00  0.00    -0.342 N 
ATOM     83  H   UNL A   1      35.189  35.957  34.346  1.00  0.00     0.164 HD
BRANCH  82  84
ATOM     84  C   UNL A   1      35.236  34.641  32.770  1.00  0.00     0.202 C 
ATOM     85  C   UNL A   1      34.460  33.403  33.192  1.00  0.00     0.228 C 
ATOM     86  C   UNL A   1      36.633  34.202  33.139  1.00  0.00     0.268 C 
ATOM     87  O   UNL A   1      35.341  32.295  32.952  1.00  0.00    -0.271 OA
ATOM     88  N   UNL A   1      36.640  32.829  33.116  1.00  0.00    -0.233 N 
ATOM     89  O   UNL A   1      37.599  34.916  33.351  1.00  0.00    -0.270 OA
ATOM     90  H   UNL A   1      37.453  32.281  33.202  1.00  0.00     0.199 HD
ENDBRANCH  82  84
ENDBRANCH  79  80
ENDBRANCH  74  77
ENDBRANCH  72  73
ENDBRANCH   1  72
TORSDOF 12
ENDMDL
MODEL 2
REMARK VINA RESULT:     -11.9      0.363      1.758
REMARK SMILES O=C(NCCCNC(=O)[C@@H]1C[C@H]1C(=O)N[C@@H]1CONC1=O)c1ccc(-c2c3nc(c(-c4c(F)c(F)c(F)c(F)c4F)c4ccc([nH]4)c(-c4c(F)c(F)c(F)c(F)c4F)c4nc(c(-c5c(F)c(F)c(F)c(F)c5F)c5ccc2[nH]5)C=C4)C=C3)cc1
REMARK SMILES IDX 5 1 4 2 3 3 1 4 2 5 22 7 23 8 84 9 24 10 83 11 25 12 26 13
REMARK SMILES IDX 27 14 77 15 28 16 82 17 76 18 78 19 29 20 81 21 75 22 74 23
REMARK SMILES IDX 30 25 62 26 42 27 61 28 43 29 46 30 60 31 79 32 44 33 45 34
REMARK SMILES IDX 59 36 80 37 47 38 31 39 32 40 40 41 33 42 34 43 38 44 41 45
REMARK SMILES IDX 35 46 36 47 39 48 37 49 63 50 64 51 72 52 65 53 66 54 70 55
REMARK SMILES IDX 73 56 67 57 68 58 71 59 69 60 48 61 49 62 57 63 50 64 51 65
REMARK SMILES IDX 55 66 58 67 52 68 53 69 56 70 54 71 6 72 7 73 8 74 9 76
REMARK SMILES IDX 10 77 11 78 12 79 13 80 14 81 15 82 16 84 17 85 20 86 18 87
REMARK SMILES IDX 19 88 21 89
REMARK H PARENT 3 6 78 24 46 35 7 75 15 83 19 90
REMARK Flexibility Score: inf
ROOT
ATOM      1  C   UNL A   1      35.171  33.781  28.490  1.00  0.00     0.042 C 
ENDROOT
BRANCH   1   2
ATOM      2  C   UNL A   1      35.082  32.551  29.387  1.00  0.00     0.118 C 
BRANCH   2   3
ATOM      3  N   UNL A   1      34.355  31.468  28.745  1.00  0.00    -0.352 N 
ATOM      4  O   UNL A   1      34.091  29.664  27.428  1.00  0.00    -0.269 OA
ATOM      5  C   UNL A   1      34.828  30.326  28.152  1.00  0.00     0.251 C 
ATOM      6  H   UNL A   1      33.375  31.569  28.734  1.00  0.00     0.163 HD
BRANCH   5   7
ATOM      7  C   UNL A   1      36.220  29.888  28.385  1.00  0.00     0.039 A 
ATOM      8  C   UNL A   1      37.206  30.093  27.414  1.00  0.00     0.014 A 
ATOM      9  C   UNL A   1      36.556  29.327  29.620  1.00  0.00     0.014 A 
ATOM     10  C   UNL A   1      38.499  29.635  27.633  1.00  0.00     0.010 A 
ATOM     11  C   UNL A   1      37.876  28.947  29.871  1.00  0.00     0.010 A 
ATOM     12  C   UNL A   1      38.854  29.085  28.873  1.00  0.00    -0.014 A 
BRANCH  12  13
ATOM     13  C   UNL A   1      40.268  28.735  29.145  1.00  0.00     0.031 A 
ATOM     14  C   UNL A   1      41.186  29.706  29.824  1.00  0.00     0.074 A 
ATOM     15  C   UNL A   1      40.722  27.532  28.745  1.00  0.00     0.049 A 
ATOM     16  N   UNL A   1      42.463  29.587  30.091  1.00  0.00    -0.248 NA
ATOM     17  C   UNL A   1      40.599  30.983  30.250  1.00  0.00     0.031 C 
ATOM     18  C   UNL A   1      39.919  26.518  28.059  1.00  0.00     0.029 A 
ATOM     19  N   UNL A   1      41.964  26.961  28.847  1.00  0.00    -0.354 N 
ATOM     20  C   UNL A   1      42.835  30.779  30.696  1.00  0.00     0.074 A 
ATOM     21  C   UNL A   1      41.657  31.619  30.730  1.00  0.00     0.031 C 
ATOM     22  C   UNL A   1      40.684  25.445  27.813  1.00  0.00     0.029 A 
ATOM     23  C   UNL A   1      42.043  25.722  28.262  1.00  0.00     0.049 A 
ATOM     24  H   UNL A   1      42.725  27.397  29.295  1.00  0.00     0.167 HD
ATOM     25  C   UNL A   1      44.051  31.130  31.182  1.00  0.00     0.037 A 
ATOM     26  C   UNL A   1      43.100  24.911  28.073  1.00  0.00     0.037 A 
ATOM     27  C   UNL A   1      45.213  30.278  31.139  1.00  0.00     0.049 A 
ATOM     28  C   UNL A   1      44.444  25.337  28.589  1.00  0.00     0.074 A 
ATOM     29  C   UNL A   1      46.476  30.517  31.651  1.00  0.00     0.029 A 
ATOM     30  N   UNL A   1      45.257  29.029  30.535  1.00  0.00    -0.354 N 
ATOM     31  N   UNL A   1      44.776  26.442  29.210  1.00  0.00    -0.248 NA
ATOM     32  C   UNL A   1      45.559  24.405  28.379  1.00  0.00     0.031 C 
ATOM     33  C   UNL A   1      47.301  29.444  31.296  1.00  0.00     0.029 A 
ATOM     34  C   UNL A   1      46.536  28.503  30.627  1.00  0.00     0.049 A 
ATOM     35  H   UNL A   1      44.492  28.582  30.106  1.00  0.00     0.167 HD
ATOM     36  C   UNL A   1      46.132  26.334  29.484  1.00  0.00     0.074 A 
ATOM     37  C   UNL A   1      46.558  25.047  28.971  1.00  0.00     0.031 C 
ATOM     38  C   UNL A   1      46.946  27.220  30.108  1.00  0.00     0.037 A 
BRANCH  25  39
ATOM     39  C   UNL A   1      44.194  32.508  31.765  1.00  0.00     0.064 A 
ATOM     40  C   UNL A   1      44.008  32.762  33.132  1.00  0.00     0.173 A 
ATOM     41  C   UNL A   1      44.535  33.594  30.941  1.00  0.00     0.173 A 
ATOM     42  F   UNL A   1      43.672  31.764  33.965  1.00  0.00    -0.203 F 
ATOM     43  C   UNL A   1      44.117  34.053  33.645  1.00  0.00     0.198 A 
ATOM     44  C   UNL A   1      44.678  34.876  31.463  1.00  0.00     0.198 A 
ATOM     45  F   UNL A   1      44.733  33.409  29.627  1.00  0.00    -0.203 F 
ATOM     46  F   UNL A   1      43.871  34.279  34.944  1.00  0.00    -0.200 F 
ATOM     47  C   UNL A   1      44.456  35.108  32.812  1.00  0.00     0.200 A 
ATOM     48  F   UNL A   1      45.021  35.891  30.658  1.00  0.00    -0.200 F 
ATOM     49  F   UNL A   1      44.559  36.349  33.307  1.00  0.00    -0.200 F 
ENDBRANCH  25  39
BRANCH  26  50
ATOM     50  C   UNL A   1      42.909  23.631  27.345  1.00  0.00     0.064 A 
ATOM     51  C   UNL A   1      43.286  23.495  26.004  1.00  0.00     0.173 A 
ATOM     52  C   UNL A   1      42.390  22.501  27.997  1.00  0.00     0.173 A 
ATOM     53  F   UNL A   1      43.772  24.550  25.334  1.00  0.00    -0.203 F 
ATOM     54  C   UNL A   1      43.147  22.277  25.339  1.00  0.00     0.198 A 
ATOM     55  C   UNL A   1      42.282  21.278  27.341  1.00  0.00     0.198 A 
ATOM     56  F   UNL A   1      42.024  22.577  29.285  1.00  0.00    -0.203 F 
ATOM     57  F   UNL A   1      43.488  22.180  24.047  1.00  0.00    -0.200 F 
ATOM     58  C   UNL A   1      42.656  21.168  26.010  1.00  0.00     0.200 A 
ATOM     59  F   UNL A   1      41.827  20.204  28.001  1.00  0.00    -0.200 F 
ATOM     60  F   UNL A   1      42.541  19.994  25.376  1.00  0.00    -0.200 F 
ENDBRANCH  26  50
BRANCH  38  61
ATOM     61  C   UNL A   1      48.380  26.819  30.301  1.00  0.00     0.064 A 
ATOM     62  C   UNL A   1      49.386  27.223  29.412  1.00  0.00     0.173 A 
ATOM     63  C   UNL A   1      48.760  26.073  31.428  1.00  0.00     0.173 A 
ATOM     64  F   UNL A   1      49.074  27.922  28.310  1.00  0.00    -0.203 F 
ATOM     65  C   UNL A   1      50.718  26.882  29.635  1.00  0.00     0.198 A 
ATOM     66  C   UNL A   1      50.094  25.761  31.665  1.00  0.00     0.198 A 
ATOM     67  F   UNL A   1      47.836  25.666  32.311  1.00  0.00    -0.203 F 
ATOM     68  F   UNL A   1      51.658  27.245  28.752  1.00  0.00    -0.200 F 
ATOM     69  C   UNL A   1      51.072  26.162  30.767  1.00  0.00     0.200 A 
ATOM     70  F   UNL A   1      50.436  25.079  32.767  1.00  0.00    -0.200 F 
ATOM     71  F   UNL A   1      52.356  25.849  30.989  1.00  0.00    -0.200 F 
ENDBRANCH  38  61
ENDBRANCH  12  13
ENDBRANCH   5   7
ENDBRANCH   2   3
ENDBRANCH   1   2
BRANCH   1  72
ATOM     72  C   UNL A   1      33.806  34.272  28.010  1.00  0.00     0.117 C 
BRANCH  72  73
ATOM     73  N   UNL A   1      33.726  35.714  28.087  1.00  0.00    -0.356 N 
ATOM     74  C   UNL A   1      33.398  36.517  29.139  1.00  0.00     0.223 C 
ATOM     75  H   UNL A   1      33.943  36.188  27.253  1.00  0.00     0.163 HD
ATOM     76  O   UNL A   1      33.277  37.723  28.955  1.00  0.00    -0.275 OA
BRANCH  74  77
ATOM     77  C   UNL A   1      33.260  35.978  30.515  1.00  0.00     0.091 C 
ATOM     78  C   UNL A   1      32.050  36.067  31.421  1.00  0.00     0.028 C 
ATOM     79  C   UNL A   1      33.212  36.986  31.644  1.00  0.00     0.091 C 
BRANCH  79  80
ATOM     80  C   UNL A   1      34.029  36.973  32.878  1.00  0.00     0.224 C 
ATOM     81  O   UNL A   1      33.956  37.949  33.621  1.00  0.00    -0.275 OA
ATOM     82  N   UNL A   1      34.800  35.929  33.295  1.00  0.00    -0.342 N 
ATOM     83  H   UNL A   1      35.154  36.041  34.206  1.00  0.00     0.164 HD
BRANCH  82  84
ATOM     84  C   UNL A   1      35.207  34.685  32.665  1.00  0.00     0.202 C 
ATOM     85  C   UNL A   1      34.406  33.475  33.118  1.00  0.00     0.228 C 
ATOM     86  C   UNL A   1      36.593  34.233  33.061  1.00  0.00     0.268 C 
ATOM     87  O   UNL A   1      35.269  32.344  32.921  1.00  0.00    -0.271 OA
ATOM     88  N   UNL A   1      36.575  32.860  33.080  1.00  0.00    -0.233 N 
ATOM     89  O   UNL A   1      37.570  34.937  33.259  1.00  0.00    -0.270 OA
ATOM     90  H   UNL A   1      37.378  32.301  33.192  1.00  0.00     0.199 HD
ENDBRANCH  82  84
ENDBRANCH  79  80
ENDBRANCH  74  77
ENDBRANCH  72  73
ENDBRANCH   1  72
TORSDOF 12
ENDMDL
MODEL 3
REMARK VINA RESULT:     -11.8      4.620     10.584
REMARK SMILES O=C(NCCCNC(=O)[C@@H]1C[C@H]1C(=O)N[C@@H]1CONC1=O)c1ccc(-c2c3nc(c(-c4c(F)c(F)c(F)c(F)c4F)c4ccc([nH]4)c(-c4c(F)c(F)c(F)c(F)c4F)c4nc(c(-c5c(F)c(F)c(F)c(F)c5F)c5ccc2[nH]5)C=C4)C=C3)cc1
REMARK SMILES IDX 5 1 4 2 3 3 1 4 2 5 22 7 23 8 84 9 24 10 83 11 25 12 26 13
REMARK SMILES IDX 27 14 77 15 28 16 82 17 76 18 78 19 29 20 81 21 75 22 74 23
REMARK SMILES IDX 30 25 62 26 42 27 61 28 43 29 46 30 60 31 79 32 44 33 45 34
REMARK SMILES IDX 59 36 80 37 47 38 31 39 32 40 40 41 33 42 34 43 38 44 41 45
REMARK SMILES IDX 35 46 36 47 39 48 37 49 63 50 64 51 72 52 65 53 66 54 70 55
REMARK SMILES IDX 73 56 67 57 68 58 71 59 69 60 48 61 49 62 57 63 50 64 51 65
REMARK SMILES IDX 55 66 58 67 52 68 53 69 56 70 54 71 6 72 7 73 8 74 9 76
REMARK SMILES IDX 10 77 11 78 12 79 13 80 14 81 15 82 16 84 17 85 20 86 18 87
REMARK SMILES IDX 19 88 21 89
REMARK H PARENT 3 6 78 24 46 35 7 75 15 83 19 90
REMARK Flexibility Score: inf
ROOT
ATOM      1  C   UNL A   1      31.377  32.313  26.574  1.00  0.00     0.042 C 
ENDROOT
BRANCH   1   2
ATOM      2  C   UNL A   1      32.651  32.880  27.191  1.00  0.00     0.118 C 
BRANCH   2   3
ATOM      3  N   UNL A   1      32.476  34.260  27.616  1.00  0.00    -0.352 N 
ATOM      4  O   UNL A   1      32.562  36.002  29.036  1.00  0.00    -0.269 OA
ATOM      5  C   UNL A   1      33.033  34.927  28.676  1.00  0.00     0.251 C 
ATOM      6  H   UNL A   1      31.865  34.796  27.059  1.00  0.00     0.163 HD
BRANCH   5   7
ATOM      7  C   UNL A   1      34.199  34.359  29.384  1.00  0.00     0.039 A 
ATOM      8  C   UNL A   1      34.029  33.590  30.540  1.00  0.00     0.014 A 
ATOM      9  C   UNL A   1      35.474  34.541  28.844  1.00  0.00     0.014 A 
ATOM     10  C   UNL A   1      35.139  33.101  31.216  1.00  0.00     0.010 A 
ATOM     11  C   UNL A   1      36.582  33.975  29.477  1.00  0.00     0.010 A 
ATOM     12  C   UNL A   1      36.423  33.263  30.677  1.00  0.00    -0.014 A 
BRANCH  12  13
ATOM     13  C   UNL A   1      37.583  32.613  31.331  1.00  0.00     0.031 A 
ATOM     14  C   UNL A   1      38.287  31.459  30.683  1.00  0.00     0.074 A 
ATOM     15  C   UNL A   1      37.980  33.064  32.536  1.00  0.00     0.049 A 
ATOM     16  N   UNL A   1      39.281  30.737  31.137  1.00  0.00    -0.248 NA
ATOM     17  C   UNL A   1      37.804  31.051  29.356  1.00  0.00     0.031 C 
ATOM     18  C   UNL A   1      37.354  34.169  33.265  1.00  0.00     0.029 A 
ATOM     19  N   UNL A   1      38.990  32.648  33.364  1.00  0.00    -0.354 N 
ATOM     20  C   UNL A   1      39.529  29.780  30.163  1.00  0.00     0.074 A 
ATOM     21  C   UNL A   1      38.563  29.994  29.108  1.00  0.00     0.031 C 
ATOM     22  C   UNL A   1      38.002  34.352  34.425  1.00  0.00     0.029 A 
ATOM     23  C   UNL A   1      39.041  33.337  34.549  1.00  0.00     0.049 A 
ATOM     24  H   UNL A   1      39.617  31.925  33.130  1.00  0.00     0.167 HD
ATOM     25  C   UNL A   1      40.484  28.818  30.155  1.00  0.00     0.037 A 
ATOM     26  C   UNL A   1      39.814  33.150  35.635  1.00  0.00     0.037 A 
ATOM     27  C   UNL A   1      41.440  28.622  31.217  1.00  0.00     0.049 A 
ATOM     28  C   UNL A   1      40.840  32.056  35.618  1.00  0.00     0.074 A 
ATOM     29  C   UNL A   1      42.480  27.711  31.283  1.00  0.00     0.029 A 
ATOM     30  N   UNL A   1      41.460  29.338  32.406  1.00  0.00    -0.354 N 
ATOM     31  N   UNL A   1      41.107  31.191  34.670  1.00  0.00    -0.248 NA
ATOM     32  C   UNL A   1      41.674  31.911  36.817  1.00  0.00     0.031 C 
ATOM     33  C   UNL A   1      43.085  27.830  32.539  1.00  0.00     0.029 A 
ATOM     34  C   UNL A   1      42.469  28.863  33.229  1.00  0.00     0.049 A 
ATOM     35  H   UNL A   1      40.847  30.075  32.632  1.00  0.00     0.167 HD
ATOM     36  C   UNL A   1      42.150  30.410  35.146  1.00  0.00     0.074 A 
ATOM     37  C   UNL A   1      42.476  30.914  36.466  1.00  0.00     0.031 C 
ATOM     38  C   UNL A   1      42.780  29.373  34.542  1.00  0.00     0.037 A 
BRANCH  25  39
ATOM     39  C   UNL A   1      40.515  27.880  28.981  1.00  0.00     0.064 A 
ATOM     40  C   UNL A   1      39.753  26.703  28.948  1.00  0.00     0.173 A 
ATOM     41  C   UNL A   1      41.314  28.172  27.863  1.00  0.00     0.173 A 
ATOM     42  F   UNL A   1      38.978  26.369  29.992  1.00  0.00    -0.203 F 
ATOM     43  C   UNL A   1      39.820  25.834  27.860  1.00  0.00     0.198 A 
ATOM     44  C   UNL A   1      41.352  27.319  26.764  1.00  0.00     0.198 A 
ATOM     45  F   UNL A   1      42.058  29.288  27.835  1.00  0.00    -0.203 F 
ATOM     46  F   UNL A   1      39.132  24.683  27.881  1.00  0.00    -0.200 F 
ATOM     47  C   UNL A   1      40.616  26.144  26.768  1.00  0.00     0.200 A 
ATOM     48  F   UNL A   1      42.109  27.629  25.702  1.00  0.00    -0.200 F 
ATOM     49  F   UNL A   1      40.681  25.306  25.724  1.00  0.00    -0.200 F 
ENDBRANCH  25  39
BRANCH  26  50
ATOM     50  C   UNL A   1      39.615  34.020  36.823  1.00  0.00     0.064 A 
ATOM     51  C   UNL A   1      38.822  33.607  37.901  1.00  0.00     0.173 A 
ATOM     52  C   UNL A   1      40.258  35.264  36.922  1.00  0.00     0.173 A 
ATOM     53  F   UNL A   1      38.175  32.434  37.845  1.00  0.00    -0.203 F 
ATOM     54  C   UNL A   1      38.677  34.407  39.032  1.00  0.00     0.198 A 
ATOM     55  C   UNL A   1      40.137  36.047  38.066  1.00  0.00     0.198 A 
ATOM     56  F   UNL A   1      41.036  35.700  35.920  1.00  0.00    -0.203 F 
ATOM     57  F   UNL A   1      37.889  34.003  40.038  1.00  0.00    -0.200 F 
ATOM     58  C   UNL A   1      39.342  35.621  39.119  1.00  0.00     0.200 A 
ATOM     59  F   UNL A   1      40.800  37.209  38.153  1.00  0.00    -0.200 F 
ATOM     60  F   UNL A   1      39.216  36.380  40.216  1.00  0.00    -0.200 F 
ENDBRANCH  26  50
BRANCH  38  61
ATOM     61  C   UNL A   1      43.913  28.728  35.287  1.00  0.00     0.064 A 
ATOM     62  C   UNL A   1      45.235  29.176  35.155  1.00  0.00     0.173 A 
ATOM     63  C   UNL A   1      43.660  27.686  36.194  1.00  0.00     0.173 A 
ATOM     64  F   UNL A   1      45.532  30.157  34.289  1.00  0.00    -0.203 F 
ATOM     65  C   UNL A   1      46.264  28.597  35.892  1.00  0.00     0.198 A 
ATOM     66  C   UNL A   1      44.686  27.130  36.952  1.00  0.00     0.198 A 
ATOM     67  F   UNL A   1      42.413  27.223  36.360  1.00  0.00    -0.203 F 
ATOM     68  F   UNL A   1      47.526  29.014  35.721  1.00  0.00    -0.200 F 
ATOM     69  C   UNL A   1      45.987  27.582  36.798  1.00  0.00     0.200 A 
ATOM     70  F   UNL A   1      44.414  26.162  37.837  1.00  0.00    -0.200 F 
ATOM     71  F   UNL A   1      46.977  27.037  37.518  1.00  0.00    -0.200 F 
ENDBRANCH  38  61
ENDBRANCH  12  13
ENDBRANCH   5   7
ENDBRANCH   2   3
ENDBRANCH   1   2
BRANCH   1  72
ATOM     72  C   UNL A   1      31.398  30.791  26.448  1.00  0.00     0.117 C 
BRANCH  72  73
ATOM     73  N   UNL A   1      32.293  30.379  25.390  1.00  0.00    -0.356 N 
ATOM     74  C   UNL A   1      32.239  29.290  24.571  1.00  0.00     0.223 C 
ATOM     75  H   UNL A   1      33.060  30.977  25.237  1.00  0.00     0.163 HD
ATOM     76  O   UNL A   1      33.174  29.066  23.811  1.00  0.00    -0.275 OA
BRANCH  74  77
ATOM     77  C   UNL A   1      31.041  28.414  24.523  1.00  0.00     0.091 C 
ATOM     78  C   UNL A   1      30.869  27.133  23.733  1.00  0.00     0.028 C 
ATOM     79  C   UNL A   1      30.254  28.402  23.230  1.00  0.00     0.091 C 
BRANCH  79  80
ATOM     80  C   UNL A   1      28.793  28.590  23.080  1.00  0.00     0.224 C 
ATOM     81  O   UNL A   1      28.066  27.632  23.332  1.00  0.00    -0.275 OA
ATOM     82  N   UNL A   1      28.185  29.767  22.757  1.00  0.00    -0.342 N 
ATOM     83  H   UNL A   1      27.205  29.740  22.847  1.00  0.00     0.164 HD
BRANCH  82  84
ATOM     84  C   UNL A   1      28.690  31.052  22.305  1.00  0.00     0.202 C 
ATOM     85  C   UNL A   1      28.392  32.200  23.257  1.00  0.00     0.228 C 
ATOM     86  C   UNL A   1      28.003  31.568  21.064  1.00  0.00     0.268 C 
ATOM     87  O   UNL A   1      28.380  33.382  22.444  1.00  0.00    -0.271 OA
ATOM     88  N   UNL A   1      27.960  32.936  21.170  1.00  0.00    -0.233 N 
ATOM     89  O   UNL A   1      27.618  30.915  20.108  1.00  0.00    -0.270 OA
ATOM     90  H   UNL A   1      27.672  33.536  20.445  1.00  0.00     0.199 HD
ENDBRANCH  82  84
ENDBRANCH  79  80
ENDBRANCH  74  77
ENDBRANCH  72  73
ENDBRANCH   1  72
TORSDOF 12
ENDMDL
