MODEL 1
REMARK VINA RESULT:     -10.9      0.000      0.000
REMARK SMILES O=C(NCCCNC(=O)c1ccc(OCc2sccc2Br)cn1)c1ccc(-c2c3nc(c(-c4c(F)c(F)c(F)c(F)c4F)c4ccc([nH]4)c(-c4c(F)c(F)c(F)c(F)c4F)c4nc(c(-c5c(F)c(F)c(F)c(F)c5F)c5ccc2[nH]5)C=C4)C=C3)cc1
REMARK SMILES IDX 5 1 4 2 3 3 1 4 2 5 24 7 25 8 86 9 26 10 85 11 27 12 28 13
REMARK SMILES IDX 29 14 79 15 30 16 84 17 78 18 80 19 31 20 83 21 77 22 76 23
REMARK SMILES IDX 32 25 64 26 44 27 63 28 45 29 48 30 62 31 81 32 46 33 47 34
REMARK SMILES IDX 61 36 82 37 49 38 33 39 34 40 42 41 35 42 36 43 40 44 43 45
REMARK SMILES IDX 37 46 38 47 41 48 39 49 65 50 66 51 74 52 67 53 68 54 72 55
REMARK SMILES IDX 75 56 69 57 70 58 73 59 71 60 50 61 51 62 59 63 52 64 53 65
REMARK SMILES IDX 57 66 60 67 54 68 55 69 58 70 56 71 6 72 7 73 8 74 9 76
REMARK SMILES IDX 10 77 11 78 23 79 12 80 22 81 13 82 14 83 15 84 16 85 17 86
REMARK SMILES IDX 20 87 18 88 19 89 21 90
REMARK H PARENT 3 6 80 24 48 35 7 75
REMARK Flexibility Score: inf
ROOT
ATOM      1  C   UNL A   1      34.035  33.618  28.599  1.00  0.00     0.042 C 
ENDROOT
BRANCH   1   2
ATOM      2  C   UNL A   1      34.765  32.361  29.051  1.00  0.00     0.118 C 
BRANCH   2   3
ATOM      3  N   UNL A   1      34.191  31.137  28.504  1.00  0.00    -0.352 N 
ATOM      4  O   UNL A   1      34.146  29.107  27.529  1.00  0.00    -0.269 OA
ATOM      5  C   UNL A   1      34.800  29.969  28.103  1.00  0.00     0.251 C 
ATOM      6  H   UNL A   1      33.211  31.147  28.406  1.00  0.00     0.163 HD
BRANCH   5   7
ATOM      7  C   UNL A   1      36.246  29.761  28.341  1.00  0.00     0.039 A 
ATOM      8  C   UNL A   1      37.183  30.049  27.351  1.00  0.00     0.014 A 
ATOM      9  C   UNL A   1      36.675  29.288  29.588  1.00  0.00     0.014 A 
ATOM     10  C   UNL A   1      38.514  29.700  27.536  1.00  0.00     0.010 A 
ATOM     11  C   UNL A   1      38.034  29.038  29.812  1.00  0.00     0.010 A 
ATOM     12  C   UNL A   1      38.961  29.207  28.774  1.00  0.00    -0.014 A 
BRANCH  12  13
ATOM     13  C   UNL A   1      40.414  28.951  28.949  1.00  0.00     0.031 A 
ATOM     14  C   UNL A   1      41.295  29.897  29.716  1.00  0.00     0.074 A 
ATOM     15  C   UNL A   1      40.917  27.796  28.469  1.00  0.00     0.049 A 
ATOM     16  N   UNL A   1      42.558  29.764  30.040  1.00  0.00    -0.248 NA
ATOM     17  C   UNL A   1      40.691  31.158  30.172  1.00  0.00     0.031 C 
ATOM     18  C   UNL A   1      40.165  26.816  27.684  1.00  0.00     0.029 A 
ATOM     19  N   UNL A   1      42.159  27.231  28.602  1.00  0.00    -0.354 N 
ATOM     20  C   UNL A   1      42.901  30.921  30.727  1.00  0.00     0.074 A 
ATOM     21  C   UNL A   1      41.723  31.763  30.747  1.00  0.00     0.031 C 
ATOM     22  C   UNL A   1      40.934  25.741  27.465  1.00  0.00     0.029 A 
ATOM     23  C   UNL A   1      42.252  25.980  28.040  1.00  0.00     0.049 A 
ATOM     24  H   UNL A   1      42.912  27.677  29.055  1.00  0.00     0.167 HD
ATOM     25  C   UNL A   1      44.087  31.243  31.297  1.00  0.00     0.037 A 
ATOM     26  C   UNL A   1      43.284  25.120  27.991  1.00  0.00     0.037 A 
ATOM     27  C   UNL A   1      45.254  30.396  31.285  1.00  0.00     0.049 A 
ATOM     28  C   UNL A   1      44.580  25.499  28.647  1.00  0.00     0.074 A 
ATOM     29  C   UNL A   1      46.499  30.633  31.842  1.00  0.00     0.029 A 
ATOM     30  N   UNL A   1      45.316  29.146  30.688  1.00  0.00    -0.354 N 
ATOM     31  N   UNL A   1      44.881  26.589  29.309  1.00  0.00    -0.248 NA
ATOM     32  C   UNL A   1      45.678  24.530  28.548  1.00  0.00     0.031 C 
ATOM     33  C   UNL A   1      47.325  29.540  31.554  1.00  0.00     0.029 A 
ATOM     34  C   UNL A   1      46.583  28.605  30.853  1.00  0.00     0.049 A 
ATOM     35  H   UNL A   1      44.572  28.707  30.216  1.00  0.00     0.167 HD
ATOM     36  C   UNL A   1      46.202  26.439  29.704  1.00  0.00     0.074 A 
ATOM     37  C   UNL A   1      46.630  25.136  29.243  1.00  0.00     0.031 C 
ATOM     38  C   UNL A   1      46.994  27.311  30.375  1.00  0.00     0.037 A 
BRANCH  25  39
ATOM     39  C   UNL A   1      44.193  32.573  31.988  1.00  0.00     0.064 A 
ATOM     40  C   UNL A   1      44.549  33.735  31.289  1.00  0.00     0.173 A 
ATOM     41  C   UNL A   1      43.869  32.699  33.348  1.00  0.00     0.173 A 
ATOM     42  F   UNL A   1      44.879  33.667  29.990  1.00  0.00    -0.203 F 
ATOM     43  C   UNL A   1      44.589  34.972  31.928  1.00  0.00     0.198 A 
ATOM     44  C   UNL A   1      43.887  33.940  33.978  1.00  0.00     0.198 A 
ATOM     45  F   UNL A   1      43.516  31.619  34.062  1.00  0.00    -0.203 F 
ATOM     46  F   UNL A   1      44.962  36.064  31.247  1.00  0.00    -0.200 F 
ATOM     47  C   UNL A   1      44.250  35.075  33.268  1.00  0.00     0.200 A 
ATOM     48  F   UNL A   1      43.547  34.040  35.270  1.00  0.00    -0.200 F 
ATOM     49  F   UNL A   1      44.276  36.269  33.878  1.00  0.00    -0.200 F 
ENDBRANCH  25  39
BRANCH  26  50
ATOM     50  C   UNL A   1      43.127  23.821  27.287  1.00  0.00     0.064 A 
ATOM     51  C   UNL A   1      42.590  22.702  27.939  1.00  0.00     0.173 A 
ATOM     52  C   UNL A   1      43.504  23.676  25.944  1.00  0.00     0.173 A 
ATOM     53  F   UNL A   1      42.233  22.785  29.229  1.00  0.00    -0.203 F 
ATOM     54  C   UNL A   1      42.453  21.484  27.277  1.00  0.00     0.198 A 
ATOM     55  C   UNL A   1      43.335  22.468  25.275  1.00  0.00     0.198 A 
ATOM     56  F   UNL A   1      44.016  24.719  25.275  1.00  0.00    -0.203 F 
ATOM     57  F   UNL A   1      41.977  20.417  27.935  1.00  0.00    -0.200 F 
ATOM     58  C   UNL A   1      42.817  21.370  25.944  1.00  0.00     0.200 A 
ATOM     59  F   UNL A   1      43.673  22.368  23.981  1.00  0.00    -0.200 F 
ATOM     60  F   UNL A   1      42.677  20.200  25.306  1.00  0.00    -0.200 F 
ENDBRANCH  26  50
BRANCH  38  61
ATOM     61  C   UNL A   1      48.402  26.869  30.643  1.00  0.00     0.064 A 
ATOM     62  C   UNL A   1      49.446  27.190  29.763  1.00  0.00     0.173 A 
ATOM     63  C   UNL A   1      48.710  26.120  31.788  1.00  0.00     0.173 A 
ATOM     64  F   UNL A   1      49.197  27.891  28.646  1.00  0.00    -0.203 F 
ATOM     65  C   UNL A   1      50.743  26.746  30.003  1.00  0.00     0.198 A 
ATOM     66  C   UNL A   1      50.014  25.702  32.038  1.00  0.00     0.198 A 
ATOM     67  F   UNL A   1      47.747  25.793  32.662  1.00  0.00    -0.203 F 
ATOM     68  F   UNL A   1      51.715  27.016  29.119  1.00  0.00    -0.200 F 
ATOM     69  C   UNL A   1      51.027  26.007  31.140  1.00  0.00     0.200 A 
ATOM     70  F   UNL A   1      50.289  24.995  33.141  1.00  0.00    -0.200 F 
ATOM     71  F   UNL A   1      52.276  25.576  31.366  1.00  0.00    -0.200 F 
ENDBRANCH  38  61
ENDBRANCH  12  13
ENDBRANCH   5   7
ENDBRANCH   2   3
ENDBRANCH   1   2
BRANCH   1  72
ATOM     72  C   UNL A   1      34.618  34.900  29.172  1.00  0.00     0.118 C 
BRANCH  72  73
ATOM     73  N   UNL A   1      33.585  35.808  29.648  1.00  0.00    -0.351 N 
ATOM     74  C   UNL A   1      33.091  35.937  30.928  1.00  0.00     0.269 C 
ATOM     75  H   UNL A   1      33.190  36.403  28.971  1.00  0.00     0.163 HD
ATOM     76  O   UNL A   1      32.146  36.686  31.156  1.00  0.00    -0.268 OA
BRANCH  74  77
ATOM     77  C   UNL A   1      33.767  35.196  32.022  1.00  0.00     0.128 A 
ATOM     78  C   UNL A   1      34.538  35.915  32.928  1.00  0.00     0.038 A 
ATOM     79  N   UNL A   1      33.675  33.846  31.998  1.00  0.00    -0.247 NA
ATOM     80  C   UNL A   1      35.310  35.203  33.842  1.00  0.00     0.050 A 
ATOM     81  C   UNL A   1      34.422  33.191  32.917  1.00  0.00     0.158 A 
ATOM     82  C   UNL A   1      35.288  33.812  33.813  1.00  0.00     0.138 A 
BRANCH  82  83
ATOM     83  O   UNL A   1      36.041  32.999  34.609  1.00  0.00    -0.486 OA
BRANCH  83  84
ATOM     84  C   UNL A   1      37.057  32.217  33.960  1.00  0.00     0.277 C 
BRANCH  84  85
ATOM     85  C   UNL A   1      38.267  33.067  33.691  1.00  0.00     0.056 A 
ATOM     86  S   UNL A   1      39.345  33.438  34.983  1.00  0.00    -0.144 S 
ATOM     87  C   UNL A   1      38.691  33.672  32.525  1.00  0.00     0.035 A 
ATOM     88  C   UNL A   1      40.352  34.378  33.969  1.00  0.00     0.066 A 
ATOM     89  C   UNL A   1      39.888  34.418  32.674  1.00  0.00     0.028 A 
ATOM     90  Br  UNL A   1      37.831  33.595  30.844  1.00  0.00    -0.049 Br
ENDBRANCH  84  85
ENDBRANCH  83  84
ENDBRANCH  82  83
ENDBRANCH  74  77
ENDBRANCH  72  73
ENDBRANCH   1  72
TORSDOF 13
ENDMDL
MODEL 2
REMARK VINA RESULT:     -10.9      0.114      1.624
REMARK SMILES O=C(NCCCNC(=O)c1ccc(OCc2sccc2Br)cn1)c1ccc(-c2c3nc(c(-c4c(F)c(F)c(F)c(F)c4F)c4ccc([nH]4)c(-c4c(F)c(F)c(F)c(F)c4F)c4nc(c(-c5c(F)c(F)c(F)c(F)c5F)c5ccc2[nH]5)C=C4)C=C3)cc1
REMARK SMILES IDX 5 1 4 2 3 3 1 4 2 5 24 7 25 8 86 9 26 10 85 11 27 12 28 13
REMARK SMILES IDX 29 14 79 15 30 16 84 17 78 18 80 19 31 20 83 21 77 22 76 23
REMARK SMILES IDX 32 25 64 26 44 27 63 28 45 29 48 30 62 31 81 32 46 33 47 34
REMARK SMILES IDX 61 36 82 37 49 38 33 39 34 40 42 41 35 42 36 43 40 44 43 45
REMARK SMILES IDX 37 46 38 47 41 48 39 49 65 50 66 51 74 52 67 53 68 54 72 55
REMARK SMILES IDX 75 56 69 57 70 58 73 59 71 60 50 61 51 62 59 63 52 64 53 65
REMARK SMILES IDX 57 66 60 67 54 68 55 69 58 70 56 71 6 72 7 73 8 74 9 76
REMARK SMILES IDX 10 77 11 78 23 79 12 80 22 81 13 82 14 83 15 84 16 85 17 86
REMARK SMILES IDX 20 87 18 88 19 89 21 90
REMARK H PARENT 3 6 80 24 48 35 7 75
REMARK Flexibility Score: inf
ROOT
ATOM      1  C   UNL A   1      34.037  33.670  28.583  1.00  0.00     0.042 C 
ENDROOT
BRANCH   1   2
ATOM      2  C   UNL A   1      34.759  32.411  29.043  1.00  0.00     0.118 C 
BRANCH   2   3
ATOM      3  N   UNL A   1      34.176  31.188  28.504  1.00  0.00    -0.352 N 
ATOM      4  O   UNL A   1      34.118  29.153  27.541  1.00  0.00    -0.269 OA
ATOM      5  C   UNL A   1      34.777  30.013  28.110  1.00  0.00     0.251 C 
ATOM      6  H   UNL A   1      33.196  31.204  28.406  1.00  0.00     0.163 HD
BRANCH   5   7
ATOM      7  C   UNL A   1      36.223  29.798  28.348  1.00  0.00     0.039 A 
ATOM      8  C   UNL A   1      37.162  30.083  27.359  1.00  0.00     0.014 A 
ATOM      9  C   UNL A   1      36.648  29.320  29.594  1.00  0.00     0.014 A 
ATOM     10  C   UNL A   1      38.491  29.726  27.544  1.00  0.00     0.010 A 
ATOM     11  C   UNL A   1      38.006  29.062  29.818  1.00  0.00     0.010 A 
ATOM     12  C   UNL A   1      38.934  29.229  28.781  1.00  0.00    -0.014 A 
BRANCH  12  13
ATOM     13  C   UNL A   1      40.386  28.964  28.957  1.00  0.00     0.031 A 
ATOM     14  C   UNL A   1      41.272  29.907  29.723  1.00  0.00     0.074 A 
ATOM     15  C   UNL A   1      40.882  27.806  28.479  1.00  0.00     0.049 A 
ATOM     16  N   UNL A   1      42.535  29.767  30.047  1.00  0.00    -0.248 NA
ATOM     17  C   UNL A   1      40.675  31.172  30.176  1.00  0.00     0.031 C 
ATOM     18  C   UNL A   1      40.124  26.829  27.696  1.00  0.00     0.029 A 
ATOM     19  N   UNL A   1      42.121  27.233  28.612  1.00  0.00    -0.354 N 
ATOM     20  C   UNL A   1      42.884  30.923  30.732  1.00  0.00     0.074 A 
ATOM     21  C   UNL A   1      41.711  31.772  30.750  1.00  0.00     0.031 C 
ATOM     22  C   UNL A   1      40.887  25.749  27.478  1.00  0.00     0.029 A 
ATOM     23  C   UNL A   1      42.206  25.981  28.053  1.00  0.00     0.049 A 
ATOM     24  H   UNL A   1      42.876  27.676  29.065  1.00  0.00     0.167 HD
ATOM     25  C   UNL A   1      44.072  31.239  31.302  1.00  0.00     0.037 A 
ATOM     26  C   UNL A   1      43.234  25.115  28.005  1.00  0.00     0.037 A 
ATOM     27  C   UNL A   1      45.234  30.386  31.291  1.00  0.00     0.049 A 
ATOM     28  C   UNL A   1      44.531  25.488  28.660  1.00  0.00     0.074 A 
ATOM     29  C   UNL A   1      46.480  30.616  31.848  1.00  0.00     0.029 A 
ATOM     30  N   UNL A   1      45.289  29.134  30.696  1.00  0.00    -0.354 N 
ATOM     31  N   UNL A   1      44.840  26.578  29.321  1.00  0.00    -0.248 NA
ATOM     32  C   UNL A   1      45.624  24.513  28.563  1.00  0.00     0.031 C 
ATOM     33  C   UNL A   1      47.300  29.518  31.561  1.00  0.00     0.029 A 
ATOM     34  C   UNL A   1      46.552  28.586  30.862  1.00  0.00     0.049 A 
ATOM     35  H   UNL A   1      44.542  28.699  30.224  1.00  0.00     0.167 HD
ATOM     36  C   UNL A   1      46.159  26.421  29.716  1.00  0.00     0.074 A 
ATOM     37  C   UNL A   1      46.580  25.114  29.257  1.00  0.00     0.031 C 
ATOM     38  C   UNL A   1      46.956  27.289  30.386  1.00  0.00     0.037 A 
BRANCH  25  39
ATOM     39  C   UNL A   1      44.186  32.569  31.990  1.00  0.00     0.064 A 
ATOM     40  C   UNL A   1      43.926  32.710  33.360  1.00  0.00     0.173 A 
ATOM     41  C   UNL A   1      44.626  33.702  31.286  1.00  0.00     0.173 A 
ATOM     42  F   UNL A   1      43.493  31.662  34.076  1.00  0.00    -0.203 F 
ATOM     43  C   UNL A   1      44.090  33.937  33.999  1.00  0.00     0.198 A 
ATOM     44  C   UNL A   1      44.811  34.921  31.932  1.00  0.00     0.198 A 
ATOM     45  F   UNL A   1      44.894  33.620  29.974  1.00  0.00    -0.203 F 
ATOM     46  F   UNL A   1      43.806  34.055  35.303  1.00  0.00    -0.200 F 
ATOM     47  C   UNL A   1      44.541  35.038  33.287  1.00  0.00     0.200 A 
ATOM     48  F   UNL A   1      45.258  35.981  31.245  1.00  0.00    -0.200 F 
ATOM     49  F   UNL A   1      44.711  36.215  33.907  1.00  0.00    -0.200 F 
ENDBRANCH  25  39
BRANCH  26  50
ATOM     50  C   UNL A   1      43.070  23.816  27.304  1.00  0.00     0.064 A 
ATOM     51  C   UNL A   1      42.491  22.713  27.945  1.00  0.00     0.173 A 
ATOM     52  C   UNL A   1      43.480  23.656  25.972  1.00  0.00     0.173 A 
ATOM     53  F   UNL A   1      42.100  22.810  29.224  1.00  0.00    -0.203 F 
ATOM     54  C   UNL A   1      42.347  21.494  27.285  1.00  0.00     0.198 A 
ATOM     55  C   UNL A   1      43.305  22.448  25.304  1.00  0.00     0.198 A 
ATOM     56  F   UNL A   1      44.033  24.685  25.313  1.00  0.00    -0.203 F 
ATOM     57  F   UNL A   1      41.831  20.441  27.935  1.00  0.00    -0.200 F 
ATOM     58  C   UNL A   1      42.746  21.365  25.963  1.00  0.00     0.200 A 
ATOM     59  F   UNL A   1      43.677  22.334  24.021  1.00  0.00    -0.200 F 
ATOM     60  F   UNL A   1      42.599  20.194  25.328  1.00  0.00    -0.200 F 
ENDBRANCH  26  50
BRANCH  38  61
ATOM     61  C   UNL A   1      48.361  26.839  30.654  1.00  0.00     0.064 A 
ATOM     62  C   UNL A   1      48.673  26.053  31.774  1.00  0.00     0.173 A 
ATOM     63  C   UNL A   1      49.404  27.196  29.787  1.00  0.00     0.173 A 
ATOM     64  F   UNL A   1      47.712  25.701  32.641  1.00  0.00    -0.203 F 
ATOM     65  C   UNL A   1      49.986  25.670  32.034  1.00  0.00     0.198 A 
ATOM     66  C   UNL A   1      50.711  26.787  30.036  1.00  0.00     0.198 A 
ATOM     67  F   UNL A   1      49.155  27.942  28.701  1.00  0.00    -0.203 F 
ATOM     68  F   UNL A   1      50.270  24.968  33.140  1.00  0.00    -0.200 F 
ATOM     69  C   UNL A   1      51.002  26.034  31.164  1.00  0.00     0.200 A 
ATOM     70  F   UNL A   1      51.691  27.132  29.191  1.00  0.00    -0.200 F 
ATOM     71  F   UNL A   1      52.266  25.668  31.419  1.00  0.00    -0.200 F 
ENDBRANCH  38  61
ENDBRANCH  12  13
ENDBRANCH   5   7
ENDBRANCH   2   3
ENDBRANCH   1   2
BRANCH   1  72
ATOM     72  C   UNL A   1      34.608  34.950  29.177  1.00  0.00     0.118 C 
BRANCH  72  73
ATOM     73  N   UNL A   1      33.565  35.839  29.667  1.00  0.00    -0.351 N 
ATOM     74  C   UNL A   1      33.080  35.953  30.952  1.00  0.00     0.269 C 
ATOM     75  H   UNL A   1      33.155  36.431  28.996  1.00  0.00     0.163 HD
ATOM     76  O   UNL A   1      32.127  36.687  31.192  1.00  0.00    -0.268 OA
BRANCH  74  77
ATOM     77  C   UNL A   1      33.777  35.216  32.035  1.00  0.00     0.128 A 
ATOM     78  C   UNL A   1      34.673  35.914  32.838  1.00  0.00     0.038 A 
ATOM     79  N   UNL A   1      33.574  33.880  32.099  1.00  0.00    -0.247 NA
ATOM     80  C   UNL A   1      35.453  35.188  33.733  1.00  0.00     0.050 A 
ATOM     81  C   UNL A   1      34.335  33.213  32.998  1.00  0.00     0.158 A 
ATOM     82  C   UNL A   1      35.316  33.805  33.789  1.00  0.00     0.138 A 
BRANCH  82  83
ATOM     83  O   UNL A   1      36.060  32.974  34.575  1.00  0.00    -0.486 OA
BRANCH  83  84
ATOM     84  C   UNL A   1      37.051  32.171  33.913  1.00  0.00     0.277 C 
BRANCH  84  85
ATOM     85  C   UNL A   1      38.305  32.972  33.702  1.00  0.00     0.056 A 
ATOM     86  S   UNL A   1      39.407  33.178  35.009  1.00  0.00    -0.144 S 
ATOM     87  C   UNL A   1      38.757  33.643  32.584  1.00  0.00     0.035 A 
ATOM     88  C   UNL A   1      40.460  34.139  34.064  1.00  0.00     0.066 A 
ATOM     89  C   UNL A   1      39.994  34.308  32.781  1.00  0.00     0.028 A 
ATOM     90  Br  UNL A   1      37.886  33.748  30.909  1.00  0.00    -0.049 Br
ENDBRANCH  84  85
ENDBRANCH  83  84
ENDBRANCH  82  83
ENDBRANCH  74  77
ENDBRANCH  72  73
ENDBRANCH   1  72
TORSDOF 13
ENDMDL
MODEL 3
REMARK VINA RESULT:     -10.9      4.684      7.771
REMARK SMILES O=C(NCCCNC(=O)c1ccc(OCc2sccc2Br)cn1)c1ccc(-c2c3nc(c(-c4c(F)c(F)c(F)c(F)c4F)c4ccc([nH]4)c(-c4c(F)c(F)c(F)c(F)c4F)c4nc(c(-c5c(F)c(F)c(F)c(F)c5F)c5ccc2[nH]5)C=C4)C=C3)cc1
REMARK SMILES IDX 5 1 4 2 3 3 1 4 2 5 24 7 25 8 86 9 26 10 85 11 27 12 28 13
REMARK SMILES IDX 29 14 79 15 30 16 84 17 78 18 80 19 31 20 83 21 77 22 76 23
REMARK SMILES IDX 32 25 64 26 44 27 63 28 45 29 48 30 62 31 81 32 46 33 47 34
REMARK SMILES IDX 61 36 82 37 49 38 33 39 34 40 42 41 35 42 36 43 40 44 43 45
REMARK SMILES IDX 37 46 38 47 41 48 39 49 65 50 66 51 74 52 67 53 68 54 72 55
REMARK SMILES IDX 75 56 69 57 70 58 73 59 71 60 50 61 51 62 59 63 52 64 53 65
REMARK SMILES IDX 57 66 60 67 54 68 55 69 58 70 56 71 6 72 7 73 8 74 9 76
REMARK SMILES IDX 10 77 11 78 23 79 12 80 22 81 13 82 14 83 15 84 16 85 17 86
REMARK SMILES IDX 20 87 18 88 19 89 21 90
REMARK H PARENT 3 6 80 24 48 35 7 75
REMARK Flexibility Score: inf
ROOT
ATOM      1  C   UNL A   1      31.348  31.725  26.437  1.00  0.00     0.042 C 
ENDROOT
BRANCH   1   2
ATOM      2  C   UNL A   1      32.610  32.400  26.957  1.00  0.00     0.118 C 
BRANCH   2   3
ATOM      3  N   UNL A   1      32.380  33.764  27.421  1.00  0.00    -0.352 N 
ATOM      4  O   UNL A   1      32.557  35.573  28.750  1.00  0.00    -0.269 OA
ATOM      5  C   UNL A   1      33.003  34.483  28.416  1.00  0.00     0.251 C 
ATOM      6  H   UNL A   1      31.666  34.248  26.946  1.00  0.00     0.163 HD
BRANCH   5   7
ATOM      7  C   UNL A   1      34.194  33.932  29.102  1.00  0.00     0.039 A 
ATOM      8  C   UNL A   1      35.469  34.420  28.825  1.00  0.00     0.014 A 
ATOM      9  C   UNL A   1      34.028  32.921  30.057  1.00  0.00     0.014 A 
ATOM     10  C   UNL A   1      36.583  33.785  29.358  1.00  0.00     0.010 A 
ATOM     11  C   UNL A   1      35.148  32.354  30.678  1.00  0.00     0.010 A 
ATOM     12  C   UNL A   1      36.438  32.757  30.305  1.00  0.00    -0.014 A 
BRANCH  12  13
ATOM     13  C   UNL A   1      37.664  32.186  30.922  1.00  0.00     0.031 A 
ATOM     14  C   UNL A   1      38.084  32.546  32.320  1.00  0.00     0.074 A 
ATOM     15  C   UNL A   1      38.356  31.266  30.223  1.00  0.00     0.049 A 
ATOM     16  N   UNL A   1      39.070  32.060  33.033  1.00  0.00    -0.248 NA
ATOM     17  C   UNL A   1      37.309  33.591  33.006  1.00  0.00     0.031 C 
ATOM     18  C   UNL A   1      38.060  30.859  28.848  1.00  0.00     0.029 A 
ATOM     19  N   UNL A   1      39.420  30.477  30.579  1.00  0.00    -0.354 N 
ATOM     20  C   UNL A   1      39.040  32.740  34.242  1.00  0.00     0.074 A 
ATOM     21  C   UNL A   1      37.959  33.699  34.159  1.00  0.00     0.031 C 
ATOM     22  C   UNL A   1      38.872  29.851  28.501  1.00  0.00     0.029 A 
ATOM     23  C   UNL A   1      39.785  29.580  29.604  1.00  0.00     0.049 A 
ATOM     24  H   UNL A   1      39.878  30.546  31.448  1.00  0.00     0.167 HD
ATOM     25  C   UNL A   1      39.836  32.569  35.326  1.00  0.00     0.037 A 
ATOM     26  C   UNL A   1      40.750  28.644  29.596  1.00  0.00     0.037 A 
ATOM     27  C   UNL A   1      40.904  31.605  35.409  1.00  0.00     0.049 A 
ATOM     28  C   UNL A   1      41.604  28.469  30.817  1.00  0.00     0.074 A 
ATOM     29  C   UNL A   1      41.761  31.353  36.466  1.00  0.00     0.029 A 
ATOM     30  N   UNL A   1      41.258  30.729  34.393  1.00  0.00    -0.354 N 
ATOM     31  N   UNL A   1      41.550  29.108  31.961  1.00  0.00    -0.248 NA
ATOM     32  C   UNL A   1      42.653  27.444  30.748  1.00  0.00     0.031 C 
ATOM     33  C   UNL A   1      42.655  30.348  36.079  1.00  0.00     0.029 A 
ATOM     34  C   UNL A   1      42.329  29.944  34.796  1.00  0.00     0.049 A 
ATOM     35  H   UNL A   1      40.815  30.673  33.515  1.00  0.00     0.167 HD
ATOM     36  C   UNL A   1      42.556  28.565  32.745  1.00  0.00     0.074 A 
ATOM     37  C   UNL A   1      43.177  27.518  31.963  1.00  0.00     0.031 C 
ATOM     38  C   UNL A   1      42.941  28.915  33.997  1.00  0.00     0.037 A 
BRANCH  25  39
ATOM     39  C   UNL A   1      39.589  33.446  36.520  1.00  0.00     0.064 A 
ATOM     40  C   UNL A   1      38.738  33.045  37.559  1.00  0.00     0.173 A 
ATOM     41  C   UNL A   1      40.264  34.669  36.660  1.00  0.00     0.173 A 
ATOM     42  F   UNL A   1      38.061  31.891  37.470  1.00  0.00    -0.203 F 
ATOM     43  C   UNL A   1      38.561  33.842  38.689  1.00  0.00     0.198 A 
ATOM     44  C   UNL A   1      40.104  35.451  37.800  1.00  0.00     0.198 A 
ATOM     45  F   UNL A   1      41.095  35.096  35.697  1.00  0.00    -0.203 F 
ATOM     46  F   UNL A   1      37.719  33.452  39.656  1.00  0.00    -0.200 F 
ATOM     47  C   UNL A   1      39.250  35.038  38.812  1.00  0.00     0.200 A 
ATOM     48  F   UNL A   1      40.780  36.602  37.923  1.00  0.00    -0.200 F 
ATOM     49  F   UNL A   1      39.089  35.797  39.906  1.00  0.00    -0.200 F 
ENDBRANCH  25  39
BRANCH  26  50
ATOM     50  C   UNL A   1      40.957  27.810  28.384  1.00  0.00     0.064 A 
ATOM     51  C   UNL A   1      41.813  28.225  27.355  1.00  0.00     0.173 A 
ATOM     52  C   UNL A   1      40.309  26.575  28.237  1.00  0.00     0.173 A 
ATOM     53  F   UNL A   1      42.440  29.407  27.440  1.00  0.00    -0.203 F 
ATOM     54  C   UNL A   1      41.996  27.443  26.216  1.00  0.00     0.198 A 
ATOM     55  C   UNL A   1      40.519  25.780  27.114  1.00  0.00     0.198 A 
ATOM     56  F   UNL A   1      39.485  26.131  29.198  1.00  0.00    -0.203 F 
ATOM     57  F   UNL A   1      42.785  27.882  25.225  1.00  0.00    -0.200 F 
ATOM     58  C   UNL A   1      41.357  26.218  26.100  1.00  0.00     0.200 A 
ATOM     59  F   UNL A   1      39.912  24.589  27.016  1.00  0.00    -0.200 F 
ATOM     60  F   UNL A   1      41.540  25.463  25.009  1.00  0.00    -0.200 F 
ENDBRANCH  26  50
BRANCH  38  61
ATOM     61  C   UNL A   1      44.090  28.150  34.584  1.00  0.00     0.064 A 
ATOM     62  C   UNL A   1      45.412  28.597  34.442  1.00  0.00     0.173 A 
ATOM     63  C   UNL A   1      43.867  26.962  35.296  1.00  0.00     0.173 A 
ATOM     64  F   UNL A   1      45.676  29.719  33.755  1.00  0.00    -0.203 F 
ATOM     65  C   UNL A   1      46.473  27.861  34.961  1.00  0.00     0.198 A 
ATOM     66  C   UNL A   1      44.930  26.244  35.837  1.00  0.00     0.198 A 
ATOM     67  F   UNL A   1      42.621  26.497  35.463  1.00  0.00    -0.203 F 
ATOM     68  F   UNL A   1      47.733  28.276  34.763  1.00  0.00    -0.200 F 
ATOM     69  C   UNL A   1      46.232  26.689  35.660  1.00  0.00     0.200 A 
ATOM     70  F   UNL A   1      44.696  25.116  36.520  1.00  0.00    -0.200 F 
ATOM     71  F   UNL A   1      47.256  25.980  36.154  1.00  0.00    -0.200 F 
ENDBRANCH  38  61
ENDBRANCH  12  13
ENDBRANCH   5   7
ENDBRANCH   2   3
ENDBRANCH   1   2
BRANCH   1  72
ATOM     72  C   UNL A   1      31.551  30.266  26.057  1.00  0.00     0.118 C 
BRANCH  72  73
ATOM     73  N   UNL A   1      31.603  30.077  24.616  1.00  0.00    -0.351 N 
ATOM     74  C   UNL A   1      31.728  28.895  23.917  1.00  0.00     0.269 C 
ATOM     75  H   UNL A   1      31.541  30.895  24.072  1.00  0.00     0.163 HD
ATOM     76  O   UNL A   1      31.853  28.906  22.697  1.00  0.00    -0.268 OA
BRANCH  74  77
ATOM     77  C   UNL A   1      31.647  27.620  24.671  1.00  0.00     0.128 A 
ATOM     78  C   UNL A   1      30.408  26.998  24.785  1.00  0.00     0.038 A 
ATOM     79  N   UNL A   1      32.773  27.203  25.295  1.00  0.00    -0.247 NA
ATOM     80  C   UNL A   1      30.301  25.902  25.637  1.00  0.00     0.050 A 
ATOM     81  C   UNL A   1      32.632  26.120  26.096  1.00  0.00     0.158 A 
ATOM     82  C   UNL A   1      31.423  25.476  26.341  1.00  0.00     0.138 A 
BRANCH  82  83
ATOM     83  O   UNL A   1      31.438  24.458  27.250  1.00  0.00    -0.486 OA
BRANCH  83  84
ATOM     84  C   UNL A   1      31.178  23.137  26.748  1.00  0.00     0.277 C 
BRANCH  84  85
ATOM     85  C   UNL A   1      32.450  22.519  26.240  1.00  0.00     0.056 A 
ATOM     86  S   UNL A   1      33.619  21.943  27.366  1.00  0.00    -0.144 S 
ATOM     87  C   UNL A   1      32.901  22.340  24.949  1.00  0.00     0.035 A 
ATOM     88  C   UNL A   1      34.688  21.460  26.121  1.00  0.00     0.066 A 
ATOM     89  C   UNL A   1      34.178  21.727  24.871  1.00  0.00     0.028 A 
ATOM     90  Br  UNL A   1      31.997  22.839  23.365  1.00  0.00    -0.049 Br
ENDBRANCH  84  85
ENDBRANCH  83  84
ENDBRANCH  82  83
ENDBRANCH  74  77
ENDBRANCH  72  73
ENDBRANCH   1  72
TORSDOF 13
ENDMDL
