MODEL 1
REMARK VINA RESULT:     -13.0      0.000      0.000
REMARK SMILES CC(C)n1cc(C(=O)NCCCNC(=O)c2ccc(-c3c4nc(c(-c5c(F)c(F)c(F)c(F)c5F)c5ccc([nH]5)c(-c5c(F)c(F)c(F)c(F)c5F)c5nc(c(-c6c(F)c(F)c(F)c(F)c6F)c6ccc3[nH]6)C=C5)C=C4)cc2)c2ccccc2c1=O
REMARK SMILES IDX 11 1 10 2 9 3 7 4 8 5 6 7 4 8 5 9 85 10 84 11 86 12 79 13
REMARK SMILES IDX 83 14 80 15 82 16 81 17 2 18 1 19 3 20 12 21 13 22 14 23
REMARK SMILES IDX 15 25 16 26 17 27 78 28 18 29 77 30 19 31 20 32 21 33 71 34
REMARK SMILES IDX 22 35 76 36 70 37 72 38 23 39 75 40 69 41 68 42 24 44 56 45
REMARK SMILES IDX 36 46 55 47 37 48 40 49 54 50 73 51 38 52 39 53 53 55 74 56
REMARK SMILES IDX 41 57 25 58 26 59 34 60 27 61 28 62 32 63 35 64 29 65 30 66
REMARK SMILES IDX 33 67 31 68 57 69 58 70 66 71 59 72 60 73 64 74 67 75 61 76
REMARK SMILES IDX 62 77 65 78 63 79 42 80 43 81 51 82 44 83 45 84 49 85 52 86
REMARK SMILES IDX 46 87 47 88 50 89 48 90
REMARK H PARENT 9 6 13 24 72 43 40 54
REMARK Flexibility Score: inf
ROOT
ATOM      1  C   UNL A   1      31.552  31.947  26.819  1.00  0.00     0.042 C 
ENDROOT
BRANCH   1   2
ATOM      2  C   UNL A   1      31.813  30.448  26.664  1.00  0.00     0.118 C 
BRANCH   2   3
ATOM      3  N   UNL A   1      32.597  30.190  25.466  1.00  0.00    -0.352 N 
ATOM      4  C   UNL A   1      32.501  29.328  24.416  1.00  0.00     0.253 C 
ATOM      5  O   UNL A   1      33.482  29.323  23.672  1.00  0.00    -0.269 OA
ATOM      6  H   UNL A   1      33.382  30.778  25.398  1.00  0.00     0.163 HD
BRANCH   4   7
ATOM      7  C   UNL A   1      31.285  28.480  24.118  1.00  0.00     0.064 A 
ATOM      8  N   UNL A   1      30.262  26.271  24.091  1.00  0.00    -0.312 N 
ATOM      9  C   UNL A   1      31.343  27.140  24.216  1.00  0.00     0.104 A 
ATOM     10  C   UNL A   1      28.978  26.788  23.860  1.00  0.00     0.258 A 
ATOM     11  C   UNL A   1      28.897  28.212  23.455  1.00  0.00     0.048 A 
ATOM     12  O   UNL A   1      27.937  26.147  23.962  1.00  0.00    -0.269 OA
ATOM     13  C   UNL A   1      30.011  29.051  23.602  1.00  0.00     0.001 A 
ATOM     14  C   UNL A   1      27.691  28.681  22.903  1.00  0.00     0.014 A 
ATOM     15  C   UNL A   1      29.857  30.390  23.197  1.00  0.00     0.010 A 
ATOM     16  C   UNL A   1      27.579  30.002  22.485  1.00  0.00     0.001 A 
ATOM     17  C   UNL A   1      28.660  30.857  22.639  1.00  0.00     0.001 A 
BRANCH   8  18
ATOM     18  C   UNL A   1      30.398  24.823  24.448  1.00  0.00     0.084 C 
ATOM     19  C   UNL A   1      30.869  23.941  23.276  1.00  0.00     0.031 C 
ATOM     20  C   UNL A   1      31.331  24.519  25.636  1.00  0.00     0.031 C 
ENDBRANCH   8  18
ENDBRANCH   4   7
ENDBRANCH   2   3
ENDBRANCH   1   2
BRANCH   1  21
ATOM     21  C   UNL A   1      32.802  32.741  27.195  1.00  0.00     0.118 C 
BRANCH  21  22
ATOM     22  N   UNL A   1      32.492  34.110  27.585  1.00  0.00    -0.352 N 
ATOM     23  C   UNL A   1      33.024  34.879  28.594  1.00  0.00     0.251 C 
ATOM     24  H   UNL A   1      31.797  34.552  27.044  1.00  0.00     0.163 HD
ATOM     25  O   UNL A   1      32.496  35.938  28.903  1.00  0.00    -0.269 OA
BRANCH  23  26
ATOM     26  C   UNL A   1      34.220  34.407  29.327  1.00  0.00     0.039 A 
ATOM     27  C   UNL A   1      35.498  34.621  28.813  1.00  0.00     0.014 A 
ATOM     28  C   UNL A   1      34.055  33.736  30.542  1.00  0.00     0.014 A 
ATOM     29  C   UNL A   1      36.593  34.008  29.412  1.00  0.00     0.010 A 
ATOM     30  C   UNL A   1      35.170  33.195  31.193  1.00  0.00     0.010 A 
ATOM     31  C   UNL A   1      36.441  33.279  30.603  1.00  0.00    -0.014 A 
BRANCH  31  32
ATOM     32  C   UNL A   1      37.621  32.593  31.192  1.00  0.00     0.031 A 
ATOM     33  C   UNL A   1      38.085  32.927  32.585  1.00  0.00     0.074 A 
ATOM     34  C   UNL A   1      38.229  31.613  30.496  1.00  0.00     0.049 A 
ATOM     35  N   UNL A   1      39.074  32.412  33.272  1.00  0.00    -0.248 NA
ATOM     36  C   UNL A   1      37.345  33.978  33.302  1.00  0.00     0.031 C 
ATOM     37  C   UNL A   1      37.859  31.187  29.146  1.00  0.00     0.029 A 
ATOM     38  N   UNL A   1      39.262  30.777  30.837  1.00  0.00    -0.354 N 
ATOM     39  C   UNL A   1      39.084  33.085  34.487  1.00  0.00     0.074 A 
ATOM     40  C   UNL A   1      38.025  34.067  34.436  1.00  0.00     0.031 C 
ATOM     41  C   UNL A   1      38.611  30.135  28.795  1.00  0.00     0.029 A 
ATOM     42  C   UNL A   1      39.560  29.851  29.866  1.00  0.00     0.049 A 
ATOM     43  H   UNL A   1      39.744  30.835  31.694  1.00  0.00     0.167 HD
ATOM     44  C   UNL A   1      39.897  32.889  35.554  1.00  0.00     0.037 A 
ATOM     45  C   UNL A   1      40.501  28.888  29.837  1.00  0.00     0.037 A 
ATOM     46  C   UNL A   1      40.932  31.891  35.612  1.00  0.00     0.049 A 
ATOM     47  C   UNL A   1      41.416  28.722  31.017  1.00  0.00     0.074 A 
ATOM     48  C   UNL A   1      41.792  31.601  36.657  1.00  0.00     0.029 A 
ATOM     49  N   UNL A   1      41.245  31.014  34.582  1.00  0.00    -0.354 N 
ATOM     50  N   UNL A   1      41.414  29.365  32.159  1.00  0.00    -0.248 NA
ATOM     51  C   UNL A   1      42.470  27.706  30.900  1.00  0.00     0.031 C 
ATOM     52  C   UNL A   1      42.653  30.580  36.245  1.00  0.00     0.029 A 
ATOM     53  C   UNL A   1      42.299  30.199  34.961  1.00  0.00     0.049 A 
ATOM     54  H   UNL A   1      40.786  30.978  33.712  1.00  0.00     0.167 HD
ATOM     55  C   UNL A   1      42.458  28.828  32.899  1.00  0.00     0.074 A 
ATOM     56  C   UNL A   1      43.057  27.789  32.086  1.00  0.00     0.031 C 
ATOM     57  C   UNL A   1      42.886  29.172  34.138  1.00  0.00     0.037 A 
BRANCH  44  58
ATOM     58  C   UNL A   1      39.710  33.773  36.753  1.00  0.00     0.064 A 
ATOM     59  C   UNL A   1      40.301  35.042  36.830  1.00  0.00     0.173 A 
ATOM     60  C   UNL A   1      38.871  33.375  37.805  1.00  0.00     0.173 A 
ATOM     61  F   UNL A   1      41.122  35.466  35.857  1.00  0.00    -0.203 F 
ATOM     62  C   UNL A   1      40.068  35.876  37.921  1.00  0.00     0.198 A 
ATOM     63  C   UNL A   1      38.619  34.221  38.882  1.00  0.00     0.198 A 
ATOM     64  F   UNL A   1      38.278  32.172  37.778  1.00  0.00    -0.203 F 
ATOM     65  F   UNL A   1      40.668  37.073  37.988  1.00  0.00    -0.200 F 
ATOM     66  C   UNL A   1      39.220  35.469  38.941  1.00  0.00     0.200 A 
ATOM     67  F   UNL A   1      37.790  33.831  39.860  1.00  0.00    -0.200 F 
ATOM     68  F   UNL A   1      38.984  36.279  39.982  1.00  0.00    -0.200 F 
ENDBRANCH  44  58
BRANCH  45  69
ATOM     69  C   UNL A   1      40.615  28.013  28.642  1.00  0.00     0.064 A 
ATOM     70  C   UNL A   1      39.930  26.791  28.576  1.00  0.00     0.173 A 
ATOM     71  C   UNL A   1      41.380  28.393  27.530  1.00  0.00     0.173 A 
ATOM     72  F   UNL A   1      39.203  26.374  29.622  1.00  0.00    -0.203 F 
ATOM     73  C   UNL A   1      40.009  25.984  27.443  1.00  0.00     0.198 A 
ATOM     74  C   UNL A   1      41.434  27.600  26.387  1.00  0.00     0.198 A 
ATOM     75  F   UNL A   1      42.053  29.554  27.544  1.00  0.00    -0.203 F 
ATOM     76  F   UNL A   1      39.367  24.809  27.415  1.00  0.00    -0.200 F 
ATOM     77  C   UNL A   1      40.752  26.394  26.346  1.00  0.00     0.200 A 
ATOM     78  F   UNL A   1      42.139  28.009  25.323  1.00  0.00    -0.200 F 
ATOM     79  F   UNL A   1      40.812  25.626  25.250  1.00  0.00    -0.200 F 
ENDBRANCH  45  69
BRANCH  57  80
ATOM     80  C   UNL A   1      44.056  28.419  34.699  1.00  0.00     0.064 A 
ATOM     81  C   UNL A   1      45.365  28.902  34.566  1.00  0.00     0.173 A 
ATOM     82  C   UNL A   1      43.858  27.241  35.434  1.00  0.00     0.173 A 
ATOM     83  F   UNL A   1      45.605  30.018  33.861  1.00  0.00    -0.203 F 
ATOM     84  C   UNL A   1      46.437  28.224  35.139  1.00  0.00     0.198 A 
ATOM     85  C   UNL A   1      44.930  26.581  36.028  1.00  0.00     0.198 A 
ATOM     86  F   UNL A   1      42.623  26.743  35.594  1.00  0.00    -0.203 F 
ATOM     87  F   UNL A   1      47.685  28.685  34.973  1.00  0.00    -0.200 F 
ATOM     88  C   UNL A   1      46.218  27.070  35.877  1.00  0.00     0.200 A 
ATOM     89  F   UNL A   1      44.714  25.474  36.753  1.00  0.00    -0.200 F 
ATOM     90  F   UNL A   1      47.250  26.427  36.441  1.00  0.00    -0.200 F 
ENDBRANCH  57  80
ENDBRANCH  31  32
ENDBRANCH  23  26
ENDBRANCH  21  22
ENDBRANCH   1  21
TORSDOF 11
ENDMDL
MODEL 2
REMARK VINA RESULT:     -12.9      5.943     11.094
REMARK SMILES CC(C)n1cc(C(=O)NCCCNC(=O)c2ccc(-c3c4nc(c(-c5c(F)c(F)c(F)c(F)c5F)c5ccc([nH]5)c(-c5c(F)c(F)c(F)c(F)c5F)c5nc(c(-c6c(F)c(F)c(F)c(F)c6F)c6ccc3[nH]6)C=C5)C=C4)cc2)c2ccccc2c1=O
REMARK SMILES IDX 11 1 10 2 9 3 7 4 8 5 6 7 4 8 5 9 85 10 84 11 86 12 79 13
REMARK SMILES IDX 83 14 80 15 82 16 81 17 2 18 1 19 3 20 12 21 13 22 14 23
REMARK SMILES IDX 15 25 16 26 17 27 78 28 18 29 77 30 19 31 20 32 21 33 71 34
REMARK SMILES IDX 22 35 76 36 70 37 72 38 23 39 75 40 69 41 68 42 24 44 56 45
REMARK SMILES IDX 36 46 55 47 37 48 40 49 54 50 73 51 38 52 39 53 53 55 74 56
REMARK SMILES IDX 41 57 25 58 26 59 34 60 27 61 28 62 32 63 35 64 29 65 30 66
REMARK SMILES IDX 33 67 31 68 57 69 58 70 66 71 59 72 60 73 64 74 67 75 61 76
REMARK SMILES IDX 62 77 65 78 63 79 42 80 43 81 51 82 44 83 45 84 49 85 52 86
REMARK SMILES IDX 46 87 47 88 50 89 48 90
REMARK H PARENT 9 6 13 24 72 43 40 54
REMARK Flexibility Score: inf
ROOT
ATOM      1  C   UNL A   1      38.078  19.981  25.003  1.00  0.00     0.042 C 
ENDROOT
BRANCH   1   2
ATOM      2  C   UNL A   1      37.127  21.172  24.869  1.00  0.00     0.118 C 
BRANCH   2   3
ATOM      3  N   UNL A   1      36.224  21.231  26.008  1.00  0.00    -0.352 N 
ATOM      4  C   UNL A   1      34.875  21.319  26.168  1.00  0.00     0.253 C 
ATOM      5  O   UNL A   1      34.512  21.509  27.330  1.00  0.00    -0.269 OA
ATOM      6  H   UNL A   1      36.702  21.200  26.868  1.00  0.00     0.163 HD
BRANCH   4   7
ATOM      7  C   UNL A   1      33.871  21.141  25.051  1.00  0.00     0.064 A 
ATOM      8  N   UNL A   1      32.224  22.152  23.571  1.00  0.00    -0.312 N 
ATOM      9  C   UNL A   1      33.087  22.162  24.664  1.00  0.00     0.104 A 
ATOM     10  C   UNL A   1      32.140  21.008  22.762  1.00  0.00     0.258 A 
ATOM     11  C   UNL A   1      32.747  19.767  23.300  1.00  0.00     0.048 A 
ATOM     12  O   UNL A   1      31.599  20.967  21.662  1.00  0.00    -0.269 OA
ATOM     13  C   UNL A   1      33.614  19.826  24.402  1.00  0.00     0.001 A 
ATOM     14  C   UNL A   1      32.412  18.543  22.694  1.00  0.00     0.014 A 
ATOM     15  C   UNL A   1      34.153  18.608  24.853  1.00  0.00     0.010 A 
ATOM     16  C   UNL A   1      32.937  17.352  23.182  1.00  0.00     0.001 A 
ATOM     17  C   UNL A   1      33.813  17.386  24.257  1.00  0.00     0.001 A 
BRANCH   8  18
ATOM     18  C   UNL A   1      31.576  23.415  23.095  1.00  0.00     0.084 C 
ATOM     19  C   UNL A   1      30.736  24.121  24.175  1.00  0.00     0.031 C 
ATOM     20  C   UNL A   1      32.535  24.473  22.515  1.00  0.00     0.031 C 
ENDBRANCH   8  18
ENDBRANCH   4   7
ENDBRANCH   2   3
ENDBRANCH   1   2
BRANCH   1  21
ATOM     21  C   UNL A   1      39.201  20.216  26.010  1.00  0.00     0.118 C 
BRANCH  21  22
ATOM     22  N   UNL A   1      40.223  19.180  25.951  1.00  0.00    -0.352 N 
ATOM     23  C   UNL A   1      41.591  19.287  26.062  1.00  0.00     0.251 C 
ATOM     24  H   UNL A   1      39.885  18.266  25.812  1.00  0.00     0.163 HD
ATOM     25  O   UNL A   1      42.306  18.334  25.783  1.00  0.00    -0.269 OA
BRANCH  23  26
ATOM     26  C   UNL A   1      42.198  20.566  26.491  1.00  0.00     0.039 A 
ATOM     27  C   UNL A   1      42.276  20.897  27.843  1.00  0.00     0.014 A 
ATOM     28  C   UNL A   1      42.688  21.448  25.523  1.00  0.00     0.014 A 
ATOM     29  C   UNL A   1      42.672  22.177  28.217  1.00  0.00     0.010 A 
ATOM     30  C   UNL A   1      43.170  22.704  25.908  1.00  0.00     0.010 A 
ATOM     31  C   UNL A   1      43.113  23.099  27.254  1.00  0.00    -0.014 A 
BRANCH  31  32
ATOM     32  C   UNL A   1      43.480  24.475  27.678  1.00  0.00     0.031 A 
ATOM     33  C   UNL A   1      44.917  24.923  27.668  1.00  0.00     0.074 A 
ATOM     34  C   UNL A   1      42.506  25.348  28.002  1.00  0.00     0.049 A 
ATOM     35  N   UNL A   1      45.421  26.091  27.976  1.00  0.00    -0.248 NA
ATOM     36  C   UNL A   1      45.924  23.929  27.260  1.00  0.00     0.031 C 
ATOM     37  C   UNL A   1      41.076  25.037  28.032  1.00  0.00     0.029 A 
ATOM     38  N   UNL A   1      42.563  26.677  28.337  1.00  0.00    -0.354 N 
ATOM     39  C   UNL A   1      46.796  25.967  27.817  1.00  0.00     0.074 A 
ATOM     40  C   UNL A   1      47.054  24.603  27.415  1.00  0.00     0.031 C 
ATOM     41  C   UNL A   1      40.389  26.154  28.308  1.00  0.00     0.029 A 
ATOM     42  C   UNL A   1      41.329  27.245  28.539  1.00  0.00     0.049 A 
ATOM     43  H   UNL A   1      43.409  27.176  28.424  1.00  0.00     0.167 HD
ATOM     44  C   UNL A   1      47.753  26.913  27.979  1.00  0.00     0.037 A 
ATOM     45  C   UNL A   1      40.992  28.502  28.885  1.00  0.00     0.037 A 
ATOM     46  C   UNL A   1      47.489  28.279  28.351  1.00  0.00     0.049 A 
ATOM     47  C   UNL A   1      42.078  29.519  29.099  1.00  0.00     0.074 A 
ATOM     48  C   UNL A   1      48.391  29.315  28.517  1.00  0.00     0.029 A 
ATOM     49  N   UNL A   1      46.230  28.799  28.611  1.00  0.00    -0.354 N 
ATOM     50  N   UNL A   1      43.372  29.388  28.945  1.00  0.00    -0.248 NA
ATOM     51  C   UNL A   1      41.656  30.853  29.546  1.00  0.00     0.031 C 
ATOM     52  C   UNL A   1      47.683  30.451  28.919  1.00  0.00     0.029 A 
ATOM     53  C   UNL A   1      46.334  30.136  28.957  1.00  0.00     0.049 A 
ATOM     54  H   UNL A   1      45.387  28.293  28.556  1.00  0.00     0.167 HD
ATOM     55  C   UNL A   1      43.920  30.621  29.268  1.00  0.00     0.074 A 
ATOM     56  C   UNL A   1      42.815  31.496  29.603  1.00  0.00     0.031 C 
ATOM     57  C   UNL A   1      45.224  30.992  29.291  1.00  0.00     0.037 A 
BRANCH  44  58
ATOM     58  C   UNL A   1      49.183  26.512  27.760  1.00  0.00     0.064 A 
ATOM     59  C   UNL A   1      49.734  26.427  26.473  1.00  0.00     0.173 A 
ATOM     60  C   UNL A   1      50.032  26.282  28.853  1.00  0.00     0.173 A 
ATOM     61  F   UNL A   1      48.962  26.625  25.393  1.00  0.00    -0.203 F 
ATOM     62  C   UNL A   1      51.079  26.115  26.288  1.00  0.00     0.198 A 
ATOM     63  C   UNL A   1      51.382  25.997  28.666  1.00  0.00     0.198 A 
ATOM     64  F   UNL A   1      49.557  26.356  30.105  1.00  0.00    -0.203 F 
ATOM     65  F   UNL A   1      51.576  26.008  25.048  1.00  0.00    -0.200 F 
ATOM     66  C   UNL A   1      51.904  25.910  27.384  1.00  0.00     0.200 A 
ATOM     67  F   UNL A   1      52.180  25.811  29.727  1.00  0.00    -0.200 F 
ATOM     68  F   UNL A   1      53.201  25.626  27.204  1.00  0.00    -0.200 F 
ENDBRANCH  44  58
BRANCH  45  69
ATOM     69  C   UNL A   1      39.559  28.858  29.046  1.00  0.00     0.064 A 
ATOM     70  C   UNL A   1      38.927  28.753  30.293  1.00  0.00     0.173 A 
ATOM     71  C   UNL A   1      38.801  29.341  27.970  1.00  0.00     0.173 A 
ATOM     72  F   UNL A   1      39.603  28.276  31.348  1.00  0.00    -0.203 F 
ATOM     73  C   UNL A   1      37.592  29.117  30.455  1.00  0.00     0.198 A 
ATOM     74  C   UNL A   1      37.476  29.734  28.139  1.00  0.00     0.198 A 
ATOM     75  F   UNL A   1      39.361  29.462  26.756  1.00  0.00    -0.203 F 
ATOM     76  F   UNL A   1      37.003  28.982  31.651  1.00  0.00    -0.200 F 
ATOM     77  C   UNL A   1      36.871  29.617  29.381  1.00  0.00     0.200 A 
ATOM     78  F   UNL A   1      36.789  30.232  27.102  1.00  0.00    -0.200 F 
ATOM     79  F   UNL A   1      35.593  29.985  29.541  1.00  0.00    -0.200 F 
ENDBRANCH  45  69
BRANCH  57  80
ATOM     80  C   UNL A   1      45.533  32.404  29.688  1.00  0.00     0.064 A 
ATOM     81  C   UNL A   1      45.481  33.451  28.757  1.00  0.00     0.173 A 
ATOM     82  C   UNL A   1      45.816  32.723  31.025  1.00  0.00     0.173 A 
ATOM     83  F   UNL A   1      45.227  33.193  27.465  1.00  0.00    -0.203 F 
ATOM     84  C   UNL A   1      45.714  34.767  29.148  1.00  0.00     0.198 A 
ATOM     85  C   UNL A   1      46.022  34.043  31.416  1.00  0.00     0.198 A 
ATOM     86  F   UNL A   1      45.870  31.758  31.954  1.00  0.00    -0.203 F 
ATOM     87  F   UNL A   1      45.693  35.748  28.235  1.00  0.00    -0.200 F 
ATOM     88  C   UNL A   1      45.975  35.063  30.477  1.00  0.00     0.200 A 
ATOM     89  F   UNL A   1      46.259  34.329  32.704  1.00  0.00    -0.200 F 
ATOM     90  F   UNL A   1      46.184  36.332  30.854  1.00  0.00    -0.200 F 
ENDBRANCH  57  80
ENDBRANCH  31  32
ENDBRANCH  23  26
ENDBRANCH  21  22
ENDBRANCH   1  21
TORSDOF 11
ENDMDL
MODEL 3
REMARK VINA RESULT:     -12.9      6.076     11.551
REMARK SMILES CC(C)n1cc(C(=O)NCCCNC(=O)c2ccc(-c3c4nc(c(-c5c(F)c(F)c(F)c(F)c5F)c5ccc([nH]5)c(-c5c(F)c(F)c(F)c(F)c5F)c5nc(c(-c6c(F)c(F)c(F)c(F)c6F)c6ccc3[nH]6)C=C5)C=C4)cc2)c2ccccc2c1=O
REMARK SMILES IDX 11 1 10 2 9 3 7 4 8 5 6 7 4 8 5 9 85 10 84 11 86 12 79 13
REMARK SMILES IDX 83 14 80 15 82 16 81 17 2 18 1 19 3 20 12 21 13 22 14 23
REMARK SMILES IDX 15 25 16 26 17 27 78 28 18 29 77 30 19 31 20 32 21 33 71 34
REMARK SMILES IDX 22 35 76 36 70 37 72 38 23 39 75 40 69 41 68 42 24 44 56 45
REMARK SMILES IDX 36 46 55 47 37 48 40 49 54 50 73 51 38 52 39 53 53 55 74 56
REMARK SMILES IDX 41 57 25 58 26 59 34 60 27 61 28 62 32 63 35 64 29 65 30 66
REMARK SMILES IDX 33 67 31 68 57 69 58 70 66 71 59 72 60 73 64 74 67 75 61 76
REMARK SMILES IDX 62 77 65 78 63 79 42 80 43 81 51 82 44 83 45 84 49 85 52 86
REMARK SMILES IDX 46 87 47 88 50 89 48 90
REMARK H PARENT 9 6 13 24 72 43 40 54
REMARK Flexibility Score: inf
ROOT
ATOM      1  C   UNL A   1      38.116  19.990  25.001  1.00  0.00     0.042 C 
ENDROOT
BRANCH   1   2
ATOM      2  C   UNL A   1      37.139  21.156  24.839  1.00  0.00     0.118 C 
BRANCH   2   3
ATOM      3  N   UNL A   1      36.234  21.223  25.976  1.00  0.00    -0.352 N 
ATOM      4  C   UNL A   1      34.884  21.313  26.132  1.00  0.00     0.253 C 
ATOM      5  O   UNL A   1      34.519  21.509  27.292  1.00  0.00    -0.269 OA
ATOM      6  H   UNL A   1      36.710  21.195  26.836  1.00  0.00     0.163 HD
BRANCH   4   7
ATOM      7  C   UNL A   1      33.883  21.129  25.014  1.00  0.00     0.064 A 
ATOM      8  N   UNL A   1      32.225  22.130  23.539  1.00  0.00    -0.312 N 
ATOM      9  C   UNL A   1      33.088  22.145  24.632  1.00  0.00     0.104 A 
ATOM     10  C   UNL A   1      32.153  20.990  22.725  1.00  0.00     0.258 A 
ATOM     11  C   UNL A   1      32.774  19.752  23.256  1.00  0.00     0.048 A 
ATOM     12  O   UNL A   1      31.613  20.949  21.624  1.00  0.00    -0.269 OA
ATOM     13  C   UNL A   1      33.640  19.816  24.358  1.00  0.00     0.001 A 
ATOM     14  C   UNL A   1      32.451  18.528  22.644  1.00  0.00     0.014 A 
ATOM     15  C   UNL A   1      34.192  18.600  24.804  1.00  0.00     0.010 A 
ATOM     16  C   UNL A   1      32.989  17.340  23.126  1.00  0.00     0.001 A 
ATOM     17  C   UNL A   1      33.865  17.379  24.202  1.00  0.00     0.001 A 
BRANCH   8  18
ATOM     18  C   UNL A   1      31.563  23.389  23.069  1.00  0.00     0.084 C 
ATOM     19  C   UNL A   1      30.654  24.039  24.129  1.00  0.00     0.031 C 
ATOM     20  C   UNL A   1      32.517  24.489  22.567  1.00  0.00     0.031 C 
ENDBRANCH   8  18
ENDBRANCH   4   7
ENDBRANCH   2   3
ENDBRANCH   1   2
BRANCH   1  21
ATOM     21  C   UNL A   1      39.212  20.260  26.029  1.00  0.00     0.118 C 
BRANCH  21  22
ATOM     22  N   UNL A   1      40.224  19.213  26.047  1.00  0.00    -0.352 N 
ATOM     23  C   UNL A   1      41.595  19.315  26.126  1.00  0.00     0.251 C 
ATOM     24  H   UNL A   1      39.876  18.293  25.995  1.00  0.00     0.163 HD
ATOM     25  O   UNL A   1      42.297  18.334  25.923  1.00  0.00    -0.269 OA
BRANCH  23  26
ATOM     26  C   UNL A   1      42.219  20.622  26.429  1.00  0.00     0.039 A 
ATOM     27  C   UNL A   1      42.411  21.029  27.749  1.00  0.00     0.014 A 
ATOM     28  C   UNL A   1      42.610  21.453  25.375  1.00  0.00     0.014 A 
ATOM     29  C   UNL A   1      42.821  22.330  28.016  1.00  0.00     0.010 A 
ATOM     30  C   UNL A   1      43.107  22.732  25.647  1.00  0.00     0.010 A 
ATOM     31  C   UNL A   1      43.163  23.201  26.969  1.00  0.00    -0.014 A 
BRANCH  31  32
ATOM     32  C   UNL A   1      43.547  24.602  27.283  1.00  0.00     0.031 A 
ATOM     33  C   UNL A   1      44.927  25.109  26.960  1.00  0.00     0.074 A 
ATOM     34  C   UNL A   1      42.624  25.441  27.793  1.00  0.00     0.049 A 
ATOM     35  N   UNL A   1      45.430  26.306  27.136  1.00  0.00    -0.248 NA
ATOM     36  C   UNL A   1      45.870  24.149  26.363  1.00  0.00     0.031 C 
ATOM     37  C   UNL A   1      41.249  25.071  28.131  1.00  0.00     0.029 A 
ATOM     38  N   UNL A   1      42.689  26.780  28.086  1.00  0.00    -0.354 N 
ATOM     39  C   UNL A   1      46.744  26.236  26.690  1.00  0.00     0.074 A 
ATOM     40  C   UNL A   1      46.975  24.874  26.264  1.00  0.00     0.031 C 
ATOM     41  C   UNL A   1      40.584  26.165  28.529  1.00  0.00     0.029 A 
ATOM     42  C   UNL A   1      41.501  27.300  28.538  1.00  0.00     0.049 A 
ATOM     43  H   UNL A   1      43.509  27.315  27.983  1.00  0.00     0.167 HD
ATOM     44  C   UNL A   1      47.669  27.224  26.629  1.00  0.00     0.037 A 
ATOM     45  C   UNL A   1      41.186  28.550  28.926  1.00  0.00     0.037 A 
ATOM     46  C   UNL A   1      47.427  28.587  27.027  1.00  0.00     0.049 A 
ATOM     47  C   UNL A   1      42.244  29.617  28.888  1.00  0.00     0.074 A 
ATOM     48  C   UNL A   1      48.293  29.665  26.980  1.00  0.00     0.029 A 
ATOM     49  N   UNL A   1      46.227  29.060  27.540  1.00  0.00    -0.354 N 
ATOM     50  N   UNL A   1      43.481  29.537  28.465  1.00  0.00    -0.248 NA
ATOM     51  C   UNL A   1      41.865  30.944  29.393  1.00  0.00     0.031 C 
ATOM     52  C   UNL A   1      47.634  30.779  27.506  1.00  0.00     0.029 A 
ATOM     53  C   UNL A   1      46.340  30.409  27.834  1.00  0.00     0.049 A 
ATOM     54  H   UNL A   1      45.417  28.518  27.674  1.00  0.00     0.167 HD
ATOM     55  C   UNL A   1      44.027  30.800  28.644  1.00  0.00     0.074 A 
ATOM     56  C   UNL A   1      42.979  31.635  29.192  1.00  0.00     0.031 C 
ATOM     57  C   UNL A   1      45.288  31.225  28.383  1.00  0.00     0.037 A 
BRANCH  44  58
ATOM     58  C   UNL A   1      49.037  26.879  26.117  1.00  0.00     0.064 A 
ATOM     59  C   UNL A   1      50.000  26.279  26.941  1.00  0.00     0.173 A 
ATOM     60  C   UNL A   1      49.364  27.082  24.767  1.00  0.00     0.173 A 
ATOM     61  F   UNL A   1      49.743  26.074  28.242  1.00  0.00    -0.203 F 
ATOM     62  C   UNL A   1      51.244  25.907  26.436  1.00  0.00     0.198 A 
ATOM     63  C   UNL A   1      50.597  26.685  24.260  1.00  0.00     0.198 A 
ATOM     64  F   UNL A   1      48.476  27.648  23.935  1.00  0.00    -0.203 F 
ATOM     65  F   UNL A   1      52.160  25.363  27.250  1.00  0.00    -0.200 F 
ATOM     66  C   UNL A   1      51.538  26.100  25.094  1.00  0.00     0.200 A 
ATOM     67  F   UNL A   1      50.875  26.863  22.960  1.00  0.00    -0.200 F 
ATOM     68  F   UNL A   1      52.729  25.727  24.607  1.00  0.00    -0.200 F 
ENDBRANCH  44  58
BRANCH  45  69
ATOM     69  C   UNL A   1      39.805  28.849  29.384  1.00  0.00     0.064 A 
ATOM     70  C   UNL A   1      38.835  29.319  28.487  1.00  0.00     0.173 A 
ATOM     71  C   UNL A   1      39.416  28.639  30.714  1.00  0.00     0.173 A 
ATOM     72  F   UNL A   1      39.164  29.556  27.210  1.00  0.00    -0.203 F 
ATOM     73  C   UNL A   1      37.530  29.568  28.907  1.00  0.00     0.198 A 
ATOM     74  C   UNL A   1      38.104  28.859  31.125  1.00  0.00     0.198 A 
ATOM     75  F   UNL A   1      40.307  28.187  31.610  1.00  0.00    -0.203 F 
ATOM     76  F   UNL A   1      36.628  30.043  28.037  1.00  0.00    -0.200 F 
ATOM     77  C   UNL A   1      37.163  29.327  30.222  1.00  0.00     0.200 A 
ATOM     78  F   UNL A   1      37.750  28.608  32.394  1.00  0.00    -0.200 F 
ATOM     79  F   UNL A   1      35.903  29.549  30.620  1.00  0.00    -0.200 F 
ENDBRANCH  45  69
BRANCH  57  80
ATOM     80  C   UNL A   1      45.608  32.660  28.683  1.00  0.00     0.064 A 
ATOM     81  C   UNL A   1      45.353  33.673  27.748  1.00  0.00     0.173 A 
ATOM     82  C   UNL A   1      46.109  33.031  29.939  1.00  0.00     0.173 A 
ATOM     83  F   UNL A   1      44.886  33.366  26.529  1.00  0.00    -0.203 F 
ATOM     84  C   UNL A   1      45.601  35.008  28.058  1.00  0.00     0.198 A 
ATOM     85  C   UNL A   1      46.330  34.369  30.254  1.00  0.00     0.198 A 
ATOM     86  F   UNL A   1      46.362  32.098  30.869  1.00  0.00    -0.203 F 
ATOM     87  F   UNL A   1      45.382  35.958  27.138  1.00  0.00    -0.200 F 
ATOM     88  C   UNL A   1      46.080  35.356  29.312  1.00  0.00     0.200 A 
ATOM     89  F   UNL A   1      46.779  34.703  31.472  1.00  0.00    -0.200 F 
ATOM     90  F   UNL A   1      46.304  36.642  29.613  1.00  0.00    -0.200 F 
ENDBRANCH  57  80
ENDBRANCH  31  32
ENDBRANCH  23  26
ENDBRANCH  21  22
ENDBRANCH   1  21
TORSDOF 11
ENDMDL
