MODEL 1
REMARK VINA RESULT:     -11.6      0.000      0.000
REMARK SMILES CC(C)N1C[C@@H](C(=O)NCCCNC(=O)c2ccc(-c3c4nc(c(-c5c(F)c(F)c(F)c(F)c5F)c5ccc([nH]5)c(-c5c(F)c(F)c(F)c(F)c5F)c5nc(c(-c6c(F)c(F)c(F)c(F)c6F)c6ccc3[nH]6)C=C5)C=C4)cc2)CC1=O
REMARK SMILES IDX 11 1 10 2 9 3 7 4 8 5 6 7 4 8 5 9 80 10 79 11 81 12 2 13
REMARK SMILES IDX 1 14 3 15 12 16 13 17 14 18 15 20 16 21 17 22 78 23 18 24
REMARK SMILES IDX 77 25 19 26 20 27 21 28 71 29 22 30 76 31 70 32 72 33 23 34
REMARK SMILES IDX 75 35 69 36 68 37 24 39 56 40 36 41 55 42 37 43 40 44 54 45
REMARK SMILES IDX 73 46 38 47 39 48 53 50 74 51 41 52 25 53 26 54 34 55 27 56
REMARK SMILES IDX 28 57 32 58 35 59 29 60 30 61 33 62 31 63 57 64 58 65 66 66
REMARK SMILES IDX 59 67 60 68 64 69 67 70 61 71 62 72 65 73 63 74 42 75 43 76
REMARK SMILES IDX 51 77 44 78 45 79 49 80 52 81 46 82 47 83 50 84 48 85
REMARK H PARENT 9 6 13 19 72 38 40 49
REMARK Flexibility Score: inf
ROOT
ATOM      1  C   UNL A   1      31.304  32.019  26.489  1.00  0.00     0.042 C 
ENDROOT
BRANCH   1   2
ATOM      2  C   UNL A   1      31.440  30.571  26.036  1.00  0.00     0.117 C 
BRANCH   2   3
ATOM      3  N   UNL A   1      31.014  30.383  24.659  1.00  0.00    -0.356 N 
ATOM      4  C   UNL A   1      30.721  29.266  23.947  1.00  0.00     0.225 C 
ATOM      5  O   UNL A   1      30.390  29.421  22.769  1.00  0.00    -0.275 OA
ATOM      6  H   UNL A   1      30.919  31.220  24.149  1.00  0.00     0.163 HD
BRANCH   4   7
ATOM      7  C   UNL A   1      30.770  27.875  24.541  1.00  0.00     0.107 C 
ATOM      8  N   UNL A   1      31.974  25.889  24.204  1.00  0.00    -0.339 N 
ATOM      9  C   UNL A   1      32.167  27.283  24.529  1.00  0.00     0.133 C 
ATOM     10  C   UNL A   1      30.686  25.609  23.780  1.00  0.00     0.223 C 
ATOM     11  C   UNL A   1      29.854  26.858  23.872  1.00  0.00     0.115 C 
ATOM     12  O   UNL A   1      30.278  24.537  23.358  1.00  0.00    -0.275 OA
BRANCH   8  13
ATOM     13  C   UNL A   1      33.064  24.914  24.126  1.00  0.00     0.078 C 
ATOM     14  C   UNL A   1      33.730  24.959  22.750  1.00  0.00     0.031 C 
ATOM     15  C   UNL A   1      34.102  25.090  25.232  1.00  0.00     0.031 C 
ENDBRANCH   8  13
ENDBRANCH   4   7
ENDBRANCH   2   3
ENDBRANCH   1   2
BRANCH   1  16
ATOM     16  C   UNL A   1      32.575  32.621  27.076  1.00  0.00     0.118 C 
BRANCH  16  17
ATOM     17  N   UNL A   1      32.386  33.978  27.565  1.00  0.00    -0.352 N 
ATOM     18  C   UNL A   1      33.015  34.662  28.574  1.00  0.00     0.251 C 
ATOM     19  H   UNL A   1      31.691  34.491  27.093  1.00  0.00     0.163 HD
ATOM     20  O   UNL A   1      32.560  35.744  28.938  1.00  0.00    -0.269 OA
BRANCH  18  21
ATOM     21  C   UNL A   1      34.215  34.112  29.245  1.00  0.00     0.039 A 
ATOM     22  C   UNL A   1      34.031  33.225  30.310  1.00  0.00     0.014 A 
ATOM     23  C   UNL A   1      35.509  34.482  28.868  1.00  0.00     0.014 A 
ATOM     24  C   UNL A   1      35.139  32.664  30.947  1.00  0.00     0.010 A 
ATOM     25  C   UNL A   1      36.612  33.851  29.442  1.00  0.00     0.010 A 
ATOM     26  C   UNL A   1      36.440  32.936  30.490  1.00  0.00    -0.014 A 
BRANCH  26  27
ATOM     27  C   UNL A   1      37.610  32.243  31.091  1.00  0.00     0.031 A 
ATOM     28  C   UNL A   1      38.087  32.582  32.476  1.00  0.00     0.074 A 
ATOM     29  C   UNL A   1      38.264  31.315  30.364  1.00  0.00     0.049 A 
ATOM     30  N   UNL A   1      39.069  32.054  33.165  1.00  0.00    -0.248 NA
ATOM     31  C   UNL A   1      37.389  33.673  33.172  1.00  0.00     0.031 C 
ATOM     32  C   UNL A   1      37.941  30.944  28.985  1.00  0.00     0.029 A 
ATOM     33  N   UNL A   1      39.329  30.510  30.683  1.00  0.00    -0.354 N 
ATOM     34  C   UNL A   1      39.105  32.746  34.368  1.00  0.00     0.074 A 
ATOM     35  C   UNL A   1      38.090  33.774  34.293  1.00  0.00     0.031 C 
ATOM     36  C   UNL A   1      38.759  29.957  28.591  1.00  0.00     0.029 A 
ATOM     37  C   UNL A   1      39.690  29.650  29.674  1.00  0.00     0.049 A 
ATOM     38  H   UNL A   1      39.792  30.546  31.550  1.00  0.00     0.167 HD
ATOM     39  C   UNL A   1      39.895  32.527  35.448  1.00  0.00     0.037 A 
ATOM     40  C   UNL A   1      40.658  28.718  29.626  1.00  0.00     0.037 A 
ATOM     41  C   UNL A   1      40.902  31.498  35.522  1.00  0.00     0.049 A 
ATOM     42  C   UNL A   1      41.520  28.496  30.838  1.00  0.00     0.074 A 
ATOM     43  C   UNL A   1      41.715  31.160  36.590  1.00  0.00     0.029 A 
ATOM     44  N   UNL A   1      41.238  30.645  34.481  1.00  0.00    -0.354 N 
ATOM     45  N   UNL A   1      41.487  29.100  32.002  1.00  0.00    -0.248 NA
ATOM     46  C   UNL A   1      42.547  27.453  30.733  1.00  0.00     0.031 C 
ATOM     47  C   UNL A   1      42.584  30.144  36.176  1.00  0.00     0.029 A 
ATOM     48  C   UNL A   1      42.269  29.802  34.872  1.00  0.00     0.049 A 
ATOM     49  H   UNL A   1      40.810  30.640  33.594  1.00  0.00     0.167 HD
ATOM     50  C   UNL A   1      42.470  28.495  32.773  1.00  0.00     0.074 A 
ATOM     51  C   UNL A   1      43.058  27.455  31.955  1.00  0.00     0.031 C 
ATOM     52  C   UNL A   1      42.854  28.778  34.043  1.00  0.00     0.037 A 
BRANCH  39  53
ATOM     53  C   UNL A   1      39.703  33.421  36.643  1.00  0.00     0.064 A 
ATOM     54  C   UNL A   1      40.394  34.636  36.775  1.00  0.00     0.173 A 
ATOM     55  C   UNL A   1      38.786  33.079  37.649  1.00  0.00     0.173 A 
ATOM     56  F   UNL A   1      41.289  35.008  35.847  1.00  0.00    -0.203 F 
ATOM     57  C   UNL A   1      40.198  35.458  37.881  1.00  0.00     0.198 A 
ATOM     58  C   UNL A   1      38.567  33.921  38.738  1.00  0.00     0.198 A 
ATOM     59  F   UNL A   1      38.093  31.934  37.573  1.00  0.00    -0.203 F 
ATOM     60  F   UNL A   1      40.909  36.588  38.010  1.00  0.00    -0.200 F 
ATOM     61  C   UNL A   1      39.279  35.105  38.857  1.00  0.00     0.200 A 
ATOM     62  F   UNL A   1      37.667  33.585  39.672  1.00  0.00    -0.200 F 
ATOM     63  F   UNL A   1      39.084  35.902  39.917  1.00  0.00    -0.200 F 
ENDBRANCH  39  53
BRANCH  40  64
ATOM     64  C   UNL A   1      40.845  27.900  28.397  1.00  0.00     0.064 A 
ATOM     65  C   UNL A   1      40.211  26.658  28.251  1.00  0.00     0.173 A 
ATOM     66  C   UNL A   1      41.669  28.338  27.350  1.00  0.00     0.173 A 
ATOM     67  F   UNL A   1      39.429  26.186  29.233  1.00  0.00    -0.203 F 
ATOM     68  C   UNL A   1      40.416  25.873  27.118  1.00  0.00     0.198 A 
ATOM     69  C   UNL A   1      41.845  27.568  26.202  1.00  0.00     0.198 A 
ATOM     70  F   UNL A   1      42.293  29.522  27.435  1.00  0.00    -0.203 F 
ATOM     71  F   UNL A   1      39.843  24.666  27.031  1.00  0.00    -0.200 F 
ATOM     72  C   UNL A   1      41.227  26.331  26.091  1.00  0.00     0.200 A 
ATOM     73  F   UNL A   1      42.616  28.023  25.205  1.00  0.00    -0.200 F 
ATOM     74  F   UNL A   1      41.421  25.579  25.000  1.00  0.00    -0.200 F 
ENDBRANCH  40  64
BRANCH  52  75
ATOM     75  C   UNL A   1      43.950  27.928  34.626  1.00  0.00     0.064 A 
ATOM     76  C   UNL A   1      45.300  28.305  34.546  1.00  0.00     0.173 A 
ATOM     77  C   UNL A   1      43.647  26.714  35.263  1.00  0.00     0.173 A 
ATOM     78  F   UNL A   1      45.648  29.449  33.938  1.00  0.00    -0.203 F 
ATOM     79  C   UNL A   1      46.307  27.475  35.035  1.00  0.00     0.198 A 
ATOM     80  C   UNL A   1      44.653  25.907  35.786  1.00  0.00     0.198 A 
ATOM     81  F   UNL A   1      42.373  26.310  35.377  1.00  0.00    -0.203 F 
ATOM     82  F   UNL A   1      47.592  27.820  34.876  1.00  0.00    -0.200 F 
ATOM     83  C   UNL A   1      45.983  26.279  35.657  1.00  0.00     0.200 A 
ATOM     84  F   UNL A   1      44.337  24.760  36.402  1.00  0.00    -0.200 F 
ATOM     85  F   UNL A   1      46.953  25.479  36.120  1.00  0.00    -0.200 F 
ENDBRANCH  52  75
ENDBRANCH  26  27
ENDBRANCH  18  21
ENDBRANCH  16  17
ENDBRANCH   1  16
TORSDOF 11
ENDMDL
MODEL 2
REMARK VINA RESULT:     -11.6      0.063      1.670
REMARK SMILES CC(C)N1C[C@@H](C(=O)NCCCNC(=O)c2ccc(-c3c4nc(c(-c5c(F)c(F)c(F)c(F)c5F)c5ccc([nH]5)c(-c5c(F)c(F)c(F)c(F)c5F)c5nc(c(-c6c(F)c(F)c(F)c(F)c6F)c6ccc3[nH]6)C=C5)C=C4)cc2)CC1=O
REMARK SMILES IDX 11 1 10 2 9 3 7 4 8 5 6 7 4 8 5 9 80 10 79 11 81 12 2 13
REMARK SMILES IDX 1 14 3 15 12 16 13 17 14 18 15 20 16 21 17 22 78 23 18 24
REMARK SMILES IDX 77 25 19 26 20 27 21 28 71 29 22 30 76 31 70 32 72 33 23 34
REMARK SMILES IDX 75 35 69 36 68 37 24 39 56 40 36 41 55 42 37 43 40 44 54 45
REMARK SMILES IDX 73 46 38 47 39 48 53 50 74 51 41 52 25 53 26 54 34 55 27 56
REMARK SMILES IDX 28 57 32 58 35 59 29 60 30 61 33 62 31 63 57 64 58 65 66 66
REMARK SMILES IDX 59 67 60 68 64 69 67 70 61 71 62 72 65 73 63 74 42 75 43 76
REMARK SMILES IDX 51 77 44 78 45 79 49 80 52 81 46 82 47 83 50 84 48 85
REMARK H PARENT 9 6 13 19 72 38 40 49
REMARK Flexibility Score: inf
ROOT
ATOM      1  C   UNL A   1      31.295  31.971  26.459  1.00  0.00     0.042 C 
ENDROOT
BRANCH   1   2
ATOM      2  C   UNL A   1      31.427  30.525  25.998  1.00  0.00     0.117 C 
BRANCH   2   3
ATOM      3  N   UNL A   1      30.982  30.344  24.626  1.00  0.00    -0.356 N 
ATOM      4  C   UNL A   1      30.673  29.230  23.914  1.00  0.00     0.225 C 
ATOM      5  O   UNL A   1      30.328  29.391  22.741  1.00  0.00    -0.275 OA
ATOM      6  H   UNL A   1      30.886  31.183  24.120  1.00  0.00     0.163 HD
BRANCH   4   7
ATOM      7  C   UNL A   1      30.720  27.838  24.505  1.00  0.00     0.107 C 
ATOM      8  N   UNL A   1      31.946  25.863  24.186  1.00  0.00    -0.339 N 
ATOM      9  C   UNL A   1      32.121  27.256  24.520  1.00  0.00     0.133 C 
ATOM     10  C   UNL A   1      30.669  25.575  23.734  1.00  0.00     0.223 C 
ATOM     11  C   UNL A   1      29.826  26.817  23.813  1.00  0.00     0.115 C 
ATOM     12  O   UNL A   1      30.278  24.500  23.299  1.00  0.00    -0.275 OA
BRANCH   8  13
ATOM     13  C   UNL A   1      33.045  24.897  24.127  1.00  0.00     0.078 C 
ATOM     14  C   UNL A   1      33.709  24.919  22.749  1.00  0.00     0.031 C 
ATOM     15  C   UNL A   1      34.082  25.104  25.228  1.00  0.00     0.031 C 
ENDBRANCH   8  13
ENDBRANCH   4   7
ENDBRANCH   2   3
ENDBRANCH   1   2
BRANCH   1  16
ATOM     16  C   UNL A   1      32.554  32.549  27.097  1.00  0.00     0.118 C 
BRANCH  16  17
ATOM     17  N   UNL A   1      32.383  33.922  27.545  1.00  0.00    -0.352 N 
ATOM     18  C   UNL A   1      33.025  34.629  28.531  1.00  0.00     0.251 C 
ATOM     19  H   UNL A   1      31.692  34.428  27.062  1.00  0.00     0.163 HD
ATOM     20  O   UNL A   1      32.584  35.726  28.864  1.00  0.00    -0.269 OA
BRANCH  18  21
ATOM     21  C   UNL A   1      34.222  34.085  29.212  1.00  0.00     0.039 A 
ATOM     22  C   UNL A   1      34.034  33.201  30.279  1.00  0.00     0.014 A 
ATOM     23  C   UNL A   1      35.517  34.458  28.843  1.00  0.00     0.014 A 
ATOM     24  C   UNL A   1      35.139  32.646  30.926  1.00  0.00     0.010 A 
ATOM     25  C   UNL A   1      36.618  33.833  29.427  1.00  0.00     0.010 A 
ATOM     26  C   UNL A   1      36.442  32.922  30.477  1.00  0.00    -0.014 A 
BRANCH  26  27
ATOM     27  C   UNL A   1      37.610  32.234  31.089  1.00  0.00     0.031 A 
ATOM     28  C   UNL A   1      38.081  32.586  32.473  1.00  0.00     0.074 A 
ATOM     29  C   UNL A   1      38.268  31.301  30.373  1.00  0.00     0.049 A 
ATOM     30  N   UNL A   1      39.060  32.064  33.171  1.00  0.00    -0.248 NA
ATOM     31  C   UNL A   1      37.379  33.682  33.157  1.00  0.00     0.031 C 
ATOM     32  C   UNL A   1      37.952  30.918  28.995  1.00  0.00     0.029 A 
ATOM     33  N   UNL A   1      39.333  30.500  30.702  1.00  0.00    -0.354 N 
ATOM     34  C   UNL A   1      39.091  32.767  34.368  1.00  0.00     0.074 A 
ATOM     35  C   UNL A   1      38.075  33.793  34.279  1.00  0.00     0.031 C 
ATOM     36  C   UNL A   1      38.772  29.928  28.613  1.00  0.00     0.029 A 
ATOM     37  C   UNL A   1      39.698  29.632  29.702  1.00  0.00     0.049 A 
ATOM     38  H   UNL A   1      39.792  30.544  31.572  1.00  0.00     0.167 HD
ATOM     39  C   UNL A   1      39.877  32.558  35.453  1.00  0.00     0.037 A 
ATOM     40  C   UNL A   1      40.667  28.700  29.666  1.00  0.00     0.037 A 
ATOM     41  C   UNL A   1      40.884  31.531  35.540  1.00  0.00     0.049 A 
ATOM     42  C   UNL A   1      41.525  28.490  30.884  1.00  0.00     0.074 A 
ATOM     43  C   UNL A   1      41.693  31.202  36.613  1.00  0.00     0.029 A 
ATOM     44  N   UNL A   1      41.226  30.668  34.507  1.00  0.00    -0.354 N 
ATOM     45  N   UNL A   1      41.486  29.103  32.043  1.00  0.00    -0.248 NA
ATOM     46  C   UNL A   1      42.553  27.446  30.792  1.00  0.00     0.031 C 
ATOM     47  C   UNL A   1      42.565  30.184  36.212  1.00  0.00     0.029 A 
ATOM     48  C   UNL A   1      42.255  29.830  34.909  1.00  0.00     0.049 A 
ATOM     49  H   UNL A   1      40.801  30.655  33.619  1.00  0.00     0.167 HD
ATOM     50  C   UNL A   1      42.467  28.505  32.823  1.00  0.00     0.074 A 
ATOM     51  C   UNL A   1      43.059  27.459  32.016  1.00  0.00     0.031 C 
ATOM     52  C   UNL A   1      42.845  28.800  34.092  1.00  0.00     0.037 A 
BRANCH  39  53
ATOM     53  C   UNL A   1      39.679  33.461  36.639  1.00  0.00     0.064 A 
ATOM     54  C   UNL A   1      38.817  33.118  37.693  1.00  0.00     0.173 A 
ATOM     55  C   UNL A   1      40.392  34.666  36.745  1.00  0.00     0.173 A 
ATOM     56  F   UNL A   1      38.103  31.984  37.639  1.00  0.00    -0.203 F 
ATOM     57  C   UNL A   1      38.652  33.960  38.790  1.00  0.00     0.198 A 
ATOM     58  C   UNL A   1      40.251  35.489  37.861  1.00  0.00     0.198 A 
ATOM     59  F   UNL A   1      41.235  35.042  35.772  1.00  0.00    -0.203 F 
ATOM     60  F   UNL A   1      37.783  33.636  39.758  1.00  0.00    -0.200 F 
ATOM     61  C   UNL A   1      39.375  35.140  38.878  1.00  0.00     0.200 A 
ATOM     62  F   UNL A   1      40.963  36.620  37.951  1.00  0.00    -0.200 F 
ATOM     63  F   UNL A   1      39.224  35.944  39.939  1.00  0.00    -0.200 F 
ENDBRANCH  39  53
BRANCH  40  64
ATOM     64  C   UNL A   1      40.860  27.872  28.445  1.00  0.00     0.064 A 
ATOM     65  C   UNL A   1      41.684  28.308  27.398  1.00  0.00     0.173 A 
ATOM     66  C   UNL A   1      40.216  26.635  28.295  1.00  0.00     0.173 A 
ATOM     67  F   UNL A   1      42.307  29.494  27.485  1.00  0.00    -0.203 F 
ATOM     68  C   UNL A   1      41.835  27.553  26.236  1.00  0.00     0.198 A 
ATOM     69  C   UNL A   1      40.396  25.865  27.148  1.00  0.00     0.198 A 
ATOM     70  F   UNL A   1      39.423  26.168  29.269  1.00  0.00    -0.203 F 
ATOM     71  F   UNL A   1      42.584  28.021  25.230  1.00  0.00    -0.200 F 
ATOM     72  C   UNL A   1      41.196  26.329  26.115  1.00  0.00     0.200 A 
ATOM     73  F   UNL A   1      39.790  24.673  27.043  1.00  0.00    -0.200 F 
ATOM     74  F   UNL A   1      41.345  25.600  25.001  1.00  0.00    -0.200 F 
ENDBRANCH  40  64
BRANCH  52  75
ATOM     75  C   UNL A   1      43.939  27.955  34.687  1.00  0.00     0.064 A 
ATOM     76  C   UNL A   1      45.290  28.330  34.604  1.00  0.00     0.173 A 
ATOM     77  C   UNL A   1      43.634  26.751  35.339  1.00  0.00     0.173 A 
ATOM     78  F   UNL A   1      45.640  29.465  33.981  1.00  0.00    -0.203 F 
ATOM     79  C   UNL A   1      46.295  27.505  35.103  1.00  0.00     0.198 A 
ATOM     80  C   UNL A   1      44.639  25.948  35.872  1.00  0.00     0.198 A 
ATOM     81  F   UNL A   1      42.360  26.349  35.457  1.00  0.00    -0.203 F 
ATOM     82  F   UNL A   1      47.580  27.846  34.941  1.00  0.00    -0.200 F 
ATOM     83  C   UNL A   1      45.969  26.318  35.740  1.00  0.00     0.200 A 
ATOM     84  F   UNL A   1      44.320  24.810  36.503  1.00  0.00    -0.200 F 
ATOM     85  F   UNL A   1      46.937  25.521  36.214  1.00  0.00    -0.200 F 
ENDBRANCH  52  75
ENDBRANCH  26  27
ENDBRANCH  18  21
ENDBRANCH  16  17
ENDBRANCH   1  16
TORSDOF 11
ENDMDL
MODEL 3
REMARK VINA RESULT:     -11.5      0.182      1.679
REMARK SMILES CC(C)N1C[C@@H](C(=O)NCCCNC(=O)c2ccc(-c3c4nc(c(-c5c(F)c(F)c(F)c(F)c5F)c5ccc([nH]5)c(-c5c(F)c(F)c(F)c(F)c5F)c5nc(c(-c6c(F)c(F)c(F)c(F)c6F)c6ccc3[nH]6)C=C5)C=C4)cc2)CC1=O
REMARK SMILES IDX 11 1 10 2 9 3 7 4 8 5 6 7 4 8 5 9 80 10 79 11 81 12 2 13
REMARK SMILES IDX 1 14 3 15 12 16 13 17 14 18 15 20 16 21 17 22 78 23 18 24
REMARK SMILES IDX 77 25 19 26 20 27 21 28 71 29 22 30 76 31 70 32 72 33 23 34
REMARK SMILES IDX 75 35 69 36 68 37 24 39 56 40 36 41 55 42 37 43 40 44 54 45
REMARK SMILES IDX 73 46 38 47 39 48 53 50 74 51 41 52 25 53 26 54 34 55 27 56
REMARK SMILES IDX 28 57 32 58 35 59 29 60 30 61 33 62 31 63 57 64 58 65 66 66
REMARK SMILES IDX 59 67 60 68 64 69 67 70 61 71 62 72 65 73 63 74 42 75 43 76
REMARK SMILES IDX 51 77 44 78 45 79 49 80 52 81 46 82 47 83 50 84 48 85
REMARK H PARENT 9 6 13 19 72 38 40 49
REMARK Flexibility Score: inf
ROOT
ATOM      1  C   UNL A   1      31.370  32.093  26.537  1.00  0.00     0.042 C 
ENDROOT
BRANCH   1   2
ATOM      2  C   UNL A   1      31.528  30.647  26.086  1.00  0.00     0.117 C 
BRANCH   2   3
ATOM      3  N   UNL A   1      31.039  30.437  24.734  1.00  0.00    -0.356 N 
ATOM      4  C   UNL A   1      30.726  29.308  24.049  1.00  0.00     0.225 C 
ATOM      5  O   UNL A   1      30.338  29.444  22.887  1.00  0.00    -0.275 OA
ATOM      6  H   UNL A   1      30.910  31.266  24.219  1.00  0.00     0.163 HD
BRANCH   4   7
ATOM      7  C   UNL A   1      30.818  27.925  24.658  1.00  0.00     0.107 C 
ATOM      8  N   UNL A   1      32.038  25.953  24.298  1.00  0.00    -0.339 N 
ATOM      9  C   UNL A   1      32.222  27.353  24.599  1.00  0.00     0.133 C 
ATOM     10  C   UNL A   1      30.739  25.649  23.927  1.00  0.00     0.223 C 
ATOM     11  C   UNL A   1      29.893  26.887  24.036  1.00  0.00     0.115 C 
ATOM     12  O   UNL A   1      30.331  24.565  23.533  1.00  0.00    -0.275 OA
BRANCH   8  13
ATOM     13  C   UNL A   1      33.139  24.994  24.189  1.00  0.00     0.078 C 
ATOM     14  C   UNL A   1      33.756  25.036  22.790  1.00  0.00     0.031 C 
ATOM     15  C   UNL A   1      34.213  25.193  25.257  1.00  0.00     0.031 C 
ENDBRANCH   8  13
ENDBRANCH   4   7
ENDBRANCH   2   3
ENDBRANCH   1   2
BRANCH   1  16
ATOM     16  C   UNL A   1      32.645  32.729  27.080  1.00  0.00     0.118 C 
BRANCH  16  17
ATOM     17  N   UNL A   1      32.432  34.072  27.597  1.00  0.00    -0.352 N 
ATOM     18  C   UNL A   1      33.047  34.745  28.622  1.00  0.00     0.251 C 
ATOM     19  H   UNL A   1      31.731  34.583  27.133  1.00  0.00     0.163 HD
ATOM     20  O   UNL A   1      32.574  35.812  29.007  1.00  0.00    -0.269 OA
BRANCH  18  21
ATOM     21  C   UNL A   1      34.254  34.201  29.285  1.00  0.00     0.039 A 
ATOM     22  C   UNL A   1      34.081  33.324  30.360  1.00  0.00     0.014 A 
ATOM     23  C   UNL A   1      35.544  34.566  28.891  1.00  0.00     0.014 A 
ATOM     24  C   UNL A   1      35.195  32.768  30.991  1.00  0.00     0.010 A 
ATOM     25  C   UNL A   1      36.652  33.940  29.459  1.00  0.00     0.010 A 
ATOM     26  C   UNL A   1      36.491  33.036  30.518  1.00  0.00    -0.014 A 
BRANCH  26  27
ATOM     27  C   UNL A   1      37.667  32.347  31.113  1.00  0.00     0.031 A 
ATOM     28  C   UNL A   1      38.161  32.702  32.488  1.00  0.00     0.074 A 
ATOM     29  C   UNL A   1      38.311  31.410  30.389  1.00  0.00     0.049 A 
ATOM     30  N   UNL A   1      39.151  32.180  33.171  1.00  0.00    -0.248 NA
ATOM     31  C   UNL A   1      37.474  33.802  33.179  1.00  0.00     0.031 C 
ATOM     32  C   UNL A   1      37.971  31.023  29.018  1.00  0.00     0.029 A 
ATOM     33  N   UNL A   1      39.378  30.607  30.704  1.00  0.00    -0.354 N 
ATOM     34  C   UNL A   1      39.202  32.886  34.366  1.00  0.00     0.074 A 
ATOM     35  C   UNL A   1      38.188  33.916  34.290  1.00  0.00     0.031 C 
ATOM     36  C   UNL A   1      38.782  30.029  28.627  1.00  0.00     0.029 A 
ATOM     37  C   UNL A   1      39.725  29.734  29.701  1.00  0.00     0.049 A 
ATOM     38  H   UNL A   1      39.851  30.652  31.566  1.00  0.00     0.167 HD
ATOM     39  C   UNL A   1      40.005  32.679  35.438  1.00  0.00     0.037 A 
ATOM     40  C   UNL A   1      40.691  28.799  29.653  1.00  0.00     0.037 A 
ATOM     41  C   UNL A   1      41.011  31.649  35.512  1.00  0.00     0.049 A 
ATOM     42  C   UNL A   1      41.568  28.591  30.857  1.00  0.00     0.074 A 
ATOM     43  C   UNL A   1      41.836  31.322  36.574  1.00  0.00     0.029 A 
ATOM     44  N   UNL A   1      41.333  30.782  34.477  1.00  0.00    -0.354 N 
ATOM     45  N   UNL A   1      41.549  29.208  32.014  1.00  0.00    -0.248 NA
ATOM     46  C   UNL A   1      42.592  27.544  30.752  1.00  0.00     0.031 C 
ATOM     47  C   UNL A   1      42.698  30.300  36.162  1.00  0.00     0.029 A 
ATOM     48  C   UNL A   1      42.367  29.942  34.865  1.00  0.00     0.049 A 
ATOM     49  H   UNL A   1      40.895  30.768  33.596  1.00  0.00     0.167 HD
ATOM     50  C   UNL A   1      42.541  28.610  32.781  1.00  0.00     0.074 A 
ATOM     51  C   UNL A   1      43.117  27.560  31.968  1.00  0.00     0.031 C 
ATOM     52  C   UNL A   1      42.941  28.908  34.042  1.00  0.00     0.037 A 
BRANCH  39  53
ATOM     53  C   UNL A   1      39.829  33.587  36.624  1.00  0.00     0.064 A 
ATOM     54  C   UNL A   1      38.959  33.265  37.678  1.00  0.00     0.173 A 
ATOM     55  C   UNL A   1      40.571  34.774  36.730  1.00  0.00     0.173 A 
ATOM     56  F   UNL A   1      38.219  32.147  37.625  1.00  0.00    -0.203 F 
ATOM     57  C   UNL A   1      38.815  34.110  38.775  1.00  0.00     0.198 A 
ATOM     58  C   UNL A   1      40.449  35.600  37.846  1.00  0.00     0.198 A 
ATOM     59  F   UNL A   1      41.423  35.130  35.757  1.00  0.00    -0.203 F 
ATOM     60  F   UNL A   1      37.939  33.806  39.743  1.00  0.00    -0.200 F 
ATOM     61  C   UNL A   1      39.566  35.272  38.863  1.00  0.00     0.200 A 
ATOM     62  F   UNL A   1      41.188  36.715  37.936  1.00  0.00    -0.200 F 
ATOM     63  F   UNL A   1      39.434  36.080  39.924  1.00  0.00    -0.200 F 
ENDBRANCH  39  53
BRANCH  40  64
ATOM     64  C   UNL A   1      40.862  27.967  28.431  1.00  0.00     0.064 A 
ATOM     65  C   UNL A   1      40.219  26.728  28.305  1.00  0.00     0.173 A 
ATOM     66  C   UNL A   1      41.679  28.387  27.372  1.00  0.00     0.173 A 
ATOM     67  F   UNL A   1      39.441  26.272  29.299  1.00  0.00    -0.203 F 
ATOM     68  C   UNL A   1      40.408  25.928  27.179  1.00  0.00     0.198 A 
ATOM     69  C   UNL A   1      41.840  27.604  26.232  1.00  0.00     0.198 A 
ATOM     70  F   UNL A   1      42.312  29.567  27.439  1.00  0.00    -0.203 F 
ATOM     71  F   UNL A   1      39.826  24.724  27.110  1.00  0.00    -0.200 F 
ATOM     72  C   UNL A   1      41.213  26.370  26.140  1.00  0.00     0.200 A 
ATOM     73  F   UNL A   1      42.606  28.042  25.223  1.00  0.00    -0.200 F 
ATOM     74  F   UNL A   1      41.393  25.604  25.056  1.00  0.00    -0.200 F 
ENDBRANCH  40  64
BRANCH  52  75
ATOM     75  C   UNL A   1      44.042  28.062  34.622  1.00  0.00     0.064 A 
ATOM     76  C   UNL A   1      43.774  26.855  35.287  1.00  0.00     0.173 A 
ATOM     77  C   UNL A   1      45.381  28.470  34.521  1.00  0.00     0.173 A 
ATOM     78  F   UNL A   1      42.511  26.424  35.424  1.00  0.00    -0.203 F 
ATOM     79  C   UNL A   1      44.799  26.117  35.874  1.00  0.00     0.198 A 
ATOM     80  C   UNL A   1      46.407  27.709  35.074  1.00  0.00     0.198 A 
ATOM     81  F   UNL A   1      45.696  29.609  33.887  1.00  0.00    -0.203 F 
ATOM     82  F   UNL A   1      44.510  25.010  36.571  1.00  0.00    -0.200 F 
ATOM     83  C   UNL A   1      46.114  26.542  35.764  1.00  0.00     0.200 A 
ATOM     84  F   UNL A   1      47.679  28.112  34.951  1.00  0.00    -0.200 F 
ATOM     85  F   UNL A   1      47.099  25.834  36.335  1.00  0.00    -0.200 F 
ENDBRANCH  52  75
ENDBRANCH  26  27
ENDBRANCH  18  21
ENDBRANCH  16  17
ENDBRANCH   1  16
TORSDOF 11
ENDMDL
