MODEL 1
REMARK VINA RESULT:     -12.9      0.000      0.000
REMARK SMILES CC(C)(CNC(=O)[C@H]1CCC[C@H](C(=O)NCCCNC(=O)c2ccc(-c3c4nc(c(-c5c(F)c(F)c(F)c(F)c5F)c5ccc([nH]5)c(-c5c(F)c(F)c(F)c(F)c5F)c5nc(c(-c6c(F)c(F)c(F)c(F)c6F)c6ccc3[nH]6)C=C5)C=C4)cc2)C1)S(C)(=O)=O
REMARK SMILES IDX 16 1 15 2 13 3 14 4 12 6 8 7 9 8 85 9 10 10 11 11 6 12 5 13
REMARK SMILES IDX 7 15 4 16 2 17 1 18 3 19 86 20 87 21 88 22 89 23 17 24 18 25
REMARK SMILES IDX 19 26 20 27 21 29 22 30 23 31 84 32 24 33 83 34 25 35 26 36
REMARK SMILES IDX 27 37 77 38 28 39 82 40 76 41 78 42 29 43 81 44 75 45 74 46
REMARK SMILES IDX 30 48 62 49 42 50 61 51 43 52 46 53 60 54 79 55 44 56 45 57
REMARK SMILES IDX 59 59 80 60 47 61 31 62 32 63 40 64 33 65 34 66 38 67 41 68
REMARK SMILES IDX 35 69 36 70 39 71 37 72 63 73 64 74 72 75 65 76 66 77 70 78
REMARK SMILES IDX 73 79 67 80 68 81 71 82 69 83 48 84 49 85 57 86 50 87 51 88
REMARK SMILES IDX 55 89 58 90 52 91 53 92 56 93 54 94
REMARK H PARENT 15 5 5 14 19 28 78 47 46 58
REMARK Flexibility Score: inf
ROOT
ATOM      1  C   UNL A   1      31.803  30.727  26.214  1.00  0.00     0.117 C 
ENDROOT
BRANCH   1   2
ATOM      2  N   UNL A   1      31.771  29.749  27.274  1.00  0.00    -0.356 N 
ATOM      3  C   UNL A   1      31.687  28.404  27.201  1.00  0.00     0.223 C 
ATOM      4  O   UNL A   1      31.360  27.821  28.235  1.00  0.00    -0.275 OA
ATOM      5  H   UNL A   1      31.818  30.117  28.186  1.00  0.00     0.163 HD
BRANCH   3   6
ATOM      6  C   UNL A   1      32.152  27.651  25.969  1.00  0.00     0.079 C 
ATOM      7  C   UNL A   1      31.295  26.250  24.061  1.00  0.00     0.079 C 
ATOM      8  C   UNL A   1      32.597  25.419  24.158  1.00  0.00     0.013 C 
ATOM      9  C   UNL A   1      30.992  26.803  25.439  1.00  0.00     0.027 C 
ATOM     10  C   UNL A   1      33.787  26.224  24.688  1.00  0.00     0.002 C 
ATOM     11  C   UNL A   1      33.488  26.919  26.021  1.00  0.00     0.013 C 
BRANCH   7  12
ATOM     12  C   UNL A   1      31.309  27.165  22.821  1.00  0.00     0.223 C 
ATOM     13  N   UNL A   1      30.706  28.373  22.667  1.00  0.00    -0.354 N 
ATOM     14  H   UNL A   1      30.902  28.774  21.790  1.00  0.00     0.163 HD
ATOM     15  O   UNL A   1      31.923  26.780  21.816  1.00  0.00    -0.275 OA
BRANCH  13  16
ATOM     16  C   UNL A   1      29.840  29.224  23.477  1.00  0.00     0.138 C 
BRANCH  16  17
ATOM     17  C   UNL A   1      28.643  29.921  22.774  1.00  0.00     0.084 C 
ATOM     18  C   UNL A   1      28.867  29.963  21.254  1.00  0.00     0.030 C 
ATOM     19  C   UNL A   1      27.382  29.058  23.040  1.00  0.00     0.030 C 
BRANCH  17  20
ATOM     20  S   UNL A   1      28.254  31.635  23.347  1.00  0.00     0.154 S 
ATOM     21  C   UNL A   1      28.194  32.690  21.919  1.00  0.00     0.158 C 
ATOM     22  O   UNL A   1      26.903  31.622  23.876  1.00  0.00    -0.229 OA
ATOM     23  O   UNL A   1      29.322  32.145  24.186  1.00  0.00    -0.229 OA
ENDBRANCH  17  20
ENDBRANCH  16  17
ENDBRANCH  13  16
ENDBRANCH   7  12
ENDBRANCH   3   6
ENDBRANCH   1   2
BRANCH   1  24
ATOM     24  C   UNL A   1      31.533  32.110  26.788  1.00  0.00     0.042 C 
BRANCH  24  25
ATOM     25  C   UNL A   1      32.809  32.783  27.287  1.00  0.00     0.118 C 
BRANCH  25  26
ATOM     26  N   UNL A   1      32.592  34.198  27.576  1.00  0.00    -0.352 N 
ATOM     27  C   UNL A   1      33.042  34.948  28.631  1.00  0.00     0.251 C 
ATOM     28  H   UNL A   1      32.045  34.684  26.917  1.00  0.00     0.163 HD
ATOM     29  O   UNL A   1      32.492  36.002  28.924  1.00  0.00    -0.269 OA
BRANCH  27  30
ATOM     30  C   UNL A   1      34.189  34.459  29.416  1.00  0.00     0.039 A 
ATOM     31  C   UNL A   1      33.968  33.861  30.656  1.00  0.00     0.014 A 
ATOM     32  C   UNL A   1      35.485  34.590  28.911  1.00  0.00     0.014 A 
ATOM     33  C   UNL A   1      35.048  33.326  31.357  1.00  0.00     0.010 A 
ATOM     34  C   UNL A   1      36.539  33.963  29.554  1.00  0.00     0.010 A 
ATOM     35  C   UNL A   1      36.333  33.332  30.788  1.00  0.00    -0.014 A 
BRANCH  35  36
ATOM     36  C   UNL A   1      37.479  32.680  31.464  1.00  0.00     0.031 A 
ATOM     37  C   UNL A   1      38.171  31.514  30.817  1.00  0.00     0.074 A 
ATOM     38  C   UNL A   1      37.839  33.094  32.694  1.00  0.00     0.049 A 
ATOM     39  N   UNL A   1      39.143  30.770  31.278  1.00  0.00    -0.248 NA
ATOM     40  C   UNL A   1      37.685  31.108  29.487  1.00  0.00     0.031 C 
ATOM     41  C   UNL A   1      37.195  34.173  33.445  1.00  0.00     0.029 A 
ATOM     42  N   UNL A   1      38.826  32.649  33.535  1.00  0.00    -0.354 N 
ATOM     43  C   UNL A   1      39.372  29.805  30.306  1.00  0.00     0.074 A 
ATOM     44  C   UNL A   1      38.400  30.018  29.258  1.00  0.00     0.031 C 
ATOM     45  C   UNL A   1      37.821  34.325  34.623  1.00  0.00     0.029 A 
ATOM     46  C   UNL A   1      38.877  33.325  34.729  1.00  0.00     0.049 A 
ATOM     47  H   UNL A   1      39.440  31.913  33.305  1.00  0.00     0.167 HD
ATOM     48  C   UNL A   1      40.327  28.846  30.282  1.00  0.00     0.037 A 
ATOM     49  C   UNL A   1      39.679  33.146  35.796  1.00  0.00     0.037 A 
ATOM     50  C   UNL A   1      41.304  28.659  31.323  1.00  0.00     0.049 A 
ATOM     51  C   UNL A   1      40.726  32.068  35.744  1.00  0.00     0.074 A 
ATOM     52  C   UNL A   1      42.361  27.769  31.362  1.00  0.00     0.029 A 
ATOM     53  N   UNL A   1      41.336  29.372  32.513  1.00  0.00    -0.354 N 
ATOM     54  N   UNL A   1      40.996  31.220  34.781  1.00  0.00    -0.248 NA
ATOM     55  C   UNL A   1      41.584  31.923  36.928  1.00  0.00     0.031 C 
ATOM     56  C   UNL A   1      42.996  27.900  32.601  1.00  0.00     0.029 A 
ATOM     57  C   UNL A   1      42.372  28.915  33.309  1.00  0.00     0.049 A 
ATOM     58  H   UNL A   1      40.713  30.095  32.755  1.00  0.00     0.167 HD
ATOM     59  C   UNL A   1      42.063  30.457  35.231  1.00  0.00     0.074 A 
ATOM     60  C   UNL A   1      42.409  30.960  36.544  1.00  0.00     0.031 C 
ATOM     61  C   UNL A   1      42.698  29.429  34.617  1.00  0.00     0.037 A 
BRANCH  48  62
ATOM     62  C   UNL A   1      40.364  27.926  29.096  1.00  0.00     0.064 A 
ATOM     63  C   UNL A   1      39.618  26.738  29.060  1.00  0.00     0.173 A 
ATOM     64  C   UNL A   1      41.123  28.257  27.963  1.00  0.00     0.173 A 
ATOM     65  F   UNL A   1      38.885  26.367  30.119  1.00  0.00    -0.203 F 
ATOM     66  C   UNL A   1      39.650  25.904  27.944  1.00  0.00     0.198 A 
ATOM     67  C   UNL A   1      41.127  27.438  26.837  1.00  0.00     0.198 A 
ATOM     68  F   UNL A   1      41.853  29.382  27.943  1.00  0.00    -0.203 F 
ATOM     69  F   UNL A   1      38.968  24.751  27.952  1.00  0.00    -0.200 F 
ATOM     70  C   UNL A   1      40.398  26.259  26.831  1.00  0.00     0.200 A 
ATOM     71  F   UNL A   1      41.838  27.790  25.757  1.00  0.00    -0.200 F 
ATOM     72  F   UNL A   1      40.418  25.462  25.754  1.00  0.00    -0.200 F 
ENDBRANCH  48  62
BRANCH  49  73
ATOM     73  C   UNL A   1      39.530  34.015  36.992  1.00  0.00     0.064 A 
ATOM     74  C   UNL A   1      40.159  35.266  37.061  1.00  0.00     0.173 A 
ATOM     75  C   UNL A   1      38.761  33.613  38.095  1.00  0.00     0.173 A 
ATOM     76  F   UNL A   1      40.919  35.689  36.040  1.00  0.00    -0.203 F 
ATOM     77  C   UNL A   1      40.047  36.069  38.194  1.00  0.00     0.198 A 
ATOM     78  C   UNL A   1      38.622  34.431  39.215  1.00  0.00     0.198 A 
ATOM     79  F   UNL A   1      38.131  32.429  38.080  1.00  0.00    -0.203 F 
ATOM     80  F   UNL A   1      40.701  37.237  38.251  1.00  0.00    -0.200 F 
ATOM     81  C   UNL A   1      39.274  35.654  39.267  1.00  0.00     0.200 A 
ATOM     82  F   UNL A   1      37.859  34.034  40.241  1.00  0.00    -0.200 F 
ATOM     83  F   UNL A   1      39.162  36.429  40.354  1.00  0.00    -0.200 F 
ENDBRANCH  49  73
BRANCH  61  84
ATOM     84  C   UNL A   1      43.843  28.792  35.351  1.00  0.00     0.064 A 
ATOM     85  C   UNL A   1      43.643  27.737  36.253  1.00  0.00     0.173 A 
ATOM     86  C   UNL A   1      45.160  29.220  35.121  1.00  0.00     0.173 A 
ATOM     87  F   UNL A   1      42.402  27.302  36.517  1.00  0.00    -0.203 F 
ATOM     88  C   UNL A   1      44.716  27.152  36.919  1.00  0.00     0.198 A 
ATOM     89  C   UNL A   1      46.234  28.609  35.763  1.00  0.00     0.198 A 
ATOM     90  F   UNL A   1      45.408  30.221  34.263  1.00  0.00    -0.203 F 
ATOM     91  F   UNL A   1      44.496  26.182  37.817  1.00  0.00    -0.200 F 
ATOM     92  C   UNL A   1      46.010  27.583  36.667  1.00  0.00     0.200 A 
ATOM     93  F   UNL A   1      47.485  29.015  35.506  1.00  0.00    -0.200 F 
ATOM     94  F   UNL A   1      47.043  27.012  37.304  1.00  0.00    -0.200 F 
ENDBRANCH  61  84
ENDBRANCH  35  36
ENDBRANCH  27  30
ENDBRANCH  25  26
ENDBRANCH  24  25
ENDBRANCH   1  24
TORSDOF 14
ENDMDL
MODEL 2
REMARK VINA RESULT:     -12.7      6.724     11.884
REMARK SMILES CC(C)(CNC(=O)[C@H]1CCC[C@H](C(=O)NCCCNC(=O)c2ccc(-c3c4nc(c(-c5c(F)c(F)c(F)c(F)c5F)c5ccc([nH]5)c(-c5c(F)c(F)c(F)c(F)c5F)c5nc(c(-c6c(F)c(F)c(F)c(F)c6F)c6ccc3[nH]6)C=C5)C=C4)cc2)C1)S(C)(=O)=O
REMARK SMILES IDX 16 1 15 2 13 3 14 4 12 6 8 7 9 8 85 9 10 10 11 11 6 12 5 13
REMARK SMILES IDX 7 15 4 16 2 17 1 18 3 19 86 20 87 21 88 22 89 23 17 24 18 25
REMARK SMILES IDX 19 26 20 27 21 29 22 30 23 31 84 32 24 33 83 34 25 35 26 36
REMARK SMILES IDX 27 37 77 38 28 39 82 40 76 41 78 42 29 43 81 44 75 45 74 46
REMARK SMILES IDX 30 48 62 49 42 50 61 51 43 52 46 53 60 54 79 55 44 56 45 57
REMARK SMILES IDX 59 59 80 60 47 61 31 62 32 63 40 64 33 65 34 66 38 67 41 68
REMARK SMILES IDX 35 69 36 70 39 71 37 72 63 73 64 74 72 75 65 76 66 77 70 78
REMARK SMILES IDX 73 79 67 80 68 81 71 82 69 83 48 84 49 85 57 86 50 87 51 88
REMARK SMILES IDX 55 89 58 90 52 91 53 92 56 93 54 94
REMARK H PARENT 15 5 5 14 19 28 78 47 46 58
REMARK Flexibility Score: inf
ROOT
ATOM      1  C   UNL A   1      37.009  20.742  25.023  1.00  0.00     0.117 C 
ENDROOT
BRANCH   1   2
ATOM      2  N   UNL A   1      37.217  21.802  24.068  1.00  0.00    -0.356 N 
ATOM      3  C   UNL A   1      36.333  22.689  23.560  1.00  0.00     0.223 C 
ATOM      4  O   UNL A   1      36.680  23.281  22.538  1.00  0.00    -0.275 OA
ATOM      5  H   UNL A   1      38.139  21.894  23.735  1.00  0.00     0.163 HD
BRANCH   3   6
ATOM      6  C   UNL A   1      35.073  23.065  24.317  1.00  0.00     0.079 C 
ATOM      7  C   UNL A   1      32.563  22.923  24.181  1.00  0.00     0.079 C 
ATOM      8  C   UNL A   1      32.502  24.313  24.859  1.00  0.00     0.013 C 
ATOM      9  C   UNL A   1      33.863  22.840  23.406  1.00  0.00     0.027 C 
ATOM     10  C   UNL A   1      33.696  24.587  25.779  1.00  0.00     0.002 C 
ATOM     11  C   UNL A   1      35.044  24.385  25.079  1.00  0.00     0.013 C 
BRANCH   7  12
ATOM     12  C   UNL A   1      32.146  21.806  25.159  1.00  0.00     0.223 C 
ATOM     13  N   UNL A   1      32.569  20.516  25.183  1.00  0.00    -0.354 N 
ATOM     14  H   UNL A   1      32.181  20.015  25.936  1.00  0.00     0.163 HD
ATOM     15  O   UNL A   1      31.314  22.077  26.037  1.00  0.00    -0.275 OA
BRANCH  13  16
ATOM     16  C   UNL A   1      33.456  19.687  24.372  1.00  0.00     0.138 C 
BRANCH  16  17
ATOM     17  C   UNL A   1      33.025  18.220  24.094  1.00  0.00     0.084 C 
ATOM     18  C   UNL A   1      31.964  17.772  25.111  1.00  0.00     0.030 C 
ATOM     19  C   UNL A   1      32.372  18.187  22.688  1.00  0.00     0.030 C 
BRANCH  17  20
ATOM     20  S   UNL A   1      34.383  16.966  24.087  1.00  0.00     0.154 S 
ATOM     21  C   UNL A   1      34.011  15.748  25.325  1.00  0.00     0.158 C 
ATOM     22  O   UNL A   1      34.320  16.261  22.819  1.00  0.00    -0.229 OA
ATOM     23  O   UNL A   1      35.641  17.575  24.479  1.00  0.00    -0.229 OA
ENDBRANCH  17  20
ENDBRANCH  16  17
ENDBRANCH  13  16
ENDBRANCH   7  12
ENDBRANCH   3   6
ENDBRANCH   1   2
BRANCH   1  24
ATOM     24  C   UNL A   1      38.188  19.780  24.979  1.00  0.00     0.042 C 
BRANCH  24  25
ATOM     25  C   UNL A   1      39.299  20.190  25.943  1.00  0.00     0.118 C 
BRANCH  25  26
ATOM     26  N   UNL A   1      40.301  19.138  26.087  1.00  0.00    -0.352 N 
ATOM     27  C   UNL A   1      41.668  19.238  26.110  1.00  0.00     0.251 C 
ATOM     28  H   UNL A   1      39.943  18.226  26.181  1.00  0.00     0.163 HD
ATOM     29  O   UNL A   1      42.366  18.259  25.875  1.00  0.00    -0.269 OA
BRANCH  27  30
ATOM     30  C   UNL A   1      42.283  20.542  26.408  1.00  0.00     0.039 A 
ATOM     31  C   UNL A   1      42.776  21.324  25.364  1.00  0.00     0.014 A 
ATOM     32  C   UNL A   1      42.361  20.989  27.729  1.00  0.00     0.014 A 
ATOM     33  C   UNL A   1      43.282  22.593  25.643  1.00  0.00     0.010 A 
ATOM     34  C   UNL A   1      42.761  22.290  27.991  1.00  0.00     0.010 A 
ATOM     35  C   UNL A   1      43.234  23.101  26.952  1.00  0.00    -0.014 A 
BRANCH  35  36
ATOM     36  C   UNL A   1      43.670  24.484  27.259  1.00  0.00     0.031 A 
ATOM     37  C   UNL A   1      42.667  25.505  27.719  1.00  0.00     0.074 A 
ATOM     38  C   UNL A   1      44.953  24.831  27.045  1.00  0.00     0.049 A 
ATOM     39  N   UNL A   1      42.839  26.777  27.970  1.00  0.00    -0.248 NA
ATOM     40  C   UNL A   1      41.279  25.043  27.889  1.00  0.00     0.031 C 
ATOM     41  C   UNL A   1      45.997  23.940  26.538  1.00  0.00     0.029 A 
ATOM     42  N   UNL A   1      45.596  26.030  27.217  1.00  0.00    -0.354 N 
ATOM     43  C   UNL A   1      41.585  27.266  28.311  1.00  0.00     0.074 A 
ATOM     44  C   UNL A   1      40.651  26.172  28.176  1.00  0.00     0.031 C 
ATOM     45  C   UNL A   1      47.155  24.614  26.465  1.00  0.00     0.029 A 
ATOM     46  C   UNL A   1      46.925  25.995  26.875  1.00  0.00     0.049 A 
ATOM     47  H   UNL A   1      45.147  26.841  27.552  1.00  0.00     0.167 HD
ATOM     48  C   UNL A   1      41.252  28.511  28.724  1.00  0.00     0.037 A 
ATOM     49  C   UNL A   1      47.851  26.973  26.880  1.00  0.00     0.037 A 
ATOM     50  C   UNL A   1      42.197  29.587  28.875  1.00  0.00     0.049 A 
ATOM     51  C   UNL A   1      47.451  28.349  27.337  1.00  0.00     0.074 A 
ATOM     52  C   UNL A   1      41.978  30.863  29.360  1.00  0.00     0.029 A 
ATOM     53  N   UNL A   1      43.540  29.511  28.534  1.00  0.00    -0.354 N 
ATOM     54  N   UNL A   1      46.282  28.778  27.746  1.00  0.00    -0.248 NA
ATOM     55  C   UNL A   1      48.501  29.376  27.336  1.00  0.00     0.031 C 
ATOM     56  C   UNL A   1      43.175  31.579  29.255  1.00  0.00     0.029 A 
ATOM     57  C   UNL A   1      44.154  30.731  28.763  1.00  0.00     0.049 A 
ATOM     58  H   UNL A   1      43.989  28.709  28.181  1.00  0.00     0.167 HD
ATOM     59  C   UNL A   1      46.458  30.116  28.071  1.00  0.00     0.074 A 
ATOM     60  C   UNL A   1      47.854  30.419  27.835  1.00  0.00     0.031 C 
ATOM     61  C   UNL A   1      45.547  31.014  28.519  1.00  0.00     0.037 A 
BRANCH  48  62
ATOM     62  C   UNL A   1      39.810  28.779  29.043  1.00  0.00     0.064 A 
ATOM     63  C   UNL A   1      39.289  28.580  30.331  1.00  0.00     0.173 A 
ATOM     64  C   UNL A   1      38.945  29.282  28.059  1.00  0.00     0.173 A 
ATOM     65  F   UNL A   1      40.068  28.090  31.307  1.00  0.00    -0.203 F 
ATOM     66  C   UNL A   1      37.953  28.851  30.615  1.00  0.00     0.198 A 
ATOM     67  C   UNL A   1      37.618  29.583  28.354  1.00  0.00     0.198 A 
ATOM     68  F   UNL A   1      39.391  29.494  26.811  1.00  0.00    -0.203 F 
ATOM     69  F   UNL A   1      37.467  28.607  31.840  1.00  0.00    -0.200 F 
ATOM     70  C   UNL A   1      37.121  29.360  29.629  1.00  0.00     0.200 A 
ATOM     71  F   UNL A   1      36.820  30.088  27.404  1.00  0.00    -0.200 F 
ATOM     72  F   UNL A   1      35.838  29.631  29.907  1.00  0.00    -0.200 F 
ENDBRANCH  48  62
BRANCH  49  73
ATOM     73  C   UNL A   1      49.244  26.681  26.450  1.00  0.00     0.064 A 
ATOM     74  C   UNL A   1      50.194  26.197  27.359  1.00  0.00     0.173 A 
ATOM     75  C   UNL A   1      49.656  26.885  25.125  1.00  0.00     0.173 A 
ATOM     76  F   UNL A   1      49.854  26.001  28.642  1.00  0.00    -0.203 F 
ATOM     77  C   UNL A   1      51.509  25.952  26.967  1.00  0.00     0.198 A 
ATOM     78  C   UNL A   1      50.963  26.609  24.725  1.00  0.00     0.198 A 
ATOM     79  F   UNL A   1      48.786  27.339  24.212  1.00  0.00    -0.203 F 
ATOM     80  F   UNL A   1      52.409  25.538  27.869  1.00  0.00    -0.200 F 
ATOM     81  C   UNL A   1      51.890  26.153  25.649  1.00  0.00     0.200 A 
ATOM     82  F   UNL A   1      51.322  26.786  23.447  1.00  0.00    -0.200 F 
ATOM     83  F   UNL A   1      53.153  25.912  25.271  1.00  0.00    -0.200 F 
ENDBRANCH  49  73
BRANCH  61  84
ATOM     84  C   UNL A   1      46.036  32.405  28.800  1.00  0.00     0.064 A 
ATOM     85  C   UNL A   1      45.998  33.410  27.822  1.00  0.00     0.173 A 
ATOM     86  C   UNL A   1      46.515  32.746  30.075  1.00  0.00     0.173 A 
ATOM     87  F   UNL A   1      45.563  33.131  26.584  1.00  0.00    -0.203 F 
ATOM     88  C   UNL A   1      46.448  34.697  28.102  1.00  0.00     0.198 A 
ATOM     89  C   UNL A   1      46.931  34.043  30.361  1.00  0.00     0.198 A 
ATOM     90  F   UNL A   1      46.566  31.825  31.048  1.00  0.00    -0.203 F 
ATOM     91  F   UNL A   1      46.453  35.627  27.137  1.00  0.00    -0.200 F 
ATOM     92  C   UNL A   1      46.905  35.015  29.372  1.00  0.00     0.200 A 
ATOM     93  F   UNL A   1      47.357  34.352  31.593  1.00  0.00    -0.200 F 
ATOM     94  F   UNL A   1      47.330  36.257  29.642  1.00  0.00    -0.200 F 
ENDBRANCH  61  84
ENDBRANCH  35  36
ENDBRANCH  27  30
ENDBRANCH  25  26
ENDBRANCH  24  25
ENDBRANCH   1  24
TORSDOF 14
ENDMDL
MODEL 3
REMARK VINA RESULT:     -12.6      2.182      3.614
REMARK SMILES CC(C)(CNC(=O)[C@H]1CCC[C@H](C(=O)NCCCNC(=O)c2ccc(-c3c4nc(c(-c5c(F)c(F)c(F)c(F)c5F)c5ccc([nH]5)c(-c5c(F)c(F)c(F)c(F)c5F)c5nc(c(-c6c(F)c(F)c(F)c(F)c6F)c6ccc3[nH]6)C=C5)C=C4)cc2)C1)S(C)(=O)=O
REMARK SMILES IDX 16 1 15 2 13 3 14 4 12 6 8 7 9 8 85 9 10 10 11 11 6 12 5 13
REMARK SMILES IDX 7 15 4 16 2 17 1 18 3 19 86 20 87 21 88 22 89 23 17 24 18 25
REMARK SMILES IDX 19 26 20 27 21 29 22 30 23 31 84 32 24 33 83 34 25 35 26 36
REMARK SMILES IDX 27 37 77 38 28 39 82 40 76 41 78 42 29 43 81 44 75 45 74 46
REMARK SMILES IDX 30 48 62 49 42 50 61 51 43 52 46 53 60 54 79 55 44 56 45 57
REMARK SMILES IDX 59 59 80 60 47 61 31 62 32 63 40 64 33 65 34 66 38 67 41 68
REMARK SMILES IDX 35 69 36 70 39 71 37 72 63 73 64 74 72 75 65 76 66 77 70 78
REMARK SMILES IDX 73 79 67 80 68 81 71 82 69 83 48 84 49 85 57 86 50 87 51 88
REMARK SMILES IDX 55 89 58 90 52 91 53 92 56 93 54 94
REMARK H PARENT 15 5 5 14 19 28 78 47 46 58
REMARK Flexibility Score: inf
ROOT
ATOM      1  C   UNL A   1      31.768  30.704  26.440  1.00  0.00     0.117 C 
ENDROOT
BRANCH   1   2
ATOM      2  N   UNL A   1      33.120  30.329  26.774  1.00  0.00    -0.356 N 
ATOM      3  C   UNL A   1      33.763  29.158  26.577  1.00  0.00     0.223 C 
ATOM      4  O   UNL A   1      34.794  28.984  27.227  1.00  0.00    -0.275 OA
ATOM      5  H   UNL A   1      33.654  31.031  27.212  1.00  0.00     0.163 HD
BRANCH   3   6
ATOM      6  C   UNL A   1      33.337  28.203  25.478  1.00  0.00     0.079 C 
ATOM      7  C   UNL A   1      33.300  25.757  24.883  1.00  0.00     0.079 C 
ATOM      8  C   UNL A   1      33.563  26.165  23.414  1.00  0.00     0.013 C 
ATOM      9  C   UNL A   1      33.913  26.815  25.778  1.00  0.00     0.027 C 
ATOM     10  C   UNL A   1      33.009  27.550  23.066  1.00  0.00     0.002 C 
ATOM     11  C   UNL A   1      33.492  28.642  24.026  1.00  0.00     0.013 C 
BRANCH   7  12
ATOM     12  C   UNL A   1      31.843  25.292  25.081  1.00  0.00     0.223 C 
ATOM     13  N   UNL A   1      31.172  24.331  24.395  1.00  0.00    -0.354 N 
ATOM     14  H   UNL A   1      30.261  24.197  24.744  1.00  0.00     0.163 HD
ATOM     15  O   UNL A   1      31.165  25.850  25.955  1.00  0.00    -0.275 OA
BRANCH  13  16
ATOM     16  C   UNL A   1      31.463  23.449  23.269  1.00  0.00     0.138 C 
BRANCH  16  17
ATOM     17  C   UNL A   1      32.256  22.144  23.556  1.00  0.00     0.084 C 
ATOM     18  C   UNL A   1      31.979  21.098  22.466  1.00  0.00     0.030 C 
ATOM     19  C   UNL A   1      33.766  22.495  23.496  1.00  0.00     0.030 C 
BRANCH  17  20
ATOM     20  S   UNL A   1      31.951  21.357  25.201  1.00  0.00     0.154 S 
ATOM     21  C   UNL A   1      33.225  21.899  26.314  1.00  0.00     0.158 C 
ATOM     22  O   UNL A   1      30.716  21.910  25.727  1.00  0.00    -0.229 OA
ATOM     23  O   UNL A   1      32.079  19.915  25.106  1.00  0.00    -0.229 OA
ENDBRANCH  17  20
ENDBRANCH  16  17
ENDBRANCH  13  16
ENDBRANCH   7  12
ENDBRANCH   3   6
ENDBRANCH   1   2
BRANCH   1  24
ATOM     24  C   UNL A   1      31.555  32.177  26.755  1.00  0.00     0.042 C 
BRANCH  24  25
ATOM     25  C   UNL A   1      32.796  32.818  27.371  1.00  0.00     0.118 C 
BRANCH  25  26
ATOM     26  N   UNL A   1      32.583  34.232  27.660  1.00  0.00    -0.352 N 
ATOM     27  C   UNL A   1      33.041  34.982  28.712  1.00  0.00     0.251 C 
ATOM     28  H   UNL A   1      32.031  34.718  27.005  1.00  0.00     0.163 HD
ATOM     29  O   UNL A   1      32.493  36.038  29.008  1.00  0.00    -0.269 OA
BRANCH  27  30
ATOM     30  C   UNL A   1      34.192  34.493  29.490  1.00  0.00     0.039 A 
ATOM     31  C   UNL A   1      33.978  33.889  30.729  1.00  0.00     0.014 A 
ATOM     32  C   UNL A   1      35.485  34.628  28.979  1.00  0.00     0.014 A 
ATOM     33  C   UNL A   1      35.062  33.354  31.422  1.00  0.00     0.010 A 
ATOM     34  C   UNL A   1      36.544  34.001  29.615  1.00  0.00     0.010 A 
ATOM     35  C   UNL A   1      36.344  33.365  30.848  1.00  0.00    -0.014 A 
BRANCH  35  36
ATOM     36  C   UNL A   1      37.495  32.712  31.516  1.00  0.00     0.031 A 
ATOM     37  C   UNL A   1      38.179  31.543  30.866  1.00  0.00     0.074 A 
ATOM     38  C   UNL A   1      37.865  33.129  32.743  1.00  0.00     0.049 A 
ATOM     39  N   UNL A   1      39.154  30.799  31.321  1.00  0.00    -0.248 NA
ATOM     40  C   UNL A   1      37.682  31.135  29.541  1.00  0.00     0.031 C 
ATOM     41  C   UNL A   1      37.229  34.210  33.496  1.00  0.00     0.029 A 
ATOM     42  N   UNL A   1      38.858  32.683  33.576  1.00  0.00    -0.354 N 
ATOM     43  C   UNL A   1      39.374  29.831  30.350  1.00  0.00     0.074 A 
ATOM     44  C   UNL A   1      38.394  30.044  29.309  1.00  0.00     0.031 C 
ATOM     45  C   UNL A   1      37.864  34.363  34.668  1.00  0.00     0.029 A 
ATOM     46  C   UNL A   1      38.920  33.361  34.768  1.00  0.00     0.049 A 
ATOM     47  H   UNL A   1      39.469  31.946  33.343  1.00  0.00     0.167 HD
ATOM     48  C   UNL A   1      40.326  28.871  30.320  1.00  0.00     0.037 A 
ATOM     49  C   UNL A   1      39.730  33.184  35.829  1.00  0.00     0.037 A 
ATOM     50  C   UNL A   1      41.311  28.685  31.353  1.00  0.00     0.049 A 
ATOM     51  C   UNL A   1      40.775  32.104  35.772  1.00  0.00     0.074 A 
ATOM     52  C   UNL A   1      42.367  27.792  31.386  1.00  0.00     0.029 A 
ATOM     53  N   UNL A   1      41.354  29.400  32.541  1.00  0.00    -0.354 N 
ATOM     54  N   UNL A   1      41.035  31.253  34.808  1.00  0.00    -0.248 NA
ATOM     55  C   UNL A   1      41.642  31.960  36.949  1.00  0.00     0.031 C 
ATOM     56  C   UNL A   1      43.012  27.926  32.619  1.00  0.00     0.029 A 
ATOM     57  C   UNL A   1      42.396  28.943  33.330  1.00  0.00     0.049 A 
ATOM     58  H   UNL A   1      40.734  30.125  32.787  1.00  0.00     0.167 HD
ATOM     59  C   UNL A   1      42.105  30.489  35.251  1.00  0.00     0.074 A 
ATOM     60  C   UNL A   1      42.462  30.995  36.560  1.00  0.00     0.031 C 
ATOM     61  C   UNL A   1      42.734  29.459  34.634  1.00  0.00     0.037 A 
BRANCH  48  62
ATOM     62  C   UNL A   1      40.353  27.949  29.136  1.00  0.00     0.064 A 
ATOM     63  C   UNL A   1      39.602  26.762  29.107  1.00  0.00     0.173 A 
ATOM     64  C   UNL A   1      41.105  28.274  27.997  1.00  0.00     0.173 A 
ATOM     65  F   UNL A   1      38.875  26.396  30.172  1.00  0.00    -0.203 F 
ATOM     66  C   UNL A   1      39.624  25.926  27.993  1.00  0.00     0.198 A 
ATOM     67  C   UNL A   1      41.099  27.453  26.873  1.00  0.00     0.198 A 
ATOM     68  F   UNL A   1      41.838  29.397  27.969  1.00  0.00    -0.203 F 
ATOM     69  F   UNL A   1      38.938  24.775  28.008  1.00  0.00    -0.200 F 
ATOM     70  C   UNL A   1      40.365  26.277  26.874  1.00  0.00     0.200 A 
ATOM     71  F   UNL A   1      41.804  27.800  25.787  1.00  0.00    -0.200 F 
ATOM     72  F   UNL A   1      40.376  25.476  25.799  1.00  0.00    -0.200 F 
ENDBRANCH  48  62
BRANCH  49  73
ATOM     73  C   UNL A   1      39.592  34.056  37.025  1.00  0.00     0.064 A 
ATOM     74  C   UNL A   1      38.818  33.660  38.124  1.00  0.00     0.173 A 
ATOM     75  C   UNL A   1      40.225  35.306  37.093  1.00  0.00     0.173 A 
ATOM     76  F   UNL A   1      38.178  32.481  38.101  1.00  0.00    -0.203 F 
ATOM     77  C   UNL A   1      38.660  34.489  39.233  1.00  0.00     0.198 A 
ATOM     78  C   UNL A   1      40.095  36.121  38.216  1.00  0.00     0.198 A 
ATOM     79  F   UNL A   1      40.985  35.732  36.073  1.00  0.00    -0.203 F 
ATOM     80  F   UNL A   1      37.873  34.105  40.247  1.00  0.00    -0.200 F 
ATOM     81  C   UNL A   1      39.304  35.716  39.280  1.00  0.00     0.200 A 
ATOM     82  F   UNL A   1      40.734  37.297  38.266  1.00  0.00    -0.200 F 
ATOM     83  F   UNL A   1      39.158  36.510  40.349  1.00  0.00    -0.200 F 
ENDBRANCH  49  73
BRANCH  61  84
ATOM     84  C   UNL A   1      43.883  28.822  35.361  1.00  0.00     0.064 A 
ATOM     85  C   UNL A   1      45.204  29.249  35.165  1.00  0.00     0.173 A 
ATOM     86  C   UNL A   1      43.654  27.798  36.292  1.00  0.00     0.173 A 
ATOM     87  F   UNL A   1      45.476  30.215  34.274  1.00  0.00    -0.203 F 
ATOM     88  C   UNL A   1      46.258  28.654  35.853  1.00  0.00     0.198 A 
ATOM     89  C   UNL A   1      44.706  27.229  37.005  1.00  0.00     0.198 A 
ATOM     90  F   UNL A   1      42.408  27.357  36.523  1.00  0.00    -0.203 F 
ATOM     91  F   UNL A   1      47.517  29.041  35.610  1.00  0.00    -0.200 F 
ATOM     92  C   UNL A   1      46.007  27.652  36.778  1.00  0.00     0.200 A 
ATOM     93  F   UNL A   1      44.460  26.272  37.910  1.00  0.00    -0.200 F 
ATOM     94  F   UNL A   1      47.022  27.086  37.447  1.00  0.00    -0.200 F 
ENDBRANCH  61  84
ENDBRANCH  35  36
ENDBRANCH  27  30
ENDBRANCH  25  26
ENDBRANCH  24  25
ENDBRANCH   1  24
TORSDOF 14
ENDMDL
