MODEL 1
REMARK VINA RESULT:     -10.4      0.000      0.000
REMARK SMILES CSCC[NH2+]CC(C)(C)C(=O)NCCCNC(=O)c1ccc(-c2c3nc(c(-c4c(F)c(F)c(F)c(F)c4F)c4ccc([nH]4)c(-c4c(F)c(F)c(F)c(F)c4F)c4nc(c(-c5c(F)c(F)c(F)c(F)c5F)c5ccc2[nH]5)C=C4)C=C3)cc1
REMARK SMILES IDX 10 1 11 2 12 3 7 5 8 6 9 7 6 8 5 9 4 12 3 13 2 14 1 15 13 16
REMARK SMILES IDX 14 17 15 18 16 19 17 20 18 22 19 23 20 24 81 25 21 26 80 27
REMARK SMILES IDX 22 28 23 29 24 30 74 31 25 32 79 33 73 34 75 35 26 36 78 37
REMARK SMILES IDX 72 38 71 39 27 41 59 42 39 43 58 44 40 45 43 46 57 47 76 48
REMARK SMILES IDX 41 49 42 50 56 52 77 53 44 54 28 55 29 56 37 57 30 58 31 59
REMARK SMILES IDX 35 60 38 61 32 62 33 63 36 64 34 65 60 66 61 67 69 68 62 69
REMARK SMILES IDX 63 70 67 71 70 72 64 73 65 74 68 75 66 76 45 77 46 78 54 79
REMARK SMILES IDX 47 80 48 81 52 82 55 83 49 84 50 85 53 86 51 87
REMARK H PARENT 12 4 5 10 5 11 16 21 75 40 43 51
REMARK Flexibility Score: inf
ROOT
ATOM      1  C   UNL A   1      31.800  28.361  26.880  1.00  0.00     0.231 C 
ATOM      2  O   UNL A   1      31.145  27.648  27.648  1.00  0.00    -0.274 OA
ATOM      3  N   UNL A   1      31.595  29.694  27.024  1.00  0.00    -0.355 N 
ATOM      4  H   UNL A   1      31.351  29.971  27.936  1.00  0.00     0.163 HD
ENDROOT
BRANCH   1   5
ATOM      5  C   UNL A   1      32.753  27.771  25.826  1.00  0.00     0.092 C 
ATOM      6  C   UNL A   1      33.128  26.298  26.074  1.00  0.00     0.027 C 
ATOM      7  C   UNL A   1      34.022  28.642  25.804  1.00  0.00     0.027 C 
BRANCH   5   8
ATOM      8  C   UNL A   1      32.067  27.878  24.416  1.00  0.00     0.276 C 
BRANCH   8   9
ATOM      9  N   UNL A   1      30.634  27.537  24.317  1.00  0.00    -0.345 N 
ATOM     10  H   UNL A   1      30.520  26.548  24.542  1.00  0.00     0.346 HD
ATOM     11  H   UNL A   1      30.135  28.143  24.968  1.00  0.00     0.346 HD
BRANCH   9  12
ATOM     12  C   UNL A   1      30.064  27.775  22.985  1.00  0.00     0.271 C 
BRANCH  12  13
ATOM     13  C   UNL A   1      28.731  28.537  23.012  1.00  0.00     0.130 C 
BRANCH  13  14
ATOM     14  S   UNL A   1      28.712  30.047  21.970  1.00  0.00    -0.160 SA
ATOM     15  C   UNL A   1      27.826  31.192  23.049  1.00  0.00     0.085 C 
ENDBRANCH  13  14
ENDBRANCH  12  13
ENDBRANCH   9  12
ENDBRANCH   8   9
ENDBRANCH   5   8
ENDBRANCH   1   5
BRANCH   3  16
ATOM     16  C   UNL A   1      31.672  30.781  26.070  1.00  0.00     0.117 C 
BRANCH  16  17
ATOM     17  C   UNL A   1      31.408  32.116  26.757  1.00  0.00     0.042 C 
BRANCH  17  18
ATOM     18  C   UNL A   1      32.673  32.816  27.240  1.00  0.00     0.118 C 
BRANCH  18  19
ATOM     19  N   UNL A   1      32.435  34.206  27.602  1.00  0.00    -0.352 N 
ATOM     20  C   UNL A   1      32.983  34.956  28.611  1.00  0.00     0.251 C 
ATOM     21  H   UNL A   1      31.783  34.680  27.036  1.00  0.00     0.163 HD
ATOM     22  O   UNL A   1      32.495  36.049  28.896  1.00  0.00    -0.269 OA
BRANCH  20  23
ATOM     23  C   UNL A   1      34.141  34.448  29.372  1.00  0.00     0.039 A 
ATOM     24  C   UNL A   1      33.921  33.833  30.607  1.00  0.00     0.014 A 
ATOM     25  C   UNL A   1      35.443  34.584  28.881  1.00  0.00     0.014 A 
ATOM     26  C   UNL A   1      34.997  33.291  31.311  1.00  0.00     0.010 A 
ATOM     27  C   UNL A   1      36.500  33.962  29.536  1.00  0.00     0.010 A 
ATOM     28  C   UNL A   1      36.289  33.312  30.760  1.00  0.00    -0.014 A 
BRANCH  28  29
ATOM     29  C   UNL A   1      37.426  32.652  31.452  1.00  0.00     0.031 A 
ATOM     30  C   UNL A   1      38.138  31.494  30.808  1.00  0.00     0.074 A 
ATOM     31  C   UNL A   1      37.780  33.063  32.684  1.00  0.00     0.049 A 
ATOM     32  N   UNL A   1      39.119  30.762  31.276  1.00  0.00    -0.248 NA
ATOM     33  C   UNL A   1      37.672  31.085  29.473  1.00  0.00     0.031 C 
ATOM     34  C   UNL A   1      37.128  34.139  33.436  1.00  0.00     0.029 A 
ATOM     35  N   UNL A   1      38.770  32.624  33.528  1.00  0.00    -0.354 N 
ATOM     36  C   UNL A   1      39.380  29.811  30.299  1.00  0.00     0.074 A 
ATOM     37  C   UNL A   1      38.416  30.014  29.241  1.00  0.00     0.031 C 
ATOM     38  C   UNL A   1      37.753  34.293  34.614  1.00  0.00     0.029 A 
ATOM     39  C   UNL A   1      38.818  33.303  34.722  1.00  0.00     0.049 A 
ATOM     40  H   UNL A   1      39.387  31.892  33.299  1.00  0.00     0.167 HD
ATOM     41  C   UNL A   1      40.354  28.870  30.275  1.00  0.00     0.037 A 
ATOM     42  C   UNL A   1      39.626  33.138  35.786  1.00  0.00     0.037 A 
ATOM     43  C   UNL A   1      41.322  28.681  31.325  1.00  0.00     0.049 A 
ATOM     44  C   UNL A   1      40.690  32.074  35.737  1.00  0.00     0.074 A 
ATOM     45  C   UNL A   1      42.378  27.790  31.373  1.00  0.00     0.029 A 
ATOM     46  N   UNL A   1      41.349  29.397  32.513  1.00  0.00    -0.354 N 
ATOM     47  N   UNL A   1      40.975  31.229  34.775  1.00  0.00    -0.248 NA
ATOM     48  C   UNL A   1      41.554  31.949  36.919  1.00  0.00     0.031 C 
ATOM     49  C   UNL A   1      43.014  27.930  32.611  1.00  0.00     0.029 A 
ATOM     50  C   UNL A   1      42.390  28.951  33.310  1.00  0.00     0.049 A 
ATOM     51  H   UNL A   1      40.721  30.117  32.754  1.00  0.00     0.167 HD
ATOM     52  C   UNL A   1      42.063  30.493  35.223  1.00  0.00     0.074 A 
ATOM     53  C   UNL A   1      42.403  31.009  36.533  1.00  0.00     0.031 C 
ATOM     54  C   UNL A   1      42.719  29.478  34.609  1.00  0.00     0.037 A 
BRANCH  41  55
ATOM     55  C   UNL A   1      40.433  27.977  29.071  1.00  0.00     0.064 A 
ATOM     56  C   UNL A   1      39.700  26.783  28.992  1.00  0.00     0.173 A 
ATOM     57  C   UNL A   1      41.205  28.346  27.958  1.00  0.00     0.173 A 
ATOM     58  F   UNL A   1      38.955  26.379  30.033  1.00  0.00    -0.203 F 
ATOM     59  C   UNL A   1      39.753  25.980  27.855  1.00  0.00     0.198 A 
ATOM     60  C   UNL A   1      41.231  27.557  26.810  1.00  0.00     0.198 A 
ATOM     61  F   UNL A   1      41.922  29.479  27.976  1.00  0.00    -0.203 F 
ATOM     62  F   UNL A   1      39.078  24.824  27.822  1.00  0.00    -0.200 F 
ATOM     63  C   UNL A   1      40.511  26.373  26.762  1.00  0.00     0.200 A 
ATOM     64  F   UNL A   1      41.951  27.944  25.748  1.00  0.00    -0.200 F 
ATOM     65  F   UNL A   1      40.548  25.607  25.663  1.00  0.00    -0.200 F 
ENDBRANCH  41  55
BRANCH  42  66
ATOM     66  C   UNL A   1      39.470  34.003  36.986  1.00  0.00     0.064 A 
ATOM     67  C   UNL A   1      40.073  35.268  37.047  1.00  0.00     0.173 A 
ATOM     68  C   UNL A   1      38.741  33.576  38.104  1.00  0.00     0.173 A 
ATOM     69  F   UNL A   1      40.797  35.716  36.010  1.00  0.00    -0.203 F 
ATOM     70  C   UNL A   1      39.981  36.056  38.192  1.00  0.00     0.198 A 
ATOM     71  C   UNL A   1      38.621  34.379  39.237  1.00  0.00     0.198 A 
ATOM     72  F   UNL A   1      38.139  32.378  38.097  1.00  0.00    -0.203 F 
ATOM     73  F   UNL A   1      40.618  37.234  38.246  1.00  0.00    -0.200 F 
ATOM     74  C   UNL A   1      39.251  35.614  39.285  1.00  0.00     0.200 A 
ATOM     75  F   UNL A   1      37.899  33.955  40.283  1.00  0.00    -0.200 F 
ATOM     76  F   UNL A   1      39.163  36.370  40.386  1.00  0.00    -0.200 F 
ENDBRANCH  42  66
BRANCH  54  77
ATOM     77  C   UNL A   1      43.893  28.883  35.333  1.00  0.00     0.064 A 
ATOM     78  C   UNL A   1      45.198  29.359  35.138  1.00  0.00     0.173 A 
ATOM     79  C   UNL A   1      43.705  27.840  36.253  1.00  0.00     0.173 A 
ATOM     80  F   UNL A   1      45.434  30.345  34.258  1.00  0.00    -0.203 F 
ATOM     81  C   UNL A   1      46.276  28.789  35.810  1.00  0.00     0.198 A 
ATOM     82  C   UNL A   1      44.781  27.297  36.949  1.00  0.00     0.198 A 
ATOM     83  F   UNL A   1      42.477  27.354  36.483  1.00  0.00    -0.203 F 
ATOM     84  F   UNL A   1      47.521  29.219  35.562  1.00  0.00    -0.200 F 
ATOM     85  C   UNL A   1      46.066  27.763  36.720  1.00  0.00     0.200 A 
ATOM     86  F   UNL A   1      44.573  26.317  37.840  1.00  0.00    -0.200 F 
ATOM     87  F   UNL A   1      47.104  27.218  37.369  1.00  0.00    -0.200 F 
ENDBRANCH  54  77
ENDBRANCH  28  29
ENDBRANCH  20  23
ENDBRANCH  18  19
ENDBRANCH  17  18
ENDBRANCH  16  17
ENDBRANCH   3  16
TORSDOF 15
ENDMDL
MODEL 2
REMARK VINA RESULT:     -10.4      1.413      2.335
REMARK SMILES CSCC[NH2+]CC(C)(C)C(=O)NCCCNC(=O)c1ccc(-c2c3nc(c(-c4c(F)c(F)c(F)c(F)c4F)c4ccc([nH]4)c(-c4c(F)c(F)c(F)c(F)c4F)c4nc(c(-c5c(F)c(F)c(F)c(F)c5F)c5ccc2[nH]5)C=C4)C=C3)cc1
REMARK SMILES IDX 10 1 11 2 12 3 7 5 8 6 9 7 6 8 5 9 4 12 3 13 2 14 1 15 13 16
REMARK SMILES IDX 14 17 15 18 16 19 17 20 18 22 19 23 20 24 81 25 21 26 80 27
REMARK SMILES IDX 22 28 23 29 24 30 74 31 25 32 79 33 73 34 75 35 26 36 78 37
REMARK SMILES IDX 72 38 71 39 27 41 59 42 39 43 58 44 40 45 43 46 57 47 76 48
REMARK SMILES IDX 41 49 42 50 56 52 77 53 44 54 28 55 29 56 37 57 30 58 31 59
REMARK SMILES IDX 35 60 38 61 32 62 33 63 36 64 34 65 60 66 61 67 69 68 62 69
REMARK SMILES IDX 63 70 67 71 70 72 64 73 65 74 68 75 66 76 45 77 46 78 54 79
REMARK SMILES IDX 47 80 48 81 52 82 55 83 49 84 50 85 53 86 51 87
REMARK H PARENT 12 4 5 10 5 11 16 21 75 40 43 51
REMARK Flexibility Score: inf
ROOT
ATOM      1  C   UNL A   1      31.765  28.473  26.940  1.00  0.00     0.231 C 
ATOM      2  O   UNL A   1      31.356  27.921  27.967  1.00  0.00    -0.274 OA
ATOM      3  N   UNL A   1      31.780  29.828  26.988  1.00  0.00    -0.355 N 
ATOM      4  H   UNL A   1      31.916  30.201  27.888  1.00  0.00     0.163 HD
ENDROOT
BRANCH   1   5
ATOM      5  C   UNL A   1      32.197  27.675  25.697  1.00  0.00     0.092 C 
ATOM      6  C   UNL A   1      33.475  28.209  25.021  1.00  0.00     0.027 C 
ATOM      7  C   UNL A   1      31.025  27.695  24.699  1.00  0.00     0.027 C 
BRANCH   5   8
ATOM      8  C   UNL A   1      32.447  26.183  26.122  1.00  0.00     0.276 C 
BRANCH   8   9
ATOM      9  N   UNL A   1      31.291  25.398  26.600  1.00  0.00    -0.345 N 
ATOM     10  H   UNL A   1      31.354  25.315  27.615  1.00  0.00     0.346 HD
ATOM     11  H   UNL A   1      30.449  25.892  26.302  1.00  0.00     0.346 HD
BRANCH   9  12
ATOM     12  C   UNL A   1      31.222  24.047  26.029  1.00  0.00     0.271 C 
BRANCH  12  13
ATOM     13  C   UNL A   1      32.448  23.672  25.184  1.00  0.00     0.130 C 
BRANCH  13  14
ATOM     14  S   UNL A   1      33.289  22.135  25.730  1.00  0.00    -0.160 SA
ATOM     15  C   UNL A   1      32.193  20.882  25.030  1.00  0.00     0.085 C 
ENDBRANCH  13  14
ENDBRANCH  12  13
ENDBRANCH   9  12
ENDBRANCH   8   9
ENDBRANCH   5   8
ENDBRANCH   1   5
BRANCH   3  16
ATOM     16  C   UNL A   1      31.631  30.822  25.945  1.00  0.00     0.117 C 
BRANCH  16  17
ATOM     17  C   UNL A   1      31.365  32.196  26.550  1.00  0.00     0.042 C 
BRANCH  17  18
ATOM     18  C   UNL A   1      32.574  32.800  27.254  1.00  0.00     0.118 C 
BRANCH  18  19
ATOM     19  N   UNL A   1      32.373  34.199  27.603  1.00  0.00    -0.352 N 
ATOM     20  C   UNL A   1      32.955  34.950  28.593  1.00  0.00     0.251 C 
ATOM     21  H   UNL A   1      31.722  34.681  27.043  1.00  0.00     0.163 HD
ATOM     22  O   UNL A   1      32.496  36.056  28.872  1.00  0.00    -0.269 OA
BRANCH  20  23
ATOM     23  C   UNL A   1      34.116  34.426  29.339  1.00  0.00     0.039 A 
ATOM     24  C   UNL A   1      33.904  33.816  30.577  1.00  0.00     0.014 A 
ATOM     25  C   UNL A   1      35.413  34.541  28.830  1.00  0.00     0.014 A 
ATOM     26  C   UNL A   1      34.981  33.260  31.268  1.00  0.00     0.010 A 
ATOM     27  C   UNL A   1      36.470  33.905  29.472  1.00  0.00     0.010 A 
ATOM     28  C   UNL A   1      36.266  33.260  30.700  1.00  0.00    -0.014 A 
BRANCH  28  29
ATOM     29  C   UNL A   1      37.402  32.585  31.377  1.00  0.00     0.031 A 
ATOM     30  C   UNL A   1      38.107  31.434  30.712  1.00  0.00     0.074 A 
ATOM     31  C   UNL A   1      37.761  32.974  32.615  1.00  0.00     0.049 A 
ATOM     32  N   UNL A   1      39.087  30.691  31.166  1.00  0.00    -0.248 NA
ATOM     33  C   UNL A   1      37.636  31.049  29.373  1.00  0.00     0.031 C 
ATOM     34  C   UNL A   1      37.116  34.040  33.386  1.00  0.00     0.029 A 
ATOM     35  N   UNL A   1      38.752  32.518  33.449  1.00  0.00    -0.354 N 
ATOM     36  C   UNL A   1      39.341  29.755  30.173  1.00  0.00     0.074 A 
ATOM     37  C   UNL A   1      38.375  29.979  29.121  1.00  0.00     0.031 C 
ATOM     38  C   UNL A   1      37.745  34.173  34.565  1.00  0.00     0.029 A 
ATOM     39  C   UNL A   1      38.806  33.177  34.653  1.00  0.00     0.049 A 
ATOM     40  H   UNL A   1      39.365  31.787  33.206  1.00  0.00     0.167 HD
ATOM     41  C   UNL A   1      40.312  28.811  30.131  1.00  0.00     0.037 A 
ATOM     42  C   UNL A   1      39.617  32.991  35.713  1.00  0.00     0.037 A 
ATOM     43  C   UNL A   1      41.282  28.601  31.174  1.00  0.00     0.049 A 
ATOM     44  C   UNL A   1      40.677  31.925  35.643  1.00  0.00     0.074 A 
ATOM     45  C   UNL A   1      42.335  27.705  31.205  1.00  0.00     0.029 A 
ATOM     46  N   UNL A   1      41.315  29.298  32.374  1.00  0.00    -0.354 N 
ATOM     47  N   UNL A   1      40.955  31.094  34.666  1.00  0.00    -0.248 NA
ATOM     48  C   UNL A   1      41.543  31.777  36.820  1.00  0.00     0.031 C 
ATOM     49  C   UNL A   1      42.975  27.822  32.443  1.00  0.00     0.029 A 
ATOM     50  C   UNL A   1      42.357  28.834  33.160  1.00  0.00     0.049 A 
ATOM     51  H   UNL A   1      40.691  30.015  32.628  1.00  0.00     0.167 HD
ATOM     52  C   UNL A   1      42.041  30.347  35.099  1.00  0.00     0.074 A 
ATOM     53  C   UNL A   1      42.388  30.840  36.416  1.00  0.00     0.031 C 
ATOM     54  C   UNL A   1      42.692  29.339  34.467  1.00  0.00     0.037 A 
BRANCH  41  55
ATOM     55  C   UNL A   1      40.383  27.937  28.912  1.00  0.00     0.064 A 
ATOM     56  C   UNL A   1      41.183  28.277  27.810  1.00  0.00     0.173 A 
ATOM     57  C   UNL A   1      39.691  26.716  28.866  1.00  0.00     0.173 A 
ATOM     58  F   UNL A   1      41.857  29.437  27.798  1.00  0.00    -0.203 F 
ATOM     59  C   UNL A   1      41.270  27.441  26.700  1.00  0.00     0.198 A 
ATOM     60  C   UNL A   1      39.805  25.868  27.768  1.00  0.00     0.198 A 
ATOM     61  F   UNL A   1      38.916  26.338  29.894  1.00  0.00    -0.203 F 
ATOM     62  F   UNL A   1      42.006  27.809  25.643  1.00  0.00    -0.200 F 
ATOM     63  C   UNL A   1      40.589  26.233  26.684  1.00  0.00     0.200 A 
ATOM     64  F   UNL A   1      39.159  24.694  27.760  1.00  0.00    -0.200 F 
ATOM     65  F   UNL A   1      40.686  25.423  25.621  1.00  0.00    -0.200 F 
ENDBRANCH  41  55
BRANCH  42  66
ATOM     66  C   UNL A   1      39.468  33.838  36.926  1.00  0.00     0.064 A 
ATOM     67  C   UNL A   1      40.119  35.076  37.028  1.00  0.00     0.173 A 
ATOM     68  C   UNL A   1      38.697  33.418  38.019  1.00  0.00     0.173 A 
ATOM     69  F   UNL A   1      40.885  35.515  36.017  1.00  0.00    -0.203 F 
ATOM     70  C   UNL A   1      40.032  35.844  38.187  1.00  0.00     0.198 A 
ATOM     71  C   UNL A   1      38.582  34.202  39.165  1.00  0.00     0.198 A 
ATOM     72  F   UNL A   1      38.047  32.246  37.972  1.00  0.00    -0.203 F 
ATOM     73  F   UNL A   1      40.714  36.994  38.279  1.00  0.00    -0.200 F 
ATOM     74  C   UNL A   1      39.260  35.409  39.253  1.00  0.00     0.200 A 
ATOM     75  F   UNL A   1      37.820  33.786  40.186  1.00  0.00    -0.200 F 
ATOM     76  F   UNL A   1      39.177  36.146  40.368  1.00  0.00    -0.200 F 
ENDBRANCH  42  66
BRANCH  54  77
ATOM     77  C   UNL A   1      43.866  28.728  35.178  1.00  0.00     0.064 A 
ATOM     78  C   UNL A   1      45.175  29.187  34.969  1.00  0.00     0.173 A 
ATOM     79  C   UNL A   1      43.674  27.687  36.099  1.00  0.00     0.173 A 
ATOM     80  F   UNL A   1      45.414  30.171  34.087  1.00  0.00    -0.203 F 
ATOM     81  C   UNL A   1      46.252  28.602  35.628  1.00  0.00     0.198 A 
ATOM     82  C   UNL A   1      44.749  27.128  36.783  1.00  0.00     0.198 A 
ATOM     83  F   UNL A   1      42.442  27.216  36.341  1.00  0.00    -0.203 F 
ATOM     84  F   UNL A   1      47.499  29.016  35.368  1.00  0.00    -0.200 F 
ATOM     85  C   UNL A   1      46.038  27.578  36.540  1.00  0.00     0.200 A 
ATOM     86  F   UNL A   1      44.539  26.151  37.675  1.00  0.00    -0.200 F 
ATOM     87  F   UNL A   1      47.076  27.019  37.177  1.00  0.00    -0.200 F 
ENDBRANCH  54  77
ENDBRANCH  28  29
ENDBRANCH  20  23
ENDBRANCH  18  19
ENDBRANCH  17  18
ENDBRANCH  16  17
ENDBRANCH   3  16
TORSDOF 15
ENDMDL
MODEL 3
REMARK VINA RESULT:     -10.2      1.422      2.312
REMARK SMILES CSCC[NH2+]CC(C)(C)C(=O)NCCCNC(=O)c1ccc(-c2c3nc(c(-c4c(F)c(F)c(F)c(F)c4F)c4ccc([nH]4)c(-c4c(F)c(F)c(F)c(F)c4F)c4nc(c(-c5c(F)c(F)c(F)c(F)c5F)c5ccc2[nH]5)C=C4)C=C3)cc1
REMARK SMILES IDX 10 1 11 2 12 3 7 5 8 6 9 7 6 8 5 9 4 12 3 13 2 14 1 15 13 16
REMARK SMILES IDX 14 17 15 18 16 19 17 20 18 22 19 23 20 24 81 25 21 26 80 27
REMARK SMILES IDX 22 28 23 29 24 30 74 31 25 32 79 33 73 34 75 35 26 36 78 37
REMARK SMILES IDX 72 38 71 39 27 41 59 42 39 43 58 44 40 45 43 46 57 47 76 48
REMARK SMILES IDX 41 49 42 50 56 52 77 53 44 54 28 55 29 56 37 57 30 58 31 59
REMARK SMILES IDX 35 60 38 61 32 62 33 63 36 64 34 65 60 66 61 67 69 68 62 69
REMARK SMILES IDX 63 70 67 71 70 72 64 73 65 74 68 75 66 76 45 77 46 78 54 79
REMARK SMILES IDX 47 80 48 81 52 82 55 83 49 84 50 85 53 86 51 87
REMARK H PARENT 12 4 5 10 5 11 16 21 75 40 43 51
REMARK Flexibility Score: inf
ROOT
ATOM      1  C   UNL A   1      32.627  29.216  25.020  1.00  0.00     0.231 C 
ATOM      2  O   UNL A   1      33.134  29.321  23.898  1.00  0.00    -0.274 OA
ATOM      3  N   UNL A   1      31.747  30.196  25.342  1.00  0.00    -0.355 N 
ATOM      4  H   UNL A   1      31.272  30.583  24.573  1.00  0.00     0.163 HD
ENDROOT
BRANCH   1   5
ATOM      5  C   UNL A   1      32.995  28.072  25.982  1.00  0.00     0.092 C 
ATOM      6  C   UNL A   1      31.825  27.592  26.862  1.00  0.00     0.027 C 
ATOM      7  C   UNL A   1      34.155  28.562  26.868  1.00  0.00     0.027 C 
BRANCH   5   8
ATOM      8  C   UNL A   1      33.513  26.854  25.135  1.00  0.00     0.276 C 
BRANCH   8   9
ATOM      9  N   UNL A   1      33.557  25.529  25.786  1.00  0.00    -0.345 N 
ATOM     10  H   UNL A   1      33.599  25.666  26.796  1.00  0.00     0.346 HD
ATOM     11  H   UNL A   1      32.718  25.025  25.497  1.00  0.00     0.346 HD
BRANCH   9  12
ATOM     12  C   UNL A   1      34.709  24.714  25.382  1.00  0.00     0.271 C 
BRANCH  12  13
ATOM     13  C   UNL A   1      34.374  23.657  24.321  1.00  0.00     0.130 C 
BRANCH  13  14
ATOM     14  S   UNL A   1      32.579  23.328  24.135  1.00  0.00    -0.160 SA
ATOM     15  C   UNL A   1      32.599  22.032  22.877  1.00  0.00     0.085 C 
ENDBRANCH  13  14
ENDBRANCH  12  13
ENDBRANCH   9  12
ENDBRANCH   8   9
ENDBRANCH   5   8
ENDBRANCH   1   5
BRANCH   3  16
ATOM     16  C   UNL A   1      31.384  30.771  26.621  1.00  0.00     0.117 C 
BRANCH  16  17
ATOM     17  C   UNL A   1      31.431  32.293  26.555  1.00  0.00     0.042 C 
BRANCH  17  18
ATOM     18  C   UNL A   1      32.649  32.898  27.242  1.00  0.00     0.118 C 
BRANCH  18  19
ATOM     19  N   UNL A   1      32.448  34.295  27.604  1.00  0.00    -0.352 N 
ATOM     20  C   UNL A   1      33.018  35.032  28.610  1.00  0.00     0.251 C 
ATOM     21  H   UNL A   1      31.805  34.784  27.041  1.00  0.00     0.163 HD
ATOM     22  O   UNL A   1      32.558  36.136  28.896  1.00  0.00    -0.269 OA
BRANCH  20  23
ATOM     23  C   UNL A   1      34.167  34.496  29.366  1.00  0.00     0.039 A 
ATOM     24  C   UNL A   1      33.935  33.865  30.590  1.00  0.00     0.014 A 
ATOM     25  C   UNL A   1      35.472  34.621  28.880  1.00  0.00     0.014 A 
ATOM     26  C   UNL A   1      35.001  33.297  31.289  1.00  0.00     0.010 A 
ATOM     27  C   UNL A   1      36.519  33.975  29.529  1.00  0.00     0.010 A 
ATOM     28  C   UNL A   1      36.296  33.309  30.742  1.00  0.00    -0.014 A 
BRANCH  28  29
ATOM     29  C   UNL A   1      37.421  32.623  31.426  1.00  0.00     0.031 A 
ATOM     30  C   UNL A   1      38.111  31.458  30.772  1.00  0.00     0.074 A 
ATOM     31  C   UNL A   1      37.784  33.017  32.662  1.00  0.00     0.049 A 
ATOM     32  N   UNL A   1      39.079  30.704  31.232  1.00  0.00    -0.248 NA
ATOM     33  C   UNL A   1      37.637  31.068  29.434  1.00  0.00     0.031 C 
ATOM     34  C   UNL A   1      37.153  34.097  33.424  1.00  0.00     0.029 A 
ATOM     35  N   UNL A   1      38.767  32.552  33.501  1.00  0.00    -0.354 N 
ATOM     36  C   UNL A   1      39.322  29.757  30.246  1.00  0.00     0.074 A 
ATOM     37  C   UNL A   1      38.361  29.987  29.191  1.00  0.00     0.031 C 
ATOM     38  C   UNL A   1      37.781  34.230  34.602  1.00  0.00     0.029 A 
ATOM     39  C   UNL A   1      38.828  33.220  34.700  1.00  0.00     0.049 A 
ATOM     40  H   UNL A   1      39.370  31.811  33.265  1.00  0.00     0.167 HD
ATOM     41  C   UNL A   1      40.279  28.799  30.213  1.00  0.00     0.037 A 
ATOM     42  C   UNL A   1      39.635  33.031  35.762  1.00  0.00     0.037 A 
ATOM     43  C   UNL A   1      41.245  28.584  31.260  1.00  0.00     0.049 A 
ATOM     44  C   UNL A   1      40.680  31.949  35.702  1.00  0.00     0.074 A 
ATOM     45  C   UNL A   1      42.285  27.673  31.299  1.00  0.00     0.029 A 
ATOM     46  N   UNL A   1      41.286  29.289  32.454  1.00  0.00    -0.354 N 
ATOM     47  N   UNL A   1      40.948  31.108  34.733  1.00  0.00    -0.248 NA
ATOM     48  C   UNL A   1      41.542  31.798  36.882  1.00  0.00     0.031 C 
ATOM     49  C   UNL A   1      42.925  27.791  32.537  1.00  0.00     0.029 A 
ATOM     50  C   UNL A   1      42.320  28.817  33.245  1.00  0.00     0.049 A 
ATOM     51  H   UNL A   1      40.672  30.017  32.702  1.00  0.00     0.167 HD
ATOM     52  C   UNL A   1      42.023  30.348  35.173  1.00  0.00     0.074 A 
ATOM     53  C   UNL A   1      42.374  30.846  36.486  1.00  0.00     0.031 C 
ATOM     54  C   UNL A   1      42.660  29.327  34.549  1.00  0.00     0.037 A 
BRANCH  41  55
ATOM     55  C   UNL A   1      40.341  27.915  29.001  1.00  0.00     0.064 A 
ATOM     56  C   UNL A   1      39.636  26.703  28.940  1.00  0.00     0.173 A 
ATOM     57  C   UNL A   1      41.065  28.310  27.865  1.00  0.00     0.173 A 
ATOM     58  F   UNL A   1      38.938  26.274  30.002  1.00  0.00    -0.203 F 
ATOM     59  C   UNL A   1      39.672  25.908  27.796  1.00  0.00     0.198 A 
ATOM     60  C   UNL A   1      41.073  27.528  26.712  1.00  0.00     0.198 A 
ATOM     61  F   UNL A   1      41.752  29.462  27.867  1.00  0.00    -0.203 F 
ATOM     62  F   UNL A   1      39.026  24.735  27.778  1.00  0.00    -0.200 F 
ATOM     63  C   UNL A   1      40.382  26.326  26.681  1.00  0.00     0.200 A 
ATOM     64  F   UNL A   1      41.746  27.941  25.630  1.00  0.00    -0.200 F 
ATOM     65  F   UNL A   1      40.402  25.568  25.576  1.00  0.00    -0.200 F 
ENDBRANCH  41  55
BRANCH  42  66
ATOM     66  C   UNL A   1      39.496  33.889  36.969  1.00  0.00     0.064 A 
ATOM     67  C   UNL A   1      38.727  33.475  38.066  1.00  0.00     0.173 A 
ATOM     68  C   UNL A   1      40.106  35.149  37.042  1.00  0.00     0.173 A 
ATOM     69  F   UNL A   1      38.107  32.285  38.038  1.00  0.00    -0.203 F 
ATOM     70  C   UNL A   1      38.544  34.301  39.172  1.00  0.00     0.198 A 
ATOM     71  C   UNL A   1      39.951  35.962  38.164  1.00  0.00     0.198 A 
ATOM     72  F   UNL A   1      40.859  35.592  36.025  1.00  0.00    -0.203 F 
ATOM     73  F   UNL A   1      37.753  33.905  40.179  1.00  0.00    -0.200 F 
ATOM     74  C   UNL A   1      39.161  35.542  39.223  1.00  0.00     0.200 A 
ATOM     75  F   UNL A   1      40.564  37.152  38.216  1.00  0.00    -0.200 F 
ATOM     76  F   UNL A   1      38.984  36.338  40.286  1.00  0.00    -0.200 F 
ENDBRANCH  42  66
BRANCH  54  77
ATOM     77  C   UNL A   1      43.824  28.705  35.266  1.00  0.00     0.064 A 
ATOM     78  C   UNL A   1      45.130  29.194  35.116  1.00  0.00     0.173 A 
ATOM     79  C   UNL A   1      43.625  27.621  36.135  1.00  0.00     0.173 A 
ATOM     80  F   UNL A   1      45.376  30.219  34.285  1.00  0.00    -0.203 F 
ATOM     81  C   UNL A   1      46.199  28.598  35.780  1.00  0.00     0.198 A 
ATOM     82  C   UNL A   1      44.691  27.051  36.825  1.00  0.00     0.198 A 
ATOM     83  F   UNL A   1      42.395  27.120  36.322  1.00  0.00    -0.203 F 
ATOM     84  F   UNL A   1      47.445  29.044  35.574  1.00  0.00    -0.200 F 
ATOM     85  C   UNL A   1      45.977  27.532  36.639  1.00  0.00     0.200 A 
ATOM     86  F   UNL A   1      44.472  26.032  37.668  1.00  0.00    -0.200 F 
ATOM     87  F   UNL A   1      47.006  26.963  37.282  1.00  0.00    -0.200 F 
ENDBRANCH  54  77
ENDBRANCH  28  29
ENDBRANCH  20  23
ENDBRANCH  18  19
ENDBRANCH  17  18
ENDBRANCH  16  17
ENDBRANCH   3  16
TORSDOF 15
ENDMDL
