MODEL 1
REMARK VINA RESULT:     -15.1      0.000      0.000
REMARK SMILES Cc1ccccc1[C@@H]1[NH2+][C@@H](C(=O)NCCCNC(=O)c2ccc(-c3c4nc(c(-c5c(F)c(F)c(F)c(F)c5F)c5ccc([nH]5)c(-c5c(F)c(F)c(F)c(F)c5F)c5nc(c(-c6c(F)c(F)c(F)c(F)c6F)c6ccc3[nH]6)C=C5)C=C4)cc2)CC2=c3ccccc3=N[C@H]21
REMARK SMILES IDX 15 1 14 2 13 3 11 4 12 5 10 7 8 8 9 9 92 10 84 13 91 14
REMARK SMILES IDX 83 15 85 16 90 17 86 18 89 19 87 20 88 21 7 22 1 23 2 24
REMARK SMILES IDX 3 25 4 26 6 27 5 28 16 29 17 30 18 31 19 33 20 34 21 35
REMARK SMILES IDX 82 36 22 37 81 38 23 39 24 40 25 41 75 42 26 43 80 44 74 45
REMARK SMILES IDX 76 46 27 47 79 48 73 49 72 50 28 52 60 53 40 54 59 55 41 56
REMARK SMILES IDX 44 57 58 58 77 59 42 60 43 61 57 63 78 64 45 65 29 66 30 67
REMARK SMILES IDX 38 68 31 69 32 70 36 71 39 72 33 73 34 74 37 75 35 76 61 77
REMARK SMILES IDX 62 78 70 79 63 80 64 81 68 82 71 83 65 84 66 85 69 86 67 87
REMARK SMILES IDX 46 88 47 89 55 90 48 91 49 92 53 93 56 94 50 95 51 96 54 97
REMARK SMILES IDX 52 98
REMARK H PARENT 13 6 9 11 9 12 17 32 76 51 44 62
REMARK Flexibility Score: inf
ROOT
ATOM      1  C   UNL A   1      33.584  31.949  27.641  1.00  0.00     0.042 C 
ENDROOT
BRANCH   1   2
ATOM      2  C   UNL A   1      32.525  30.905  27.294  1.00  0.00     0.118 C 
BRANCH   2   3
ATOM      3  N   UNL A   1      32.981  29.519  27.218  1.00  0.00    -0.351 N 
ATOM      4  C   UNL A   1      33.630  28.835  26.221  1.00  0.00     0.278 C 
ATOM      5  O   UNL A   1      34.440  27.976  26.597  1.00  0.00    -0.268 OA
ATOM      6  H   UNL A   1      32.792  28.984  28.022  1.00  0.00     0.163 HD
BRANCH   4   7
ATOM      7  C   UNL A   1      33.228  28.933  24.717  1.00  0.00     0.277 C 
ATOM      8  C   UNL A   1      31.034  27.940  23.787  1.00  0.00     0.243 C 
ATOM      9  N   UNL A   1      31.743  28.976  24.583  1.00  0.00    -0.327 N 
ATOM     10  C   UNL A   1      31.858  27.064  22.793  1.00  0.00     0.196 C 
ATOM     11  H   UNL A   1      31.361  28.932  25.528  1.00  0.00     0.347 HD
ATOM     12  H   UNL A   1      31.583  29.830  24.048  1.00  0.00     0.347 HD
ATOM     13  C   UNL A   1      33.205  26.832  23.373  1.00  0.00    -0.024 C 
ATOM     14  N   UNL A   1      31.302  25.685  22.603  1.00  0.00    -0.270 NA
ATOM     15  C   UNL A   1      33.966  28.034  23.731  1.00  0.00     0.109 C 
ATOM     16  C   UNL A   1      33.480  25.548  23.535  1.00  0.00     0.002 A 
ATOM     17  C   UNL A   1      32.271  24.911  22.994  1.00  0.00     0.066 A 
ATOM     18  C   UNL A   1      34.558  24.807  24.100  1.00  0.00     0.010 A 
ATOM     19  C   UNL A   1      32.295  23.433  22.956  1.00  0.00     0.028 A 
ATOM     20  C   UNL A   1      34.486  23.468  24.080  1.00  0.00     0.001 A 
ATOM     21  C   UNL A   1      33.356  22.783  23.469  1.00  0.00     0.002 A 
BRANCH   8  22
ATOM     22  C   UNL A   1      29.859  28.578  23.028  1.00  0.00     0.015 A 
ATOM     23  C   UNL A   1      28.080  26.926  23.913  1.00  0.00     0.045 C 
ATOM     24  C   UNL A   1      28.517  28.128  23.118  1.00  0.00    -0.042 A 
ATOM     25  C   UNL A   1      27.497  28.874  22.496  1.00  0.00     0.004 A 
ATOM     26  C   UNL A   1      27.784  30.020  21.759  1.00  0.00     0.000 A 
ATOM     27  C   UNL A   1      30.125  29.731  22.259  1.00  0.00     0.010 A 
ATOM     28  C   UNL A   1      29.101  30.442  21.630  1.00  0.00     0.001 A 
ENDBRANCH   8  22
ENDBRANCH   4   7
ENDBRANCH   2   3
ENDBRANCH   1   2
BRANCH   1  29
ATOM     29  C   UNL A   1      34.981  31.394  27.867  1.00  0.00     0.118 C 
BRANCH  29  30
ATOM     30  N   UNL A   1      35.653  31.989  29.026  1.00  0.00    -0.352 N 
ATOM     31  C   UNL A   1      36.713  31.492  29.773  1.00  0.00     0.251 C 
ATOM     32  H   UNL A   1      35.305  32.864  29.316  1.00  0.00     0.163 HD
ATOM     33  O   UNL A   1      37.252  32.158  30.633  1.00  0.00    -0.269 OA
BRANCH  31  34
ATOM     34  C   UNL A   1      37.241  30.161  29.402  1.00  0.00     0.039 A 
ATOM     35  C   UNL A   1      37.472  29.244  30.430  1.00  0.00     0.014 A 
ATOM     36  C   UNL A   1      37.794  29.984  28.138  1.00  0.00     0.014 A 
ATOM     37  C   UNL A   1      38.486  28.305  30.268  1.00  0.00     0.010 A 
ATOM     38  C   UNL A   1      38.876  29.134  28.022  1.00  0.00     0.010 A 
ATOM     39  C   UNL A   1      39.274  28.355  29.116  1.00  0.00    -0.014 A 
BRANCH  39  40
ATOM     40  C   UNL A   1      40.606  27.760  29.046  1.00  0.00     0.031 A 
ATOM     41  C   UNL A   1      40.790  26.344  28.674  1.00  0.00     0.074 A 
ATOM     42  C   UNL A   1      41.701  28.530  29.248  1.00  0.00     0.049 A 
ATOM     43  N   UNL A   1      41.832  25.649  28.988  1.00  0.00    -0.248 NA
ATOM     44  C   UNL A   1      39.791  25.586  27.933  1.00  0.00     0.031 C 
ATOM     45  C   UNL A   1      43.094  28.185  28.966  1.00  0.00     0.029 A 
ATOM     46  N   UNL A   1      41.785  29.732  29.973  1.00  0.00    -0.354 N 
ATOM     47  C   UNL A   1      41.776  24.472  28.283  1.00  0.00     0.074 A 
ATOM     48  C   UNL A   1      40.462  24.457  27.681  1.00  0.00     0.031 C 
ATOM     49  C   UNL A   1      43.888  28.924  29.755  1.00  0.00     0.029 A 
ATOM     50  C   UNL A   1      43.025  29.664  30.657  1.00  0.00     0.049 A 
ATOM     51  H   UNL A   1      41.126  30.462  29.999  1.00  0.00     0.167 HD
ATOM     52  C   UNL A   1      42.890  23.691  28.182  1.00  0.00     0.037 A 
ATOM     53  C   UNL A   1      43.084  29.630  32.018  1.00  0.00     0.037 A 
ATOM     54  C   UNL A   1      44.017  24.227  28.938  1.00  0.00     0.049 A 
ATOM     55  C   UNL A   1      43.782  28.417  32.600  1.00  0.00     0.074 A 
ATOM     56  C   UNL A   1      45.166  24.929  28.609  1.00  0.00     0.029 A 
ATOM     57  N   UNL A   1      43.915  24.303  30.315  1.00  0.00    -0.354 N 
ATOM     58  N   UNL A   1      44.206  27.403  31.901  1.00  0.00    -0.248 NA
ATOM     59  C   UNL A   1      43.938  28.204  34.040  1.00  0.00     0.031 C 
ATOM     60  C   UNL A   1      45.771  25.393  29.811  1.00  0.00     0.029 A 
ATOM     61  C   UNL A   1      44.981  24.985  30.868  1.00  0.00     0.049 A 
ATOM     62  H   UNL A   1      43.173  23.920  30.837  1.00  0.00     0.167 HD
ATOM     63  C   UNL A   1      44.610  26.405  32.751  1.00  0.00     0.074 A 
ATOM     64  C   UNL A   1      44.420  26.951  34.080  1.00  0.00     0.031 C 
ATOM     65  C   UNL A   1      45.018  25.183  32.304  1.00  0.00     0.037 A 
BRANCH  52  66
ATOM     66  C   UNL A   1      43.001  22.561  27.190  1.00  0.00     0.064 A 
ATOM     67  C   UNL A   1      42.243  21.382  27.339  1.00  0.00     0.173 A 
ATOM     68  C   UNL A   1      43.883  22.568  26.095  1.00  0.00     0.173 A 
ATOM     69  F   UNL A   1      41.281  21.277  28.263  1.00  0.00    -0.203 F 
ATOM     70  C   UNL A   1      42.455  20.253  26.544  1.00  0.00     0.198 A 
ATOM     71  C   UNL A   1      44.142  21.419  25.340  1.00  0.00     0.198 A 
ATOM     72  F   UNL A   1      44.492  23.696  25.704  1.00  0.00    -0.203 F 
ATOM     73  F   UNL A   1      41.712  19.155  26.740  1.00  0.00    -0.200 F 
ATOM     74  C   UNL A   1      43.438  20.256  25.575  1.00  0.00     0.200 A 
ATOM     75  F   UNL A   1      45.085  21.447  24.388  1.00  0.00    -0.200 F 
ATOM     76  F   UNL A   1      43.687  19.153  24.858  1.00  0.00    -0.200 F 
ENDBRANCH  52  66
BRANCH  53  77
ATOM     77  C   UNL A   1      41.948  30.339  32.670  1.00  0.00     0.064 A 
ATOM     78  C   UNL A   1      41.936  31.748  32.670  1.00  0.00     0.173 A 
ATOM     79  C   UNL A   1      40.749  29.682  32.969  1.00  0.00     0.173 A 
ATOM     80  F   UNL A   1      43.057  32.430  32.381  1.00  0.00    -0.203 F 
ATOM     81  C   UNL A   1      40.753  32.461  32.841  1.00  0.00     0.198 A 
ATOM     82  C   UNL A   1      39.571  30.401  33.166  1.00  0.00     0.198 A 
ATOM     83  F   UNL A   1      40.683  28.343  32.954  1.00  0.00    -0.203 F 
ATOM     84  F   UNL A   1      40.751  33.794  32.704  1.00  0.00    -0.200 F 
ATOM     85  C   UNL A   1      39.567  31.785  33.068  1.00  0.00     0.200 A 
ATOM     86  F   UNL A   1      38.418  29.746  33.349  1.00  0.00    -0.200 F 
ATOM     87  F   UNL A   1      38.412  32.460  33.138  1.00  0.00    -0.200 F 
ENDBRANCH  53  77
BRANCH  65  88
ATOM     88  C   UNL A   1      45.466  24.063  33.201  1.00  0.00     0.064 A 
ATOM     89  C   UNL A   1      44.624  23.001  33.567  1.00  0.00     0.173 A 
ATOM     90  C   UNL A   1      46.738  24.083  33.815  1.00  0.00     0.173 A 
ATOM     91  F   UNL A   1      43.367  22.930  33.106  1.00  0.00    -0.203 F 
ATOM     92  C   UNL A   1      45.049  21.995  34.439  1.00  0.00     0.198 A 
ATOM     93  C   UNL A   1      47.140  23.108  34.726  1.00  0.00     0.198 A 
ATOM     94  F   UNL A   1      47.638  25.036  33.533  1.00  0.00    -0.203 F 
ATOM     95  F   UNL A   1      44.233  20.967  34.714  1.00  0.00    -0.200 F 
ATOM     96  C   UNL A   1      46.301  22.054  35.024  1.00  0.00     0.200 A 
ATOM     97  F   UNL A   1      48.346  23.194  35.303  1.00  0.00    -0.200 F 
ATOM     98  F   UNL A   1      46.699  21.097  35.873  1.00  0.00    -0.200 F 
ENDBRANCH  65  88
ENDBRANCH  39  40
ENDBRANCH  31  34
ENDBRANCH  29  30
ENDBRANCH   1  29
TORSDOF 11
ENDMDL
MODEL 2
REMARK VINA RESULT:     -15.0      0.473      1.193
REMARK SMILES Cc1ccccc1[C@@H]1[NH2+][C@@H](C(=O)NCCCNC(=O)c2ccc(-c3c4nc(c(-c5c(F)c(F)c(F)c(F)c5F)c5ccc([nH]5)c(-c5c(F)c(F)c(F)c(F)c5F)c5nc(c(-c6c(F)c(F)c(F)c(F)c6F)c6ccc3[nH]6)C=C5)C=C4)cc2)CC2=c3ccccc3=N[C@H]21
REMARK SMILES IDX 15 1 14 2 13 3 11 4 12 5 10 7 8 8 9 9 92 10 84 13 91 14
REMARK SMILES IDX 83 15 85 16 90 17 86 18 89 19 87 20 88 21 7 22 1 23 2 24
REMARK SMILES IDX 3 25 4 26 6 27 5 28 16 29 17 30 18 31 19 33 20 34 21 35
REMARK SMILES IDX 82 36 22 37 81 38 23 39 24 40 25 41 75 42 26 43 80 44 74 45
REMARK SMILES IDX 76 46 27 47 79 48 73 49 72 50 28 52 60 53 40 54 59 55 41 56
REMARK SMILES IDX 44 57 58 58 77 59 42 60 43 61 57 63 78 64 45 65 29 66 30 67
REMARK SMILES IDX 38 68 31 69 32 70 36 71 39 72 33 73 34 74 37 75 35 76 61 77
REMARK SMILES IDX 62 78 70 79 63 80 64 81 68 82 71 83 65 84 66 85 69 86 67 87
REMARK SMILES IDX 46 88 47 89 55 90 48 91 49 92 53 93 56 94 50 95 51 96 54 97
REMARK SMILES IDX 52 98
REMARK H PARENT 13 6 9 11 9 12 17 32 76 51 44 62
REMARK Flexibility Score: inf
ROOT
ATOM      1  C   UNL A   1      33.527  32.166  27.960  1.00  0.00     0.042 C 
ENDROOT
BRANCH   1   2
ATOM      2  C   UNL A   1      32.659  31.223  27.127  1.00  0.00     0.118 C 
BRANCH   2   3
ATOM      3  N   UNL A   1      33.047  29.815  27.129  1.00  0.00    -0.351 N 
ATOM      4  C   UNL A   1      33.650  29.042  26.168  1.00  0.00     0.278 C 
ATOM      5  O   UNL A   1      34.422  28.168  26.587  1.00  0.00    -0.268 OA
ATOM      6  H   UNL A   1      32.841  29.338  27.965  1.00  0.00     0.163 HD
BRANCH   4   7
ATOM      7  C   UNL A   1      33.236  29.072  24.665  1.00  0.00     0.277 C 
ATOM      8  C   UNL A   1      31.016  28.074  23.804  1.00  0.00     0.243 C 
ATOM      9  N   UNL A   1      31.750  29.135  24.541  1.00  0.00    -0.327 N 
ATOM     10  C   UNL A   1      31.815  27.134  22.849  1.00  0.00     0.196 C 
ATOM     11  H   UNL A   1      31.377  29.146  25.491  1.00  0.00     0.347 HD
ATOM     12  H   UNL A   1      31.601  29.964  23.965  1.00  0.00     0.347 HD
ATOM     13  C   UNL A   1      33.162  26.907  23.429  1.00  0.00    -0.024 C 
ATOM     14  N   UNL A   1      31.233  25.758  22.734  1.00  0.00    -0.270 NA
ATOM     15  C   UNL A   1      33.948  28.111  23.719  1.00  0.00     0.109 C 
ATOM     16  C   UNL A   1      33.416  25.628  23.653  1.00  0.00     0.002 A 
ATOM     17  C   UNL A   1      32.191  24.986  23.156  1.00  0.00     0.066 A 
ATOM     18  C   UNL A   1      34.485  24.896  24.245  1.00  0.00     0.010 A 
ATOM     19  C   UNL A   1      32.188  23.508  23.192  1.00  0.00     0.028 A 
ATOM     20  C   UNL A   1      34.389  23.559  24.294  1.00  0.00     0.001 A 
ATOM     21  C   UNL A   1      33.242  22.866  23.727  1.00  0.00     0.002 A 
BRANCH   8  22
ATOM     22  C   UNL A   1      29.846  28.694  23.024  1.00  0.00     0.015 A 
ATOM     23  C   UNL A   1      28.076  27.015  23.876  1.00  0.00     0.045 C 
ATOM     24  C   UNL A   1      28.510  28.224  23.089  1.00  0.00    -0.042 A 
ATOM     25  C   UNL A   1      27.489  28.955  22.449  1.00  0.00     0.004 A 
ATOM     26  C   UNL A   1      27.773  30.106  21.718  1.00  0.00     0.000 A 
ATOM     27  C   UNL A   1      30.109  29.851  22.261  1.00  0.00     0.010 A 
ATOM     28  C   UNL A   1      29.085  30.547  21.613  1.00  0.00     0.001 A 
ENDBRANCH   8  22
ENDBRANCH   4   7
ENDBRANCH   2   3
ENDBRANCH   1   2
BRANCH   1  29
ATOM     29  C   UNL A   1      34.997  31.787  28.032  1.00  0.00     0.118 C 
BRANCH  29  30
ATOM     30  N   UNL A   1      35.625  32.170  29.301  1.00  0.00    -0.352 N 
ATOM     31  C   UNL A   1      36.648  31.539  29.995  1.00  0.00     0.251 C 
ATOM     32  H   UNL A   1      35.272  32.990  29.718  1.00  0.00     0.163 HD
ATOM     33  O   UNL A   1      37.157  32.044  30.976  1.00  0.00    -0.269 OA
BRANCH  31  34
ATOM     34  C   UNL A   1      37.180  30.281  29.428  1.00  0.00     0.039 A 
ATOM     35  C   UNL A   1      37.307  29.184  30.284  1.00  0.00     0.014 A 
ATOM     36  C   UNL A   1      37.834  30.318  28.201  1.00  0.00     0.014 A 
ATOM     37  C   UNL A   1      38.313  28.257  30.033  1.00  0.00     0.010 A 
ATOM     38  C   UNL A   1      38.905  29.468  28.016  1.00  0.00     0.010 A 
ATOM     39  C   UNL A   1      39.195  28.488  28.975  1.00  0.00    -0.014 A 
BRANCH  39  40
ATOM     40  C   UNL A   1      40.517  27.871  28.902  1.00  0.00     0.031 A 
ATOM     41  C   UNL A   1      40.673  26.439  28.582  1.00  0.00     0.074 A 
ATOM     42  C   UNL A   1      41.626  28.632  29.053  1.00  0.00     0.049 A 
ATOM     43  N   UNL A   1      41.711  25.742  28.902  1.00  0.00    -0.248 NA
ATOM     44  C   UNL A   1      39.648  25.668  27.891  1.00  0.00     0.031 C 
ATOM     45  C   UNL A   1      43.008  28.255  28.756  1.00  0.00     0.029 A 
ATOM     46  N   UNL A   1      41.743  29.859  29.728  1.00  0.00    -0.354 N 
ATOM     47  C   UNL A   1      41.624  24.539  28.245  1.00  0.00     0.074 A 
ATOM     48  C   UNL A   1      40.297  24.521  27.670  1.00  0.00     0.031 C 
ATOM     49  C   UNL A   1      43.829  29.013  29.500  1.00  0.00     0.029 A 
ATOM     50  C   UNL A   1      42.996  29.799  30.389  1.00  0.00     0.049 A 
ATOM     51  H   UNL A   1      41.095  30.601  29.739  1.00  0.00     0.167 HD
ATOM     52  C   UNL A   1      42.724  23.738  28.153  1.00  0.00     0.037 A 
ATOM     53  C   UNL A   1      43.081  29.817  31.750  1.00  0.00     0.037 A 
ATOM     54  C   UNL A   1      43.874  24.286  28.865  1.00  0.00     0.049 A 
ATOM     55  C   UNL A   1      43.774  28.618  32.364  1.00  0.00     0.074 A 
ATOM     56  C   UNL A   1      45.026  24.957  28.486  1.00  0.00     0.029 A 
ATOM     57  N   UNL A   1      43.801  24.417  30.239  1.00  0.00    -0.354 N 
ATOM     58  N   UNL A   1      44.169  27.571  31.697  1.00  0.00    -0.248 NA
ATOM     59  C   UNL A   1      43.956  28.458  33.808  1.00  0.00     0.031 C 
ATOM     60  C   UNL A   1      45.662  25.459  29.656  1.00  0.00     0.029 A 
ATOM     61  C   UNL A   1      44.888  25.103  30.744  1.00  0.00     0.049 A 
ATOM     62  H   UNL A   1      43.065  24.066  30.790  1.00  0.00     0.167 HD
ATOM     63  C   UNL A   1      44.576  26.601  32.577  1.00  0.00     0.074 A 
ATOM     64  C   UNL A   1      44.421  27.201  33.887  1.00  0.00     0.031 C 
ATOM     65  C   UNL A   1      44.957  25.356  32.170  1.00  0.00     0.037 A 
BRANCH  52  66
ATOM     66  C   UNL A   1      42.798  22.569  27.203  1.00  0.00     0.064 A 
ATOM     67  C   UNL A   1      42.040  21.401  27.422  1.00  0.00     0.173 A 
ATOM     68  C   UNL A   1      43.646  22.527  26.082  1.00  0.00     0.173 A 
ATOM     69  F   UNL A   1      41.106  21.339  28.379  1.00  0.00    -0.203 F 
ATOM     70  C   UNL A   1      42.221  20.241  26.666  1.00  0.00     0.198 A 
ATOM     71  C   UNL A   1      43.876  21.348  25.366  1.00  0.00     0.198 A 
ATOM     72  F   UNL A   1      44.249  23.635  25.628  1.00  0.00    -0.203 F 
ATOM     73  F   UNL A   1      41.480  19.156  26.929  1.00  0.00    -0.200 F 
ATOM     74  C   UNL A   1      43.173  20.200  25.669  1.00  0.00     0.200 A 
ATOM     75  F   UNL A   1      44.789  21.332  24.385  1.00  0.00    -0.200 F 
ATOM     76  F   UNL A   1      43.394  19.067  24.989  1.00  0.00    -0.200 F 
ENDBRANCH  52  66
BRANCH  53  77
ATOM     77  C   UNL A   1      41.970  30.568  32.395  1.00  0.00     0.064 A 
ATOM     78  C   UNL A   1      40.808  29.869  32.778  1.00  0.00     0.173 A 
ATOM     79  C   UNL A   1      42.166  31.842  32.940  1.00  0.00     0.173 A 
ATOM     80  F   UNL A   1      40.574  28.639  32.292  1.00  0.00    -0.203 F 
ATOM     81  C   UNL A   1      39.948  30.371  33.750  1.00  0.00     0.198 A 
ATOM     82  C   UNL A   1      41.288  32.353  33.895  1.00  0.00     0.198 A 
ATOM     83  F   UNL A   1      43.267  32.548  32.644  1.00  0.00    -0.203 F 
ATOM     84  F   UNL A   1      38.926  29.624  34.188  1.00  0.00    -0.200 F 
ATOM     85  C   UNL A   1      40.202  31.604  34.324  1.00  0.00     0.200 A 
ATOM     86  F   UNL A   1      41.554  33.531  34.476  1.00  0.00    -0.200 F 
ATOM     87  F   UNL A   1      39.433  32.049  35.328  1.00  0.00    -0.200 F 
ENDBRANCH  53  77
BRANCH  65  88
ATOM     88  C   UNL A   1      45.408  24.265  33.100  1.00  0.00     0.064 A 
ATOM     89  C   UNL A   1      44.554  23.238  33.534  1.00  0.00     0.173 A 
ATOM     90  C   UNL A   1      46.696  24.284  33.678  1.00  0.00     0.173 A 
ATOM     91  F   UNL A   1      43.284  23.175  33.111  1.00  0.00    -0.203 F 
ATOM     92  C   UNL A   1      44.983  22.260  34.436  1.00  0.00     0.198 A 
ATOM     93  C   UNL A   1      47.104  23.338  34.618  1.00  0.00     0.198 A 
ATOM     94  F   UNL A   1      47.607  25.204  33.332  1.00  0.00    -0.203 F 
ATOM     95  F   UNL A   1      44.155  21.263  34.777  1.00  0.00    -0.200 F 
ATOM     96  C   UNL A   1      46.252  22.316  34.984  1.00  0.00     0.200 A 
ATOM     97  F   UNL A   1      48.327  23.422  35.158  1.00  0.00    -0.200 F 
ATOM     98  F   UNL A   1      46.654  21.387  35.861  1.00  0.00    -0.200 F 
ENDBRANCH  65  88
ENDBRANCH  39  40
ENDBRANCH  31  34
ENDBRANCH  29  30
ENDBRANCH   1  29
TORSDOF 11
ENDMDL
MODEL 3
REMARK VINA RESULT:     -14.9      4.162     10.491
REMARK SMILES Cc1ccccc1[C@@H]1[NH2+][C@@H](C(=O)NCCCNC(=O)c2ccc(-c3c4nc(c(-c5c(F)c(F)c(F)c(F)c5F)c5ccc([nH]5)c(-c5c(F)c(F)c(F)c(F)c5F)c5nc(c(-c6c(F)c(F)c(F)c(F)c6F)c6ccc3[nH]6)C=C5)C=C4)cc2)CC2=c3ccccc3=N[C@H]21
REMARK SMILES IDX 15 1 14 2 13 3 11 4 12 5 10 7 8 8 9 9 92 10 84 13 91 14
REMARK SMILES IDX 83 15 85 16 90 17 86 18 89 19 87 20 88 21 7 22 1 23 2 24
REMARK SMILES IDX 3 25 4 26 6 27 5 28 16 29 17 30 18 31 19 33 20 34 21 35
REMARK SMILES IDX 82 36 22 37 81 38 23 39 24 40 25 41 75 42 26 43 80 44 74 45
REMARK SMILES IDX 76 46 27 47 79 48 73 49 72 50 28 52 60 53 40 54 59 55 41 56
REMARK SMILES IDX 44 57 58 58 77 59 42 60 43 61 57 63 78 64 45 65 29 66 30 67
REMARK SMILES IDX 38 68 31 69 32 70 36 71 39 72 33 73 34 74 37 75 35 76 61 77
REMARK SMILES IDX 62 78 70 79 63 80 64 81 68 82 71 83 65 84 66 85 69 86 67 87
REMARK SMILES IDX 46 88 47 89 55 90 48 91 49 92 53 93 56 94 50 95 51 96 54 97
REMARK SMILES IDX 52 98
REMARK H PARENT 13 6 9 11 9 12 17 32 76 51 44 62
REMARK Flexibility Score: inf
ROOT
ATOM      1  C   UNL A   1      39.255  21.445  26.056  1.00  0.00     0.042 C 
ENDROOT
BRANCH   1   2
ATOM      2  C   UNL A   1      38.158  21.592  25.002  1.00  0.00     0.118 C 
BRANCH   2   3
ATOM      3  N   UNL A   1      37.403  22.842  25.024  1.00  0.00    -0.351 N 
ATOM      4  C   UNL A   1      36.414  23.286  25.867  1.00  0.00     0.278 C 
ATOM      5  O   UNL A   1      36.409  24.503  26.096  1.00  0.00    -0.268 OA
ATOM      6  H   UNL A   1      37.645  23.477  24.312  1.00  0.00     0.163 HD
BRANCH   4   7
ATOM      7  C   UNL A   1      35.222  22.393  26.331  1.00  0.00     0.277 C 
ATOM      8  C   UNL A   1      33.376  21.577  24.720  1.00  0.00     0.243 C 
ATOM      9  N   UNL A   1      34.777  21.509  25.214  1.00  0.00    -0.327 N 
ATOM     10  C   UNL A   1      32.300  22.269  25.612  1.00  0.00     0.196 C 
ATOM     11  H   UNL A   1      35.380  21.716  24.418  1.00  0.00     0.347 HD
ATOM     12  H   UNL A   1      34.836  20.575  25.620  1.00  0.00     0.347 HD
ATOM     13  C   UNL A   1      32.940  23.399  26.333  1.00  0.00    -0.024 C 
ATOM     14  N   UNL A   1      31.198  22.917  24.830  1.00  0.00    -0.270 NA
ATOM     15  C   UNL A   1      34.116  23.060  27.141  1.00  0.00     0.109 C 
ATOM     16  C   UNL A   1      32.369  24.563  26.073  1.00  0.00     0.002 A 
ATOM     17  C   UNL A   1      31.277  24.169  25.173  1.00  0.00     0.066 A 
ATOM     18  C   UNL A   1      32.628  25.919  26.427  1.00  0.00     0.010 A 
ATOM     19  C   UNL A   1      30.375  25.263  24.751  1.00  0.00     0.028 A 
ATOM     20  C   UNL A   1      31.800  26.866  25.962  1.00  0.00     0.001 A 
ATOM     21  C   UNL A   1      30.645  26.521  25.146  1.00  0.00     0.002 A 
BRANCH   8  22
ATOM     22  C   UNL A   1      32.884  20.168  24.354  1.00  0.00     0.015 A 
ATOM     23  C   UNL A   1      32.069  20.809  21.987  1.00  0.00     0.045 C 
ATOM     24  C   UNL A   1      32.321  19.825  23.099  1.00  0.00    -0.042 A 
ATOM     25  C   UNL A   1      32.037  18.474  22.816  1.00  0.00     0.004 A 
ATOM     26  C   UNL A   1      32.259  17.475  23.761  1.00  0.00     0.000 A 
ATOM     27  C   UNL A   1      33.080  19.139  25.300  1.00  0.00     0.010 A 
ATOM     28  C   UNL A   1      32.769  17.809  25.008  1.00  0.00     0.001 A 
ENDBRANCH   8  22
ENDBRANCH   4   7
ENDBRANCH   2   3
ENDBRANCH   1   2
BRANCH   1  29
ATOM     29  C   UNL A   1      39.624  22.730  26.780  1.00  0.00     0.118 C 
BRANCH  29  30
ATOM     30  N   UNL A   1      41.023  23.120  26.575  1.00  0.00    -0.352 N 
ATOM     31  C   UNL A   1      41.590  24.386  26.610  1.00  0.00     0.251 C 
ATOM     32  H   UNL A   1      41.647  22.381  26.389  1.00  0.00     0.163 HD
ATOM     33  O   UNL A   1      42.793  24.546  26.547  1.00  0.00    -0.269 OA
BRANCH  31  34
ATOM     34  C   UNL A   1      40.684  25.532  26.844  1.00  0.00     0.039 A 
ATOM     35  C   UNL A   1      40.950  26.721  26.161  1.00  0.00     0.014 A 
ATOM     36  C   UNL A   1      39.838  25.506  27.947  1.00  0.00     0.014 A 
ATOM     37  C   UNL A   1      40.591  27.925  26.758  1.00  0.00     0.010 A 
ATOM     38  C   UNL A   1      39.588  26.699  28.595  1.00  0.00     0.010 A 
ATOM     39  C   UNL A   1      40.038  27.905  28.040  1.00  0.00    -0.014 A 
BRANCH  39  40
ATOM     40  C   UNL A   1      40.058  29.067  28.925  1.00  0.00     0.031 A 
ATOM     41  C   UNL A   1      38.993  30.087  28.867  1.00  0.00     0.074 A 
ATOM     42  C   UNL A   1      41.020  29.179  29.870  1.00  0.00     0.049 A 
ATOM     43  N   UNL A   1      39.140  31.301  29.281  1.00  0.00    -0.248 NA
ATOM     44  C   UNL A   1      37.674  29.821  28.309  1.00  0.00     0.031 C 
ATOM     45  C   UNL A   1      41.053  30.111  30.997  1.00  0.00     0.029 A 
ATOM     46  N   UNL A   1      42.300  28.598  29.869  1.00  0.00    -0.354 N 
ATOM     47  C   UNL A   1      37.898  31.887  29.301  1.00  0.00     0.074 A 
ATOM     48  C   UNL A   1      37.027  30.943  28.638  1.00  0.00     0.031 C 
ATOM     49  C   UNL A   1      42.331  30.294  31.366  1.00  0.00     0.029 A 
ATOM     50  C   UNL A   1      43.158  29.592  30.404  1.00  0.00     0.049 A 
ATOM     51  H   UNL A   1      42.547  27.695  29.562  1.00  0.00     0.167 HD
ATOM     52  C   UNL A   1      37.712  33.054  29.982  1.00  0.00     0.037 A 
ATOM     53  C   UNL A   1      44.152  30.148  29.655  1.00  0.00     0.037 A 
ATOM     54  C   UNL A   1      38.950  33.562  30.566  1.00  0.00     0.049 A 
ATOM     55  C   UNL A   1      44.073  31.653  29.501  1.00  0.00     0.074 A 
ATOM     56  C   UNL A   1      39.500  33.561  31.838  1.00  0.00     0.029 A 
ATOM     57  N   UNL A   1      39.970  33.952  29.717  1.00  0.00    -0.354 N 
ATOM     58  N   UNL A   1      43.088  32.389  29.931  1.00  0.00    -0.248 NA
ATOM     59  C   UNL A   1      45.049  32.426  28.730  1.00  0.00     0.031 C 
ATOM     60  C   UNL A   1      40.853  33.994  31.744  1.00  0.00     0.029 A 
ATOM     61  C   UNL A   1      41.127  34.243  30.413  1.00  0.00     0.049 A 
ATOM     62  H   UNL A   1      39.884  34.013  28.739  1.00  0.00     0.167 HD
ATOM     63  C   UNL A   1      43.239  33.668  29.461  1.00  0.00     0.074 A 
ATOM     64  C   UNL A   1      44.479  33.642  28.711  1.00  0.00     0.031 C 
ATOM     65  C   UNL A   1      42.308  34.642  29.673  1.00  0.00     0.037 A 
BRANCH  52  66
ATOM     66  C   UNL A   1      36.343  33.593  30.308  1.00  0.00     0.064 A 
ATOM     67  C   UNL A   1      35.509  34.124  29.303  1.00  0.00     0.173 A 
ATOM     68  C   UNL A   1      35.819  33.659  31.612  1.00  0.00     0.173 A 
ATOM     69  F   UNL A   1      35.822  34.025  28.006  1.00  0.00    -0.203 F 
ATOM     70  C   UNL A   1      34.317  34.790  29.597  1.00  0.00     0.198 A 
ATOM     71  C   UNL A   1      34.661  34.381  31.914  1.00  0.00     0.198 A 
ATOM     72  F   UNL A   1      36.397  32.995  32.623  1.00  0.00    -0.203 F 
ATOM     73  F   UNL A   1      33.571  35.287  28.600  1.00  0.00    -0.200 F 
ATOM     74  C   UNL A   1      33.918  34.961  30.907  1.00  0.00     0.200 A 
ATOM     75  F   UNL A   1      34.275  34.517  33.191  1.00  0.00    -0.200 F 
ATOM     76  F   UNL A   1      32.810  35.658  31.193  1.00  0.00    -0.200 F 
ENDBRANCH  52  66
BRANCH  53  77
ATOM     77  C   UNL A   1      44.691  29.224  28.619  1.00  0.00     0.064 A 
ATOM     78  C   UNL A   1      45.576  28.201  29.014  1.00  0.00     0.173 A 
ATOM     79  C   UNL A   1      44.098  29.115  27.356  1.00  0.00     0.173 A 
ATOM     80  F   UNL A   1      46.165  28.251  30.219  1.00  0.00    -0.203 F 
ATOM     81  C   UNL A   1      45.763  27.065  28.231  1.00  0.00     0.198 A 
ATOM     82  C   UNL A   1      44.309  27.987  26.563  1.00  0.00     0.198 A 
ATOM     83  F   UNL A   1      43.222  30.037  26.932  1.00  0.00    -0.203 F 
ATOM     84  F   UNL A   1      46.507  26.051  28.694  1.00  0.00    -0.200 F 
ATOM     85  C   UNL A   1      45.111  26.950  27.016  1.00  0.00     0.200 A 
ATOM     86  F   UNL A   1      43.650  27.860  25.404  1.00  0.00    -0.200 F 
ATOM     87  F   UNL A   1      45.212  25.819  26.304  1.00  0.00    -0.200 F 
ENDBRANCH  53  77
BRANCH  65  88
ATOM     88  C   UNL A   1      42.435  36.054  29.174  1.00  0.00     0.064 A 
ATOM     89  C   UNL A   1      41.871  36.484  27.963  1.00  0.00     0.173 A 
ATOM     90  C   UNL A   1      43.232  37.001  29.855  1.00  0.00     0.173 A 
ATOM     91  F   UNL A   1      41.164  35.641  27.196  1.00  0.00    -0.203 F 
ATOM     92  C   UNL A   1      42.041  37.791  27.497  1.00  0.00     0.198 A 
ATOM     93  C   UNL A   1      43.444  38.287  29.361  1.00  0.00     0.198 A 
ATOM     94  F   UNL A   1      43.811  36.716  31.030  1.00  0.00    -0.203 F 
ATOM     95  F   UNL A   1      41.434  38.176  26.365  1.00  0.00    -0.200 F 
ATOM     96  C   UNL A   1      42.834  38.688  28.190  1.00  0.00     0.200 A 
ATOM     97  F   UNL A   1      44.237  39.135  30.031  1.00  0.00    -0.200 F 
ATOM     98  F   UNL A   1      43.009  39.934  27.732  1.00  0.00    -0.200 F 
ENDBRANCH  65  88
ENDBRANCH  39  40
ENDBRANCH  31  34
ENDBRANCH  29  30
ENDBRANCH   1  29
TORSDOF 11
ENDMDL
