MODEL 1
REMARK VINA RESULT:     -12.1      0.000      0.000
REMARK SMILES N#C[C@@H](c1ccccc1)[C@H](CC(=O)NCCCNC(=O)c1ccc(-c2c3nc(c(-c4c(F)c(F)c(F)c(F)c4F)c4ccc([nH]4)c(-c4c(F)c(F)c(F)c(F)c4F)c4nc(c(-c5c(F)c(F)c(F)c(F)c5F)c5ccc2[nH]5)C=C4)C=C3)cc1)c1ccccc1
REMARK SMILES IDX 15 1 14 2 12 3 13 4 11 6 10 7 3 8 2 9 1 10 4 11 5 12 9 13
REMARK SMILES IDX 6 14 8 15 7 16 84 17 85 18 89 19 86 20 88 21 87 22 16 23
REMARK SMILES IDX 17 24 18 25 19 26 20 28 21 29 22 30 83 31 23 32 82 33 24 34
REMARK SMILES IDX 25 35 26 36 76 37 27 38 81 39 75 40 77 41 28 42 80 43 74 44
REMARK SMILES IDX 73 45 29 47 61 48 41 49 60 50 42 51 45 52 59 53 78 54 43 55
REMARK SMILES IDX 44 56 58 58 79 59 46 60 30 61 31 62 39 63 32 64 33 65 37 66
REMARK SMILES IDX 40 67 34 68 35 69 38 70 36 71 62 72 63 73 71 74 64 75 65 76
REMARK SMILES IDX 69 77 72 78 66 79 67 80 70 81 68 82 47 83 48 84 56 85 49 86
REMARK SMILES IDX 50 87 54 88 57 89 51 90 52 91 55 92 53 93
REMARK H PARENT 14 5 18 27 77 46 45 57
REMARK Flexibility Score: inf
ROOT
ATOM      1  C   UNL A   1      31.832  27.617  24.550  1.00  0.00     0.117 C 
ENDROOT
BRANCH   1   2
ATOM      2  N   UNL A   1      32.897  27.752  23.569  1.00  0.00    -0.356 N 
ATOM      3  C   UNL A   1      33.412  26.890  22.650  1.00  0.00     0.220 C 
ATOM      4  O   UNL A   1      33.961  27.422  21.676  1.00  0.00    -0.275 OA
ATOM      5  H   UNL A   1      33.329  28.637  23.570  1.00  0.00     0.163 HD
BRANCH   3   6
ATOM      6  C   UNL A   1      33.418  25.356  22.734  1.00  0.00     0.110 C 
BRANCH   6   7
ATOM      7  C   UNL A   1      33.591  24.688  24.091  1.00  0.00     0.050 C 
BRANCH   7   8
ATOM      8  C   UNL A   1      32.433  23.728  24.654  1.00  0.00     0.130 C 
BRANCH   8   9
ATOM      9  C   UNL A   1      31.229  24.151  23.859  1.00  0.00     0.071 C 
ATOM     10  N   UNL A   1      30.234  24.441  23.328  1.00  0.00    -0.198 NA
ENDBRANCH   8   9
BRANCH   8  11
ATOM     11  C   UNL A   1      32.573  22.182  24.650  1.00  0.00    -0.030 A 
ATOM     12  C   UNL A   1      32.301  21.437  23.477  1.00  0.00     0.005 A 
ATOM     13  C   UNL A   1      32.961  21.433  25.774  1.00  0.00     0.005 A 
ATOM     14  C   UNL A   1      32.563  20.064  23.390  1.00  0.00     0.000 A 
ATOM     15  C   UNL A   1      33.258  20.063  25.680  1.00  0.00     0.000 A 
ATOM     16  C   UNL A   1      33.081  19.385  24.481  1.00  0.00     0.000 A 
ENDBRANCH   8  11
ENDBRANCH   7   8
BRANCH   7  17
ATOM     17  C   UNL A   1      34.985  24.049  24.266  1.00  0.00    -0.043 A 
ATOM     18  C   UNL A   1      35.599  23.272  23.277  1.00  0.00     0.004 A 
ATOM     19  C   UNL A   1      35.577  24.096  25.545  1.00  0.00     0.004 A 
ATOM     20  C   UNL A   1      36.669  22.436  23.603  1.00  0.00     0.000 A 
ATOM     21  C   UNL A   1      36.656  23.273  25.863  1.00  0.00     0.000 A 
ATOM     22  C   UNL A   1      37.176  22.414  24.902  1.00  0.00     0.000 A 
ENDBRANCH   7  17
ENDBRANCH   6   7
ENDBRANCH   3   6
ENDBRANCH   1   2
BRANCH   1  23
ATOM     23  C   UNL A   1      32.010  28.411  25.822  1.00  0.00     0.042 C 
BRANCH  23  24
ATOM     24  C   UNL A   1      33.023  29.515  25.583  1.00  0.00     0.118 C 
BRANCH  24  25
ATOM     25  N   UNL A   1      32.633  30.787  26.204  1.00  0.00    -0.352 N 
ATOM     26  C   UNL A   1      33.250  31.568  27.159  1.00  0.00     0.251 C 
ATOM     27  H   UNL A   1      31.777  31.148  25.879  1.00  0.00     0.163 HD
ATOM     28  O   UNL A   1      32.661  32.526  27.649  1.00  0.00    -0.269 OA
BRANCH  26  29
ATOM     29  C   UNL A   1      34.603  31.212  27.637  1.00  0.00     0.039 A 
ATOM     30  C   UNL A   1      35.577  32.196  27.819  1.00  0.00     0.014 A 
ATOM     31  C   UNL A   1      34.884  29.897  27.980  1.00  0.00     0.014 A 
ATOM     32  C   UNL A   1      36.770  31.867  28.471  1.00  0.00     0.010 A 
ATOM     33  C   UNL A   1      35.950  29.627  28.816  1.00  0.00     0.010 A 
ATOM     34  C   UNL A   1      36.930  30.597  29.045  1.00  0.00    -0.014 A 
BRANCH  34  35
ATOM     35  C   UNL A   1      38.113  30.220  29.860  1.00  0.00     0.031 A 
ATOM     36  C   UNL A   1      39.135  29.266  29.295  1.00  0.00     0.074 A 
ATOM     37  C   UNL A   1      38.216  30.648  31.134  1.00  0.00     0.049 A 
ATOM     38  N   UNL A   1      40.173  28.717  29.875  1.00  0.00    -0.248 NA
ATOM     39  C   UNL A   1      38.930  28.820  27.905  1.00  0.00     0.031 C 
ATOM     40  C   UNL A   1      37.259  31.519  31.817  1.00  0.00     0.029 A 
ATOM     41  N   UNL A   1      39.176  30.403  32.083  1.00  0.00    -0.354 N 
ATOM     42  C   UNL A   1      40.713  27.851  28.934  1.00  0.00     0.074 A 
ATOM     43  C   UNL A   1      39.833  27.861  27.791  1.00  0.00     0.031 C 
ATOM     44  C   UNL A   1      37.713  31.789  33.051  1.00  0.00     0.029 A 
ATOM     45  C   UNL A   1      38.957  31.061  33.268  1.00  0.00     0.049 A 
ATOM     46  H   UNL A   1      39.948  29.811  31.929  1.00  0.00     0.167 HD
ATOM     47  C   UNL A   1      41.867  27.145  28.992  1.00  0.00     0.037 A 
ATOM     48  C   UNL A   1      39.685  31.074  34.401  1.00  0.00     0.037 A 
ATOM     49  C   UNL A   1      42.750  27.162  30.126  1.00  0.00     0.049 A 
ATOM     50  C   UNL A   1      40.945  30.254  34.463  1.00  0.00     0.074 A 
ATOM     51  C   UNL A   1      43.974  26.539  30.279  1.00  0.00     0.029 A 
ATOM     52  N   UNL A   1      42.490  27.838  31.312  1.00  0.00    -0.354 N 
ATOM     53  N   UNL A   1      41.495  29.506  33.538  1.00  0.00    -0.248 NA
ATOM     54  C   UNL A   1      41.684  30.282  35.731  1.00  0.00     0.031 C 
ATOM     55  C   UNL A   1      44.421  26.778  31.583  1.00  0.00     0.029 A 
ATOM     56  C   UNL A   1      43.513  27.612  32.217  1.00  0.00     0.049 A 
ATOM     57  H   UNL A   1      41.697  28.395  31.483  1.00  0.00     0.167 HD
ATOM     58  C   UNL A   1      42.657  28.996  34.098  1.00  0.00     0.074 A 
ATOM     59  C   UNL A   1      42.740  29.536  35.440  1.00  0.00     0.031 C 
ATOM     60  C   UNL A   1      43.574  28.159  33.551  1.00  0.00     0.037 A 
BRANCH  47  61
ATOM     61  C   UNL A   1      42.218  26.298  27.798  1.00  0.00     0.064 A 
ATOM     62  C   UNL A   1      41.674  25.015  27.610  1.00  0.00     0.173 A 
ATOM     63  C   UNL A   1      43.135  26.759  26.842  1.00  0.00     0.173 A 
ATOM     64  F   UNL A   1      40.799  24.515  28.497  1.00  0.00    -0.203 F 
ATOM     65  C   UNL A   1      42.085  24.206  26.555  1.00  0.00     0.198 A 
ATOM     66  C   UNL A   1      43.508  25.964  25.762  1.00  0.00     0.198 A 
ATOM     67  F   UNL A   1      43.683  27.978  26.962  1.00  0.00    -0.203 F 
ATOM     68  F   UNL A   1      41.623  22.950  26.456  1.00  0.00    -0.200 F 
ATOM     69  C   UNL A   1      42.999  24.682  25.629  1.00  0.00     0.200 A 
ATOM     70  F   UNL A   1      44.378  26.433  24.856  1.00  0.00    -0.200 F 
ATOM     71  F   UNL A   1      43.400  23.900  24.618  1.00  0.00    -0.200 F 
ENDBRANCH  47  61
BRANCH  48  72
ATOM     72  C   UNL A   1      39.266  31.934  35.538  1.00  0.00     0.064 A 
ATOM     73  C   UNL A   1      39.677  33.273  35.607  1.00  0.00     0.173 A 
ATOM     74  C   UNL A   1      38.432  31.456  36.560  1.00  0.00     0.173 A 
ATOM     75  F   UNL A   1      40.490  33.772  34.665  1.00  0.00    -0.203 F 
ATOM     76  C   UNL A   1      39.281  34.096  36.659  1.00  0.00     0.198 A 
ATOM     77  C   UNL A   1      38.011  32.290  37.596  1.00  0.00     0.198 A 
ATOM     78  F   UNL A   1      38.005  30.185  36.540  1.00  0.00    -0.203 F 
ATOM     79  F   UNL A   1      39.720  35.360  36.719  1.00  0.00    -0.200 F 
ATOM     80  C   UNL A   1      38.441  33.606  37.648  1.00  0.00     0.200 A 
ATOM     81  F   UNL A   1      37.186  31.817  38.540  1.00  0.00    -0.200 F 
ATOM     82  F   UNL A   1      38.050  34.402  38.653  1.00  0.00    -0.200 F 
ENDBRANCH  48  72
BRANCH  60  83
ATOM     83  C   UNL A   1      44.765  27.796  34.393  1.00  0.00     0.064 A 
ATOM     84  C   UNL A   1      44.775  26.652  35.203  1.00  0.00     0.173 A 
ATOM     85  C   UNL A   1      45.931  28.577  34.343  1.00  0.00     0.173 A 
ATOM     86  F   UNL A   1      43.682  25.880  35.297  1.00  0.00    -0.203 F 
ATOM     87  C   UNL A   1      45.900  26.317  35.952  1.00  0.00     0.198 A 
ATOM     88  C   UNL A   1      47.065  28.218  35.063  1.00  0.00     0.198 A 
ATOM     89  F   UNL A   1      45.976  29.678  33.576  1.00  0.00    -0.203 F 
ATOM     90  F   UNL A   1      45.870  25.248  36.760  1.00  0.00    -0.200 F 
ATOM     91  C   UNL A   1      47.046  27.094  35.873  1.00  0.00     0.200 A 
ATOM     92  F   UNL A   1      48.178  28.957  34.968  1.00  0.00    -0.200 F 
ATOM     93  F   UNL A   1      48.133  26.760  36.583  1.00  0.00    -0.200 F 
ENDBRANCH  60  83
ENDBRANCH  34  35
ENDBRANCH  26  29
ENDBRANCH  24  25
ENDBRANCH  23  24
ENDBRANCH   1  23
TORSDOF 15
ENDMDL
MODEL 2
REMARK VINA RESULT:     -12.1      4.714      8.169
REMARK SMILES N#C[C@@H](c1ccccc1)[C@H](CC(=O)NCCCNC(=O)c1ccc(-c2c3nc(c(-c4c(F)c(F)c(F)c(F)c4F)c4ccc([nH]4)c(-c4c(F)c(F)c(F)c(F)c4F)c4nc(c(-c5c(F)c(F)c(F)c(F)c5F)c5ccc2[nH]5)C=C4)C=C3)cc1)c1ccccc1
REMARK SMILES IDX 15 1 14 2 12 3 13 4 11 6 10 7 3 8 2 9 1 10 4 11 5 12 9 13
REMARK SMILES IDX 6 14 8 15 7 16 84 17 85 18 89 19 86 20 88 21 87 22 16 23
REMARK SMILES IDX 17 24 18 25 19 26 20 28 21 29 22 30 83 31 23 32 82 33 24 34
REMARK SMILES IDX 25 35 26 36 76 37 27 38 81 39 75 40 77 41 28 42 80 43 74 44
REMARK SMILES IDX 73 45 29 47 61 48 41 49 60 50 42 51 45 52 59 53 78 54 43 55
REMARK SMILES IDX 44 56 58 58 79 59 46 60 30 61 31 62 39 63 32 64 33 65 37 66
REMARK SMILES IDX 40 67 34 68 35 69 38 70 36 71 62 72 63 73 71 74 64 75 65 76
REMARK SMILES IDX 69 77 72 78 66 79 67 80 70 81 68 82 47 83 48 84 56 85 49 86
REMARK SMILES IDX 50 87 54 88 57 89 51 90 52 91 55 92 53 93
REMARK H PARENT 14 5 18 27 77 46 45 57
REMARK Flexibility Score: inf
ROOT
ATOM      1  C   UNL A   1      37.436  21.215  24.434  1.00  0.00     0.117 C 
ENDROOT
BRANCH   1   2
ATOM      2  N   UNL A   1      37.754  22.439  25.150  1.00  0.00    -0.356 N 
ATOM      3  C   UNL A   1      37.005  23.523  25.492  1.00  0.00     0.220 C 
ATOM      4  O   UNL A   1      37.413  24.160  26.472  1.00  0.00    -0.275 OA
ATOM      5  H   UNL A   1      38.693  22.497  25.444  1.00  0.00     0.163 HD
BRANCH   3   6
ATOM      6  C   UNL A   1      35.758  24.043  24.760  1.00  0.00     0.110 C 
BRANCH   6   7
ATOM      7  C   UNL A   1      34.379  23.689  25.299  1.00  0.00     0.050 C 
BRANCH   7   8
ATOM      8  C   UNL A   1      33.194  24.768  25.213  1.00  0.00     0.130 C 
BRANCH   8   9
ATOM      9  C   UNL A   1      32.325  24.409  26.387  1.00  0.00     0.071 C 
ATOM     10  N   UNL A   1      31.586  24.077  27.224  1.00  0.00    -0.198 NA
ENDBRANCH   8   9
BRANCH   8  11
ATOM     11  C   UNL A   1      33.473  26.295  25.189  1.00  0.00    -0.030 A 
ATOM     12  C   UNL A   1      33.645  26.976  23.960  1.00  0.00     0.005 A 
ATOM     13  C   UNL A   1      33.577  27.085  26.347  1.00  0.00     0.005 A 
ATOM     14  C   UNL A   1      33.743  28.372  23.891  1.00  0.00     0.000 A 
ATOM     15  C   UNL A   1      33.640  28.486  26.279  1.00  0.00     0.000 A 
ATOM     16  C   UNL A   1      33.700  29.130  25.050  1.00  0.00     0.000 A 
ENDBRANCH   8  11
ENDBRANCH   7   8
BRANCH   7  17
ATOM     17  C   UNL A   1      33.903  22.293  24.842  1.00  0.00    -0.043 A 
ATOM     18  C   UNL A   1      33.208  22.077  23.646  1.00  0.00     0.004 A 
ATOM     19  C   UNL A   1      34.008  21.227  25.758  1.00  0.00     0.004 A 
ATOM     20  C   UNL A   1      32.497  20.891  23.451  1.00  0.00     0.000 A 
ATOM     21  C   UNL A   1      33.312  20.038  25.552  1.00  0.00     0.000 A 
ATOM     22  C   UNL A   1      32.525  19.886  24.417  1.00  0.00     0.000 A 
ENDBRANCH   7  17
ENDBRANCH   6   7
ENDBRANCH   3   6
ENDBRANCH   1   2
BRANCH   1  23
ATOM     23  C   UNL A   1      38.045  19.952  24.995  1.00  0.00     0.042 C 
BRANCH  23  24
ATOM     24  C   UNL A   1      39.243  20.314  25.852  1.00  0.00     0.118 C 
BRANCH  24  25
ATOM     25  N   UNL A   1      40.245  19.242  25.913  1.00  0.00    -0.352 N 
ATOM     26  C   UNL A   1      41.611  19.273  26.101  1.00  0.00     0.251 C 
ATOM     27  H   UNL A   1      39.873  18.338  25.798  1.00  0.00     0.163 HD
ATOM     28  O   UNL A   1      42.278  18.253  25.958  1.00  0.00    -0.269 OA
BRANCH  26  29
ATOM     29  C   UNL A   1      42.280  20.553  26.416  1.00  0.00     0.039 A 
ATOM     30  C   UNL A   1      42.768  21.372  25.396  1.00  0.00     0.014 A 
ATOM     31  C   UNL A   1      42.356  20.979  27.734  1.00  0.00     0.014 A 
ATOM     32  C   UNL A   1      43.200  22.667  25.705  1.00  0.00     0.010 A 
ATOM     33  C   UNL A   1      42.565  22.317  28.004  1.00  0.00     0.010 A 
ATOM     34  C   UNL A   1      43.026  23.176  27.001  1.00  0.00    -0.014 A 
BRANCH  34  35
ATOM     35  C   UNL A   1      43.343  24.579  27.369  1.00  0.00     0.031 A 
ATOM     36  C   UNL A   1      44.780  25.029  27.428  1.00  0.00     0.074 A 
ATOM     37  C   UNL A   1      42.355  25.413  27.749  1.00  0.00     0.049 A 
ATOM     38  N   UNL A   1      45.281  26.167  27.836  1.00  0.00    -0.248 NA
ATOM     39  C   UNL A   1      45.801  24.044  27.027  1.00  0.00     0.031 C 
ATOM     40  C   UNL A   1      40.931  25.077  27.800  1.00  0.00     0.029 A 
ATOM     41  N   UNL A   1      42.401  26.719  28.168  1.00  0.00    -0.354 N 
ATOM     42  C   UNL A   1      46.660  26.016  27.768  1.00  0.00     0.074 A 
ATOM     43  C   UNL A   1      46.920  24.649  27.387  1.00  0.00     0.031 C 
ATOM     44  C   UNL A   1      40.235  26.165  28.162  1.00  0.00     0.029 A 
ATOM     45  C   UNL A   1      41.165  27.256  28.429  1.00  0.00     0.049 A 
ATOM     46  H   UNL A   1      43.241  27.222  28.273  1.00  0.00     0.167 HD
ATOM     47  C   UNL A   1      47.627  26.944  27.957  1.00  0.00     0.037 A 
ATOM     48  C   UNL A   1      40.824  28.493  28.836  1.00  0.00     0.037 A 
ATOM     49  C   UNL A   1      47.356  28.311  28.311  1.00  0.00     0.049 A 
ATOM     50  C   UNL A   1      41.913  29.503  29.078  1.00  0.00     0.074 A 
ATOM     51  C   UNL A   1      48.245  29.356  28.469  1.00  0.00     0.029 A 
ATOM     52  N   UNL A   1      46.088  28.817  28.572  1.00  0.00    -0.354 N 
ATOM     53  N   UNL A   1      43.209  29.377  28.927  1.00  0.00    -0.248 NA
ATOM     54  C   UNL A   1      41.489  30.827  29.548  1.00  0.00     0.031 C 
ATOM     55  C   UNL A   1      47.524  30.477  28.897  1.00  0.00     0.029 A 
ATOM     56  C   UNL A   1      46.177  30.150  28.932  1.00  0.00     0.049 A 
ATOM     57  H   UNL A   1      45.251  28.302  28.510  1.00  0.00     0.167 HD
ATOM     58  C   UNL A   1      43.755  30.610  29.255  1.00  0.00     0.074 A 
ATOM     59  C   UNL A   1      42.644  31.476  29.597  1.00  0.00     0.031 C 
ATOM     60  C   UNL A   1      45.056  30.994  29.270  1.00  0.00     0.037 A 
BRANCH  47  61
ATOM     61  C   UNL A   1      49.055  26.496  27.789  1.00  0.00     0.064 A 
ATOM     62  C   UNL A   1      49.885  26.230  28.893  1.00  0.00     0.173 A 
ATOM     63  C   UNL A   1      49.614  26.361  26.510  1.00  0.00     0.173 A 
ATOM     64  F   UNL A   1      49.409  26.354  30.142  1.00  0.00    -0.203 F 
ATOM     65  C   UNL A   1      51.230  25.915  28.723  1.00  0.00     0.198 A 
ATOM     66  C   UNL A   1      50.948  25.999  26.343  1.00  0.00     0.198 A 
ATOM     67  F   UNL A   1      48.870  26.593  25.418  1.00  0.00    -0.203 F 
ATOM     68  F   UNL A   1      52.021  25.763  29.795  1.00  0.00    -0.200 F 
ATOM     69  C   UNL A   1      51.760  25.795  27.448  1.00  0.00     0.200 A 
ATOM     70  F   UNL A   1      51.455  25.865  25.109  1.00  0.00    -0.200 F 
ATOM     71  F   UNL A   1      53.056  25.499  27.285  1.00  0.00    -0.200 F 
ENDBRANCH  47  61
BRANCH  48  72
ATOM     72  C   UNL A   1      39.390  28.855  28.983  1.00  0.00     0.064 A 
ATOM     73  C   UNL A   1      38.753  28.751  30.228  1.00  0.00     0.173 A 
ATOM     74  C   UNL A   1      38.632  29.332  27.903  1.00  0.00     0.173 A 
ATOM     75  F   UNL A   1      39.428  28.282  31.287  1.00  0.00    -0.203 F 
ATOM     76  C   UNL A   1      37.413  29.100  30.384  1.00  0.00     0.198 A 
ATOM     77  C   UNL A   1      37.301  29.710  28.067  1.00  0.00     0.198 A 
ATOM     78  F   UNL A   1      39.194  29.455  26.690  1.00  0.00    -0.203 F 
ATOM     79  F   UNL A   1      36.821  28.955  31.577  1.00  0.00    -0.200 F 
ATOM     80  C   UNL A   1      36.690  29.587  29.306  1.00  0.00     0.200 A 
ATOM     81  F   UNL A   1      36.611  30.195  27.026  1.00  0.00    -0.200 F 
ATOM     82  F   UNL A   1      35.405  29.934  29.459  1.00  0.00    -0.200 F 
ENDBRANCH  48  72
BRANCH  60  83
ATOM     83  C   UNL A   1      45.351  32.419  29.641  1.00  0.00     0.064 A 
ATOM     84  C   UNL A   1      45.665  32.790  30.955  1.00  0.00     0.173 A 
ATOM     85  C   UNL A   1      45.373  33.417  28.653  1.00  0.00     0.173 A 
ATOM     86  F   UNL A   1      45.645  31.877  31.939  1.00  0.00    -0.203 F 
ATOM     87  C   UNL A   1      45.965  34.112  31.273  1.00  0.00     0.198 A 
ATOM     88  C   UNL A   1      45.710  34.729  28.967  1.00  0.00     0.198 A 
ATOM     89  F   UNL A   1      45.088  33.113  27.377  1.00  0.00    -0.203 F 
ATOM     90  F   UNL A   1      46.211  34.454  32.545  1.00  0.00    -0.200 F 
ATOM     91  C   UNL A   1      45.998  35.078  30.277  1.00  0.00     0.200 A 
ATOM     92  F   UNL A   1      45.762  35.655  28.000  1.00  0.00    -0.200 F 
ATOM     93  F   UNL A   1      46.302  36.347  30.583  1.00  0.00    -0.200 F 
ENDBRANCH  60  83
ENDBRANCH  34  35
ENDBRANCH  26  29
ENDBRANCH  24  25
ENDBRANCH  23  24
ENDBRANCH   1  23
TORSDOF 15
ENDMDL
MODEL 3
REMARK VINA RESULT:     -12.1      0.218      1.607
REMARK SMILES N#C[C@@H](c1ccccc1)[C@H](CC(=O)NCCCNC(=O)c1ccc(-c2c3nc(c(-c4c(F)c(F)c(F)c(F)c4F)c4ccc([nH]4)c(-c4c(F)c(F)c(F)c(F)c4F)c4nc(c(-c5c(F)c(F)c(F)c(F)c5F)c5ccc2[nH]5)C=C4)C=C3)cc1)c1ccccc1
REMARK SMILES IDX 15 1 14 2 12 3 13 4 11 6 10 7 3 8 2 9 1 10 4 11 5 12 9 13
REMARK SMILES IDX 6 14 8 15 7 16 84 17 85 18 89 19 86 20 88 21 87 22 16 23
REMARK SMILES IDX 17 24 18 25 19 26 20 28 21 29 22 30 83 31 23 32 82 33 24 34
REMARK SMILES IDX 25 35 26 36 76 37 27 38 81 39 75 40 77 41 28 42 80 43 74 44
REMARK SMILES IDX 73 45 29 47 61 48 41 49 60 50 42 51 45 52 59 53 78 54 43 55
REMARK SMILES IDX 44 56 58 58 79 59 46 60 30 61 31 62 39 63 32 64 33 65 37 66
REMARK SMILES IDX 40 67 34 68 35 69 38 70 36 71 62 72 63 73 71 74 64 75 65 76
REMARK SMILES IDX 69 77 72 78 66 79 67 80 70 81 68 82 47 83 48 84 56 85 49 86
REMARK SMILES IDX 50 87 54 88 57 89 51 90 52 91 55 92 53 93
REMARK H PARENT 14 5 18 27 77 46 45 57
REMARK Flexibility Score: inf
ROOT
ATOM      1  C   UNL A   1      31.830  27.255  24.697  1.00  0.00     0.117 C 
ENDROOT
BRANCH   1   2
ATOM      2  N   UNL A   1      32.813  27.479  23.650  1.00  0.00    -0.356 N 
ATOM      3  C   UNL A   1      33.330  26.666  22.689  1.00  0.00     0.220 C 
ATOM      4  O   UNL A   1      33.770  27.244  21.687  1.00  0.00    -0.275 OA
ATOM      5  H   UNL A   1      33.175  28.395  23.632  1.00  0.00     0.163 HD
BRANCH   3   6
ATOM      6  C   UNL A   1      33.459  25.136  22.754  1.00  0.00     0.110 C 
BRANCH   6   7
ATOM      7  C   UNL A   1      33.645  24.464  24.107  1.00  0.00     0.050 C 
BRANCH   7   8
ATOM      8  C   UNL A   1      32.530  23.439  24.642  1.00  0.00     0.130 C 
BRANCH   8   9
ATOM      9  C   UNL A   1      31.311  23.825  23.851  1.00  0.00     0.071 C 
ATOM     10  N   UNL A   1      30.341  24.192  23.321  1.00  0.00    -0.198 NA
ENDBRANCH   8   9
BRANCH   8  11
ATOM     11  C   UNL A   1      32.741  21.902  24.604  1.00  0.00    -0.030 A 
ATOM     12  C   UNL A   1      32.264  21.137  23.513  1.00  0.00     0.005 A 
ATOM     13  C   UNL A   1      33.393  21.181  25.619  1.00  0.00     0.005 A 
ATOM     14  C   UNL A   1      32.569  19.777  23.368  1.00  0.00     0.000 A 
ATOM     15  C   UNL A   1      33.730  19.827  25.460  1.00  0.00     0.000 A 
ATOM     16  C   UNL A   1      33.338  19.132  24.324  1.00  0.00     0.000 A 
ENDBRANCH   8  11
ENDBRANCH   7   8
BRANCH   7  17
ATOM     17  C   UNL A   1      35.068  23.897  24.299  1.00  0.00    -0.043 A 
ATOM     18  C   UNL A   1      35.691  23.063  23.363  1.00  0.00     0.004 A 
ATOM     19  C   UNL A   1      35.686  24.075  25.554  1.00  0.00     0.004 A 
ATOM     20  C   UNL A   1      36.801  22.300  23.731  1.00  0.00     0.000 A 
ATOM     21  C   UNL A   1      36.804  23.325  25.911  1.00  0.00     0.000 A 
ATOM     22  C   UNL A   1      37.338  22.408  25.013  1.00  0.00     0.000 A 
ENDBRANCH   7  17
ENDBRANCH   6   7
ENDBRANCH   3   6
ENDBRANCH   1   2
BRANCH   1  23
ATOM     23  C   UNL A   1      31.947  28.152  25.906  1.00  0.00     0.042 C 
BRANCH  23  24
ATOM     24  C   UNL A   1      32.965  29.241  25.623  1.00  0.00     0.118 C 
BRANCH  24  25
ATOM     25  N   UNL A   1      32.577  30.542  26.183  1.00  0.00    -0.352 N 
ATOM     26  C   UNL A   1      33.198  31.368  27.097  1.00  0.00     0.251 C 
ATOM     27  H   UNL A   1      31.719  30.886  25.846  1.00  0.00     0.163 HD
ATOM     28  O   UNL A   1      32.611  32.348  27.544  1.00  0.00    -0.269 OA
BRANCH  26  29
ATOM     29  C   UNL A   1      34.554  31.036  27.585  1.00  0.00     0.039 A 
ATOM     30  C   UNL A   1      35.524  32.030  27.724  1.00  0.00     0.014 A 
ATOM     31  C   UNL A   1      34.840  29.737  27.981  1.00  0.00     0.014 A 
ATOM     32  C   UNL A   1      36.721  31.732  28.385  1.00  0.00     0.010 A 
ATOM     33  C   UNL A   1      35.909  29.504  28.823  1.00  0.00     0.010 A 
ATOM     34  C   UNL A   1      36.887  30.487  29.010  1.00  0.00    -0.014 A 
BRANCH  34  35
ATOM     35  C   UNL A   1      38.074  30.147  29.836  1.00  0.00     0.031 A 
ATOM     36  C   UNL A   1      39.123  29.214  29.287  1.00  0.00     0.074 A 
ATOM     37  C   UNL A   1      38.157  30.590  31.106  1.00  0.00     0.049 A 
ATOM     38  N   UNL A   1      40.170  28.697  29.878  1.00  0.00    -0.248 NA
ATOM     39  C   UNL A   1      38.938  28.750  27.900  1.00  0.00     0.031 C 
ATOM     40  C   UNL A   1      37.174  31.442  31.775  1.00  0.00     0.029 A 
ATOM     41  N   UNL A   1      39.117  30.377  32.064  1.00  0.00    -0.354 N 
ATOM     42  C   UNL A   1      40.738  27.836  28.949  1.00  0.00     0.074 A 
ATOM     43  C   UNL A   1      39.865  27.814  27.800  1.00  0.00     0.031 C 
ATOM     44  C   UNL A   1      37.612  31.735  33.009  1.00  0.00     0.029 A 
ATOM     45  C   UNL A   1      38.873  31.040  33.242  1.00  0.00     0.049 A 
ATOM     46  H   UNL A   1      39.904  29.804  31.920  1.00  0.00     0.167 HD
ATOM     47  C   UNL A   1      41.909  27.159  29.022  1.00  0.00     0.037 A 
ATOM     48  C   UNL A   1      39.593  31.082  34.379  1.00  0.00     0.037 A 
ATOM     49  C   UNL A   1      42.783  27.209  30.161  1.00  0.00     0.049 A 
ATOM     50  C   UNL A   1      40.872  30.295  34.457  1.00  0.00     0.074 A 
ATOM     51  C   UNL A   1      44.021  26.619  30.328  1.00  0.00     0.029 A 
ATOM     52  N   UNL A   1      42.499  27.890  31.339  1.00  0.00    -0.354 N 
ATOM     53  N   UNL A   1      41.447  29.553  33.542  1.00  0.00    -0.248 NA
ATOM     54  C   UNL A   1      41.603  30.353  35.729  1.00  0.00     0.031 C 
ATOM     55  C   UNL A   1      44.454  26.881  31.632  1.00  0.00     0.029 A 
ATOM     56  C   UNL A   1      43.521  27.697  32.253  1.00  0.00     0.049 A 
ATOM     57  H   UNL A   1      41.691  28.428  31.499  1.00  0.00     0.167 HD
ATOM     58  C   UNL A   1      42.619  29.077  34.114  1.00  0.00     0.074 A 
ATOM     59  C   UNL A   1      42.679  29.631  35.452  1.00  0.00     0.031 C 
ATOM     60  C   UNL A   1      43.560  28.258  33.582  1.00  0.00     0.037 A 
BRANCH  47  61
ATOM     61  C   UNL A   1      42.289  26.311  27.837  1.00  0.00     0.064 A 
ATOM     62  C   UNL A   1      41.821  24.993  27.686  1.00  0.00     0.173 A 
ATOM     63  C   UNL A   1      43.158  26.807  26.855  1.00  0.00     0.173 A 
ATOM     64  F   UNL A   1      40.995  24.460  28.600  1.00  0.00    -0.203 F 
ATOM     65  C   UNL A   1      42.261  24.188  26.639  1.00  0.00     0.198 A 
ATOM     66  C   UNL A   1      43.559  26.013  25.783  1.00  0.00     0.198 A 
ATOM     67  F   UNL A   1      43.633  28.059  26.939  1.00  0.00    -0.203 F 
ATOM     68  F   UNL A   1      41.876  22.906  26.574  1.00  0.00    -0.200 F 
ATOM     69  C   UNL A   1      43.127  24.700  25.686  1.00  0.00     0.200 A 
ATOM     70  F   UNL A   1      44.382  26.515  24.852  1.00  0.00    -0.200 F 
ATOM     71  F   UNL A   1      43.557  23.923  24.683  1.00  0.00    -0.200 F 
ENDBRANCH  47  61
BRANCH  48  72
ATOM     72  C   UNL A   1      39.145  31.942  35.505  1.00  0.00     0.064 A 
ATOM     73  C   UNL A   1      38.358  31.411  36.538  1.00  0.00     0.173 A 
ATOM     74  C   UNL A   1      39.508  33.294  35.594  1.00  0.00     0.173 A 
ATOM     75  F   UNL A   1      37.968  30.129  36.489  1.00  0.00    -0.203 F 
ATOM     76  C   UNL A   1      37.942  32.201  37.607  1.00  0.00     0.198 A 
ATOM     77  C   UNL A   1      39.117  34.076  36.681  1.00  0.00     0.198 A 
ATOM     78  F   UNL A   1      40.264  33.852  34.636  1.00  0.00    -0.203 F 
ATOM     79  F   UNL A   1      37.160  31.676  38.560  1.00  0.00    -0.200 F 
ATOM     80  C   UNL A   1      38.330  33.530  37.683  1.00  0.00     0.200 A 
ATOM     81  F   UNL A   1      39.507  35.355  36.758  1.00  0.00    -0.200 F 
ATOM     82  F   UNL A   1      37.940  34.286  38.718  1.00  0.00    -0.200 F 
ENDBRANCH  48  72
BRANCH  60  83
ATOM     83  C   UNL A   1      44.753  27.934  34.434  1.00  0.00     0.064 A 
ATOM     84  C   UNL A   1      45.887  28.758  34.463  1.00  0.00     0.173 A 
ATOM     85  C   UNL A   1      44.737  26.810  35.276  1.00  0.00     0.173 A 
ATOM     86  F   UNL A   1      45.958  29.837  33.667  1.00  0.00    -0.203 F 
ATOM     87  C   UNL A   1      46.970  28.456  35.283  1.00  0.00     0.198 A 
ATOM     88  C   UNL A   1      45.805  26.532  36.122  1.00  0.00     0.198 A 
ATOM     89  F   UNL A   1      43.673  25.992  35.293  1.00  0.00    -0.203 F 
ATOM     90  F   UNL A   1      48.064  29.230  35.256  1.00  0.00    -0.200 F 
ATOM     91  C   UNL A   1      46.924  27.350  36.119  1.00  0.00     0.200 A 
ATOM     92  F   UNL A   1      45.750  25.476  36.944  1.00  0.00    -0.200 F 
ATOM     93  F   UNL A   1      47.962  27.070  36.919  1.00  0.00    -0.200 F 
ENDBRANCH  60  83
ENDBRANCH  34  35
ENDBRANCH  26  29
ENDBRANCH  24  25
ENDBRANCH  23  24
ENDBRANCH   1  23
TORSDOF 15
ENDMDL
