MODEL 1
REMARK VINA RESULT:     -12.8      0.000      0.000
REMARK SMILES Cc1ncccc1NC(=O)Nc1ccc(C(=O)NCCCNC(=O)c2ccc(-c3c4nc(c(-c5c(F)c(F)c(F)c(F)c5F)c5ccc([nH]5)c(-c5c(F)c(F)c(F)c(F)c5F)c5nc(c(-c6c(F)c(F)c(F)c(F)c6F)c6ccc3[nH]6)C=C5)C=C4)cc2)c(O)c1
REMARK SMILES IDX 20 1 19 2 18 3 16 4 17 5 15 7 12 8 13 9 90 10 14 11 88 12
REMARK SMILES IDX 11 13 8 14 9 15 10 17 7 19 1 20 2 21 3 22 4 23 6 24 5 25
REMARK SMILES IDX 89 26 21 28 22 29 23 30 24 32 25 33 26 34 87 35 27 36 86 37
REMARK SMILES IDX 28 38 29 39 30 40 80 41 31 42 85 43 79 44 81 45 32 46 84 47
REMARK SMILES IDX 78 48 77 49 33 51 65 52 45 53 64 54 46 55 49 56 63 57 82 58
REMARK SMILES IDX 47 59 48 60 62 62 83 63 50 64 34 65 35 66 43 67 36 68 37 69
REMARK SMILES IDX 41 70 44 71 38 72 39 73 42 74 40 75 66 76 67 77 75 78 68 79
REMARK SMILES IDX 69 80 73 81 76 82 70 83 71 84 74 85 72 86 51 87 52 88 60 89
REMARK SMILES IDX 53 90 54 91 58 92 61 93 55 94 56 95 59 96 57 97
REMARK H PARENT 18 6 8 16 11 18 89 27 22 31 81 50 49 61
REMARK Flexibility Score: inf
ROOT
ATOM      1  C   UNL A   1      33.296  28.960  24.179  1.00  0.00     0.042 C 
ENDROOT
BRANCH   1   2
ATOM      2  C   UNL A   1      32.765  27.759  23.408  1.00  0.00     0.118 C 
BRANCH   2   3
ATOM      3  N   UNL A   1      32.075  26.757  24.207  1.00  0.00    -0.352 N 
ATOM      4  C   UNL A   1      32.504  25.553  24.724  1.00  0.00     0.255 C 
ATOM      5  O   UNL A   1      31.722  24.925  25.436  1.00  0.00    -0.269 OA
ATOM      6  H   UNL A   1      31.138  26.978  24.415  1.00  0.00     0.163 HD
BRANCH   4   7
ATOM      7  C   UNL A   1      33.812  24.941  24.366  1.00  0.00     0.081 A 
ATOM      8  C   UNL A   1      36.023  23.239  24.195  1.00  0.00     0.046 A 
ATOM      9  C   UNL A   1      35.903  24.103  25.281  1.00  0.00     0.027 A 
ATOM     10  C   UNL A   1      35.203  23.431  23.081  1.00  0.00     0.073 A 
ATOM     11  C   UNL A   1      34.784  24.934  25.378  1.00  0.00     0.020 A 
ATOM     12  C   UNL A   1      34.113  24.301  23.163  1.00  0.00     0.130 A 
BRANCH   8  13
ATOM     13  N   UNL A   1      36.872  22.124  24.191  1.00  0.00    -0.308 N 
ATOM     14  N   UNL A   1      35.792  20.445  25.525  1.00  0.00    -0.306 N 
ATOM     15  C   UNL A   1      36.876  20.976  24.909  1.00  0.00     0.323 C 
ATOM     16  H   UNL A   1      36.032  19.808  26.237  1.00  0.00     0.171 HD
ATOM     17  O   UNL A   1      37.941  20.356  25.001  1.00  0.00    -0.248 OA
ATOM     18  H   UNL A   1      37.609  22.187  23.541  1.00  0.00     0.171 HD
BRANCH  14  19
ATOM     19  C   UNL A   1      34.395  20.603  25.377  1.00  0.00     0.064 A 
ATOM     20  C   UNL A   1      34.158  21.827  27.622  1.00  0.00     0.069 C 
ATOM     21  C   UNL A   1      33.654  21.386  26.280  1.00  0.00     0.061 A 
ATOM     22  N   UNL A   1      32.369  21.767  26.033  1.00  0.00    -0.259 NA
ATOM     23  C   UNL A   1      31.777  21.313  24.912  1.00  0.00     0.111 A 
ATOM     24  C   UNL A   1      33.682  20.018  24.330  1.00  0.00     0.030 A 
ATOM     25  C   UNL A   1      32.368  20.400  24.066  1.00  0.00     0.022 A 
ENDBRANCH  14  19
ENDBRANCH   8  13
BRANCH  12  26
ATOM     26  O   UNL A   1      33.383  24.449  22.018  1.00  0.00    -0.507 OA
ATOM     27  H   UNL A   1      33.719  24.132  21.203  1.00  0.00     0.293 HD
ENDBRANCH  12  26
ENDBRANCH   4   7
ENDBRANCH   2   3
ENDBRANCH   1   2
BRANCH   1  28
ATOM     28  C   UNL A   1      32.862  29.078  25.634  1.00  0.00     0.118 C 
BRANCH  28  29
ATOM     29  N   UNL A   1      32.611  30.440  26.079  1.00  0.00    -0.352 N 
ATOM     30  C   UNL A   1      33.274  31.262  26.963  1.00  0.00     0.251 C 
ATOM     31  H   UNL A   1      31.816  30.853  25.671  1.00  0.00     0.163 HD
ATOM     32  O   UNL A   1      32.789  32.357  27.229  1.00  0.00    -0.269 OA
BRANCH  30  33
ATOM     33  C   UNL A   1      34.535  30.848  27.627  1.00  0.00     0.039 A 
ATOM     34  C   UNL A   1      35.534  31.809  27.826  1.00  0.00     0.014 A 
ATOM     35  C   UNL A   1      34.774  29.533  28.023  1.00  0.00     0.014 A 
ATOM     36  C   UNL A   1      36.722  31.466  28.480  1.00  0.00     0.010 A 
ATOM     37  C   UNL A   1      35.898  29.220  28.784  1.00  0.00     0.010 A 
ATOM     38  C   UNL A   1      36.897  30.177  29.007  1.00  0.00    -0.014 A 
BRANCH  38  39
ATOM     39  C   UNL A   1      38.134  29.802  29.749  1.00  0.00     0.031 A 
ATOM     40  C   UNL A   1      38.388  30.355  31.129  1.00  0.00     0.074 A 
ATOM     41  C   UNL A   1      39.050  29.001  29.170  1.00  0.00     0.049 A 
ATOM     42  N   UNL A   1      39.422  30.183  31.916  1.00  0.00    -0.248 NA
ATOM     43  C   UNL A   1      37.360  31.247  31.688  1.00  0.00     0.031 C 
ATOM     44  C   UNL A   1      38.957  28.444  27.819  1.00  0.00     0.029 A 
ATOM     45  N   UNL A   1      40.244  28.514  29.645  1.00  0.00    -0.354 N 
ATOM     46  C   UNL A   1      39.167  30.946  33.050  1.00  0.00     0.074 A 
ATOM     47  C   UNL A   1      37.926  31.649  32.816  1.00  0.00     0.031 C 
ATOM     48  C   UNL A   1      40.026  27.662  27.589  1.00  0.00     0.029 A 
ATOM     49  C   UNL A   1      40.898  27.693  28.758  1.00  0.00     0.049 A 
ATOM     50  H   UNL A   1      40.598  28.731  30.538  1.00  0.00     0.167 HD
ATOM     51  C   UNL A   1      39.876  31.023  34.201  1.00  0.00     0.037 A 
ATOM     52  C   UNL A   1      42.071  27.039  28.874  1.00  0.00     0.037 A 
ATOM     53  C   UNL A   1      41.100  30.306  34.447  1.00  0.00     0.049 A 
ATOM     54  C   UNL A   1      42.849  27.157  30.159  1.00  0.00     0.074 A 
ATOM     55  C   UNL A   1      41.878  30.290  35.591  1.00  0.00     0.029 A 
ATOM     56  N   UNL A   1      41.721  29.473  33.528  1.00  0.00    -0.354 N 
ATOM     57  N   UNL A   1      42.559  27.827  31.248  1.00  0.00    -0.248 NA
ATOM     58  C   UNL A   1      44.116  26.417  30.233  1.00  0.00     0.031 C 
ATOM     59  C   UNL A   1      42.994  29.482  35.349  1.00  0.00     0.029 A 
ATOM     60  C   UNL A   1      42.882  28.949  34.075  1.00  0.00     0.049 A 
ATOM     61  H   UNL A   1      41.388  29.283  32.621  1.00  0.00     0.167 HD
ATOM     62  C   UNL A   1      43.584  27.559  32.146  1.00  0.00     0.074 A 
ATOM     63  C   UNL A   1      44.491  26.647  31.482  1.00  0.00     0.031 C 
ATOM     64  C   UNL A   1      43.766  28.031  33.405  1.00  0.00     0.037 A 
BRANCH  51  65
ATOM     65  C   UNL A   1      39.328  31.896  35.296  1.00  0.00     0.064 A 
ATOM     66  C   UNL A   1      38.506  31.373  36.307  1.00  0.00     0.173 A 
ATOM     67  C   UNL A   1      39.653  33.259  35.358  1.00  0.00     0.173 A 
ATOM     68  F   UNL A   1      38.154  30.078  36.289  1.00  0.00    -0.203 F 
ATOM     69  C   UNL A   1      38.002  32.187  37.318  1.00  0.00     0.198 A 
ATOM     70  C   UNL A   1      39.176  34.063  36.391  1.00  0.00     0.198 A 
ATOM     71  F   UNL A   1      40.440  33.811  34.423  1.00  0.00    -0.203 F 
ATOM     72  F   UNL A   1      37.174  31.675  38.238  1.00  0.00    -0.200 F 
ATOM     73  C   UNL A   1      38.344  33.530  37.364  1.00  0.00     0.200 A 
ATOM     74  F   UNL A   1      39.519  35.357  36.443  1.00  0.00    -0.200 F 
ATOM     75  F   UNL A   1      37.867  34.310  38.342  1.00  0.00    -0.200 F 
ENDBRANCH  51  65
BRANCH  52  76
ATOM     76  C   UNL A   1      42.579  26.192  27.759  1.00  0.00     0.064 A 
ATOM     77  C   UNL A   1      43.518  26.692  26.845  1.00  0.00     0.173 A 
ATOM     78  C   UNL A   1      42.107  24.888  27.558  1.00  0.00     0.173 A 
ATOM     79  F   UNL A   1      43.986  27.941  26.982  1.00  0.00    -0.203 F 
ATOM     80  C   UNL A   1      43.932  25.936  25.750  1.00  0.00     0.198 A 
ATOM     81  C   UNL A   1      42.550  24.118  26.483  1.00  0.00     0.198 A 
ATOM     82  F   UNL A   1      41.214  24.357  28.406  1.00  0.00    -0.203 F 
ATOM     83  F   UNL A   1      44.777  26.466  24.854  1.00  0.00    -0.200 F 
ATOM     84  C   UNL A   1      43.451  24.648  25.572  1.00  0.00     0.200 A 
ATOM     85  F   UNL A   1      42.094  22.869  26.323  1.00  0.00    -0.200 F 
ATOM     86  F   UNL A   1      43.844  23.924  24.516  1.00  0.00    -0.200 F 
ENDBRANCH  52  76
BRANCH  64  87
ATOM     87  C   UNL A   1      44.964  27.529  34.159  1.00  0.00     0.064 A 
ATOM     88  C   UNL A   1      46.192  28.207  34.130  1.00  0.00     0.173 A 
ATOM     89  C   UNL A   1      44.876  26.364  34.937  1.00  0.00     0.173 A 
ATOM     90  F   UNL A   1      46.333  29.319  33.394  1.00  0.00    -0.203 F 
ATOM     91  C   UNL A   1      47.298  27.713  34.818  1.00  0.00     0.198 A 
ATOM     92  C   UNL A   1      45.974  25.895  35.652  1.00  0.00     0.198 A 
ATOM     93  F   UNL A   1      43.722  25.683  35.007  1.00  0.00    -0.203 F 
ATOM     94  F   UNL A   1      48.478  28.342  34.722  1.00  0.00    -0.200 F 
ATOM     95  C   UNL A   1      47.186  26.562  35.583  1.00  0.00     0.200 A 
ATOM     96  F   UNL A   1      45.859  24.791  36.404  1.00  0.00    -0.200 F 
ATOM     97  F   UNL A   1      48.252  26.090  36.245  1.00  0.00    -0.200 F 
ENDBRANCH  64  87
ENDBRANCH  38  39
ENDBRANCH  30  33
ENDBRANCH  28  29
ENDBRANCH   1  28
TORSDOF 13
ENDMDL
MODEL 2
REMARK VINA RESULT:     -12.7      2.020      3.314
REMARK SMILES Cc1ncccc1NC(=O)Nc1ccc(C(=O)NCCCNC(=O)c2ccc(-c3c4nc(c(-c5c(F)c(F)c(F)c(F)c5F)c5ccc([nH]5)c(-c5c(F)c(F)c(F)c(F)c5F)c5nc(c(-c6c(F)c(F)c(F)c(F)c6F)c6ccc3[nH]6)C=C5)C=C4)cc2)c(O)c1
REMARK SMILES IDX 20 1 19 2 18 3 16 4 17 5 15 7 12 8 13 9 90 10 14 11 88 12
REMARK SMILES IDX 11 13 8 14 9 15 10 17 7 19 1 20 2 21 3 22 4 23 6 24 5 25
REMARK SMILES IDX 89 26 21 28 22 29 23 30 24 32 25 33 26 34 87 35 27 36 86 37
REMARK SMILES IDX 28 38 29 39 30 40 80 41 31 42 85 43 79 44 81 45 32 46 84 47
REMARK SMILES IDX 78 48 77 49 33 51 65 52 45 53 64 54 46 55 49 56 63 57 82 58
REMARK SMILES IDX 47 59 48 60 62 62 83 63 50 64 34 65 35 66 43 67 36 68 37 69
REMARK SMILES IDX 41 70 44 71 38 72 39 73 42 74 40 75 66 76 67 77 75 78 68 79
REMARK SMILES IDX 69 80 73 81 76 82 70 83 71 84 74 85 72 86 51 87 52 88 60 89
REMARK SMILES IDX 53 90 54 91 58 92 61 93 55 94 56 95 59 96 57 97
REMARK H PARENT 18 6 8 16 11 18 89 27 22 31 81 50 49 61
REMARK Flexibility Score: inf
ROOT
ATOM      1  C   UNL A   1      31.334  31.717  26.506  1.00  0.00     0.042 C 
ENDROOT
BRANCH   1   2
ATOM      2  C   UNL A   1      31.424  30.281  26.007  1.00  0.00     0.118 C 
BRANCH   2   3
ATOM      3  N   UNL A   1      32.290  30.071  24.856  1.00  0.00    -0.352 N 
ATOM      4  C   UNL A   1      32.557  28.940  24.113  1.00  0.00     0.255 C 
ATOM      5  O   UNL A   1      33.288  29.061  23.130  1.00  0.00    -0.269 OA
ATOM      6  H   UNL A   1      32.770  30.877  24.555  1.00  0.00     0.163 HD
BRANCH   4   7
ATOM      7  C   UNL A   1      32.095  27.584  24.514  1.00  0.00     0.081 A 
ATOM      8  C   UNL A   1      31.152  25.390  25.966  1.00  0.00     0.046 A 
ATOM      9  C   UNL A   1      32.493  25.754  26.066  1.00  0.00     0.027 A 
ATOM     10  C   UNL A   1      30.374  25.936  24.943  1.00  0.00     0.073 A 
ATOM     11  C   UNL A   1      32.956  26.867  25.359  1.00  0.00     0.020 A 
ATOM     12  C   UNL A   1      30.859  27.017  24.203  1.00  0.00     0.130 A 
BRANCH   8  13
ATOM     13  N   UNL A   1      30.511  24.560  26.896  1.00  0.00    -0.308 N 
ATOM     14  N   UNL A   1      30.934  22.303  26.196  1.00  0.00    -0.306 N 
ATOM     15  C   UNL A   1      30.251  23.232  26.910  1.00  0.00     0.323 C 
ATOM     16  H   UNL A   1      30.431  21.464  26.081  1.00  0.00     0.171 HD
ATOM     17  O   UNL A   1      29.335  22.829  27.634  1.00  0.00    -0.248 OA
ATOM     18  H   UNL A   1      30.186  25.036  27.695  1.00  0.00     0.171 HD
BRANCH  14  19
ATOM     19  C   UNL A   1      32.205  22.270  25.579  1.00  0.00     0.064 A 
ATOM     20  C   UNL A   1      33.448  22.253  27.826  1.00  0.00     0.069 C 
ATOM     21  C   UNL A   1      33.375  22.088  26.337  1.00  0.00     0.061 A 
ATOM     22  N   UNL A   1      34.578  21.799  25.766  1.00  0.00    -0.259 NA
ATOM     23  C   UNL A   1      34.650  21.758  24.422  1.00  0.00     0.111 A 
ATOM     24  C   UNL A   1      32.371  22.393  24.198  1.00  0.00     0.030 A 
ATOM     25  C   UNL A   1      33.596  22.100  23.603  1.00  0.00     0.022 A 
ENDBRANCH  14  19
ENDBRANCH   8  13
BRANCH  12  26
ATOM     26  O   UNL A   1      30.044  27.468  23.204  1.00  0.00    -0.507 OA
ATOM     27  H   UNL A   1      29.326  26.941  22.911  1.00  0.00     0.293 HD
ENDBRANCH  12  26
ENDBRANCH   4   7
ENDBRANCH   2   3
ENDBRANCH   1   2
BRANCH   1  28
ATOM     28  C   UNL A   1      32.648  32.386  26.886  1.00  0.00     0.118 C 
BRANCH  28  29
ATOM     29  N   UNL A   1      32.502  33.710  27.470  1.00  0.00    -0.352 N 
ATOM     30  C   UNL A   1      33.201  34.369  28.457  1.00  0.00     0.251 C 
ATOM     31  H   UNL A   1      31.763  34.236  27.087  1.00  0.00     0.163 HD
ATOM     32  O   UNL A   1      32.805  35.469  28.827  1.00  0.00    -0.269 OA
BRANCH  30  33
ATOM     33  C   UNL A   1      34.394  33.771  29.108  1.00  0.00     0.039 A 
ATOM     34  C   UNL A   1      34.205  32.729  30.023  1.00  0.00     0.014 A 
ATOM     35  C   UNL A   1      35.686  34.236  28.870  1.00  0.00     0.014 A 
ATOM     36  C   UNL A   1      35.306  32.116  30.630  1.00  0.00     0.010 A 
ATOM     37  C   UNL A   1      36.786  33.546  29.374  1.00  0.00     0.010 A 
ATOM     38  C   UNL A   1      36.612  32.489  30.277  1.00  0.00    -0.014 A 
BRANCH  38  39
ATOM     39  C   UNL A   1      37.800  31.817  30.875  1.00  0.00     0.031 A 
ATOM     40  C   UNL A   1      38.255  32.177  32.268  1.00  0.00     0.074 A 
ATOM     41  C   UNL A   1      38.498  30.916  30.156  1.00  0.00     0.049 A 
ATOM     42  N   UNL A   1      39.288  31.737  32.944  1.00  0.00    -0.248 NA
ATOM     43  C   UNL A   1      37.465  33.190  32.985  1.00  0.00     0.031 C 
ATOM     44  C   UNL A   1      38.201  30.519  28.778  1.00  0.00     0.029 A 
ATOM     45  N   UNL A   1      39.602  30.167  30.483  1.00  0.00    -0.354 N 
ATOM     46  C   UNL A   1      39.269  32.422  34.154  1.00  0.00     0.074 A 
ATOM     47  C   UNL A   1      38.177  33.367  34.087  1.00  0.00     0.031 C 
ATOM     48  C   UNL A   1      39.076  29.575  28.392  1.00  0.00     0.029 A 
ATOM     49  C   UNL A   1      40.018  29.327  29.478  1.00  0.00     0.049 A 
ATOM     50  H   UNL A   1      40.054  30.227  31.355  1.00  0.00     0.167 HD
ATOM     51  C   UNL A   1      40.058  32.252  35.241  1.00  0.00     0.037 A 
ATOM     52  C   UNL A   1      41.044  28.454  29.439  1.00  0.00     0.037 A 
ATOM     53  C   UNL A   1      41.131  31.295  35.319  1.00  0.00     0.049 A 
ATOM     54  C   UNL A   1      41.919  28.298  30.655  1.00  0.00     0.074 A 
ATOM     55  C   UNL A   1      41.970  31.022  36.385  1.00  0.00     0.029 A 
ATOM     56  N   UNL A   1      41.510  30.452  34.285  1.00  0.00    -0.354 N 
ATOM     57  N   UNL A   1      41.844  28.903  31.816  1.00  0.00    -0.248 NA
ATOM     58  C   UNL A   1      43.017  27.327  30.558  1.00  0.00     0.031 C 
ATOM     59  C   UNL A   1      42.885  30.044  35.982  1.00  0.00     0.029 A 
ATOM     60  C   UNL A   1      42.581  29.667  34.684  1.00  0.00     0.049 A 
ATOM     61  H   UNL A   1      41.082  30.416  33.399  1.00  0.00     0.167 HD
ATOM     62  C   UNL A   1      42.858  28.361  32.595  1.00  0.00     0.074 A 
ATOM     63  C   UNL A   1      43.518  27.361  31.783  1.00  0.00     0.031 C 
ATOM     64  C   UNL A   1      43.216  28.666  33.867  1.00  0.00     0.037 A 
BRANCH  51  65
ATOM     65  C   UNL A   1      39.772  33.104  36.446  1.00  0.00     0.064 A 
ATOM     66  C   UNL A   1      40.436  34.323  36.655  1.00  0.00     0.173 A 
ATOM     67  C   UNL A   1      38.805  32.718  37.386  1.00  0.00     0.173 A 
ATOM     68  F   UNL A   1      41.380  34.734  35.794  1.00  0.00    -0.203 F 
ATOM     69  C   UNL A   1      40.166  35.107  37.773  1.00  0.00     0.198 A 
ATOM     70  C   UNL A   1      38.512  33.522  38.486  1.00  0.00     0.198 A 
ATOM     71  F   UNL A   1      38.135  31.565  37.234  1.00  0.00    -0.203 F 
ATOM     72  F   UNL A   1      40.854  36.239  37.978  1.00  0.00    -0.200 F 
ATOM     73  C   UNL A   1      39.198  34.710  38.683  1.00  0.00     0.200 A 
ATOM     74  F   UNL A   1      37.566  33.145  39.356  1.00  0.00    -0.200 F 
ATOM     75  F   UNL A   1      38.933  35.470  39.754  1.00  0.00    -0.200 F 
ENDBRANCH  51  65
BRANCH  52  76
ATOM     76  C   UNL A   1      41.295  27.637  28.219  1.00  0.00     0.064 A 
ATOM     77  C   UNL A   1      40.720  26.366  28.073  1.00  0.00     0.173 A 
ATOM     78  C   UNL A   1      42.145  28.086  27.199  1.00  0.00     0.173 A 
ATOM     79  F   UNL A   1      39.915  25.881  29.029  1.00  0.00    -0.203 F 
ATOM     80  C   UNL A   1      41.019  25.560  26.975  1.00  0.00     0.198 A 
ATOM     81  C   UNL A   1      42.415  27.295  26.083  1.00  0.00     0.198 A 
ATOM     82  F   UNL A   1      42.716  29.297  27.283  1.00  0.00    -0.203 F 
ATOM     83  F   UNL A   1      40.510  24.323  26.897  1.00  0.00    -0.200 F 
ATOM     84  C   UNL A   1      41.863  26.027  25.979  1.00  0.00     0.200 A 
ATOM     85  F   UNL A   1      43.219  27.756  25.116  1.00  0.00    -0.200 F 
ATOM     86  F   UNL A   1      42.156  25.250  24.928  1.00  0.00    -0.200 F 
ENDBRANCH  52  76
BRANCH  64  87
ATOM     87  C   UNL A   1      44.343  27.876  34.471  1.00  0.00     0.064 A 
ATOM     88  C   UNL A   1      45.673  28.316  34.402  1.00  0.00     0.173 A 
ATOM     89  C   UNL A   1      44.084  26.672  35.143  1.00  0.00     0.173 A 
ATOM     90  F   UNL A   1      45.976  29.455  33.762  1.00  0.00    -0.203 F 
ATOM     91  C   UNL A   1      46.706  27.558  34.948  1.00  0.00     0.198 A 
ATOM     92  C   UNL A   1      45.115  25.936  35.718  1.00  0.00     0.198 A 
ATOM     93  F   UNL A   1      42.828  26.210  35.245  1.00  0.00    -0.203 F 
ATOM     94  F   UNL A   1      47.977  27.966  34.812  1.00  0.00    -0.200 F 
ATOM     95  C   UNL A   1      46.426  26.373  35.610  1.00  0.00     0.200 A 
ATOM     96  F   UNL A   1      44.840  24.799  36.373  1.00  0.00    -0.200 F 
ATOM     97  F   UNL A   1      47.422  25.646  36.136  1.00  0.00    -0.200 F 
ENDBRANCH  64  87
ENDBRANCH  38  39
ENDBRANCH  30  33
ENDBRANCH  28  29
ENDBRANCH   1  28
TORSDOF 13
ENDMDL
MODEL 3
REMARK VINA RESULT:     -12.7      2.067      3.185
REMARK SMILES Cc1ncccc1NC(=O)Nc1ccc(C(=O)NCCCNC(=O)c2ccc(-c3c4nc(c(-c5c(F)c(F)c(F)c(F)c5F)c5ccc([nH]5)c(-c5c(F)c(F)c(F)c(F)c5F)c5nc(c(-c6c(F)c(F)c(F)c(F)c6F)c6ccc3[nH]6)C=C5)C=C4)cc2)c(O)c1
REMARK SMILES IDX 20 1 19 2 18 3 16 4 17 5 15 7 12 8 13 9 90 10 14 11 88 12
REMARK SMILES IDX 11 13 8 14 9 15 10 17 7 19 1 20 2 21 3 22 4 23 6 24 5 25
REMARK SMILES IDX 89 26 21 28 22 29 23 30 24 32 25 33 26 34 87 35 27 36 86 37
REMARK SMILES IDX 28 38 29 39 30 40 80 41 31 42 85 43 79 44 81 45 32 46 84 47
REMARK SMILES IDX 78 48 77 49 33 51 65 52 45 53 64 54 46 55 49 56 63 57 82 58
REMARK SMILES IDX 47 59 48 60 62 62 83 63 50 64 34 65 35 66 43 67 36 68 37 69
REMARK SMILES IDX 41 70 44 71 38 72 39 73 42 74 40 75 66 76 67 77 75 78 68 79
REMARK SMILES IDX 69 80 73 81 76 82 70 83 71 84 74 85 72 86 51 87 52 88 60 89
REMARK SMILES IDX 53 90 54 91 58 92 61 93 55 94 56 95 59 96 57 97
REMARK H PARENT 18 6 8 16 11 18 89 27 22 31 81 50 49 61
REMARK Flexibility Score: inf
ROOT
ATOM      1  C   UNL A   1      31.341  31.729  26.500  1.00  0.00     0.042 C 
ENDROOT
BRANCH   1   2
ATOM      2  C   UNL A   1      31.415  30.293  26.001  1.00  0.00     0.118 C 
BRANCH   2   3
ATOM      3  N   UNL A   1      32.264  30.078  24.838  1.00  0.00    -0.352 N 
ATOM      4  C   UNL A   1      32.506  28.948  24.085  1.00  0.00     0.255 C 
ATOM      5  O   UNL A   1      33.225  29.064  23.094  1.00  0.00    -0.269 OA
ATOM      6  H   UNL A   1      32.750  30.879  24.536  1.00  0.00     0.163 HD
BRANCH   4   7
ATOM      7  C   UNL A   1      32.031  27.596  24.485  1.00  0.00     0.081 A 
ATOM      8  C   UNL A   1      31.084  25.404  25.939  1.00  0.00     0.046 A 
ATOM      9  C   UNL A   1      32.432  25.746  26.013  1.00  0.00     0.027 A 
ATOM     10  C   UNL A   1      30.293  25.971  24.937  1.00  0.00     0.073 A 
ATOM     11  C   UNL A   1      32.898  26.858  25.306  1.00  0.00     0.020 A 
ATOM     12  C   UNL A   1      30.779  27.051  24.197  1.00  0.00     0.130 A 
BRANCH   8  13
ATOM     13  N   UNL A   1      30.450  24.577  26.876  1.00  0.00    -0.308 N 
ATOM     14  N   UNL A   1      30.801  22.320  26.135  1.00  0.00    -0.306 N 
ATOM     15  C   UNL A   1      30.160  23.255  26.879  1.00  0.00     0.323 C 
ATOM     16  H   UNL A   1      30.275  21.495  26.023  1.00  0.00     0.171 HD
ATOM     17  O   UNL A   1      29.255  22.863  27.624  1.00  0.00    -0.248 OA
ATOM     18  H   UNL A   1      30.158  25.048  27.689  1.00  0.00     0.171 HD
BRANCH  14  19
ATOM     19  C   UNL A   1      32.053  22.266  25.481  1.00  0.00     0.064 A 
ATOM     20  C   UNL A   1      33.358  22.203  27.692  1.00  0.00     0.069 C 
ATOM     21  C   UNL A   1      33.239  22.054  26.205  1.00  0.00     0.061 A 
ATOM     22  N   UNL A   1      34.420  21.745  25.598  1.00  0.00    -0.259 NA
ATOM     23  C   UNL A   1      34.453  21.714  24.252  1.00  0.00     0.111 A 
ATOM     24  C   UNL A   1      32.183  22.399  24.098  1.00  0.00     0.030 A 
ATOM     25  C   UNL A   1      33.384  22.085  23.465  1.00  0.00     0.022 A 
ENDBRANCH  14  19
ENDBRANCH   8  13
BRANCH  12  26
ATOM     26  O   UNL A   1      29.950  27.523  23.219  1.00  0.00    -0.507 OA
ATOM     27  H   UNL A   1      30.148  27.362  22.318  1.00  0.00     0.293 HD
ENDBRANCH  12  26
ENDBRANCH   4   7
ENDBRANCH   2   3
ENDBRANCH   1   2
BRANCH   1  28
ATOM     28  C   UNL A   1      32.658  32.375  26.908  1.00  0.00     0.118 C 
BRANCH  28  29
ATOM     29  N   UNL A   1      32.528  33.719  27.450  1.00  0.00    -0.352 N 
ATOM     30  C   UNL A   1      33.230  34.399  28.419  1.00  0.00     0.251 C 
ATOM     31  H   UNL A   1      31.798  34.243  27.046  1.00  0.00     0.163 HD
ATOM     32  O   UNL A   1      32.848  35.515  28.753  1.00  0.00    -0.269 OA
BRANCH  30  33
ATOM     33  C   UNL A   1      34.411  33.805  29.096  1.00  0.00     0.039 A 
ATOM     34  C   UNL A   1      34.202  32.809  30.057  1.00  0.00     0.014 A 
ATOM     35  C   UNL A   1      35.713  34.231  28.835  1.00  0.00     0.014 A 
ATOM     36  C   UNL A   1      35.291  32.200  30.690  1.00  0.00     0.010 A 
ATOM     37  C   UNL A   1      36.799  33.540  29.370  1.00  0.00     0.010 A 
ATOM     38  C   UNL A   1      36.604  32.529  30.320  1.00  0.00    -0.014 A 
BRANCH  38  39
ATOM     39  C   UNL A   1      37.778  31.860  30.946  1.00  0.00     0.031 A 
ATOM     40  C   UNL A   1      38.229  32.255  32.330  1.00  0.00     0.074 A 
ATOM     41  C   UNL A   1      38.468  30.927  30.259  1.00  0.00     0.049 A 
ATOM     42  N   UNL A   1      39.250  31.822  33.027  1.00  0.00    -0.248 NA
ATOM     43  C   UNL A   1      37.448  33.300  33.011  1.00  0.00     0.031 C 
ATOM     44  C   UNL A   1      38.175  30.492  28.892  1.00  0.00     0.029 A 
ATOM     45  N   UNL A   1      39.560  30.174  30.617  1.00  0.00    -0.354 N 
ATOM     46  C   UNL A   1      39.233  32.543  34.215  1.00  0.00     0.074 A 
ATOM     47  C   UNL A   1      38.155  33.500  34.112  1.00  0.00     0.031 C 
ATOM     48  C   UNL A   1      39.039  29.525  28.541  1.00  0.00     0.029 A 
ATOM     49  C   UNL A   1      39.970  29.297  29.641  1.00  0.00     0.049 A 
ATOM     50  H   UNL A   1      40.007  30.253  31.490  1.00  0.00     0.167 HD
ATOM     51  C   UNL A   1      40.013  32.395  35.313  1.00  0.00     0.037 A 
ATOM     52  C   UNL A   1      40.984  28.410  29.635  1.00  0.00     0.037 A 
ATOM     53  C   UNL A   1      41.071  31.426  35.428  1.00  0.00     0.049 A 
ATOM     54  C   UNL A   1      41.849  28.278  30.863  1.00  0.00     0.074 A 
ATOM     55  C   UNL A   1      41.899  31.174  36.508  1.00  0.00     0.029 A 
ATOM     56  N   UNL A   1      41.445  30.547  34.422  1.00  0.00    -0.354 N 
ATOM     57  N   UNL A   1      41.774  28.919  32.003  1.00  0.00    -0.248 NA
ATOM     58  C   UNL A   1      42.934  27.290  30.802  1.00  0.00     0.031 C 
ATOM     59  C   UNL A   1      42.803  30.172  36.141  1.00  0.00     0.029 A 
ATOM     60  C   UNL A   1      42.502  29.760  34.853  1.00  0.00     0.049 A 
ATOM     61  H   UNL A   1      41.023  30.490  33.534  1.00  0.00     0.167 HD
ATOM     62  C   UNL A   1      42.775  28.387  32.806  1.00  0.00     0.074 A 
ATOM     63  C   UNL A   1      43.426  27.354  32.030  1.00  0.00     0.031 C 
ATOM     64  C   UNL A   1      43.129  28.726  34.071  1.00  0.00     0.037 A 
BRANCH  51  65
ATOM     65  C   UNL A   1      39.730  33.287  36.490  1.00  0.00     0.064 A 
ATOM     66  C   UNL A   1      40.366  34.531  36.634  1.00  0.00     0.173 A 
ATOM     67  C   UNL A   1      38.794  32.914  37.466  1.00  0.00     0.173 A 
ATOM     68  F   UNL A   1      41.279  34.931  35.736  1.00  0.00    -0.203 F 
ATOM     69  C   UNL A   1      40.099  35.352  37.727  1.00  0.00     0.198 A 
ATOM     70  C   UNL A   1      38.505  33.754  38.539  1.00  0.00     0.198 A 
ATOM     71  F   UNL A   1      38.153  31.739  37.376  1.00  0.00    -0.203 F 
ATOM     72  F   UNL A   1      40.761  36.508  37.870  1.00  0.00    -0.200 F 
ATOM     73  C   UNL A   1      39.163  34.967  38.674  1.00  0.00     0.200 A 
ATOM     74  F   UNL A   1      37.588  33.388  39.446  1.00  0.00    -0.200 F 
ATOM     75  F   UNL A   1      38.902  35.762  39.720  1.00  0.00    -0.200 F 
ENDBRANCH  51  65
BRANCH  52  76
ATOM     76  C   UNL A   1      41.232  27.552  28.443  1.00  0.00     0.064 A 
ATOM     77  C   UNL A   1      42.162  27.932  27.464  1.00  0.00     0.173 A 
ATOM     78  C   UNL A   1      40.517  26.365  28.234  1.00  0.00     0.173 A 
ATOM     79  F   UNL A   1      42.858  29.069  27.606  1.00  0.00    -0.203 F 
ATOM     80  C   UNL A   1      42.336  27.179  26.303  1.00  0.00     0.198 A 
ATOM     81  C   UNL A   1      40.719  25.593  27.090  1.00  0.00     0.198 A 
ATOM     82  F   UNL A   1      39.620  25.950  29.141  1.00  0.00    -0.203 F 
ATOM     83  F   UNL A   1      43.181  27.604  25.353  1.00  0.00    -0.200 F 
ATOM     84  C   UNL A   1      41.617  26.008  26.119  1.00  0.00     0.200 A 
ATOM     85  F   UNL A   1      40.033  24.454  26.924  1.00  0.00    -0.200 F 
ATOM     86  F   UNL A   1      41.780  25.288  25.001  1.00  0.00    -0.200 F 
ENDBRANCH  52  76
BRANCH  64  87
ATOM     87  C   UNL A   1      44.240  27.939  34.706  1.00  0.00     0.064 A 
ATOM     88  C   UNL A   1      45.577  28.356  34.631  1.00  0.00     0.173 A 
ATOM     89  C   UNL A   1      43.960  26.761  35.415  1.00  0.00     0.173 A 
ATOM     90  F   UNL A   1      45.901  29.469  33.955  1.00  0.00    -0.203 F 
ATOM     91  C   UNL A   1      46.596  27.601  35.207  1.00  0.00     0.198 A 
ATOM     92  C   UNL A   1      44.977  26.029  36.020  1.00  0.00     0.198 A 
ATOM     93  F   UNL A   1      42.696  26.322  35.526  1.00  0.00    -0.203 F 
ATOM     94  F   UNL A   1      47.873  27.985  35.065  1.00  0.00    -0.200 F 
ATOM     95  C   UNL A   1      46.294  26.442  35.906  1.00  0.00     0.200 A 
ATOM     96  F   UNL A   1      44.681  24.918  36.710  1.00  0.00    -0.200 F 
ATOM     97  F   UNL A   1      47.277  25.718  36.460  1.00  0.00    -0.200 F 
ENDBRANCH  64  87
ENDBRANCH  38  39
ENDBRANCH  30  33
ENDBRANCH  28  29
ENDBRANCH   1  28
TORSDOF 13
ENDMDL
