MODEL 1
REMARK VINA RESULT:     -11.7      0.000      0.000
REMARK SMILES CC[NH2+][C@@]1(C(=O)NCCCNC(=O)c2ccc(-c3c4nc(c(-c5c(F)c(F)c(F)c(F)c5F)c5ccc([nH]5)c(-c5c(F)c(F)c(F)c(F)c5F)c5nc(c(-c6c(F)c(F)c(F)c(F)c6F)c6ccc3[nH]6)C=C5)C=C4)cc2)CCC[C@@H]([N@@H+](C)[C@@H](C)C2CC2)C1
REMARK SMILES IDX 8 1 7 2 5 3 6 4 4 6 77 7 88 8 78 9 80 10 79 11 3 12 2 15
REMARK SMILES IDX 1 16 81 17 82 18 83 20 84 21 85 22 86 23 87 24 9 25 10 26
REMARK SMILES IDX 11 27 12 28 13 30 14 31 15 32 76 33 16 34 75 35 17 36 18 37
REMARK SMILES IDX 19 38 69 39 20 40 74 41 68 42 70 43 21 44 73 45 67 46 66 47
REMARK SMILES IDX 22 49 54 50 34 51 53 52 35 53 38 54 52 55 71 56 36 57 37 58
REMARK SMILES IDX 51 60 72 61 39 62 23 63 24 64 32 65 25 66 26 67 30 68 33 69
REMARK SMILES IDX 27 70 28 71 31 72 29 73 55 74 56 75 64 76 57 77 58 78 62 79
REMARK SMILES IDX 65 80 59 81 60 82 63 83 61 84 40 85 41 86 49 87 42 88 43 89
REMARK SMILES IDX 47 90 50 91 44 92 45 93 48 94 46 95
REMARK H PARENT 7 5 3 13 3 14 81 19 11 29 70 48 38 59
REMARK Flexibility Score: inf
ROOT
ATOM      1  C   UNL A   1      31.594  30.777  26.180  1.00  0.00     0.118 C 
ENDROOT
BRANCH   1   2
ATOM      2  N   UNL A   1      31.714  29.738  27.167  1.00  0.00    -0.351 N 
ATOM      3  C   UNL A   1      31.914  28.399  27.092  1.00  0.00     0.281 C 
ATOM      4  O   UNL A   1      31.807  27.849  28.199  1.00  0.00    -0.268 OA
ATOM      5  H   UNL A   1      31.636  30.070  28.091  1.00  0.00     0.163 HD
BRANCH   3   6
ATOM      6  C   UNL A   1      32.213  27.582  25.754  1.00  0.00     0.181 C 
ATOM      7  C   UNL A   1      33.463  28.021  24.954  1.00  0.00     0.079 C 
ATOM      8  C   UNL A   1      30.920  27.491  24.899  1.00  0.00     0.144 C 
ATOM      9  C   UNL A   1      33.288  28.904  23.722  1.00  0.00     0.013 C 
ATOM     10  C   UNL A   1      30.778  28.413  23.676  1.00  0.00     0.190 C 
ATOM     11  C   UNL A   1      32.074  28.544  22.877  1.00  0.00     0.065 C 
BRANCH   6  12
ATOM     12  N   UNL A   1      32.448  26.141  26.174  1.00  0.00    -0.334 N 
ATOM     13  H   UNL A   1      32.847  26.158  27.113  1.00  0.00     0.347 HD
ATOM     14  H   UNL A   1      31.535  25.695  26.096  1.00  0.00     0.347 HD
BRANCH  12  15
ATOM     15  C   UNL A   1      33.333  25.331  25.337  1.00  0.00     0.257 C 
ATOM     16  C   UNL A   1      33.862  24.171  26.174  1.00  0.00     0.071 C 
ENDBRANCH  12  15
ENDBRANCH   6  12
BRANCH  10  17
ATOM     17  N   UNL A   1      29.525  28.113  22.924  1.00  0.00    -0.332 N 
ATOM     18  C   UNL A   1      28.856  26.943  23.531  1.00  0.00     0.333 C 
ATOM     19  H   UNL A   1      29.927  27.974  21.997  1.00  0.00     0.348 HD
BRANCH  17  20
ATOM     20  C   UNL A   1      28.509  29.141  22.582  1.00  0.00     0.184 C 
ATOM     21  C   UNL A   1      27.083  28.943  23.125  1.00  0.00     0.075 C 
BRANCH  20  22
ATOM     22  C   UNL A   1      28.857  30.615  22.618  1.00  0.00     0.047 C 
ATOM     23  C   UNL A   1      27.844  31.723  22.727  1.00  0.00     0.010 C 
ATOM     24  C   UNL A   1      28.836  31.489  23.844  1.00  0.00     0.010 C 
ENDBRANCH  20  22
ENDBRANCH  17  20
ENDBRANCH  10  17
ENDBRANCH   3   6
ENDBRANCH   1   2
BRANCH   1  25
ATOM     25  C   UNL A   1      31.432  32.153  26.808  1.00  0.00     0.042 C 
BRANCH  25  26
ATOM     26  C   UNL A   1      32.760  32.848  27.050  1.00  0.00     0.118 C 
BRANCH  26  27
ATOM     27  N   UNL A   1      32.576  34.187  27.600  1.00  0.00    -0.352 N 
ATOM     28  C   UNL A   1      33.104  34.784  28.719  1.00  0.00     0.251 C 
ATOM     29  H   UNL A   1      31.967  34.761  27.081  1.00  0.00     0.163 HD
ATOM     30  O   UNL A   1      32.597  35.818  29.143  1.00  0.00    -0.269 OA
BRANCH  28  31
ATOM     31  C   UNL A   1      34.269  34.199  29.418  1.00  0.00     0.039 A 
ATOM     32  C   UNL A   1      35.559  34.566  29.017  1.00  0.00     0.014 A 
ATOM     33  C   UNL A   1      34.107  33.246  30.424  1.00  0.00     0.014 A 
ATOM     34  C   UNL A   1      36.673  34.013  29.658  1.00  0.00     0.010 A 
ATOM     35  C   UNL A   1      35.206  32.790  31.140  1.00  0.00     0.010 A 
ATOM     36  C   UNL A   1      36.503  33.143  30.745  1.00  0.00    -0.014 A 
BRANCH  36  37
ATOM     37  C   UNL A   1      37.657  32.537  31.455  1.00  0.00     0.031 A 
ATOM     38  C   UNL A   1      38.403  31.392  30.820  1.00  0.00     0.074 A 
ATOM     39  C   UNL A   1      37.979  32.952  32.695  1.00  0.00     0.049 A 
ATOM     40  N   UNL A   1      39.348  30.636  31.320  1.00  0.00    -0.248 NA
ATOM     41  C   UNL A   1      38.000  31.016  29.454  1.00  0.00     0.031 C 
ATOM     42  C   UNL A   1      37.294  34.012  33.437  1.00  0.00     0.029 A 
ATOM     43  N   UNL A   1      38.956  32.523  33.554  1.00  0.00    -0.354 N 
ATOM     44  C   UNL A   1      39.619  29.680  30.349  1.00  0.00     0.074 A 
ATOM     45  C   UNL A   1      38.701  29.911  29.256  1.00  0.00     0.031 C 
ATOM     46  C   UNL A   1      37.890  34.169  34.630  1.00  0.00     0.029 A 
ATOM     47  C   UNL A   1      38.972  33.197  34.751  1.00  0.00     0.049 A 
ATOM     48  H   UNL A   1      39.589  31.801  33.335  1.00  0.00     0.167 HD
ATOM     49  C   UNL A   1      40.568  28.714  30.355  1.00  0.00     0.037 A 
ATOM     50  C   UNL A   1      39.768  33.044  35.826  1.00  0.00     0.037 A 
ATOM     51  C   UNL A   1      41.517  28.530  31.419  1.00  0.00     0.049 A 
ATOM     52  C   UNL A   1      40.845  31.993  35.790  1.00  0.00     0.074 A 
ATOM     53  C   UNL A   1      42.570  27.635  31.494  1.00  0.00     0.029 A 
ATOM     54  N   UNL A   1      41.533  29.269  32.594  1.00  0.00    -0.354 N 
ATOM     55  N   UNL A   1      41.131  31.134  34.842  1.00  0.00    -0.248 NA
ATOM     56  C   UNL A   1      41.714  31.895  36.971  1.00  0.00     0.031 C 
ATOM     57  C   UNL A   1      43.204  27.812  32.728  1.00  0.00     0.029 A 
ATOM     58  C   UNL A   1      42.572  28.844  33.404  1.00  0.00     0.049 A 
ATOM     59  H   UNL A   1      40.900  29.988  32.817  1.00  0.00     0.167 HD
ATOM     60  C   UNL A   1      42.226  30.413  35.297  1.00  0.00     0.074 A 
ATOM     61  C   UNL A   1      42.562  30.947  36.602  1.00  0.00     0.031 C 
ATOM     62  C   UNL A   1      42.894  29.401  34.693  1.00  0.00     0.037 A 
BRANCH  49  63
ATOM     63  C   UNL A   1      40.634  27.796  29.168  1.00  0.00     0.064 A 
ATOM     64  C   UNL A   1      39.795  26.677  29.054  1.00  0.00     0.173 A 
ATOM     65  C   UNL A   1      41.531  28.051  28.119  1.00  0.00     0.173 A 
ATOM     66  F   UNL A   1      38.929  26.380  30.035  1.00  0.00    -0.203 F 
ATOM     67  C   UNL A   1      39.877  25.827  27.953  1.00  0.00     0.198 A 
ATOM     68  C   UNL A   1      41.587  27.218  27.004  1.00  0.00     0.198 A 
ATOM     69  F   UNL A   1      42.353  29.110  28.173  1.00  0.00    -0.203 F 
ATOM     70  F   UNL A   1      39.105  24.733  27.896  1.00  0.00    -0.200 F 
ATOM     71  C   UNL A   1      40.767  26.102  26.927  1.00  0.00     0.200 A 
ATOM     72  F   UNL A   1      42.439  27.490  26.007  1.00  0.00    -0.200 F 
ATOM     73  F   UNL A   1      40.841  25.286  25.866  1.00  0.00    -0.200 F 
ENDBRANCH  49  63
BRANCH  50  74
ATOM     74  C   UNL A   1      39.604  33.933  37.004  1.00  0.00     0.064 A 
ATOM     75  C   UNL A   1      38.841  33.525  38.107  1.00  0.00     0.173 A 
ATOM     76  C   UNL A   1      40.208  35.196  37.060  1.00  0.00     0.173 A 
ATOM     77  F   UNL A   1      38.229  32.331  38.093  1.00  0.00    -0.203 F 
ATOM     78  C   UNL A   1      38.672  34.355  39.213  1.00  0.00     0.198 A 
ATOM     79  C   UNL A   1      40.062  36.014  38.178  1.00  0.00     0.198 A 
ATOM     80  F   UNL A   1      40.956  35.630  36.034  1.00  0.00    -0.203 F 
ATOM     81  F   UNL A   1      37.906  33.956  40.237  1.00  0.00    -0.200 F 
ATOM     82  C   UNL A   1      39.288  35.596  39.251  1.00  0.00     0.200 A 
ATOM     83  F   UNL A   1      40.671  37.208  38.218  1.00  0.00    -0.200 F 
ATOM     84  F   UNL A   1      39.132  36.391  40.318  1.00  0.00    -0.200 F 
ENDBRANCH  50  74
BRANCH  62  85
ATOM     85  C   UNL A   1      44.074  28.829  35.419  1.00  0.00     0.064 A 
ATOM     86  C   UNL A   1      43.937  27.760  36.316  1.00  0.00     0.173 A 
ATOM     87  C   UNL A   1      45.364  29.328  35.177  1.00  0.00     0.173 A 
ATOM     88  F   UNL A   1      42.723  27.260  36.590  1.00  0.00    -0.203 F 
ATOM     89  C   UNL A   1      45.048  27.226  36.963  1.00  0.00     0.198 A 
ATOM     90  C   UNL A   1      46.473  28.772  35.805  1.00  0.00     0.198 A 
ATOM     91  F   UNL A   1      45.546  30.345  34.321  1.00  0.00    -0.203 F 
ATOM     92  F   UNL A   1      44.890  26.234  37.849  1.00  0.00    -0.200 F 
ATOM     93  C   UNL A   1      46.315  27.727  36.702  1.00  0.00     0.200 A 
ATOM     94  F   UNL A   1      47.698  29.249  35.541  1.00  0.00    -0.200 F 
ATOM     95  F   UNL A   1      47.383  27.206  37.320  1.00  0.00    -0.200 F 
ENDBRANCH  62  85
ENDBRANCH  36  37
ENDBRANCH  28  31
ENDBRANCH  26  27
ENDBRANCH  25  26
ENDBRANCH   1  25
TORSDOF 15
ENDMDL
MODEL 2
REMARK VINA RESULT:     -11.6      0.349      2.057
REMARK SMILES CC[NH2+][C@@]1(C(=O)NCCCNC(=O)c2ccc(-c3c4nc(c(-c5c(F)c(F)c(F)c(F)c5F)c5ccc([nH]5)c(-c5c(F)c(F)c(F)c(F)c5F)c5nc(c(-c6c(F)c(F)c(F)c(F)c6F)c6ccc3[nH]6)C=C5)C=C4)cc2)CCC[C@@H]([N@@H+](C)[C@@H](C)C2CC2)C1
REMARK SMILES IDX 8 1 7 2 5 3 6 4 4 6 77 7 88 8 78 9 80 10 79 11 3 12 2 15
REMARK SMILES IDX 1 16 81 17 82 18 83 20 84 21 85 22 86 23 87 24 9 25 10 26
REMARK SMILES IDX 11 27 12 28 13 30 14 31 15 32 76 33 16 34 75 35 17 36 18 37
REMARK SMILES IDX 19 38 69 39 20 40 74 41 68 42 70 43 21 44 73 45 67 46 66 47
REMARK SMILES IDX 22 49 54 50 34 51 53 52 35 53 38 54 52 55 71 56 36 57 37 58
REMARK SMILES IDX 51 60 72 61 39 62 23 63 24 64 32 65 25 66 26 67 30 68 33 69
REMARK SMILES IDX 27 70 28 71 31 72 29 73 55 74 56 75 64 76 57 77 58 78 62 79
REMARK SMILES IDX 65 80 59 81 60 82 63 83 61 84 40 85 41 86 49 87 42 88 43 89
REMARK SMILES IDX 47 90 50 91 44 92 45 93 48 94 46 95
REMARK H PARENT 7 5 3 13 3 14 81 19 11 29 70 48 38 59
REMARK Flexibility Score: inf
ROOT
ATOM      1  C   UNL A   1      31.582  30.797  26.156  1.00  0.00     0.118 C 
ENDROOT
BRANCH   1   2
ATOM      2  N   UNL A   1      31.707  29.781  27.166  1.00  0.00    -0.351 N 
ATOM      3  C   UNL A   1      31.922  28.443  27.122  1.00  0.00     0.281 C 
ATOM      4  O   UNL A   1      31.813  27.915  28.240  1.00  0.00    -0.268 OA
ATOM      5  H   UNL A   1      31.618  30.131  28.082  1.00  0.00     0.163 HD
BRANCH   3   6
ATOM      6  C   UNL A   1      32.239  27.601  25.804  1.00  0.00     0.181 C 
ATOM      7  C   UNL A   1      33.508  28.017  25.021  1.00  0.00     0.079 C 
ATOM      8  C   UNL A   1      30.963  27.504  24.927  1.00  0.00     0.144 C 
ATOM      9  C   UNL A   1      33.363  28.880  23.771  1.00  0.00     0.013 C 
ATOM     10  C   UNL A   1      30.850  28.405  23.685  1.00  0.00     0.190 C 
ATOM     11  C   UNL A   1      32.162  28.513  22.909  1.00  0.00     0.065 C 
BRANCH   6  12
ATOM     12  N   UNL A   1      32.457  26.166  26.253  1.00  0.00    -0.334 N 
ATOM     13  H   UNL A   1      33.271  25.808  25.753  1.00  0.00     0.347 HD
ATOM     14  H   UNL A   1      32.558  26.223  27.266  1.00  0.00     0.347 HD
BRANCH  12  15
ATOM     15  C   UNL A   1      31.362  25.219  26.040  1.00  0.00     0.257 C 
ATOM     16  C   UNL A   1      31.674  23.937  26.804  1.00  0.00     0.071 C 
ENDBRANCH  12  15
ENDBRANCH   6  12
BRANCH  10  17
ATOM     17  N   UNL A   1      29.609  28.100  22.915  1.00  0.00    -0.332 N 
ATOM     18  C   UNL A   1      28.927  26.940  23.523  1.00  0.00     0.333 C 
ATOM     19  H   UNL A   1      30.027  27.950  21.997  1.00  0.00     0.348 HD
BRANCH  17  20
ATOM     20  C   UNL A   1      28.603  29.128  22.544  1.00  0.00     0.184 C 
ATOM     21  C   UNL A   1      27.165  28.935  23.056  1.00  0.00     0.075 C 
BRANCH  20  22
ATOM     22  C   UNL A   1      28.952  30.601  22.579  1.00  0.00     0.047 C 
ATOM     23  C   UNL A   1      27.947  31.714  22.452  1.00  0.00     0.010 C 
ATOM     24  C   UNL A   1      28.715  31.529  23.741  1.00  0.00     0.010 C 
ENDBRANCH  20  22
ENDBRANCH  17  20
ENDBRANCH  10  17
ENDBRANCH   3   6
ENDBRANCH   1   2
BRANCH   1  25
ATOM     25  C   UNL A   1      31.432  32.187  26.754  1.00  0.00     0.042 C 
BRANCH  25  26
ATOM     26  C   UNL A   1      32.767  32.832  27.085  1.00  0.00     0.118 C 
BRANCH  26  27
ATOM     27  N   UNL A   1      32.598  34.176  27.627  1.00  0.00    -0.352 N 
ATOM     28  C   UNL A   1      33.129  34.772  28.744  1.00  0.00     0.251 C 
ATOM     29  H   UNL A   1      31.998  34.755  27.102  1.00  0.00     0.163 HD
ATOM     30  O   UNL A   1      32.634  35.816  29.160  1.00  0.00    -0.269 OA
BRANCH  28  31
ATOM     31  C   UNL A   1      34.285  34.178  29.451  1.00  0.00     0.039 A 
ATOM     32  C   UNL A   1      34.057  33.363  30.566  1.00  0.00     0.014 A 
ATOM     33  C   UNL A   1      35.595  34.465  29.065  1.00  0.00     0.014 A 
ATOM     34  C   UNL A   1      35.138  32.803  31.254  1.00  0.00     0.010 A 
ATOM     35  C   UNL A   1      36.661  33.814  29.672  1.00  0.00     0.010 A 
ATOM     36  C   UNL A   1      36.448  33.000  30.793  1.00  0.00    -0.014 A 
BRANCH  36  37
ATOM     37  C   UNL A   1      37.624  32.423  31.492  1.00  0.00     0.031 A 
ATOM     38  C   UNL A   1      38.384  31.289  30.855  1.00  0.00     0.074 A 
ATOM     39  C   UNL A   1      37.952  32.854  32.724  1.00  0.00     0.049 A 
ATOM     40  N   UNL A   1      39.351  30.556  31.348  1.00  0.00    -0.248 NA
ATOM     41  C   UNL A   1      37.971  30.895  29.497  1.00  0.00     0.031 C 
ATOM     42  C   UNL A   1      37.256  33.905  33.467  1.00  0.00     0.029 A 
ATOM     43  N   UNL A   1      38.950  32.451  33.574  1.00  0.00    -0.354 N 
ATOM     44  C   UNL A   1      39.629  29.598  30.381  1.00  0.00     0.074 A 
ATOM     45  C   UNL A   1      38.692  29.802  29.298  1.00  0.00     0.031 C 
ATOM     46  C   UNL A   1      37.864  34.083  34.651  1.00  0.00     0.029 A 
ATOM     47  C   UNL A   1      38.967  33.134  34.766  1.00  0.00     0.049 A 
ATOM     48  H   UNL A   1      39.594  31.740  33.352  1.00  0.00     0.167 HD
ATOM     49  C   UNL A   1      40.597  28.652  30.381  1.00  0.00     0.037 A 
ATOM     50  C   UNL A   1      39.780  33.005  35.830  1.00  0.00     0.037 A 
ATOM     51  C   UNL A   1      41.563  28.495  31.434  1.00  0.00     0.049 A 
ATOM     52  C   UNL A   1      40.877  31.976  35.789  1.00  0.00     0.074 A 
ATOM     53  C   UNL A   1      42.635  27.622  31.501  1.00  0.00     0.029 A 
ATOM     54  N   UNL A   1      41.579  29.243  32.603  1.00  0.00    -0.354 N 
ATOM     55  N   UNL A   1      41.169  31.116  34.843  1.00  0.00    -0.248 NA
ATOM     56  C   UNL A   1      41.763  31.905  36.958  1.00  0.00     0.031 C 
ATOM     57  C   UNL A   1      43.281  27.821  32.726  1.00  0.00     0.029 A 
ATOM     58  C   UNL A   1      42.638  28.845  33.403  1.00  0.00     0.049 A 
ATOM     59  H   UNL A   1      40.935  29.951  32.830  1.00  0.00     0.167 HD
ATOM     60  C   UNL A   1      42.284  30.421  35.289  1.00  0.00     0.074 A 
ATOM     61  C   UNL A   1      42.626  30.971  36.585  1.00  0.00     0.031 C 
ATOM     62  C   UNL A   1      42.964  29.418  34.683  1.00  0.00     0.037 A 
BRANCH  49  63
ATOM     63  C   UNL A   1      40.666  27.727  29.200  1.00  0.00     0.064 A 
ATOM     64  C   UNL A   1      41.588  27.925  28.160  1.00  0.00     0.173 A 
ATOM     65  C   UNL A   1      39.816  26.613  29.117  1.00  0.00     0.173 A 
ATOM     66  F   UNL A   1      42.414  28.983  28.184  1.00  0.00    -0.203 F 
ATOM     67  C   UNL A   1      41.631  27.066  27.065  1.00  0.00     0.198 A 
ATOM     68  C   UNL A   1      39.886  25.736  28.036  1.00  0.00     0.198 A 
ATOM     69  F   UNL A   1      38.920  26.371  30.086  1.00  0.00    -0.203 F 
ATOM     70  F   UNL A   1      42.481  27.311  26.058  1.00  0.00    -0.200 F 
ATOM     71  C   UNL A   1      40.786  25.970  27.008  1.00  0.00     0.200 A 
ATOM     72  F   UNL A   1      39.076  24.669  27.986  1.00  0.00    -0.200 F 
ATOM     73  F   UNL A   1      40.832  25.141  25.955  1.00  0.00    -0.200 F 
ENDBRANCH  49  63
BRANCH  50  74
ATOM     74  C   UNL A   1      39.612  33.900  37.004  1.00  0.00     0.064 A 
ATOM     75  C   UNL A   1      40.233  35.156  37.041  1.00  0.00     0.173 A 
ATOM     76  C   UNL A   1      38.827  33.528  38.104  1.00  0.00     0.173 A 
ATOM     77  F   UNL A   1      41.009  35.549  36.020  1.00  0.00    -0.203 F 
ATOM     78  C   UNL A   1      40.090  35.999  38.141  1.00  0.00     0.198 A 
ATOM     79  C   UNL A   1      38.661  34.383  39.191  1.00  0.00     0.198 A 
ATOM     80  F   UNL A   1      38.203  32.340  38.114  1.00  0.00    -0.203 F 
ATOM     81  F   UNL A   1      40.726  37.177  38.167  1.00  0.00    -0.200 F 
ATOM     82  C   UNL A   1      39.299  35.615  39.213  1.00  0.00     0.200 A 
ATOM     83  F   UNL A   1      37.883  34.015  40.220  1.00  0.00    -0.200 F 
ATOM     84  F   UNL A   1      39.156  36.428  40.267  1.00  0.00    -0.200 F 
ENDBRANCH  50  74
BRANCH  62  85
ATOM     85  C   UNL A   1      44.165  28.876  35.398  1.00  0.00     0.064 A 
ATOM     86  C   UNL A   1      45.442  29.424  35.208  1.00  0.00     0.173 A 
ATOM     87  C   UNL A   1      44.027  27.826  36.318  1.00  0.00     0.173 A 
ATOM     88  F   UNL A   1      45.626  30.419  34.328  1.00  0.00    -0.203 F 
ATOM     89  C   UNL A   1      46.543  28.924  35.898  1.00  0.00     0.198 A 
ATOM     90  C   UNL A   1      45.125  27.347  37.026  1.00  0.00     0.198 A 
ATOM     91  F   UNL A   1      42.825  27.273  36.538  1.00  0.00    -0.203 F 
ATOM     92  F   UNL A   1      47.760  29.433  35.670  1.00  0.00    -0.200 F 
ATOM     93  C   UNL A   1      46.382  27.892  36.811  1.00  0.00     0.200 A 
ATOM     94  F   UNL A   1      44.966  26.359  37.917  1.00  0.00    -0.200 F 
ATOM     95  F   UNL A   1      47.442  27.417  37.480  1.00  0.00    -0.200 F 
ENDBRANCH  62  85
ENDBRANCH  36  37
ENDBRANCH  28  31
ENDBRANCH  26  27
ENDBRANCH  25  26
ENDBRANCH   1  25
TORSDOF 15
ENDMDL
MODEL 3
REMARK VINA RESULT:     -11.5      0.799      7.481
REMARK SMILES CC[NH2+][C@@]1(C(=O)NCCCNC(=O)c2ccc(-c3c4nc(c(-c5c(F)c(F)c(F)c(F)c5F)c5ccc([nH]5)c(-c5c(F)c(F)c(F)c(F)c5F)c5nc(c(-c6c(F)c(F)c(F)c(F)c6F)c6ccc3[nH]6)C=C5)C=C4)cc2)CCC[C@@H]([N@@H+](C)[C@@H](C)C2CC2)C1
REMARK SMILES IDX 8 1 7 2 5 3 6 4 4 6 77 7 88 8 78 9 80 10 79 11 3 12 2 15
REMARK SMILES IDX 1 16 81 17 82 18 83 20 84 21 85 22 86 23 87 24 9 25 10 26
REMARK SMILES IDX 11 27 12 28 13 30 14 31 15 32 76 33 16 34 75 35 17 36 18 37
REMARK SMILES IDX 19 38 69 39 20 40 74 41 68 42 70 43 21 44 73 45 67 46 66 47
REMARK SMILES IDX 22 49 54 50 34 51 53 52 35 53 38 54 52 55 71 56 36 57 37 58
REMARK SMILES IDX 51 60 72 61 39 62 23 63 24 64 32 65 25 66 26 67 30 68 33 69
REMARK SMILES IDX 27 70 28 71 31 72 29 73 55 74 56 75 64 76 57 77 58 78 62 79
REMARK SMILES IDX 65 80 59 81 60 82 63 83 61 84 40 85 41 86 49 87 42 88 43 89
REMARK SMILES IDX 47 90 50 91 44 92 45 93 48 94 46 95
REMARK H PARENT 7 5 3 13 3 14 81 19 11 29 70 48 38 59
REMARK Flexibility Score: inf
ROOT
ATOM      1  C   UNL A   1      31.661  30.766  26.244  1.00  0.00     0.118 C 
ENDROOT
BRANCH   1   2
ATOM      2  N   UNL A   1      31.726  29.716  27.225  1.00  0.00    -0.351 N 
ATOM      3  C   UNL A   1      31.894  28.373  27.144  1.00  0.00     0.281 C 
ATOM      4  O   UNL A   1      31.741  27.817  28.243  1.00  0.00    -0.268 OA
ATOM      5  H   UNL A   1      31.630  30.042  28.150  1.00  0.00     0.163 HD
BRANCH   3   6
ATOM      6  C   UNL A   1      32.209  27.560  25.808  1.00  0.00     0.181 C 
ATOM      7  C   UNL A   1      33.476  27.993  25.032  1.00  0.00     0.079 C 
ATOM      8  C   UNL A   1      30.931  27.482  24.931  1.00  0.00     0.144 C 
ATOM      9  C   UNL A   1      33.329  28.882  23.801  1.00  0.00     0.013 C 
ATOM     10  C   UNL A   1      30.816  28.410  23.709  1.00  0.00     0.190 C 
ATOM     11  C   UNL A   1      32.127  28.534  22.934  1.00  0.00     0.065 C 
BRANCH   6  12
ATOM     12  N   UNL A   1      32.426  26.115  26.226  1.00  0.00    -0.334 N 
ATOM     13  H   UNL A   1      33.417  25.906  26.100  1.00  0.00     0.347 HD
ATOM     14  H   UNL A   1      32.090  26.070  27.187  1.00  0.00     0.347 HD
BRANCH  12  15
ATOM     15  C   UNL A   1      31.667  25.086  25.515  1.00  0.00     0.257 C 
ATOM     16  C   UNL A   1      31.204  24.042  26.525  1.00  0.00     0.071 C 
ENDBRANCH  12  15
ENDBRANCH   6  12
BRANCH  10  17
ATOM     17  N   UNL A   1      29.574  28.122  22.934  1.00  0.00    -0.332 N 
ATOM     18  C   UNL A   1      28.883  26.960  23.529  1.00  0.00     0.333 C 
ATOM     19  H   UNL A   1      29.992  27.979  22.015  1.00  0.00     0.348 HD
BRANCH  17  20
ATOM     20  C   UNL A   1      28.575  29.161  22.574  1.00  0.00     0.184 C 
ATOM     21  C   UNL A   1      27.136  28.973  23.084  1.00  0.00     0.075 C 
BRANCH  20  22
ATOM     22  C   UNL A   1      28.936  30.631  22.623  1.00  0.00     0.047 C 
ATOM     23  C   UNL A   1      27.930  31.751  22.632  1.00  0.00     0.010 C 
ATOM     24  C   UNL A   1      28.818  31.520  23.833  1.00  0.00     0.010 C 
ENDBRANCH  20  22
ENDBRANCH  17  20
ENDBRANCH  10  17
ENDBRANCH   3   6
ENDBRANCH   1   2
BRANCH   1  25
ATOM     25  C   UNL A   1      31.487  32.137  26.879  1.00  0.00     0.042 C 
BRANCH  25  26
ATOM     26  C   UNL A   1      32.770  32.950  26.882  1.00  0.00     0.118 C 
BRANCH  26  27
ATOM     27  N   UNL A   1      32.613  34.203  27.614  1.00  0.00    -0.352 N 
ATOM     28  C   UNL A   1      33.160  34.630  28.799  1.00  0.00     0.251 C 
ATOM     29  H   UNL A   1      32.011  34.853  27.185  1.00  0.00     0.163 HD
ATOM     30  O   UNL A   1      32.675  35.604  29.367  1.00  0.00    -0.269 OA
BRANCH  28  31
ATOM     31  C   UNL A   1      34.321  33.935  29.400  1.00  0.00     0.039 A 
ATOM     32  C   UNL A   1      35.614  34.341  29.050  1.00  0.00     0.014 A 
ATOM     33  C   UNL A   1      34.149  32.847  30.256  1.00  0.00     0.014 A 
ATOM     34  C   UNL A   1      36.722  33.687  29.597  1.00  0.00     0.010 A 
ATOM     35  C   UNL A   1      35.245  32.278  30.892  1.00  0.00     0.010 A 
ATOM     36  C   UNL A   1      36.545  32.670  30.546  1.00  0.00    -0.014 A 
BRANCH  36  37
ATOM     37  C   UNL A   1      37.694  31.952  31.154  1.00  0.00     0.031 A 
ATOM     38  C   UNL A   1      38.140  32.308  32.548  1.00  0.00     0.074 A 
ATOM     39  C   UNL A   1      38.382  31.050  30.430  1.00  0.00     0.049 A 
ATOM     40  N   UNL A   1      39.193  31.902  33.213  1.00  0.00    -0.248 NA
ATOM     41  C   UNL A   1      37.318  33.289  33.276  1.00  0.00     0.031 C 
ATOM     42  C   UNL A   1      38.081  30.664  29.050  1.00  0.00     0.029 A 
ATOM     43  N   UNL A   1      39.486  30.303  30.750  1.00  0.00    -0.354 N 
ATOM     44  C   UNL A   1      39.176  32.605  34.411  1.00  0.00     0.074 A 
ATOM     45  C   UNL A   1      38.046  33.505  34.360  1.00  0.00     0.031 C 
ATOM     46  C   UNL A   1      38.962  29.732  28.652  1.00  0.00     0.029 A 
ATOM     47  C   UNL A   1      39.912  29.484  29.732  1.00  0.00     0.049 A 
ATOM     48  H   UNL A   1      39.933  30.349  31.626  1.00  0.00     0.167 HD
ATOM     49  C   UNL A   1      40.011  32.490  35.471  1.00  0.00     0.037 A 
ATOM     50  C   UNL A   1      40.953  28.632  29.679  1.00  0.00     0.037 A 
ATOM     51  C   UNL A   1      41.096  31.549  35.538  1.00  0.00     0.049 A 
ATOM     52  C   UNL A   1      41.839  28.489  30.886  1.00  0.00     0.074 A 
ATOM     53  C   UNL A   1      41.954  31.291  36.592  1.00  0.00     0.029 A 
ATOM     54  N   UNL A   1      41.462  30.698  34.504  1.00  0.00    -0.354 N 
ATOM     55  N   UNL A   1      41.777  29.114  32.037  1.00  0.00    -0.248 NA
ATOM     56  C   UNL A   1      42.934  27.515  30.791  1.00  0.00     0.031 C 
ATOM     57  C   UNL A   1      42.860  30.307  36.185  1.00  0.00     0.029 A 
ATOM     58  C   UNL A   1      42.540  29.921  34.893  1.00  0.00     0.049 A 
ATOM     59  H   UNL A   1      41.020  30.653  33.626  1.00  0.00     0.167 HD
ATOM     60  C   UNL A   1      42.805  28.594  32.811  1.00  0.00     0.074 A 
ATOM     61  C   UNL A   1      43.466  27.589  32.003  1.00  0.00     0.031 C 
ATOM     62  C   UNL A   1      43.171  28.918  34.074  1.00  0.00     0.037 A 
BRANCH  49  63
ATOM     63  C   UNL A   1      39.770  33.392  36.647  1.00  0.00     0.064 A 
ATOM     64  C   UNL A   1      40.417  34.632  36.771  1.00  0.00     0.173 A 
ATOM     65  C   UNL A   1      38.864  33.024  37.654  1.00  0.00     0.173 A 
ATOM     66  F   UNL A   1      41.303  35.025  35.842  1.00  0.00    -0.203 F 
ATOM     67  C   UNL A   1      40.193  35.452  37.873  1.00  0.00     0.198 A 
ATOM     68  C   UNL A   1      38.618  33.862  38.740  1.00  0.00     0.198 A 
ATOM     69  F   UNL A   1      38.214  31.853  37.585  1.00  0.00    -0.203 F 
ATOM     70  F   UNL A   1      40.867  36.604  37.995  1.00  0.00    -0.200 F 
ATOM     71  C   UNL A   1      39.290  35.070  38.853  1.00  0.00     0.200 A 
ATOM     72  F   UNL A   1      37.736  33.498  39.680  1.00  0.00    -0.200 F 
ATOM     73  F   UNL A   1      39.073  35.863  39.911  1.00  0.00    -0.200 F 
ENDBRANCH  49  63
BRANCH  50  74
ATOM     74  C   UNL A   1      41.186  27.822  28.456  1.00  0.00     0.064 A 
ATOM     75  C   UNL A   1      40.572  26.571  28.299  1.00  0.00     0.173 A 
ATOM     76  C   UNL A   1      42.012  28.278  27.420  1.00  0.00     0.173 A 
ATOM     77  F   UNL A   1      39.786  26.084  29.272  1.00  0.00    -0.203 F 
ATOM     78  C   UNL A   1      40.791  25.799  27.161  1.00  0.00     0.198 A 
ATOM     79  C   UNL A   1      42.208  27.517  26.269  1.00  0.00     0.198 A 
ATOM     80  F   UNL A   1      42.615  29.473  27.517  1.00  0.00    -0.203 F 
ATOM     81  F   UNL A   1      40.223  24.591  27.054  1.00  0.00    -0.200 F 
ATOM     82  C   UNL A   1      41.604  26.275  26.144  1.00  0.00     0.200 A 
ATOM     83  F   UNL A   1      42.982  27.988  25.281  1.00  0.00    -0.200 F 
ATOM     84  F   UNL A   1      41.808  25.536  25.045  1.00  0.00    -0.200 F 
ENDBRANCH  50  74
BRANCH  62  85
ATOM     85  C   UNL A   1      44.314  28.154  34.673  1.00  0.00     0.064 A 
ATOM     86  C   UNL A   1      45.633  28.624  34.594  1.00  0.00     0.173 A 
ATOM     87  C   UNL A   1      44.078  26.962  35.375  1.00  0.00     0.173 A 
ATOM     88  F   UNL A   1      45.908  29.751  33.921  1.00  0.00    -0.203 F 
ATOM     89  C   UNL A   1      46.679  27.915  35.177  1.00  0.00     0.198 A 
ATOM     90  C   UNL A   1      45.123  26.271  35.979  1.00  0.00     0.198 A 
ATOM     91  F   UNL A   1      42.832  26.476  35.484  1.00  0.00    -0.203 F 
ATOM     92  F   UNL A   1      47.936  28.358  35.052  1.00  0.00    -0.200 F 
ATOM     93  C   UNL A   1      46.422  26.744  35.875  1.00  0.00     0.200 A 
ATOM     94  F   UNL A   1      44.872  25.146  36.665  1.00  0.00    -0.200 F 
ATOM     95  F   UNL A   1      47.430  26.066  36.442  1.00  0.00    -0.200 F 
ENDBRANCH  62  85
ENDBRANCH  36  37
ENDBRANCH  28  31
ENDBRANCH  26  27
ENDBRANCH  25  26
ENDBRANCH   1  25
TORSDOF 15
ENDMDL
