MODEL 1
REMARK VINA RESULT:     -12.5      0.000      0.000
REMARK SMILES CC1=C(C#N)c2nc(N)c(C#N)c(C)c2/C1=C\c1ccc(OCC(=O)NCCCNC(=O)c2ccc(-c3c4nc(c(-c5c(F)c(F)c(F)c(F)c5F)c5ccc([nH]5)c(-c5c(F)c(F)c(F)c(F)c5F)c5nc(c(-c6c(F)c(F)c(F)c(F)c6F)c6ccc3[nH]6)C=C5)C=C4)cc2)c(Cl)c1
REMARK SMILES IDX 27 1 26 2 24 3 25 4 23 6 22 7 21 8 18 9 19 10 98 11 20 12
REMARK SMILES IDX 96 13 97 14 17 15 1 16 2 17 3 18 16 19 6 20 15 21 7 22 13 23
REMARK SMILES IDX 8 24 10 25 14 26 4 27 5 28 9 29 11 32 12 33 28 34 29 35
REMARK SMILES IDX 30 36 31 37 32 39 33 40 34 41 95 42 35 43 94 44 36 45 37 46
REMARK SMILES IDX 38 47 88 48 39 49 93 50 87 51 89 52 40 53 92 54 86 55 85 56
REMARK SMILES IDX 41 58 73 59 53 60 72 61 54 62 57 63 71 64 90 65 55 66 56 67
REMARK SMILES IDX 70 69 91 70 58 71 42 72 43 73 51 74 44 75 45 76 49 77 52 78
REMARK SMILES IDX 46 79 47 80 50 81 48 82 74 83 75 84 83 85 76 86 77 87 81 88
REMARK SMILES IDX 84 89 78 90 79 91 82 92 80 93 59 94 60 95 68 96 61 97 62 98
REMARK SMILES IDX 66 99 69 100 63 101 64 102 67 103 65 104
REMARK H PARENT 26 5 9 30 9 31 30 38 89 57 57 68
REMARK Flexibility Score: inf
ROOT
ATOM      1  C   UNL A   1      33.442  29.151  24.983  1.00  0.00     0.117 C 
ENDROOT
BRANCH   1   2
ATOM      2  N   UNL A   1      33.990  28.770  23.697  1.00  0.00    -0.353 N 
ATOM      3  C   UNL A   1      33.373  28.177  22.632  1.00  0.00     0.257 C 
ATOM      4  O   UNL A   1      34.051  27.966  21.625  1.00  0.00    -0.271 OA
ATOM      5  H   UNL A   1      34.946  28.967  23.571  1.00  0.00     0.163 HD
BRANCH   3   6
ATOM      6  C   UNL A   1      31.872  27.843  22.693  1.00  0.00     0.329 C 
BRANCH   6   7
ATOM      7  O   UNL A   1      31.386  26.636  22.129  1.00  0.00    -0.482 OA
BRANCH   7   8
ATOM      8  C   UNL A   1      31.620  25.433  22.736  1.00  0.00     0.138 A 
ATOM      9  C   UNL A   1      32.141  22.747  23.452  1.00  0.00    -0.023 A 
ATOM     10  C   UNL A   1      32.844  23.337  22.401  1.00  0.00     0.012 A 
ATOM     11  C   UNL A   1      31.326  23.553  24.252  1.00  0.00     0.032 A 
ATOM     12  C   UNL A   1      32.570  24.663  22.041  1.00  0.00     0.048 A 
ATOM     13  C   UNL A   1      31.074  24.896  23.910  1.00  0.00     0.083 A 
ATOM     14  Cl  UNL A   1      30.092  25.771  25.025  1.00  0.00    -0.080 Cl
BRANCH   9  15
ATOM     15  C   UNL A   1      32.215  21.300  23.687  1.00  0.00     0.017 C 
ATOM     16  C   UNL A   1      31.989  18.273  23.838  1.00  0.00     0.046 C 
ATOM     17  C   UNL A   1      33.211  19.075  24.149  1.00  0.00    -0.023 C 
ATOM     18  C   UNL A   1      34.426  18.588  24.473  1.00  0.00     0.082 C 
ATOM     19  C   UNL A   1      33.265  20.566  24.120  1.00  0.00    -0.011 C 
ATOM     20  C   UNL A   1      35.320  19.725  24.711  1.00  0.00     0.092 A 
ATOM     21  C   UNL A   1      34.645  20.947  24.556  1.00  0.00     0.014 A 
ATOM     22  N   UNL A   1      36.605  19.565  25.088  1.00  0.00    -0.228 NA
ATOM     23  C   UNL A   1      35.360  22.104  24.885  1.00  0.00    -0.019 A 
ATOM     24  C   UNL A   1      37.310  20.692  25.305  1.00  0.00     0.142 A 
ATOM     25  C   UNL A   1      36.736  21.966  25.207  1.00  0.00     0.098 A 
ATOM     26  C   UNL A   1      34.766  23.475  24.939  1.00  0.00     0.046 C 
BRANCH  18  27
ATOM     27  C   UNL A   1      34.820  17.128  24.626  1.00  0.00     0.102 C 
ATOM     28  N   UNL A   1      35.148  15.916  24.754  1.00  0.00    -0.192 NA
ENDBRANCH  18  27
BRANCH  24  29
ATOM     29  N   UNL A   1      38.605  20.502  25.747  1.00  0.00    -0.383 N 
ATOM     30  H   UNL A   1      38.861  19.650  26.169  1.00  0.00     0.158 HD
ATOM     31  H   UNL A   1      39.272  21.218  25.640  1.00  0.00     0.158 HD
ENDBRANCH  24  29
BRANCH  25  32
ATOM     32  C   UNL A   1      37.552  23.124  25.454  1.00  0.00     0.103 C 
ATOM     33  N   UNL A   1      38.211  24.048  25.691  1.00  0.00    -0.192 NA
ENDBRANCH  25  32
ENDBRANCH   9  15
ENDBRANCH   7   8
ENDBRANCH   6   7
ENDBRANCH   3   6
ENDBRANCH   1   2
BRANCH   1  34
ATOM     34  C   UNL A   1      33.670  28.077  26.039  1.00  0.00     0.042 C 
BRANCH  34  35
ATOM     35  C   UNL A   1      33.534  28.571  27.477  1.00  0.00     0.118 C 
BRANCH  35  36
ATOM     36  N   UNL A   1      33.612  30.020  27.601  1.00  0.00    -0.352 N 
ATOM     37  C   UNL A   1      34.637  30.817  28.049  1.00  0.00     0.251 C 
ATOM     38  H   UNL A   1      32.803  30.505  27.319  1.00  0.00     0.163 HD
ATOM     39  O   UNL A   1      34.459  32.022  28.198  1.00  0.00    -0.269 OA
BRANCH  37  40
ATOM     40  C   UNL A   1      35.946  30.223  28.393  1.00  0.00     0.039 A 
ATOM     41  C   UNL A   1      36.945  30.189  27.416  1.00  0.00     0.014 A 
ATOM     42  C   UNL A   1      36.192  29.704  29.667  1.00  0.00     0.014 A 
ATOM     43  C   UNL A   1      38.212  29.706  27.741  1.00  0.00     0.010 A 
ATOM     44  C   UNL A   1      37.481  29.308  30.014  1.00  0.00     0.010 A 
ATOM     45  C   UNL A   1      38.502  29.301  29.054  1.00  0.00    -0.014 A 
BRANCH  45  46
ATOM     46  C   UNL A   1      39.868  28.854  29.431  1.00  0.00     0.031 A 
ATOM     47  C   UNL A   1      40.699  29.680  30.369  1.00  0.00     0.074 A 
ATOM     48  C   UNL A   1      40.368  27.719  28.908  1.00  0.00     0.049 A 
ATOM     49  N   UNL A   1      41.915  29.464  30.806  1.00  0.00    -0.248 NA
ATOM     50  C   UNL A   1      40.094  30.924  30.870  1.00  0.00     0.031 C 
ATOM     51  C   UNL A   1      39.665  26.843  27.971  1.00  0.00     0.029 A 
ATOM     52  N   UNL A   1      41.580  27.102  29.095  1.00  0.00    -0.354 N 
ATOM     53  C   UNL A   1      42.211  30.536  31.637  1.00  0.00     0.074 A 
ATOM     54  C   UNL A   1      41.086  31.443  31.576  1.00  0.00     0.031 C 
ATOM     55  C   UNL A   1      40.436  25.778  27.704  1.00  0.00     0.029 A 
ATOM     56  C   UNL A   1      41.706  25.918  28.413  1.00  0.00     0.049 A 
ATOM     57  H   UNL A   1      42.290  27.474  29.666  1.00  0.00     0.167 HD
ATOM     58  C   UNL A   1      43.304  30.728  32.413  1.00  0.00     0.037 A 
ATOM     59  C   UNL A   1      42.728  25.041  28.366  1.00  0.00     0.037 A 
ATOM     60  C   UNL A   1      44.425  29.827  32.463  1.00  0.00     0.049 A 
ATOM     61  C   UNL A   1      43.969  25.316  29.171  1.00  0.00     0.074 A 
ATOM     62  C   UNL A   1      45.578  29.926  33.222  1.00  0.00     0.029 A 
ATOM     63  N   UNL A   1      44.538  28.661  31.717  1.00  0.00    -0.354 N 
ATOM     64  N   UNL A   1      44.220  26.306  29.991  1.00  0.00    -0.248 NA
ATOM     65  C   UNL A   1      45.067  24.349  29.044  1.00  0.00     0.031 C 
ATOM     66  C   UNL A   1      46.413  28.857  32.888  1.00  0.00     0.029 A 
ATOM     67  C   UNL A   1      45.754  28.050  31.974  1.00  0.00     0.049 A 
ATOM     68  H   UNL A   1      43.854  28.319  31.096  1.00  0.00     0.167 HD
ATOM     69  C   UNL A   1      45.490  26.071  30.500  1.00  0.00     0.074 A 
ATOM     70  C   UNL A   1      45.952  24.833  29.906  1.00  0.00     0.031 C 
ATOM     71  C   UNL A   1      46.206  26.816  31.378  1.00  0.00     0.037 A 
BRANCH  58  72
ATOM     72  C   UNL A   1      43.331  31.959  33.275  1.00  0.00     0.064 A 
ATOM     73  C   UNL A   1      43.861  33.172  32.803  1.00  0.00     0.173 A 
ATOM     74  C   UNL A   1      42.804  31.941  34.574  1.00  0.00     0.173 A 
ATOM     75  F   UNL A   1      44.388  33.245  31.571  1.00  0.00    -0.203 F 
ATOM     76  C   UNL A   1      43.898  34.304  33.612  1.00  0.00     0.198 A 
ATOM     77  C   UNL A   1      42.804  33.087  35.366  1.00  0.00     0.198 A 
ATOM     78  F   UNL A   1      42.276  30.814  35.075  1.00  0.00    -0.203 F 
ATOM     79  F   UNL A   1      44.468  35.430  33.160  1.00  0.00    -0.200 F 
ATOM     80  C   UNL A   1      43.362  34.264  34.889  1.00  0.00     0.200 A 
ATOM     81  F   UNL A   1      42.269  33.051  36.594  1.00  0.00    -0.200 F 
ATOM     82  F   UNL A   1      43.390  35.356  35.665  1.00  0.00    -0.200 F 
ENDBRANCH  58  72
BRANCH  59  83
ATOM     83  C   UNL A   1      42.582  23.793  27.571  1.00  0.00     0.064 A 
ATOM     84  C   UNL A   1      42.966  23.758  26.223  1.00  0.00     0.173 A 
ATOM     85  C   UNL A   1      42.113  22.602  28.147  1.00  0.00     0.173 A 
ATOM     86  F   UNL A   1      43.403  24.875  25.623  1.00  0.00    -0.203 F 
ATOM     87  C   UNL A   1      42.890  22.581  25.482  1.00  0.00     0.198 A 
ATOM     88  C   UNL A   1      42.065  21.419  27.413  1.00  0.00     0.198 A 
ATOM     89  F   UNL A   1      41.737  22.580  29.433  1.00  0.00    -0.203 F 
ATOM     90  F   UNL A   1      43.243  22.581  24.190  1.00  0.00    -0.200 F 
ATOM     91  C   UNL A   1      42.450  21.410  26.081  1.00  0.00     0.200 A 
ATOM     92  F   UNL A   1      41.658  20.285  28.001  1.00  0.00    -0.200 F 
ATOM     93  F   UNL A   1      42.401  20.271  25.375  1.00  0.00    -0.200 F 
ENDBRANCH  59  83
BRANCH  71  94
ATOM     94  C   UNL A   1      47.568  26.315  31.774  1.00  0.00     0.064 A 
ATOM     95  C   UNL A   1      47.747  25.466  32.876  1.00  0.00     0.173 A 
ATOM     96  C   UNL A   1      48.693  26.620  30.992  1.00  0.00     0.173 A 
ATOM     97  F   UNL A   1      46.707  25.152  33.665  1.00  0.00    -0.203 F 
ATOM     98  C   UNL A   1      49.003  24.951  33.186  1.00  0.00     0.198 A 
ATOM     99  C   UNL A   1      49.940  26.074  31.284  1.00  0.00     0.198 A 
ATOM    100  F   UNL A   1      48.577  27.422  29.923  1.00  0.00    -0.203 F 
ATOM    101  F   UNL A   1      49.157  24.172  34.267  1.00  0.00    -0.200 F 
ATOM    102  C   UNL A   1      50.095  25.244  32.384  1.00  0.00     0.200 A 
ATOM    103  F   UNL A   1      50.989  26.342  30.495  1.00  0.00    -0.200 F 
ATOM    104  F   UNL A   1      51.298  24.729  32.672  1.00  0.00    -0.200 F 
ENDBRANCH  71  94
ENDBRANCH  45  46
ENDBRANCH  37  40
ENDBRANCH  35  36
ENDBRANCH  34  35
ENDBRANCH   1  34
TORSDOF 16
ENDMDL
MODEL 2
REMARK VINA RESULT:     -12.2      2.218      3.224
REMARK SMILES CC1=C(C#N)c2nc(N)c(C#N)c(C)c2/C1=C\c1ccc(OCC(=O)NCCCNC(=O)c2ccc(-c3c4nc(c(-c5c(F)c(F)c(F)c(F)c5F)c5ccc([nH]5)c(-c5c(F)c(F)c(F)c(F)c5F)c5nc(c(-c6c(F)c(F)c(F)c(F)c6F)c6ccc3[nH]6)C=C5)C=C4)cc2)c(Cl)c1
REMARK SMILES IDX 27 1 26 2 24 3 25 4 23 6 22 7 21 8 18 9 19 10 98 11 20 12
REMARK SMILES IDX 96 13 97 14 17 15 1 16 2 17 3 18 16 19 6 20 15 21 7 22 13 23
REMARK SMILES IDX 8 24 10 25 14 26 4 27 5 28 9 29 11 32 12 33 28 34 29 35
REMARK SMILES IDX 30 36 31 37 32 39 33 40 34 41 95 42 35 43 94 44 36 45 37 46
REMARK SMILES IDX 38 47 88 48 39 49 93 50 87 51 89 52 40 53 92 54 86 55 85 56
REMARK SMILES IDX 41 58 73 59 53 60 72 61 54 62 57 63 71 64 90 65 55 66 56 67
REMARK SMILES IDX 70 69 91 70 58 71 42 72 43 73 51 74 44 75 45 76 49 77 52 78
REMARK SMILES IDX 46 79 47 80 50 81 48 82 74 83 75 84 83 85 76 86 77 87 81 88
REMARK SMILES IDX 84 89 78 90 79 91 82 92 80 93 59 94 60 95 68 96 61 97 62 98
REMARK SMILES IDX 66 99 69 100 63 101 64 102 67 103 65 104
REMARK H PARENT 26 5 9 30 9 31 30 38 89 57 57 68
REMARK Flexibility Score: inf
ROOT
ATOM      1  C   UNL A   1      31.521  29.114  23.903  1.00  0.00     0.117 C 
ENDROOT
BRANCH   1   2
ATOM      2  N   UNL A   1      32.708  28.751  23.155  1.00  0.00    -0.353 N 
ATOM      3  C   UNL A   1      32.910  27.706  22.300  1.00  0.00     0.257 C 
ATOM      4  O   UNL A   1      34.014  27.615  21.761  1.00  0.00    -0.271 OA
ATOM      5  H   UNL A   1      33.483  29.345  23.282  1.00  0.00     0.163 HD
BRANCH   3   6
ATOM      6  C   UNL A   1      31.767  26.720  21.998  1.00  0.00     0.329 C 
BRANCH   6   7
ATOM      7  O   UNL A   1      31.031  26.133  23.059  1.00  0.00    -0.482 OA
BRANCH   7   8
ATOM      8  C   UNL A   1      31.387  24.916  23.570  1.00  0.00     0.138 A 
ATOM      9  C   UNL A   1      32.069  22.220  24.081  1.00  0.00    -0.023 A 
ATOM     10  C   UNL A   1      32.571  22.863  22.950  1.00  0.00     0.012 A 
ATOM     11  C   UNL A   1      31.390  22.977  25.040  1.00  0.00     0.032 A 
ATOM     12  C   UNL A   1      32.217  24.193  22.693  1.00  0.00     0.048 A 
ATOM     13  C   UNL A   1      31.060  24.325  24.797  1.00  0.00     0.083 A 
ATOM     14  Cl  UNL A   1      30.269  25.136  26.097  1.00  0.00    -0.080 Cl
BRANCH   9  15
ATOM     15  C   UNL A   1      32.208  20.768  24.244  1.00  0.00     0.017 C 
ATOM     16  C   UNL A   1      32.078  17.731  24.293  1.00  0.00     0.046 C 
ATOM     17  C   UNL A   1      33.308  18.557  24.487  1.00  0.00    -0.023 C 
ATOM     18  C   UNL A   1      34.565  18.094  24.640  1.00  0.00     0.082 C 
ATOM     19  C   UNL A   1      33.321  20.048  24.515  1.00  0.00    -0.011 C 
ATOM     20  C   UNL A   1      35.454  19.247  24.816  1.00  0.00     0.092 A 
ATOM     21  C   UNL A   1      34.734  20.454  24.797  1.00  0.00     0.014 A 
ATOM     22  N   UNL A   1      36.778  19.111  25.027  1.00  0.00    -0.228 NA
ATOM     23  C   UNL A   1      35.454  21.618  25.085  1.00  0.00    -0.019 A 
ATOM     24  C   UNL A   1      37.476  20.249  25.205  1.00  0.00     0.142 A 
ATOM     25  C   UNL A   1      36.862  21.508  25.232  1.00  0.00     0.098 A 
ATOM     26  C   UNL A   1      34.838  22.968  25.269  1.00  0.00     0.046 C 
BRANCH  18  27
ATOM     27  C   UNL A   1      35.012  16.641  24.682  1.00  0.00     0.102 C 
ATOM     28  N   UNL A   1      35.382  15.436  24.718  1.00  0.00    -0.192 NA
ENDBRANCH  18  27
BRANCH  24  29
ATOM     29  N   UNL A   1      38.819  20.081  25.479  1.00  0.00    -0.383 N 
ATOM     30  H   UNL A   1      39.461  20.793  25.256  1.00  0.00     0.158 HD
ATOM     31  H   UNL A   1      39.136  19.248  25.900  1.00  0.00     0.158 HD
ENDBRANCH  24  29
BRANCH  25  32
ATOM     32  C   UNL A   1      37.673  22.680  25.428  1.00  0.00     0.103 C 
ATOM     33  N   UNL A   1      38.323  23.621  25.623  1.00  0.00    -0.192 NA
ENDBRANCH  25  32
ENDBRANCH   9  15
ENDBRANCH   7   8
ENDBRANCH   6   7
ENDBRANCH   3   6
ENDBRANCH   1   2
BRANCH   1  34
ATOM     34  C   UNL A   1      31.704  28.900  25.400  1.00  0.00     0.042 C 
BRANCH  34  35
ATOM     35  C   UNL A   1      32.944  29.573  25.983  1.00  0.00     0.118 C 
BRANCH  35  36
ATOM     36  N   UNL A   1      32.710  30.945  26.413  1.00  0.00    -0.352 N 
ATOM     37  C   UNL A   1      33.421  31.734  27.283  1.00  0.00     0.251 C 
ATOM     38  H   UNL A   1      31.917  31.374  26.017  1.00  0.00     0.163 HD
ATOM     39  O   UNL A   1      32.985  32.832  27.615  1.00  0.00    -0.269 OA
BRANCH  37  40
ATOM     40  C   UNL A   1      34.695  31.250  27.855  1.00  0.00     0.039 A 
ATOM     41  C   UNL A   1      35.768  32.140  27.954  1.00  0.00     0.014 A 
ATOM     42  C   UNL A   1      34.835  29.931  28.295  1.00  0.00     0.014 A 
ATOM     43  C   UNL A   1      36.953  31.729  28.562  1.00  0.00     0.010 A 
ATOM     44  C   UNL A   1      35.984  29.550  28.982  1.00  0.00     0.010 A 
ATOM     45  C   UNL A   1      37.056  30.444  29.119  1.00  0.00    -0.014 A 
BRANCH  45  46
ATOM     46  C   UNL A   1      38.285  30.017  29.836  1.00  0.00     0.031 A 
ATOM     47  C   UNL A   1      38.586  30.557  31.204  1.00  0.00     0.074 A 
ATOM     48  C   UNL A   1      39.142  29.166  29.243  1.00  0.00     0.049 A 
ATOM     49  N   UNL A   1      39.612  30.314  31.982  1.00  0.00    -0.248 NA
ATOM     50  C   UNL A   1      37.617  31.508  31.768  1.00  0.00     0.031 C 
ATOM     51  C   UNL A   1      38.970  28.590  27.909  1.00  0.00     0.029 A 
ATOM     52  N   UNL A   1      40.325  28.629  29.686  1.00  0.00    -0.354 N 
ATOM     53  C   UNL A   1      39.403  31.074  33.125  1.00  0.00     0.074 A 
ATOM     54  C   UNL A   1      38.203  31.849  32.906  1.00  0.00     0.031 C 
ATOM     55  C   UNL A   1      39.981  27.743  27.663  1.00  0.00     0.029 A 
ATOM     56  C   UNL A   1      40.898  27.751  28.800  1.00  0.00     0.049 A 
ATOM     57  H   UNL A   1      40.724  28.851  30.559  1.00  0.00     0.167 HD
ATOM     58  C   UNL A   1      40.125  31.093  34.271  1.00  0.00     0.037 A 
ATOM     59  C   UNL A   1      42.033  27.030  28.894  1.00  0.00     0.037 A 
ATOM     60  C   UNL A   1      41.325  30.326  34.480  1.00  0.00     0.049 A 
ATOM     61  C   UNL A   1      42.866  27.131  30.143  1.00  0.00     0.074 A 
ATOM     62  C   UNL A   1      42.125  30.269  35.607  1.00  0.00     0.029 A 
ATOM     63  N   UNL A   1      41.903  29.486  33.538  1.00  0.00    -0.354 N 
ATOM     64  N   UNL A   1      42.635  27.813  31.238  1.00  0.00    -0.248 NA
ATOM     65  C   UNL A   1      44.115  26.359  30.169  1.00  0.00     0.031 C 
ATOM     66  C   UNL A   1      43.219  29.446  35.325  1.00  0.00     0.029 A 
ATOM     67  C   UNL A   1      43.066  28.932  34.046  1.00  0.00     0.049 A 
ATOM     68  H   UNL A   1      41.539  29.310  32.640  1.00  0.00     0.167 HD
ATOM     69  C   UNL A   1      43.692  27.534  32.093  1.00  0.00     0.074 A 
ATOM     70  C   UNL A   1      44.558  26.606  31.395  1.00  0.00     0.031 C 
ATOM     71  C   UNL A   1      43.922  28.007  33.344  1.00  0.00     0.037 A 
BRANCH  58  72
ATOM     72  C   UNL A   1      39.627  31.969  35.386  1.00  0.00     0.064 A 
ATOM     73  C   UNL A   1      40.069  33.295  35.530  1.00  0.00     0.173 A 
ATOM     74  C   UNL A   1      38.681  31.494  36.306  1.00  0.00     0.173 A 
ATOM     75  F   UNL A   1      40.981  33.798  34.683  1.00  0.00    -0.203 F 
ATOM     76  C   UNL A   1      39.616  34.095  36.574  1.00  0.00     0.198 A 
ATOM     77  C   UNL A   1      38.197  32.312  37.326  1.00  0.00     0.198 A 
ATOM     78  F   UNL A   1      38.215  30.240  36.213  1.00  0.00    -0.203 F 
ATOM     79  F   UNL A   1      40.104  35.335  36.727  1.00  0.00    -0.200 F 
ATOM     80  C   UNL A   1      38.674  33.607  37.466  1.00  0.00     0.200 A 
ATOM     81  F   UNL A   1      37.273  31.845  38.175  1.00  0.00    -0.200 F 
ATOM     82  F   UNL A   1      38.231  34.381  38.467  1.00  0.00    -0.200 F 
ENDBRANCH  58  72
BRANCH  59  83
ATOM     83  C   UNL A   1      42.404  26.106  27.790  1.00  0.00     0.064 A 
ATOM     84  C   UNL A   1      41.766  24.864  27.657  1.00  0.00     0.173 A 
ATOM     85  C   UNL A   1      43.354  26.459  26.820  1.00  0.00     0.173 A 
ATOM     86  F   UNL A   1      40.865  24.473  28.569  1.00  0.00    -0.203 F 
ATOM     87  C   UNL A   1      42.062  24.014  26.594  1.00  0.00     0.198 A 
ATOM     88  C   UNL A   1      43.628  25.620  25.742  1.00  0.00     0.198 A 
ATOM     89  F   UNL A   1      43.990  27.637  26.899  1.00  0.00    -0.203 F 
ATOM     90  F   UNL A   1      41.454  22.823  26.502  1.00  0.00    -0.200 F 
ATOM     91  C   UNL A   1      42.984  24.397  25.631  1.00  0.00     0.200 A 
ATOM     92  F   UNL A   1      44.504  26.003  24.803  1.00  0.00    -0.200 F 
ATOM     93  F   UNL A   1      43.250  23.589  24.595  1.00  0.00    -0.200 F 
ENDBRANCH  59  83
BRANCH  71  94
ATOM     94  C   UNL A   1      45.152  27.524  34.060  1.00  0.00     0.064 A 
ATOM     95  C   UNL A   1      46.355  28.244  34.024  1.00  0.00     0.173 A 
ATOM     96  C   UNL A   1      45.103  26.373  34.863  1.00  0.00     0.173 A 
ATOM     97  F   UNL A   1      46.461  29.345  33.263  1.00  0.00    -0.203 F 
ATOM     98  C   UNL A   1      47.465  27.824  34.753  1.00  0.00     0.198 A 
ATOM     99  C   UNL A   1      46.203  25.975  35.618  1.00  0.00     0.198 A 
ATOM    100  F   UNL A   1      43.976  25.650  34.940  1.00  0.00    -0.203 F 
ATOM    101  F   UNL A   1      48.615  28.508  34.671  1.00  0.00    -0.200 F 
ATOM    102  C   UNL A   1      47.385  26.698  35.558  1.00  0.00     0.200 A 
ATOM    103  F   UNL A   1      46.115  24.900  36.413  1.00  0.00    -0.200 F 
ATOM    104  F   UNL A   1      48.446  26.309  36.277  1.00  0.00    -0.200 F 
ENDBRANCH  71  94
ENDBRANCH  45  46
ENDBRANCH  37  40
ENDBRANCH  35  36
ENDBRANCH  34  35
ENDBRANCH   1  34
TORSDOF 16
ENDMDL
MODEL 3
REMARK VINA RESULT:     -12.2      2.897      4.350
REMARK SMILES CC1=C(C#N)c2nc(N)c(C#N)c(C)c2/C1=C\c1ccc(OCC(=O)NCCCNC(=O)c2ccc(-c3c4nc(c(-c5c(F)c(F)c(F)c(F)c5F)c5ccc([nH]5)c(-c5c(F)c(F)c(F)c(F)c5F)c5nc(c(-c6c(F)c(F)c(F)c(F)c6F)c6ccc3[nH]6)C=C5)C=C4)cc2)c(Cl)c1
REMARK SMILES IDX 27 1 26 2 24 3 25 4 23 6 22 7 21 8 18 9 19 10 98 11 20 12
REMARK SMILES IDX 96 13 97 14 17 15 1 16 2 17 3 18 16 19 6 20 15 21 7 22 13 23
REMARK SMILES IDX 8 24 10 25 14 26 4 27 5 28 9 29 11 32 12 33 28 34 29 35
REMARK SMILES IDX 30 36 31 37 32 39 33 40 34 41 95 42 35 43 94 44 36 45 37 46
REMARK SMILES IDX 38 47 88 48 39 49 93 50 87 51 89 52 40 53 92 54 86 55 85 56
REMARK SMILES IDX 41 58 73 59 53 60 72 61 54 62 57 63 71 64 90 65 55 66 56 67
REMARK SMILES IDX 70 69 91 70 58 71 42 72 43 73 51 74 44 75 45 76 49 77 52 78
REMARK SMILES IDX 46 79 47 80 50 81 48 82 74 83 75 84 83 85 76 86 77 87 81 88
REMARK SMILES IDX 84 89 78 90 79 91 82 92 80 93 59 94 60 95 68 96 61 97 62 98
REMARK SMILES IDX 66 99 69 100 63 101 64 102 67 103 65 104
REMARK H PARENT 26 5 9 30 9 31 30 38 89 57 57 68
REMARK Flexibility Score: inf
ROOT
ATOM      1  C   UNL A   1      31.668  30.245  25.800  1.00  0.00     0.117 C 
ENDROOT
BRANCH   1   2
ATOM      2  N   UNL A   1      31.130  30.098  24.462  1.00  0.00    -0.353 N 
ATOM      3  C   UNL A   1      30.789  28.963  23.784  1.00  0.00     0.257 C 
ATOM      4  O   UNL A   1      30.327  29.094  22.649  1.00  0.00    -0.271 OA
ATOM      5  H   UNL A   1      30.990  30.939  23.970  1.00  0.00     0.163 HD
BRANCH   3   6
ATOM      6  C   UNL A   1      30.936  27.585  24.454  1.00  0.00     0.329 C 
BRANCH   6   7
ATOM      7  O   UNL A   1      32.072  26.779  24.187  1.00  0.00    -0.482 OA
BRANCH   7   8
ATOM      8  C   UNL A   1      31.942  25.436  23.962  1.00  0.00     0.138 A 
ATOM      9  C   UNL A   1      31.794  22.614  24.058  1.00  0.00    -0.023 A 
ATOM     10  C   UNL A   1      31.239  23.377  25.086  1.00  0.00     0.012 A 
ATOM     11  C   UNL A   1      32.249  23.265  22.908  1.00  0.00     0.032 A 
ATOM     12  C   UNL A   1      31.329  24.773  25.041  1.00  0.00     0.048 A 
ATOM     13  C   UNL A   1      32.311  24.672  22.848  1.00  0.00     0.083 A 
ATOM     14  Cl  UNL A   1      32.844  25.323  21.342  1.00  0.00    -0.080 Cl
BRANCH   9  15
ATOM     15  C   UNL A   1      31.945  21.161  24.198  1.00  0.00     0.017 C 
ATOM     16  C   UNL A   1      31.843  18.123  24.195  1.00  0.00     0.046 C 
ATOM     17  C   UNL A   1      33.063  18.957  24.414  1.00  0.00    -0.023 C 
ATOM     18  C   UNL A   1      34.324  18.503  24.572  1.00  0.00     0.082 C 
ATOM     19  C   UNL A   1      33.062  20.447  24.467  1.00  0.00    -0.011 C 
ATOM     20  C   UNL A   1      35.199  19.661  24.776  1.00  0.00     0.092 A 
ATOM     21  C   UNL A   1      34.468  20.861  24.770  1.00  0.00     0.014 A 
ATOM     22  N   UNL A   1      36.523  19.534  24.997  1.00  0.00    -0.228 NA
ATOM     23  C   UNL A   1      35.175  22.027  25.084  1.00  0.00    -0.019 A 
ATOM     24  C   UNL A   1      37.208  20.676  25.201  1.00  0.00     0.142 A 
ATOM     25  C   UNL A   1      36.582  21.928  25.243  1.00  0.00     0.098 A 
ATOM     26  C   UNL A   1      34.544  23.368  25.284  1.00  0.00     0.046 C 
BRANCH  18  27
ATOM     27  C   UNL A   1      34.784  17.054  24.594  1.00  0.00     0.102 C 
ATOM     28  N   UNL A   1      35.165  15.852  24.612  1.00  0.00    -0.192 NA
ENDBRANCH  18  27
BRANCH  24  29
ATOM     29  N   UNL A   1      38.551  20.515  25.485  1.00  0.00    -0.383 N 
ATOM     30  H   UNL A   1      38.855  19.734  26.000  1.00  0.00     0.158 HD
ATOM     31  H   UNL A   1      39.204  21.183  25.171  1.00  0.00     0.158 HD
ENDBRANCH  24  29
BRANCH  25  32
ATOM     32  C   UNL A   1      37.381  23.104  25.466  1.00  0.00     0.103 C 
ATOM     33  N   UNL A   1      37.994  24.069  25.661  1.00  0.00    -0.192 NA
ENDBRANCH  25  32
ENDBRANCH   9  15
ENDBRANCH   7   8
ENDBRANCH   6   7
ENDBRANCH   3   6
ENDBRANCH   1   2
BRANCH   1  34
ATOM     34  C   UNL A   1      31.419  31.639  26.362  1.00  0.00     0.042 C 
BRANCH  34  35
ATOM     35  C   UNL A   1      32.615  32.243  27.095  1.00  0.00     0.118 C 
BRANCH  35  36
ATOM     36  N   UNL A   1      32.416  33.634  27.478  1.00  0.00    -0.352 N 
ATOM     37  C   UNL A   1      33.082  34.402  28.402  1.00  0.00     0.251 C 
ATOM     38  H   UNL A   1      31.692  34.097  26.999  1.00  0.00     0.163 HD
ATOM     39  O   UNL A   1      32.677  35.528  28.672  1.00  0.00    -0.269 OA
BRANCH  37  40
ATOM     40  C   UNL A   1      34.265  33.862  29.105  1.00  0.00     0.039 A 
ATOM     41  C   UNL A   1      34.069  32.947  30.143  1.00  0.00     0.014 A 
ATOM     42  C   UNL A   1      35.559  34.250  28.746  1.00  0.00     0.014 A 
ATOM     43  C   UNL A   1      35.172  32.364  30.768  1.00  0.00     0.010 A 
ATOM     44  C   UNL A   1      36.655  33.601  29.307  1.00  0.00     0.010 A 
ATOM     45  C   UNL A   1      36.473  32.655  30.326  1.00  0.00    -0.014 A 
BRANCH  45  46
ATOM     46  C   UNL A   1      37.652  31.986  30.932  1.00  0.00     0.031 A 
ATOM     47  C   UNL A   1      38.082  32.333  32.327  1.00  0.00     0.074 A 
ATOM     48  C   UNL A   1      38.350  31.085  30.215  1.00  0.00     0.049 A 
ATOM     49  N   UNL A   1      39.091  31.867  33.022  1.00  0.00    -0.248 NA
ATOM     50  C   UNL A   1      37.288  33.351  33.031  1.00  0.00     0.031 C 
ATOM     51  C   UNL A   1      38.043  30.680  28.843  1.00  0.00     0.029 A 
ATOM     52  N   UNL A   1      39.457  30.341  30.541  1.00  0.00    -0.354 N 
ATOM     53  C   UNL A   1      39.042  32.528  34.242  1.00  0.00     0.074 A 
ATOM     54  C   UNL A   1      37.961  33.486  34.163  1.00  0.00     0.031 C 
ATOM     55  C   UNL A   1      38.908  29.727  28.463  1.00  0.00     0.029 A 
ATOM     56  C   UNL A   1      39.859  29.486  29.545  1.00  0.00     0.049 A 
ATOM     57  H   UNL A   1      39.918  30.414  31.408  1.00  0.00     0.167 HD
ATOM     58  C   UNL A   1      39.803  32.326  35.345  1.00  0.00     0.037 A 
ATOM     59  C   UNL A   1      40.878  28.604  29.509  1.00  0.00     0.037 A 
ATOM     60  C   UNL A   1      40.883  31.377  35.415  1.00  0.00     0.049 A 
ATOM     61  C   UNL A   1      41.764  28.456  30.716  1.00  0.00     0.074 A 
ATOM     62  C   UNL A   1      41.709  31.091  36.487  1.00  0.00     0.029 A 
ATOM     63  N   UNL A   1      41.292  30.564  34.367  1.00  0.00    -0.354 N 
ATOM     64  N   UNL A   1      41.679  29.049  31.882  1.00  0.00    -0.248 NA
ATOM     65  C   UNL A   1      42.885  27.514  30.601  1.00  0.00     0.031 C 
ATOM     66  C   UNL A   1      42.657  30.153  36.069  1.00  0.00     0.029 A 
ATOM     67  C   UNL A   1      42.380  29.800  34.757  1.00  0.00     0.049 A 
ATOM     68  H   UNL A   1      40.872  30.535  33.477  1.00  0.00     0.167 HD
ATOM     69  C   UNL A   1      42.716  28.534  32.649  1.00  0.00     0.074 A 
ATOM     70  C   UNL A   1      43.407  27.568  31.819  1.00  0.00     0.031 C 
ATOM     71  C   UNL A   1      43.062  28.839  33.925  1.00  0.00     0.037 A 
BRANCH  58  72
ATOM     72  C   UNL A   1      39.483  33.145  36.563  1.00  0.00     0.064 A 
ATOM     73  C   UNL A   1      38.573  32.691  37.533  1.00  0.00     0.173 A 
ATOM     74  C   UNL A   1      40.104  34.384  36.782  1.00  0.00     0.173 A 
ATOM     75  F   UNL A   1      37.942  31.518  37.371  1.00  0.00    -0.203 F 
ATOM     76  C   UNL A   1      38.269  33.463  38.651  1.00  0.00     0.198 A 
ATOM     77  C   UNL A   1      39.828  35.134  37.923  1.00  0.00     0.198 A 
ATOM     78  F   UNL A   1      40.988  34.864  35.894  1.00  0.00    -0.203 F 
ATOM     79  F   UNL A   1      37.349  33.035  39.528  1.00  0.00    -0.200 F 
ATOM     80  C   UNL A   1      38.902  34.679  38.849  1.00  0.00     0.200 A 
ATOM     81  F   UNL A   1      40.456  36.301  38.123  1.00  0.00    -0.200 F 
ATOM     82  F   UNL A   1      38.616  35.418  39.931  1.00  0.00    -0.200 F 
ENDBRANCH  58  72
BRANCH  59  83
ATOM     83  C   UNL A   1      41.064  27.755  28.303  1.00  0.00     0.064 A 
ATOM     84  C   UNL A   1      41.755  28.246  27.186  1.00  0.00     0.173 A 
ATOM     85  C   UNL A   1      40.611  26.428  28.258  1.00  0.00     0.173 A 
ATOM     86  F   UNL A   1      42.191  29.514  27.173  1.00  0.00    -0.203 F 
ATOM     87  C   UNL A   1      41.987  27.442  26.072  1.00  0.00     0.198 A 
ATOM     88  C   UNL A   1      40.870  25.616  27.156  1.00  0.00     0.198 A 
ATOM     89  F   UNL A   1      39.949  25.908  29.302  1.00  0.00    -0.203 F 
ATOM     90  F   UNL A   1      42.631  27.944  25.009  1.00  0.00    -0.200 F 
ATOM     91  C   UNL A   1      41.555  26.125  26.063  1.00  0.00     0.200 A 
ATOM     92  F   UNL A   1      40.468  24.338  27.159  1.00  0.00    -0.200 F 
ATOM     93  F   UNL A   1      41.802  25.343  25.002  1.00  0.00    -0.200 F 
ENDBRANCH  59  83
BRANCH  71  94
ATOM     94  C   UNL A   1      44.234  28.113  34.525  1.00  0.00     0.064 A 
ATOM     95  C   UNL A   1      45.521  28.671  34.528  1.00  0.00     0.173 A 
ATOM     96  C   UNL A   1      44.051  26.885  35.181  1.00  0.00     0.173 A 
ATOM     97  F   UNL A   1      45.753  29.837  33.906  1.00  0.00    -0.203 F 
ATOM     98  C   UNL A   1      46.582  28.022  35.153  1.00  0.00     0.198 A 
ATOM     99  C   UNL A   1      45.107  26.256  35.835  1.00  0.00     0.198 A 
ATOM    100  F   UNL A   1      42.840  26.310  35.215  1.00  0.00    -0.203 F 
ATOM    101  F   UNL A   1      47.811  28.556  35.109  1.00  0.00    -0.200 F 
ATOM    102  C   UNL A   1      46.372  26.822  35.817  1.00  0.00     0.200 A 
ATOM    103  F   UNL A   1      44.896  25.109  36.494  1.00  0.00    -0.200 F 
ATOM    104  F   UNL A   1      47.390  26.210  36.437  1.00  0.00    -0.200 F 
ENDBRANCH  71  94
ENDBRANCH  45  46
ENDBRANCH  37  40
ENDBRANCH  35  36
ENDBRANCH  34  35
ENDBRANCH   1  34
TORSDOF 16
ENDMDL
