MODEL 1
REMARK VINA RESULT:     -13.9      0.000      0.000
REMARK SMILES COc1ccc(NC(=O)c2nn(C)cc2C(=O)NCCCNC(=O)c2ccc(-c3c4nc(c(-c5c(F)c(F)c(F)c(F)c5F)c5ccc([nH]5)c(-c5c(F)c(F)c(F)c(F)c5F)c5nc(c(-c6c(F)c(F)c(F)c(F)c6F)c6ccc3[nH]6)C=C5)C=C4)cc2)c(C)c1
REMARK SMILES IDX 19 1 18 2 16 3 17 4 15 6 10 7 11 8 12 9 14 10 13 11 8 12
REMARK SMILES IDX 7 13 9 15 6 16 3 17 4 18 90 19 5 20 88 21 89 22 2 23 1 24
REMARK SMILES IDX 20 25 21 26 22 27 23 28 24 30 25 31 26 32 87 33 27 34 86 35
REMARK SMILES IDX 28 36 29 37 30 38 80 39 31 40 85 41 79 42 81 43 32 44 84 45
REMARK SMILES IDX 78 46 77 47 33 49 65 50 45 51 64 52 46 53 49 54 63 55 82 56
REMARK SMILES IDX 47 57 48 58 62 60 83 61 50 62 34 63 35 64 43 65 36 66 37 67
REMARK SMILES IDX 41 68 44 69 38 70 39 71 42 72 40 73 66 74 67 75 75 76 68 77
REMARK SMILES IDX 69 78 73 79 76 80 70 81 71 82 74 83 72 84 51 85 52 86 60 87
REMARK SMILES IDX 53 88 54 89 58 90 61 91 55 92 56 93 59 94 57 95
REMARK H PARENT 18 5 7 14 22 29 81 48 49 59
REMARK Flexibility Score: inf
ROOT
ATOM      1  C   UNL A   1      37.016  21.153  25.317  1.00  0.00     0.118 C 
ENDROOT
BRANCH   1   2
ATOM      2  N   UNL A   1      36.308  22.105  26.155  1.00  0.00    -0.352 N 
ATOM      3  C   UNL A   1      34.979  22.264  26.470  1.00  0.00     0.255 C 
ATOM      4  O   UNL A   1      34.730  23.084  27.354  1.00  0.00    -0.269 OA
ATOM      5  H   UNL A   1      36.897  22.769  26.584  1.00  0.00     0.163 HD
BRANCH   3   6
ATOM      6  C   UNL A   1      33.912  21.531  25.797  1.00  0.00     0.090 A 
ATOM      7  C   UNL A   1      32.503  21.842  25.870  1.00  0.00     0.163 A 
ATOM      8  N   UNL A   1      31.769  20.977  25.139  1.00  0.00    -0.167 NA
ATOM      9  N   UNL A   1      32.665  20.147  24.606  1.00  0.00    -0.274 N 
ATOM     10  C   UNL A   1      33.951  20.438  24.949  1.00  0.00     0.123 A 
ATOM     11  C   UNL A   1      32.213  19.094  23.729  1.00  0.00     0.173 C 
BRANCH   7  12
ATOM     12  C   UNL A   1      31.827  22.935  26.582  1.00  0.00     0.277 C 
ATOM     13  N   UNL A   1      31.667  24.179  26.001  1.00  0.00    -0.320 N 
ATOM     14  H   UNL A   1      31.250  24.842  26.596  1.00  0.00     0.170 HD
ATOM     15  O   UNL A   1      31.387  22.780  27.726  1.00  0.00    -0.267 OA
BRANCH  13  16
ATOM     16  C   UNL A   1      31.984  24.685  24.726  1.00  0.00     0.044 A 
ATOM     17  C   UNL A   1      32.781  25.479  22.131  1.00  0.00     0.119 A 
ATOM     18  C   UNL A   1      31.588  24.795  22.316  1.00  0.00     0.048 A 
ATOM     19  C   UNL A   1      33.530  25.838  23.251  1.00  0.00     0.052 A 
ATOM     20  C   UNL A   1      31.188  24.425  23.604  1.00  0.00     0.030 A 
ATOM     21  C   UNL A   1      33.141  25.469  24.556  1.00  0.00    -0.024 A 
ATOM     22  C   UNL A   1      34.001  25.982  25.683  1.00  0.00     0.047 C 
BRANCH  17  23
ATOM     23  O   UNL A   1      33.311  25.860  20.930  1.00  0.00    -0.497 OA
ATOM     24  C   UNL A   1      32.573  25.506  19.768  1.00  0.00     0.278 C 
ENDBRANCH  17  23
ENDBRANCH  13  16
ENDBRANCH   7  12
ENDBRANCH   3   6
ENDBRANCH   1   2
BRANCH   1  25
ATOM     25  C   UNL A   1      38.535  21.300  25.394  1.00  0.00     0.042 C 
BRANCH  25  26
ATOM     26  C   UNL A   1      38.975  22.502  26.224  1.00  0.00     0.118 C 
BRANCH  26  27
ATOM     27  N   UNL A   1      40.426  22.632  26.369  1.00  0.00    -0.352 N 
ATOM     28  C   UNL A   1      41.176  23.763  26.653  1.00  0.00     0.251 C 
ATOM     29  H   UNL A   1      40.940  21.801  26.249  1.00  0.00     0.163 HD
ATOM     30  O   UNL A   1      42.391  23.703  26.745  1.00  0.00    -0.269 OA
BRANCH  28  31
ATOM     31  C   UNL A   1      40.465  25.028  26.948  1.00  0.00     0.039 A 
ATOM     32  C   UNL A   1      40.779  26.167  26.195  1.00  0.00     0.014 A 
ATOM     33  C   UNL A   1      39.678  25.128  28.089  1.00  0.00     0.014 A 
ATOM     34  C   UNL A   1      40.513  27.426  26.730  1.00  0.00     0.010 A 
ATOM     35  C   UNL A   1      39.515  26.368  28.669  1.00  0.00     0.010 A 
ATOM     36  C   UNL A   1      39.992  27.516  28.021  1.00  0.00    -0.014 A 
BRANCH  36  37
ATOM     37  C   UNL A   1      40.036  28.730  28.831  1.00  0.00     0.031 A 
ATOM     38  C   UNL A   1      38.987  29.768  28.720  1.00  0.00     0.074 A 
ATOM     39  C   UNL A   1      40.955  28.835  29.819  1.00  0.00     0.049 A 
ATOM     40  N   UNL A   1      39.118  30.975  29.163  1.00  0.00    -0.248 NA
ATOM     41  C   UNL A   1      37.704  29.535  28.069  1.00  0.00     0.031 C 
ATOM     42  C   UNL A   1      40.923  29.754  30.956  1.00  0.00     0.029 A 
ATOM     43  N   UNL A   1      42.227  28.239  29.893  1.00  0.00    -0.354 N 
ATOM     44  C   UNL A   1      37.883  31.577  29.124  1.00  0.00     0.074 A 
ATOM     45  C   UNL A   1      37.050  30.660  28.378  1.00  0.00     0.031 C 
ATOM     46  C   UNL A   1      42.169  29.909  31.424  1.00  0.00     0.029 A 
ATOM     47  C   UNL A   1      43.056  29.209  30.515  1.00  0.00     0.049 A 
ATOM     48  H   UNL A   1      42.486  27.342  29.582  1.00  0.00     0.167 HD
ATOM     49  C   UNL A   1      37.677  32.728  29.830  1.00  0.00     0.037 A 
ATOM     50  C   UNL A   1      44.118  29.769  29.864  1.00  0.00     0.037 A 
ATOM     51  C   UNL A   1      38.897  33.185  30.495  1.00  0.00     0.049 A 
ATOM     52  C   UNL A   1      44.067  31.274  29.723  1.00  0.00     0.074 A 
ATOM     53  C   UNL A   1      39.370  33.140  31.797  1.00  0.00     0.029 A 
ATOM     54  N   UNL A   1      39.968  33.581  29.719  1.00  0.00    -0.354 N 
ATOM     55  N   UNL A   1      43.058  32.009  30.093  1.00  0.00    -0.248 NA
ATOM     56  C   UNL A   1      45.104  32.058  29.049  1.00  0.00     0.031 C 
ATOM     57  C   UNL A   1      40.728  33.565  31.795  1.00  0.00     0.029 A 
ATOM     58  C   UNL A   1      41.080  33.848  30.489  1.00  0.00     0.049 A 
ATOM     59  H   UNL A   1      39.941  33.662  28.738  1.00  0.00     0.167 HD
ATOM     60  C   UNL A   1      43.252  33.296  29.670  1.00  0.00     0.074 A 
ATOM     61  C   UNL A   1      44.552  33.283  29.029  1.00  0.00     0.031 C 
ATOM     62  C   UNL A   1      42.305  34.263  29.832  1.00  0.00     0.037 A 
BRANCH  49  63
ATOM     63  C   UNL A   1      36.318  33.333  30.111  1.00  0.00     0.064 A 
ATOM     64  C   UNL A   1      35.558  33.918  29.074  1.00  0.00     0.173 A 
ATOM     65  C   UNL A   1      35.719  33.399  31.381  1.00  0.00     0.173 A 
ATOM     66  F   UNL A   1      35.922  33.816  27.790  1.00  0.00    -0.203 F 
ATOM     67  C   UNL A   1      34.381  34.631  29.314  1.00  0.00     0.198 A 
ATOM     68  C   UNL A   1      34.573  34.160  31.633  1.00  0.00     0.198 A 
ATOM     69  F   UNL A   1      36.180  32.674  32.408  1.00  0.00    -0.203 F 
ATOM     70  F   UNL A   1      33.711  35.172  28.286  1.00  0.00    -0.200 F 
ATOM     71  C   UNL A   1      33.911  34.791  30.599  1.00  0.00     0.200 A 
ATOM     72  F   UNL A   1      34.111  34.271  32.886  1.00  0.00    -0.200 F 
ATOM     73  F   UNL A   1      32.812  35.518  30.838  1.00  0.00    -0.200 F 
ENDBRANCH  49  63
BRANCH  50  74
ATOM     74  C   UNL A   1      44.734  28.844  28.880  1.00  0.00     0.064 A 
ATOM     75  C   UNL A   1      45.582  27.828  29.361  1.00  0.00     0.173 A 
ATOM     76  C   UNL A   1      44.201  28.695  27.596  1.00  0.00     0.173 A 
ATOM     77  F   UNL A   1      46.111  27.921  30.592  1.00  0.00    -0.203 F 
ATOM     78  C   UNL A   1      45.784  26.656  28.637  1.00  0.00     0.198 A 
ATOM     79  C   UNL A   1      44.418  27.527  26.867  1.00  0.00     0.198 A 
ATOM     80  F   UNL A   1      43.369  29.621  27.095  1.00  0.00    -0.203 F 
ATOM     81  F   UNL A   1      46.492  25.652  29.173  1.00  0.00    -0.200 F 
ATOM     82  C   UNL A   1      45.177  26.495  27.403  1.00  0.00     0.200 A 
ATOM     83  F   UNL A   1      43.807  27.356  25.686  1.00  0.00    -0.200 F 
ATOM     84  F   UNL A   1      45.282  25.329  26.750  1.00  0.00    -0.200 F 
ENDBRANCH  50  74
BRANCH  62  85
ATOM     85  C   UNL A   1      42.449  35.684  29.376  1.00  0.00     0.064 A 
ATOM     86  C   UNL A   1      41.912  36.146  28.165  1.00  0.00     0.173 A 
ATOM     87  C   UNL A   1      43.255  36.597  30.089  1.00  0.00     0.173 A 
ATOM     88  F   UNL A   1      41.174  35.338  27.390  1.00  0.00    -0.203 F 
ATOM     89  C   UNL A   1      42.146  37.447  27.713  1.00  0.00     0.198 A 
ATOM     90  C   UNL A   1      43.529  37.877  29.611  1.00  0.00     0.198 A 
ATOM     91  F   UNL A   1      43.783  36.281  31.280  1.00  0.00    -0.203 F 
ATOM     92  F   UNL A   1      41.581  37.866  26.572  1.00  0.00    -0.200 F 
ATOM     93  C   UNL A   1      42.964  38.306  28.427  1.00  0.00     0.200 A 
ATOM     94  F   UNL A   1      44.337  38.688  30.307  1.00  0.00    -0.200 F 
ATOM     95  F   UNL A   1      43.207  39.545  27.977  1.00  0.00    -0.200 F 
ENDBRANCH  62  85
ENDBRANCH  36  37
ENDBRANCH  28  31
ENDBRANCH  26  27
ENDBRANCH  25  26
ENDBRANCH   1  25
TORSDOF 13
ENDMDL
MODEL 2
REMARK VINA RESULT:     -13.7      3.824      9.836
REMARK SMILES COc1ccc(NC(=O)c2nn(C)cc2C(=O)NCCCNC(=O)c2ccc(-c3c4nc(c(-c5c(F)c(F)c(F)c(F)c5F)c5ccc([nH]5)c(-c5c(F)c(F)c(F)c(F)c5F)c5nc(c(-c6c(F)c(F)c(F)c(F)c6F)c6ccc3[nH]6)C=C5)C=C4)cc2)c(C)c1
REMARK SMILES IDX 19 1 18 2 16 3 17 4 15 6 10 7 11 8 12 9 14 10 13 11 8 12
REMARK SMILES IDX 7 13 9 15 6 16 3 17 4 18 90 19 5 20 88 21 89 22 2 23 1 24
REMARK SMILES IDX 20 25 21 26 22 27 23 28 24 30 25 31 26 32 87 33 27 34 86 35
REMARK SMILES IDX 28 36 29 37 30 38 80 39 31 40 85 41 79 42 81 43 32 44 84 45
REMARK SMILES IDX 78 46 77 47 33 49 65 50 45 51 64 52 46 53 49 54 63 55 82 56
REMARK SMILES IDX 47 57 48 58 62 60 83 61 50 62 34 63 35 64 43 65 36 66 37 67
REMARK SMILES IDX 41 68 44 69 38 70 39 71 42 72 40 73 66 74 67 75 75 76 68 77
REMARK SMILES IDX 69 78 73 79 76 80 70 81 71 82 74 83 72 84 51 85 52 86 60 87
REMARK SMILES IDX 53 88 54 89 58 90 61 91 55 92 56 93 59 94 57 95
REMARK H PARENT 18 5 7 14 22 29 81 48 49 59
REMARK Flexibility Score: inf
ROOT
ATOM      1  C   UNL A   1      31.899  29.054  27.398  1.00  0.00     0.118 C 
ENDROOT
BRANCH   1   2
ATOM      2  N   UNL A   1      31.522  27.651  27.400  1.00  0.00    -0.352 N 
ATOM      3  C   UNL A   1      31.636  26.652  26.461  1.00  0.00     0.255 C 
ATOM      4  O   UNL A   1      31.361  25.516  26.848  1.00  0.00    -0.269 OA
ATOM      5  H   UNL A   1      31.102  27.356  28.240  1.00  0.00     0.163 HD
BRANCH   3   6
ATOM      6  C   UNL A   1      32.037  26.904  25.081  1.00  0.00     0.090 A 
ATOM      7  C   UNL A   1      31.359  26.410  23.905  1.00  0.00     0.163 A 
ATOM      8  N   UNL A   1      31.975  26.812  22.775  1.00  0.00    -0.167 NA
ATOM      9  N   UNL A   1      33.004  27.546  23.199  1.00  0.00    -0.274 N 
ATOM     10  C   UNL A   1      33.080  27.648  24.555  1.00  0.00     0.123 A 
ATOM     11  C   UNL A   1      33.874  28.164  22.228  1.00  0.00     0.173 C 
BRANCH   7  12
ATOM     12  C   UNL A   1      30.141  25.593  23.808  1.00  0.00     0.277 C 
ATOM     13  N   UNL A   1      30.195  24.213  23.877  1.00  0.00    -0.320 N 
ATOM     14  H   UNL A   1      29.323  23.777  23.745  1.00  0.00     0.170 HD
ATOM     15  O   UNL A   1      29.031  26.113  23.656  1.00  0.00    -0.267 OA
BRANCH  13  16
ATOM     16  C   UNL A   1      31.251  23.309  24.097  1.00  0.00     0.044 A 
ATOM     17  C   UNL A   1      33.218  21.300  24.411  1.00  0.00     0.119 A 
ATOM     18  C   UNL A   1      33.298  22.197  23.355  1.00  0.00     0.048 A 
ATOM     19  C   UNL A   1      32.203  21.462  25.353  1.00  0.00     0.052 A 
ATOM     20  C   UNL A   1      32.335  23.202  23.218  1.00  0.00     0.030 A 
ATOM     21  C   UNL A   1      31.223  22.469  25.227  1.00  0.00    -0.024 A 
ATOM     22  C   UNL A   1      30.227  22.580  26.352  1.00  0.00     0.047 C 
BRANCH  17  23
ATOM     23  O   UNL A   1      34.061  20.249  24.638  1.00  0.00    -0.497 OA
ATOM     24  C   UNL A   1      33.529  18.948  24.421  1.00  0.00     0.278 C 
ENDBRANCH  17  23
ENDBRANCH  13  16
ENDBRANCH   7  12
ENDBRANCH   3   6
ENDBRANCH   1   2
BRANCH   1  25
ATOM     25  C   UNL A   1      33.347  29.286  27.828  1.00  0.00     0.042 C 
BRANCH  25  26
ATOM     26  C   UNL A   1      33.937  30.573  27.263  1.00  0.00     0.118 C 
BRANCH  26  27
ATOM     27  N   UNL A   1      34.447  31.497  28.279  1.00  0.00    -0.352 N 
ATOM     28  C   UNL A   1      35.556  31.363  29.100  1.00  0.00     0.251 C 
ATOM     29  H   UNL A   1      33.931  32.327  28.393  1.00  0.00     0.163 HD
ATOM     30  O   UNL A   1      35.851  32.235  29.901  1.00  0.00    -0.269 OA
BRANCH  28  31
ATOM     31  C   UNL A   1      36.438  30.188  28.913  1.00  0.00     0.039 A 
ATOM     32  C   UNL A   1      36.683  29.351  30.008  1.00  0.00     0.014 A 
ATOM     33  C   UNL A   1      37.177  30.060  27.743  1.00  0.00     0.014 A 
ATOM     34  C   UNL A   1      37.832  28.561  30.012  1.00  0.00     0.010 A 
ATOM     35  C   UNL A   1      38.368  29.367  27.790  1.00  0.00     0.010 A 
ATOM     36  C   UNL A   1      38.730  28.669  28.951  1.00  0.00    -0.014 A 
BRANCH  36  37
ATOM     37  C   UNL A   1      40.117  28.216  29.013  1.00  0.00     0.031 A 
ATOM     38  C   UNL A   1      40.517  26.886  28.502  1.00  0.00     0.074 A 
ATOM     39  C   UNL A   1      41.083  29.087  29.387  1.00  0.00     0.049 A 
ATOM     40  N   UNL A   1      41.634  26.307  28.795  1.00  0.00    -0.248 NA
ATOM     41  C   UNL A   1      39.668  26.081  27.633  1.00  0.00     0.031 C 
ATOM     42  C   UNL A   1      42.520  28.962  29.149  1.00  0.00     0.029 A 
ATOM     43  N   UNL A   1      40.970  30.200  30.241  1.00  0.00    -0.354 N 
ATOM     44  C   UNL A   1      41.784  25.226  27.960  1.00  0.00     0.074 A 
ATOM     45  C   UNL A   1      40.505  25.093  27.299  1.00  0.00     0.031 C 
ATOM     46  C   UNL A   1      43.175  29.718  30.043  1.00  0.00     0.029 A 
ATOM     47  C   UNL A   1      42.187  30.235  30.970  1.00  0.00     0.049 A 
ATOM     48  H   UNL A   1      40.210  30.822  30.315  1.00  0.00     0.167 HD
ATOM     49  C   UNL A   1      43.012  24.641  27.838  1.00  0.00     0.037 A 
ATOM     50  C   UNL A   1      42.216  30.069  32.325  1.00  0.00     0.037 A 
ATOM     51  C   UNL A   1      44.001  25.261  28.717  1.00  0.00     0.049 A 
ATOM     52  C   UNL A   1      43.048  28.904  32.815  1.00  0.00     0.074 A 
ATOM     53  C   UNL A   1      45.040  26.161  28.531  1.00  0.00     0.029 A 
ATOM     54  N   UNL A   1      43.834  25.156  30.084  1.00  0.00    -0.354 N 
ATOM     55  N   UNL A   1      43.629  28.040  32.032  1.00  0.00    -0.248 NA
ATOM     56  C   UNL A   1      43.197  28.556  34.230  1.00  0.00     0.031 C 
ATOM     57  C   UNL A   1      45.525  26.554  29.809  1.00  0.00     0.029 A 
ATOM     58  C   UNL A   1      44.767  25.907  30.767  1.00  0.00     0.049 A 
ATOM     59  H   UNL A   1      43.135  24.614  30.516  1.00  0.00     0.167 HD
ATOM     60  C   UNL A   1      44.148  27.022  32.784  1.00  0.00     0.074 A 
ATOM     61  C   UNL A   1      43.863  27.391  34.156  1.00  0.00     0.031 C 
ATOM     62  C   UNL A   1      44.727  25.926  32.217  1.00  0.00     0.037 A 
BRANCH  49  63
ATOM     63  C   UNL A   1      43.386  23.647  26.758  1.00  0.00     0.064 A 
ATOM     64  C   UNL A   1      42.977  22.298  26.843  1.00  0.00     0.173 A 
ATOM     65  C   UNL A   1      44.171  23.948  25.632  1.00  0.00     0.173 A 
ATOM     66  F   UNL A   1      42.114  21.880  27.777  1.00  0.00    -0.203 F 
ATOM     67  C   UNL A   1      43.436  21.315  25.962  1.00  0.00     0.198 A 
ATOM     68  C   UNL A   1      44.678  22.959  24.783  1.00  0.00     0.198 A 
ATOM     69  F   UNL A   1      44.418  25.214  25.272  1.00  0.00    -0.203 F 
ATOM     70  F   UNL A   1      43.018  20.049  26.103  1.00  0.00    -0.200 F 
ATOM     71  C   UNL A   1      44.322  21.638  24.958  1.00  0.00     0.200 A 
ATOM     72  F   UNL A   1      45.510  23.299  23.788  1.00  0.00    -0.200 F 
ATOM     73  F   UNL A   1      44.804  20.689  24.145  1.00  0.00    -0.200 F 
ENDBRANCH  49  63
BRANCH  50  74
ATOM     74  C   UNL A   1      40.985  30.571  32.986  1.00  0.00     0.064 A 
ATOM     75  C   UNL A   1      40.826  31.963  33.129  1.00  0.00     0.173 A 
ATOM     76  C   UNL A   1      39.844  29.770  33.094  1.00  0.00     0.173 A 
ATOM     77  F   UNL A   1      41.891  32.775  33.025  1.00  0.00    -0.203 F 
ATOM     78  C   UNL A   1      39.563  32.534  33.248  1.00  0.00     0.198 A 
ATOM     79  C   UNL A   1      38.582  30.345  33.229  1.00  0.00     0.198 A 
ATOM     80  F   UNL A   1      39.933  28.439  32.944  1.00  0.00    -0.203 F 
ATOM     81  F   UNL A   1      39.430  33.869  33.254  1.00  0.00    -0.200 F 
ATOM     82  C   UNL A   1      38.440  31.726  33.267  1.00  0.00     0.200 A 
ATOM     83  F   UNL A   1      37.491  29.566  33.217  1.00  0.00    -0.200 F 
ATOM     84  F   UNL A   1      37.217  32.275  33.276  1.00  0.00    -0.200 F 
ENDBRANCH  50  74
BRANCH  62  85
ATOM     85  C   UNL A   1      45.298  24.770  32.982  1.00  0.00     0.064 A 
ATOM     86  C   UNL A   1      44.539  23.638  33.318  1.00  0.00     0.173 A 
ATOM     87  C   UNL A   1      46.601  24.829  33.522  1.00  0.00     0.173 A 
ATOM     88  F   UNL A   1      43.273  23.513  32.897  1.00  0.00    -0.203 F 
ATOM     89  C   UNL A   1      45.063  22.620  34.119  1.00  0.00     0.198 A 
ATOM     90  C   UNL A   1      47.102  23.837  34.362  1.00  0.00     0.198 A 
ATOM     91  F   UNL A   1      47.432  25.840  33.232  1.00  0.00    -0.203 F 
ATOM     92  F   UNL A   1      44.323  21.534  34.383  1.00  0.00    -0.200 F 
ATOM     93  C   UNL A   1      46.337  22.726  34.652  1.00  0.00     0.200 A 
ATOM     94  F   UNL A   1      48.332  23.965  34.882  1.00  0.00    -0.200 F 
ATOM     95  F   UNL A   1      46.827  21.760  35.440  1.00  0.00    -0.200 F 
ENDBRANCH  62  85
ENDBRANCH  36  37
ENDBRANCH  28  31
ENDBRANCH  26  27
ENDBRANCH  25  26
ENDBRANCH   1  25
TORSDOF 13
ENDMDL
MODEL 3
REMARK VINA RESULT:     -13.7      3.848      9.902
REMARK SMILES COc1ccc(NC(=O)c2nn(C)cc2C(=O)NCCCNC(=O)c2ccc(-c3c4nc(c(-c5c(F)c(F)c(F)c(F)c5F)c5ccc([nH]5)c(-c5c(F)c(F)c(F)c(F)c5F)c5nc(c(-c6c(F)c(F)c(F)c(F)c6F)c6ccc3[nH]6)C=C5)C=C4)cc2)c(C)c1
REMARK SMILES IDX 19 1 18 2 16 3 17 4 15 6 10 7 11 8 12 9 14 10 13 11 8 12
REMARK SMILES IDX 7 13 9 15 6 16 3 17 4 18 90 19 5 20 88 21 89 22 2 23 1 24
REMARK SMILES IDX 20 25 21 26 22 27 23 28 24 30 25 31 26 32 87 33 27 34 86 35
REMARK SMILES IDX 28 36 29 37 30 38 80 39 31 40 85 41 79 42 81 43 32 44 84 45
REMARK SMILES IDX 78 46 77 47 33 49 65 50 45 51 64 52 46 53 49 54 63 55 82 56
REMARK SMILES IDX 47 57 48 58 62 60 83 61 50 62 34 63 35 64 43 65 36 66 37 67
REMARK SMILES IDX 41 68 44 69 38 70 39 71 42 72 40 73 66 74 67 75 75 76 68 77
REMARK SMILES IDX 69 78 73 79 76 80 70 81 71 82 74 83 72 84 51 85 52 86 60 87
REMARK SMILES IDX 53 88 54 89 58 90 61 91 55 92 56 93 59 94 57 95
REMARK H PARENT 18 5 7 14 22 29 81 48 49 59
REMARK Flexibility Score: inf
ROOT
ATOM      1  C   UNL A   1      33.478  28.959  26.076  1.00  0.00     0.118 C 
ENDROOT
BRANCH   1   2
ATOM      2  N   UNL A   1      33.979  27.596  26.114  1.00  0.00    -0.352 N 
ATOM      3  C   UNL A   1      33.576  26.436  25.495  1.00  0.00     0.255 C 
ATOM      4  O   UNL A   1      34.331  25.471  25.617  1.00  0.00    -0.269 OA
ATOM      5  H   UNL A   1      34.764  27.479  26.697  1.00  0.00     0.163 HD
BRANCH   3   6
ATOM      6  C   UNL A   1      32.326  26.327  24.752  1.00  0.00     0.090 A 
ATOM      7  C   UNL A   1      32.205  25.982  23.354  1.00  0.00     0.163 A 
ATOM      8  N   UNL A   1      30.915  25.966  22.959  1.00  0.00    -0.167 NA
ATOM      9  N   UNL A   1      30.227  26.279  24.057  1.00  0.00    -0.274 N 
ATOM     10  C   UNL A   1      31.010  26.487  25.152  1.00  0.00     0.123 A 
ATOM     11  C   UNL A   1      28.786  26.327  23.993  1.00  0.00     0.173 C 
BRANCH   7  12
ATOM     12  C   UNL A   1      33.258  25.643  22.386  1.00  0.00     0.277 C 
ATOM     13  N   UNL A   1      33.848  24.394  22.376  1.00  0.00    -0.320 N 
ATOM     14  H   UNL A   1      34.576  24.306  21.719  1.00  0.00     0.170 HD
ATOM     15  O   UNL A   1      33.653  26.467  21.554  1.00  0.00    -0.267 OA
BRANCH  13  16
ATOM     16  C   UNL A   1      33.615  23.221  23.120  1.00  0.00     0.044 A 
ATOM     17  C   UNL A   1      33.123  21.028  24.838  1.00  0.00     0.119 A 
ATOM     18  C   UNL A   1      32.085  21.593  24.112  1.00  0.00     0.048 A 
ATOM     19  C   UNL A   1      34.419  21.506  24.639  1.00  0.00     0.052 A 
ATOM     20  C   UNL A   1      32.338  22.663  23.247  1.00  0.00     0.030 A 
ATOM     21  C   UNL A   1      34.689  22.586  23.772  1.00  0.00    -0.024 A 
ATOM     22  C   UNL A   1      36.139  22.956  23.594  1.00  0.00     0.047 C 
BRANCH  17  23
ATOM     23  O   UNL A   1      33.011  20.014  25.747  1.00  0.00    -0.497 OA
ATOM     24  C   UNL A   1      32.902  18.697  25.221  1.00  0.00     0.278 C 
ENDBRANCH  17  23
ENDBRANCH  13  16
ENDBRANCH   7  12
ENDBRANCH   3   6
ENDBRANCH   1   2
BRANCH   1  25
ATOM     25  C   UNL A   1      33.650  29.697  27.403  1.00  0.00     0.042 C 
BRANCH  25  26
ATOM     26  C   UNL A   1      34.371  31.033  27.251  1.00  0.00     0.118 C 
BRANCH  26  27
ATOM     27  N   UNL A   1      34.686  31.692  28.520  1.00  0.00    -0.352 N 
ATOM     28  C   UNL A   1      35.600  31.319  29.494  1.00  0.00     0.251 C 
ATOM     29  H   UNL A   1      34.179  32.515  28.707  1.00  0.00     0.163 HD
ATOM     30  O   UNL A   1      35.748  31.987  30.504  1.00  0.00    -0.269 OA
BRANCH  28  31
ATOM     31  C   UNL A   1      36.472  30.150  29.235  1.00  0.00     0.039 A 
ATOM     32  C   UNL A   1      36.683  29.227  30.266  1.00  0.00     0.014 A 
ATOM     33  C   UNL A   1      37.236  30.103  28.074  1.00  0.00     0.014 A 
ATOM     34  C   UNL A   1      37.822  28.424  30.234  1.00  0.00     0.010 A 
ATOM     35  C   UNL A   1      38.417  29.392  28.093  1.00  0.00     0.010 A 
ATOM     36  C   UNL A   1      38.744  28.601  29.203  1.00  0.00    -0.014 A 
BRANCH  36  37
ATOM     37  C   UNL A   1      40.124  28.127  29.260  1.00  0.00     0.031 A 
ATOM     38  C   UNL A   1      40.508  26.808  28.708  1.00  0.00     0.074 A 
ATOM     39  C   UNL A   1      41.100  28.971  29.670  1.00  0.00     0.049 A 
ATOM     40  N   UNL A   1      41.614  26.204  28.990  1.00  0.00    -0.248 NA
ATOM     41  C   UNL A   1      39.654  26.045  27.808  1.00  0.00     0.031 C 
ATOM     42  C   UNL A   1      42.536  28.832  29.437  1.00  0.00     0.029 A 
ATOM     43  N   UNL A   1      40.997  30.056  30.558  1.00  0.00    -0.354 N 
ATOM     44  C   UNL A   1      41.754  25.148  28.121  1.00  0.00     0.074 A 
ATOM     45  C   UNL A   1      40.478  25.056  27.446  1.00  0.00     0.031 C 
ATOM     46  C   UNL A   1      43.196  29.548  30.360  1.00  0.00     0.029 A 
ATOM     47  C   UNL A   1      42.209  30.049  31.296  1.00  0.00     0.049 A 
ATOM     48  H   UNL A   1      40.246  30.686  30.648  1.00  0.00     0.167 HD
ATOM     49  C   UNL A   1      42.975  24.549  27.987  1.00  0.00     0.037 A 
ATOM     50  C   UNL A   1      42.226  29.838  32.645  1.00  0.00     0.037 A 
ATOM     51  C   UNL A   1      43.967  25.125  28.893  1.00  0.00     0.049 A 
ATOM     52  C   UNL A   1      43.037  28.646  33.102  1.00  0.00     0.074 A 
ATOM     53  C   UNL A   1      45.020  26.015  28.744  1.00  0.00     0.029 A 
ATOM     54  N   UNL A   1      43.788  24.978  30.254  1.00  0.00    -0.354 N 
ATOM     55  N   UNL A   1      43.611  27.800  32.295  1.00  0.00    -0.248 NA
ATOM     56  C   UNL A   1      43.171  28.249  34.506  1.00  0.00     0.031 C 
ATOM     57  C   UNL A   1      45.501  26.359  30.038  1.00  0.00     0.029 A 
ATOM     58  C   UNL A   1      44.727  25.692  30.968  1.00  0.00     0.049 A 
ATOM     59  H   UNL A   1      43.078  24.433  30.664  1.00  0.00     0.167 HD
ATOM     60  C   UNL A   1      44.110  26.749  33.017  1.00  0.00     0.074 A 
ATOM     61  C   UNL A   1      43.820  27.077  34.398  1.00  0.00     0.031 C 
ATOM     62  C   UNL A   1      44.677  25.664  32.418  1.00  0.00     0.037 A 
BRANCH  49  63
ATOM     63  C   UNL A   1      43.342  23.586  26.878  1.00  0.00     0.064 A 
ATOM     64  C   UNL A   1      42.943  22.232  26.933  1.00  0.00     0.173 A 
ATOM     65  C   UNL A   1      44.112  23.921  25.750  1.00  0.00     0.173 A 
ATOM     66  F   UNL A   1      42.093  21.785  27.866  1.00  0.00    -0.203 F 
ATOM     67  C   UNL A   1      43.397  21.276  26.021  1.00  0.00     0.198 A 
ATOM     68  C   UNL A   1      44.614  22.957  24.870  1.00  0.00     0.198 A 
ATOM     69  F   UNL A   1      44.346  25.197  25.420  1.00  0.00    -0.203 F 
ATOM     70  F   UNL A   1      42.988  20.004  26.135  1.00  0.00    -0.200 F 
ATOM     71  C   UNL A   1      44.269  21.630  25.016  1.00  0.00     0.200 A 
ATOM     72  F   UNL A   1      45.432  23.328  23.875  1.00  0.00    -0.200 F 
ATOM     73  F   UNL A   1      44.747  20.706  24.173  1.00  0.00    -0.200 F 
ENDBRANCH  49  63
BRANCH  50  74
ATOM     74  C   UNL A   1      40.998  30.336  33.314  1.00  0.00     0.064 A 
ATOM     75  C   UNL A   1      40.879  31.721  33.544  1.00  0.00     0.173 A 
ATOM     76  C   UNL A   1      39.831  29.567  33.349  1.00  0.00     0.173 A 
ATOM     77  F   UNL A   1      41.971  32.503  33.512  1.00  0.00    -0.203 F 
ATOM     78  C   UNL A   1      39.632  32.324  33.675  1.00  0.00     0.198 A 
ATOM     79  C   UNL A   1      38.584  30.173  33.497  1.00  0.00     0.198 A 
ATOM     80  F   UNL A   1      39.882  28.247  33.115  1.00  0.00    -0.203 F 
ATOM     81  F   UNL A   1      39.540  33.659  33.765  1.00  0.00    -0.200 F 
ATOM     82  C   UNL A   1      38.484  31.552  33.622  1.00  0.00     0.200 A 
ATOM     83  F   UNL A   1      37.470  29.432  33.415  1.00  0.00    -0.200 F 
ATOM     84  F   UNL A   1      37.279  32.139  33.643  1.00  0.00    -0.200 F 
ENDBRANCH  50  74
BRANCH  62  85
ATOM     85  C   UNL A   1      45.225  24.475  33.149  1.00  0.00     0.064 A 
ATOM     86  C   UNL A   1      44.425  23.387  33.528  1.00  0.00     0.173 A 
ATOM     87  C   UNL A   1      46.559  24.459  33.611  1.00  0.00     0.173 A 
ATOM     88  F   UNL A   1      43.131  23.334  33.181  1.00  0.00    -0.203 F 
ATOM     89  C   UNL A   1      44.936  22.338  34.297  1.00  0.00     0.198 A 
ATOM     90  C   UNL A   1      47.052  23.438  34.420  1.00  0.00     0.198 A 
ATOM     91  F   UNL A   1      47.428  25.423  33.273  1.00  0.00    -0.203 F 
ATOM     92  F   UNL A   1      44.153  21.295  34.603  1.00  0.00    -0.200 F 
ATOM     93  C   UNL A   1      46.242  22.371  34.754  1.00  0.00     0.200 A 
ATOM     94  F   UNL A   1      48.315  23.494  34.867  1.00  0.00    -0.200 F 
ATOM     95  F   UNL A   1      46.723  21.376  35.513  1.00  0.00    -0.200 F 
ENDBRANCH  62  85
ENDBRANCH  36  37
ENDBRANCH  28  31
ENDBRANCH  26  27
ENDBRANCH  25  26
ENDBRANCH   1  25
TORSDOF 13
ENDMDL
