MODEL 1
REMARK VINA RESULT:     -10.7      0.000      0.000
REMARK SMILES C[C@H](C[N@@H+](C)[C@@H](C)[C@@H](C)O)C(=O)NCCCNC(=O)c1ccc(-c2c3nc(c(-c4c(F)c(F)c(F)c(F)c4F)c4ccc([nH]4)c(-c4c(F)c(F)c(F)c(F)c4F)c4nc(c(-c5c(F)c(F)c(F)c(F)c5F)c5ccc2[nH]5)C=C4)C=C3)cc1
REMARK SMILES IDX 11 1 12 2 13 3 2 5 1 6 3 7 4 8 5 9 6 11 7 12 8 13 9 14 10 15
REMARK SMILES IDX 14 17 15 18 16 19 17 20 18 21 19 23 20 24 21 25 82 26 22 27
REMARK SMILES IDX 81 28 23 29 24 30 25 31 75 32 26 33 80 34 74 35 76 36 27 37
REMARK SMILES IDX 79 38 73 39 72 40 28 42 60 43 40 44 59 45 41 46 44 47 58 48
REMARK SMILES IDX 77 49 42 50 43 51 57 53 78 54 45 55 29 56 30 57 38 58 31 59
REMARK SMILES IDX 32 60 36 61 39 62 33 63 34 64 37 65 35 66 61 67 62 68 70 69
REMARK SMILES IDX 63 70 64 71 68 72 71 73 65 74 66 75 69 76 67 77 46 78 47 79
REMARK SMILES IDX 55 80 48 81 49 82 53 83 56 84 50 85 51 86 54 87 52 88
REMARK H PARENT 13 4 4 10 10 16 17 22 76 41 44 52
REMARK Flexibility Score: inf
ROOT
ATOM      1  C   UNL A   1      32.349  28.593  26.468  1.00  0.00     0.228 C 
ATOM      2  O   UNL A   1      33.425  28.111  26.844  1.00  0.00    -0.275 OA
ATOM      3  N   UNL A   1      32.241  29.944  26.551  1.00  0.00    -0.356 N 
ATOM      4  H   UNL A   1      32.942  30.367  27.097  1.00  0.00     0.163 HD
ENDROOT
BRANCH   1   5
ATOM      5  C   UNL A   1      31.284  27.660  25.911  1.00  0.00     0.130 C 
ATOM      6  C   UNL A   1      31.341  26.301  26.617  1.00  0.00     0.024 C 
BRANCH   5   7
ATOM      7  C   UNL A   1      31.062  27.543  24.384  1.00  0.00     0.275 C 
BRANCH   7   8
ATOM      8  N   UNL A   1      30.445  28.660  23.639  1.00  0.00    -0.332 N 
ATOM      9  C   UNL A   1      31.419  29.126  22.627  1.00  0.00     0.333 C 
ATOM     10  H   UNL A   1      30.222  29.378  24.327  1.00  0.00     0.348 HD
BRANCH   8  11
ATOM     11  C   UNL A   1      29.128  28.356  22.982  1.00  0.00     0.209 C 
ATOM     12  C   UNL A   1      28.403  27.126  23.585  1.00  0.00     0.078 C 
BRANCH  11  13
ATOM     13  C   UNL A   1      28.094  29.529  22.813  1.00  0.00     0.169 C 
ATOM     14  C   UNL A   1      28.063  30.199  21.447  1.00  0.00     0.045 C 
BRANCH  13  15
ATOM     15  O   UNL A   1      26.757  29.028  23.003  1.00  0.00    -0.387 OA
ATOM     16  H   UNL A   1      26.548  28.390  22.302  1.00  0.00     0.211 HD
ENDBRANCH  13  15
ENDBRANCH  11  13
ENDBRANCH   8  11
ENDBRANCH   7   8
ENDBRANCH   5   7
ENDBRANCH   1   5
BRANCH   3  17
ATOM     17  C   UNL A   1      31.292  30.881  25.990  1.00  0.00     0.117 C 
BRANCH  17  18
ATOM     18  C   UNL A   1      31.254  32.303  26.576  1.00  0.00     0.042 C 
BRANCH  18  19
ATOM     19  C   UNL A   1      32.516  32.872  27.213  1.00  0.00     0.118 C 
BRANCH  19  20
ATOM     20  N   UNL A   1      32.359  34.249  27.651  1.00  0.00    -0.352 N 
ATOM     21  C   UNL A   1      33.034  34.955  28.617  1.00  0.00     0.251 C 
ATOM     22  H   UNL A   1      31.657  34.756  27.182  1.00  0.00     0.163 HD
ATOM     23  O   UNL A   1      32.634  36.063  28.955  1.00  0.00    -0.269 OA
BRANCH  21  24
ATOM     24  C   UNL A   1      34.231  34.389  29.285  1.00  0.00     0.039 A 
ATOM     25  C   UNL A   1      34.063  33.738  30.512  1.00  0.00     0.014 A 
ATOM     26  C   UNL A   1      35.517  34.562  28.765  1.00  0.00     0.014 A 
ATOM     27  C   UNL A   1      35.169  33.206  31.184  1.00  0.00     0.010 A 
ATOM     28  C   UNL A   1      36.618  33.995  29.417  1.00  0.00     0.010 A 
ATOM     29  C   UNL A   1      36.454  33.304  30.629  1.00  0.00    -0.014 A 
BRANCH  29  30
ATOM     30  C   UNL A   1      37.626  32.665  31.289  1.00  0.00     0.031 A 
ATOM     31  C   UNL A   1      38.349  31.520  30.637  1.00  0.00     0.074 A 
ATOM     32  C   UNL A   1      38.010  33.083  32.512  1.00  0.00     0.049 A 
ATOM     33  N   UNL A   1      39.330  30.786  31.104  1.00  0.00    -0.248 NA
ATOM     34  C   UNL A   1      37.905  31.142  29.288  1.00  0.00     0.031 C 
ATOM     35  C   UNL A   1      37.389  34.172  33.264  1.00  0.00     0.029 A 
ATOM     36  N   UNL A   1      39.005  32.629  33.343  1.00  0.00    -0.354 N 
ATOM     37  C   UNL A   1      39.610  29.851  30.116  1.00  0.00     0.074 A 
ATOM     38  C   UNL A   1      38.677  30.092  29.034  1.00  0.00     0.031 C 
ATOM     39  C   UNL A   1      38.018  34.306  34.442  1.00  0.00     0.029 A 
ATOM     40  C   UNL A   1      39.061  33.289  34.547  1.00  0.00     0.049 A 
ATOM     41  H   UNL A   1      39.620  31.900  33.100  1.00  0.00     0.167 HD
ATOM     42  C   UNL A   1      40.565  28.889  30.105  1.00  0.00     0.037 A 
ATOM     43  C   UNL A   1      39.848  33.088  35.622  1.00  0.00     0.037 A 
ATOM     44  C   UNL A   1      41.510  28.660  31.168  1.00  0.00     0.049 A 
ATOM     45  C   UNL A   1      40.883  31.997  35.594  1.00  0.00     0.074 A 
ATOM     46  C   UNL A   1      42.541  27.738  31.221  1.00  0.00     0.029 A 
ATOM     47  N   UNL A   1      41.539  29.357  32.366  1.00  0.00    -0.354 N 
ATOM     48  N   UNL A   1      41.166  31.150  34.636  1.00  0.00    -0.248 NA
ATOM     49  C   UNL A   1      41.709  31.834  36.800  1.00  0.00     0.031 C 
ATOM     50  C   UNL A   1      43.170  27.850  32.466  1.00  0.00     0.029 A 
ATOM     51  C   UNL A   1      42.558  28.872  33.172  1.00  0.00     0.049 A 
ATOM     52  H   UNL A   1      40.926  30.089  32.609  1.00  0.00     0.167 HD
ATOM     53  C   UNL A   1      42.221  30.379  35.106  1.00  0.00     0.074 A 
ATOM     54  C   UNL A   1      42.531  30.859  36.436  1.00  0.00     0.031 C 
ATOM     55  C   UNL A   1      42.873  29.368  34.486  1.00  0.00     0.037 A 
BRANCH  42  56
ATOM     56  C   UNL A   1      40.639  27.997  28.902  1.00  0.00     0.064 A 
ATOM     57  C   UNL A   1      39.896  26.811  28.820  1.00  0.00     0.173 A 
ATOM     58  C   UNL A   1      41.418  28.361  27.793  1.00  0.00     0.173 A 
ATOM     59  F   UNL A   1      39.140  26.415  29.856  1.00  0.00    -0.203 F 
ATOM     60  C   UNL A   1      39.946  26.010  27.682  1.00  0.00     0.198 A 
ATOM     61  C   UNL A   1      41.447  27.572  26.646  1.00  0.00     0.198 A 
ATOM     62  F   UNL A   1      42.140  29.492  27.816  1.00  0.00    -0.203 F 
ATOM     63  F   UNL A   1      39.257  24.861  27.641  1.00  0.00    -0.200 F 
ATOM     64  C   UNL A   1      40.717  26.394  26.594  1.00  0.00     0.200 A 
ATOM     65  F   UNL A   1      42.180  27.952  25.591  1.00  0.00    -0.200 F 
ATOM     66  F   UNL A   1      40.758  25.626  25.496  1.00  0.00    -0.200 F 
ENDBRANCH  42  56
BRANCH  43  67
ATOM     67  C   UNL A   1      39.693  33.951  36.820  1.00  0.00     0.064 A 
ATOM     68  C   UNL A   1      40.366  35.176  36.917  1.00  0.00     0.173 A 
ATOM     69  C   UNL A   1      38.872  33.569  37.892  1.00  0.00     0.173 A 
ATOM     70  F   UNL A   1      41.180  35.572  35.928  1.00  0.00    -0.203 F 
ATOM     71  C   UNL A   1      40.236  35.981  38.047  1.00  0.00     0.198 A 
ATOM     72  C   UNL A   1      38.723  34.386  39.009  1.00  0.00     0.198 A 
ATOM     73  F   UNL A   1      38.204  32.406  37.845  1.00  0.00    -0.203 F 
ATOM     74  F   UNL A   1      40.923  37.129  38.132  1.00  0.00    -0.200 F 
ATOM     75  C   UNL A   1      39.410  35.589  39.090  1.00  0.00     0.200 A 
ATOM     76  F   UNL A   1      37.914  34.009  40.009  1.00  0.00    -0.200 F 
ATOM     77  F   UNL A   1      39.282  36.364  40.174  1.00  0.00    -0.200 F 
ENDBRANCH  43  67
BRANCH  55  78
ATOM     78  C   UNL A   1      44.024  28.734  35.213  1.00  0.00     0.064 A 
ATOM     79  C   UNL A   1      45.327  29.239  35.110  1.00  0.00     0.173 A 
ATOM     80  C   UNL A   1      43.805  27.643  36.067  1.00  0.00     0.173 A 
ATOM     81  F   UNL A   1      45.589  30.271  34.293  1.00  0.00    -0.203 F 
ATOM     82  C   UNL A   1      46.374  28.664  35.827  1.00  0.00     0.198 A 
ATOM     83  C   UNL A   1      44.849  27.087  36.800  1.00  0.00     0.198 A 
ATOM     84  F   UNL A   1      42.574  27.126  36.202  1.00  0.00    -0.203 F 
ATOM     85  F   UNL A   1      47.619  29.142  35.689  1.00  0.00    -0.200 F 
ATOM     86  C   UNL A   1      46.133  27.595  36.678  1.00  0.00     0.200 A 
ATOM     87  F   UNL A   1      44.613  26.060  37.629  1.00  0.00    -0.200 F 
ATOM     88  F   UNL A   1      47.140  27.051  37.374  1.00  0.00    -0.200 F 
ENDBRANCH  55  78
ENDBRANCH  29  30
ENDBRANCH  21  24
ENDBRANCH  19  20
ENDBRANCH  18  19
ENDBRANCH  17  18
ENDBRANCH   3  17
TORSDOF 15
ENDMDL
MODEL 2
REMARK VINA RESULT:     -10.7      6.367     11.634
REMARK SMILES C[C@H](C[N@@H+](C)[C@@H](C)[C@@H](C)O)C(=O)NCCCNC(=O)c1ccc(-c2c3nc(c(-c4c(F)c(F)c(F)c(F)c4F)c4ccc([nH]4)c(-c4c(F)c(F)c(F)c(F)c4F)c4nc(c(-c5c(F)c(F)c(F)c(F)c5F)c5ccc2[nH]5)C=C4)C=C3)cc1
REMARK SMILES IDX 11 1 12 2 13 3 2 5 1 6 3 7 4 8 5 9 6 11 7 12 8 13 9 14 10 15
REMARK SMILES IDX 14 17 15 18 16 19 17 20 18 21 19 23 20 24 21 25 82 26 22 27
REMARK SMILES IDX 81 28 23 29 24 30 25 31 75 32 26 33 80 34 74 35 76 36 27 37
REMARK SMILES IDX 79 38 73 39 72 40 28 42 60 43 40 44 59 45 41 46 44 47 58 48
REMARK SMILES IDX 77 49 42 50 43 51 57 53 78 54 45 55 29 56 30 57 38 58 31 59
REMARK SMILES IDX 32 60 36 61 39 62 33 63 34 64 37 65 35 66 61 67 62 68 70 69
REMARK SMILES IDX 63 70 64 71 68 72 71 73 65 74 66 75 69 76 67 77 46 78 47 79
REMARK SMILES IDX 55 80 48 81 49 82 53 83 56 84 50 85 51 86 54 87 52 88
REMARK H PARENT 13 4 4 10 10 16 17 22 76 41 44 52
REMARK Flexibility Score: inf
ROOT
ATOM      1  C   UNL A   1      35.735  22.711  25.362  1.00  0.00     0.228 C 
ATOM      2  O   UNL A   1      35.753  23.587  26.237  1.00  0.00    -0.275 OA
ATOM      3  N   UNL A   1      36.485  21.607  25.612  1.00  0.00    -0.356 N 
ATOM      4  H   UNL A   1      37.122  21.717  26.353  1.00  0.00     0.163 HD
ENDROOT
BRANCH   1   5
ATOM      5  C   UNL A   1      34.858  22.918  24.137  1.00  0.00     0.130 C 
ATOM      6  C   UNL A   1      34.488  24.398  23.987  1.00  0.00     0.024 C 
BRANCH   5   7
ATOM      7  C   UNL A   1      33.675  21.964  23.847  1.00  0.00     0.275 C 
BRANCH   7   8
ATOM      8  N   UNL A   1      33.092  21.155  24.937  1.00  0.00    -0.332 N 
ATOM      9  C   UNL A   1      32.261  22.049  25.773  1.00  0.00     0.333 C 
ATOM     10  H   UNL A   1      33.877  20.757  25.452  1.00  0.00     0.348 HD
BRANCH   8  11
ATOM     11  C   UNL A   1      32.289  19.961  24.506  1.00  0.00     0.209 C 
ATOM     12  C   UNL A   1      32.154  19.826  22.968  1.00  0.00     0.078 C 
BRANCH  11  13
ATOM     13  C   UNL A   1      32.659  18.558  25.113  1.00  0.00     0.169 C 
ATOM     14  C   UNL A   1      33.919  17.904  24.565  1.00  0.00     0.045 C 
BRANCH  13  15
ATOM     15  O   UNL A   1      32.902  18.689  26.526  1.00  0.00    -0.387 OA
ATOM     16  H   UNL A   1      33.597  18.067  26.794  1.00  0.00     0.211 HD
ENDBRANCH  13  15
ENDBRANCH  11  13
ENDBRANCH   8  11
ENDBRANCH   7   8
ENDBRANCH   5   7
ENDBRANCH   1   5
BRANCH   3  17
ATOM     17  C   UNL A   1      36.525  20.298  24.996  1.00  0.00     0.117 C 
BRANCH  17  18
ATOM     18  C   UNL A   1      37.876  19.564  24.954  1.00  0.00     0.042 C 
BRANCH  18  19
ATOM     19  C   UNL A   1      39.044  20.123  25.758  1.00  0.00     0.118 C 
BRANCH  19  20
ATOM     20  N   UNL A   1      40.149  19.187  25.880  1.00  0.00    -0.352 N 
ATOM     21  C   UNL A   1      41.485  19.416  26.103  1.00  0.00     0.251 C 
ATOM     22  H   UNL A   1      39.901  18.238  25.787  1.00  0.00     0.163 HD
ATOM     23  O   UNL A   1      42.287  18.494  26.002  1.00  0.00    -0.269 OA
BRANCH  21  24
ATOM     24  C   UNL A   1      41.986  20.771  26.439  1.00  0.00     0.039 A 
ATOM     25  C   UNL A   1      42.238  21.665  25.392  1.00  0.00     0.014 A 
ATOM     26  C   UNL A   1      42.287  21.141  27.752  1.00  0.00     0.014 A 
ATOM     27  C   UNL A   1      42.728  22.947  25.665  1.00  0.00     0.010 A 
ATOM     28  C   UNL A   1      42.738  22.437  28.028  1.00  0.00     0.010 A 
ATOM     29  C   UNL A   1      42.956  23.356  26.988  1.00  0.00    -0.014 A 
BRANCH  29  30
ATOM     30  C   UNL A   1      43.393  24.745  27.298  1.00  0.00     0.031 A 
ATOM     31  C   UNL A   1      42.438  25.737  27.901  1.00  0.00     0.074 A 
ATOM     32  C   UNL A   1      44.644  25.135  26.983  1.00  0.00     0.049 A 
ATOM     33  N   UNL A   1      42.617  27.011  28.153  1.00  0.00    -0.248 NA
ATOM     34  C   UNL A   1      41.103  25.236  28.256  1.00  0.00     0.031 C 
ATOM     35  C   UNL A   1      45.667  24.280  26.382  1.00  0.00     0.029 A 
ATOM     36  N   UNL A   1      45.263  26.355  27.111  1.00  0.00    -0.354 N 
ATOM     37  C   UNL A   1      41.417  27.467  28.682  1.00  0.00     0.074 A 
ATOM     38  C   UNL A   1      40.506  26.340  28.688  1.00  0.00     0.031 C 
ATOM     39  C   UNL A   1      46.786  24.999  26.197  1.00  0.00     0.029 A 
ATOM     40  C   UNL A   1      46.550  26.373  26.630  1.00  0.00     0.049 A 
ATOM     41  H   UNL A   1      44.826  27.142  27.510  1.00  0.00     0.167 HD
ATOM     42  C   UNL A   1      41.105  28.707  29.132  1.00  0.00     0.037 A 
ATOM     43  C   UNL A   1      47.434  27.385  26.529  1.00  0.00     0.037 A 
ATOM     44  C   UNL A   1      42.013  29.825  29.150  1.00  0.00     0.049 A 
ATOM     45  C   UNL A   1      47.054  28.757  27.013  1.00  0.00     0.074 A 
ATOM     46  C   UNL A   1      41.796  31.105  29.632  1.00  0.00     0.029 A 
ATOM     47  N   UNL A   1      43.311  29.799  28.662  1.00  0.00    -0.354 N 
ATOM     48  N   UNL A   1      45.932  29.163  27.551  1.00  0.00    -0.248 NA
ATOM     49  C   UNL A   1      48.068  29.814  26.876  1.00  0.00     0.031 C 
ATOM     50  C   UNL A   1      42.948  31.864  29.401  1.00  0.00     0.029 A 
ATOM     51  C   UNL A   1      43.899  31.045  28.814  1.00  0.00     0.049 A 
ATOM     52  H   UNL A   1      43.750  29.012  28.266  1.00  0.00     0.167 HD
ATOM     53  C   UNL A   1      46.113  30.508  27.847  1.00  0.00     0.074 A 
ATOM     54  C   UNL A   1      47.456  30.851  27.431  1.00  0.00     0.031 C 
ATOM     55  C   UNL A   1      45.243  31.375  28.416  1.00  0.00     0.037 A 
BRANCH  42  56
ATOM     56  C   UNL A   1      39.713  28.931  29.645  1.00  0.00     0.064 A 
ATOM     57  C   UNL A   1      39.376  28.691  30.984  1.00  0.00     0.173 A 
ATOM     58  C   UNL A   1      38.720  29.449  28.799  1.00  0.00     0.173 A 
ATOM     59  F   UNL A   1      40.289  28.190  31.831  1.00  0.00    -0.203 F 
ATOM     60  C   UNL A   1      38.089  28.938  31.455  1.00  0.00     0.198 A 
ATOM     61  C   UNL A   1      37.441  29.719  29.279  1.00  0.00     0.198 A 
ATOM     62  F   UNL A   1      38.993  29.707  27.512  1.00  0.00    -0.203 F 
ATOM     63  F   UNL A   1      37.778  28.665  32.729  1.00  0.00    -0.200 F 
ATOM     64  C   UNL A   1      37.124  29.458  30.603  1.00  0.00     0.200 A 
ATOM     65  F   UNL A   1      36.514  30.235  28.459  1.00  0.00    -0.200 F 
ATOM     66  F   UNL A   1      35.888  29.703  31.060  1.00  0.00    -0.200 F 
ENDBRANCH  42  56
BRANCH  43  67
ATOM     67  C   UNL A   1      48.778  27.133  25.950  1.00  0.00     0.064 A 
ATOM     68  C   UNL A   1      49.003  27.258  24.573  1.00  0.00     0.173 A 
ATOM     69  C   UNL A   1      49.862  26.763  26.759  1.00  0.00     0.173 A 
ATOM     70  F   UNL A   1      47.991  27.588  23.757  1.00  0.00    -0.203 F 
ATOM     71  C   UNL A   1      50.259  27.007  24.023  1.00  0.00     0.198 A 
ATOM     72  C   UNL A   1      51.123  26.538  26.212  1.00  0.00     0.198 A 
ATOM     73  F   UNL A   1      49.698  26.633  28.084  1.00  0.00    -0.203 F 
ATOM     74  F   UNL A   1      50.437  27.095  22.698  1.00  0.00    -0.200 F 
ATOM     75  C   UNL A   1      51.319  26.653  24.843  1.00  0.00     0.200 A 
ATOM     76  F   UNL A   1      52.148  26.208  27.010  1.00  0.00    -0.200 F 
ATOM     77  F   UNL A   1      52.528  26.416  24.316  1.00  0.00    -0.200 F 
ENDBRANCH  43  67
BRANCH  55  78
ATOM     78  C   UNL A   1      45.723  32.774  28.672  1.00  0.00     0.064 A 
ATOM     79  C   UNL A   1      45.529  33.801  27.738  1.00  0.00     0.173 A 
ATOM     80  C   UNL A   1      46.333  33.099  29.893  1.00  0.00     0.173 A 
ATOM     81  F   UNL A   1      44.965  33.535  26.550  1.00  0.00    -0.203 F 
ATOM     82  C   UNL A   1      45.942  35.102  28.012  1.00  0.00     0.198 A 
ATOM     83  C   UNL A   1      46.722  34.406  30.173  1.00  0.00     0.198 A 
ATOM     84  F   UNL A   1      46.538  32.152  30.820  1.00  0.00    -0.203 F 
ATOM     85  F   UNL A   1      45.777  36.063  27.092  1.00  0.00    -0.200 F 
ATOM     86  C   UNL A   1      46.530  35.406  29.232  1.00  0.00     0.200 A 
ATOM     87  F   UNL A   1      47.282  34.699  31.355  1.00  0.00    -0.200 F 
ATOM     88  F   UNL A   1      46.916  36.661  29.497  1.00  0.00    -0.200 F 
ENDBRANCH  55  78
ENDBRANCH  29  30
ENDBRANCH  21  24
ENDBRANCH  19  20
ENDBRANCH  18  19
ENDBRANCH  17  18
ENDBRANCH   3  17
TORSDOF 15
ENDMDL
MODEL 3
REMARK VINA RESULT:     -10.6      1.270      2.314
REMARK SMILES C[C@H](C[N@@H+](C)[C@@H](C)[C@@H](C)O)C(=O)NCCCNC(=O)c1ccc(-c2c3nc(c(-c4c(F)c(F)c(F)c(F)c4F)c4ccc([nH]4)c(-c4c(F)c(F)c(F)c(F)c4F)c4nc(c(-c5c(F)c(F)c(F)c(F)c5F)c5ccc2[nH]5)C=C4)C=C3)cc1
REMARK SMILES IDX 11 1 12 2 13 3 2 5 1 6 3 7 4 8 5 9 6 11 7 12 8 13 9 14 10 15
REMARK SMILES IDX 14 17 15 18 16 19 17 20 18 21 19 23 20 24 21 25 82 26 22 27
REMARK SMILES IDX 81 28 23 29 24 30 25 31 75 32 26 33 80 34 74 35 76 36 27 37
REMARK SMILES IDX 79 38 73 39 72 40 28 42 60 43 40 44 59 45 41 46 44 47 58 48
REMARK SMILES IDX 77 49 42 50 43 51 57 53 78 54 45 55 29 56 30 57 38 58 31 59
REMARK SMILES IDX 32 60 36 61 39 62 33 63 34 64 37 65 35 66 61 67 62 68 70 69
REMARK SMILES IDX 63 70 64 71 68 72 71 73 65 74 66 75 69 76 67 77 46 78 47 79
REMARK SMILES IDX 55 80 48 81 49 82 53 83 56 84 50 85 51 86 54 87 52 88
REMARK H PARENT 13 4 4 10 10 16 17 22 76 41 44 52
REMARK Flexibility Score: inf
ROOT
ATOM      1  C   UNL A   1      32.931  28.927  26.189  1.00  0.00     0.228 C 
ATOM      2  O   UNL A   1      34.116  28.603  26.036  1.00  0.00    -0.275 OA
ATOM      3  N   UNL A   1      32.663  30.256  26.105  1.00  0.00    -0.356 N 
ATOM      4  H   UNL A   1      33.463  30.827  26.146  1.00  0.00     0.163 HD
ENDROOT
BRANCH   1   5
ATOM      5  C   UNL A   1      31.894  27.835  26.402  1.00  0.00     0.130 C 
ATOM      6  C   UNL A   1      31.364  27.874  27.841  1.00  0.00     0.024 C 
BRANCH   5   7
ATOM      7  C   UNL A   1      32.148  26.399  25.887  1.00  0.00     0.275 C 
BRANCH   7   8
ATOM      8  N   UNL A   1      31.998  26.091  24.449  1.00  0.00    -0.332 N 
ATOM      9  C   UNL A   1      30.898  26.925  23.917  1.00  0.00     0.333 C 
ATOM     10  H   UNL A   1      31.797  25.093  24.388  1.00  0.00     0.348 HD
BRANCH   8  11
ATOM     11  C   UNL A   1      33.232  26.272  23.611  1.00  0.00     0.209 C 
ATOM     12  C   UNL A   1      33.862  24.938  23.137  1.00  0.00     0.078 C 
BRANCH  11  13
ATOM     13  C   UNL A   1      33.166  27.268  22.396  1.00  0.00     0.169 C 
ATOM     14  C   UNL A   1      34.057  28.498  22.491  1.00  0.00     0.045 C 
BRANCH  13  15
ATOM     15  O   UNL A   1      33.596  26.598  21.196  1.00  0.00    -0.387 OA
ATOM     16  H   UNL A   1      33.737  27.252  20.493  1.00  0.00     0.211 HD
ENDBRANCH  13  15
ENDBRANCH  11  13
ENDBRANCH   8  11
ENDBRANCH   7   8
ENDBRANCH   5   7
ENDBRANCH   1   5
BRANCH   3  17
ATOM     17  C   UNL A   1      31.426  30.992  25.966  1.00  0.00     0.117 C 
BRANCH  17  18
ATOM     18  C   UNL A   1      31.343  32.388  26.609  1.00  0.00     0.042 C 
BRANCH  18  19
ATOM     19  C   UNL A   1      32.604  32.999  27.208  1.00  0.00     0.118 C 
BRANCH  19  20
ATOM     20  N   UNL A   1      32.392  34.341  27.727  1.00  0.00    -0.352 N 
ATOM     21  C   UNL A   1      33.022  35.004  28.752  1.00  0.00     0.251 C 
ATOM     22  H   UNL A   1      31.686  34.855  27.273  1.00  0.00     0.163 HD
ATOM     23  O   UNL A   1      32.578  36.076  29.148  1.00  0.00    -0.269 OA
BRANCH  21  24
ATOM     24  C   UNL A   1      34.221  34.434  29.414  1.00  0.00     0.039 A 
ATOM     25  C   UNL A   1      34.076  33.884  30.692  1.00  0.00     0.014 A 
ATOM     26  C   UNL A   1      35.489  34.507  28.832  1.00  0.00     0.014 A 
ATOM     27  C   UNL A   1      35.186  33.352  31.359  1.00  0.00     0.010 A 
ATOM     28  C   UNL A   1      36.591  33.939  29.481  1.00  0.00     0.010 A 
ATOM     29  C   UNL A   1      36.449  33.348  30.748  1.00  0.00    -0.014 A 
BRANCH  29  30
ATOM     30  C   UNL A   1      37.619  32.706  31.408  1.00  0.00     0.031 A 
ATOM     31  C   UNL A   1      38.329  31.548  30.764  1.00  0.00     0.074 A 
ATOM     32  C   UNL A   1      38.013  33.133  32.625  1.00  0.00     0.049 A 
ATOM     33  N   UNL A   1      39.305  30.810  31.234  1.00  0.00    -0.248 NA
ATOM     34  C   UNL A   1      37.874  31.160  29.421  1.00  0.00     0.031 C 
ATOM     35  C   UNL A   1      37.406  34.235  33.369  1.00  0.00     0.029 A 
ATOM     36  N   UNL A   1      39.009  32.679  33.455  1.00  0.00    -0.354 N 
ATOM     37  C   UNL A   1      39.572  29.863  30.253  1.00  0.00     0.074 A 
ATOM     38  C   UNL A   1      38.635  30.101  29.174  1.00  0.00     0.031 C 
ATOM     39  C   UNL A   1      38.043  34.376  34.542  1.00  0.00     0.029 A 
ATOM     40  C   UNL A   1      39.077  33.351  34.652  1.00  0.00     0.049 A 
ATOM     41  H   UNL A   1      39.616  31.942  33.216  1.00  0.00     0.167 HD
ATOM     42  C   UNL A   1      40.518  28.893  30.248  1.00  0.00     0.037 A 
ATOM     43  C   UNL A   1      39.868  33.154  35.725  1.00  0.00     0.037 A 
ATOM     44  C   UNL A   1      41.467  28.666  31.307  1.00  0.00     0.049 A 
ATOM     45  C   UNL A   1      40.893  32.053  35.702  1.00  0.00     0.074 A 
ATOM     46  C   UNL A   1      42.491  27.735  31.364  1.00  0.00     0.029 A 
ATOM     47  N   UNL A   1      41.509  29.375  32.498  1.00  0.00    -0.354 N 
ATOM     48  N   UNL A   1      41.164  31.195  34.751  1.00  0.00    -0.248 NA
ATOM     49  C   UNL A   1      41.725  31.896  36.905  1.00  0.00     0.031 C 
ATOM     50  C   UNL A   1      43.127  27.855  32.604  1.00  0.00     0.029 A 
ATOM     51  C   UNL A   1      42.528  28.889  33.303  1.00  0.00     0.049 A 
ATOM     52  H   UNL A   1      40.904  30.115  32.737  1.00  0.00     0.167 HD
ATOM     53  C   UNL A   1      42.215  30.419  35.224  1.00  0.00     0.074 A 
ATOM     54  C   UNL A   1      42.536  30.910  36.547  1.00  0.00     0.031 C 
ATOM     55  C   UNL A   1      42.855  29.396  34.611  1.00  0.00     0.037 A 
BRANCH  42  56
ATOM     56  C   UNL A   1      40.578  27.987  29.053  1.00  0.00     0.064 A 
ATOM     57  C   UNL A   1      41.414  28.263  27.962  1.00  0.00     0.173 A 
ATOM     58  C   UNL A   1      39.834  26.797  29.025  1.00  0.00     0.173 A 
ATOM     59  F   UNL A   1      42.142  29.391  27.938  1.00  0.00    -0.203 F 
ATOM     60  C   UNL A   1      41.487  27.395  26.876  1.00  0.00     0.198 A 
ATOM     61  C   UNL A   1      39.928  25.918  27.950  1.00  0.00     0.198 A 
ATOM     62  F   UNL A   1      39.026  26.480  30.049  1.00  0.00    -0.203 F 
ATOM     63  F   UNL A   1      42.264  27.699  25.828  1.00  0.00    -0.200 F 
ATOM     64  C   UNL A   1      40.749  26.220  26.874  1.00  0.00     0.200 A 
ATOM     65  F   UNL A   1      39.225  24.777  27.955  1.00  0.00    -0.200 F 
ATOM     66  F   UNL A   1      40.826  25.382  25.831  1.00  0.00    -0.200 F 
ENDBRANCH  42  56
BRANCH  43  67
ATOM     67  C   UNL A   1      39.727  34.030  36.915  1.00  0.00     0.064 A 
ATOM     68  C   UNL A   1      40.406  35.253  36.993  1.00  0.00     0.173 A 
ATOM     69  C   UNL A   1      38.914  33.663  37.997  1.00  0.00     0.173 A 
ATOM     70  F   UNL A   1      41.214  35.635  35.992  1.00  0.00    -0.203 F 
ATOM     71  C   UNL A   1      40.290  36.071  38.115  1.00  0.00     0.198 A 
ATOM     72  C   UNL A   1      38.778  34.493  39.107  1.00  0.00     0.198 A 
ATOM     73  F   UNL A   1      38.241  32.503  37.969  1.00  0.00    -0.203 F 
ATOM     74  F   UNL A   1      40.982  37.217  38.181  1.00  0.00    -0.200 F 
ATOM     75  C   UNL A   1      39.472  35.694  39.169  1.00  0.00     0.200 A 
ATOM     76  F   UNL A   1      37.976  34.131  40.118  1.00  0.00    -0.200 F 
ATOM     77  F   UNL A   1      39.356  36.481  40.246  1.00  0.00    -0.200 F 
ENDBRANCH  43  67
BRANCH  55  78
ATOM     78  C   UNL A   1      44.004  28.760  35.338  1.00  0.00     0.064 A 
ATOM     79  C   UNL A   1      43.820  27.656  36.181  1.00  0.00     0.173 A 
ATOM     80  C   UNL A   1      45.312  29.228  35.140  1.00  0.00     0.173 A 
ATOM     81  F   UNL A   1      42.587  27.182  36.415  1.00  0.00    -0.203 F 
ATOM     82  C   UNL A   1      44.905  27.051  36.812  1.00  0.00     0.198 A 
ATOM     83  C   UNL A   1      46.395  28.606  35.753  1.00  0.00     0.198 A 
ATOM     84  F   UNL A   1      45.539  30.280  34.338  1.00  0.00    -0.203 F 
ATOM     85  F   UNL A   1      44.704  26.017  37.641  1.00  0.00    -0.200 F 
ATOM     86  C   UNL A   1      46.192  27.521  36.591  1.00  0.00     0.200 A 
ATOM     87  F   UNL A   1      47.638  29.055  35.530  1.00  0.00    -0.200 F 
ATOM     88  F   UNL A   1      47.234  26.931  37.190  1.00  0.00    -0.200 F 
ENDBRANCH  55  78
ENDBRANCH  29  30
ENDBRANCH  21  24
ENDBRANCH  19  20
ENDBRANCH  18  19
ENDBRANCH  17  18
ENDBRANCH   3  17
TORSDOF 15
ENDMDL
