MODEL 1
REMARK VINA RESULT:     -11.5      0.000      0.000
REMARK SMILES CC(C)([NH2+]C[C@@H]1COc2ccccc21)C(=O)NCCCNC(=O)c1ccc(-c2c3nc(c(-c4c(F)c(F)c(F)c(F)c4F)c4ccc([nH]4)c(-c4c(F)c(F)c(F)c(F)c4F)c4nc(c(-c5c(F)c(F)c(F)c(F)c5F)c5ccc2[nH]5)C=C4)C=C3)cc1
REMARK SMILES IDX 18 1 17 2 15 3 16 4 2 6 1 7 3 8 4 9 5 12 6 13 7 14 14 15
REMARK SMILES IDX 8 16 9 17 13 18 10 19 12 20 11 21 19 22 20 23 21 24 22 25
REMARK SMILES IDX 23 27 24 28 25 29 86 30 26 31 85 32 27 33 28 34 29 35 79 36
REMARK SMILES IDX 30 37 84 38 78 39 80 40 31 41 83 42 77 43 76 44 32 46 64 47
REMARK SMILES IDX 44 48 63 49 45 50 48 51 62 52 81 53 46 54 47 55 61 57 82 58
REMARK SMILES IDX 49 59 33 60 34 61 42 62 35 63 36 64 40 65 43 66 37 67 38 68
REMARK SMILES IDX 41 69 39 70 65 71 66 72 74 73 67 74 68 75 72 76 75 77 69 78
REMARK SMILES IDX 70 79 73 80 71 81 50 82 51 83 59 84 52 85 53 86 57 87 60 88
REMARK SMILES IDX 54 89 55 90 58 91 56 92
REMARK H PARENT 17 5 4 10 4 11 21 26 80 45 48 56
REMARK Flexibility Score: inf
ROOT
ATOM      1  C   UNL A   1      33.799  35.032  28.856  1.00  0.00     0.118 C 
ENDROOT
BRANCH   1   2
ATOM      2  N   UNL A   1      32.743  35.315  29.812  1.00  0.00    -0.351 N 
ATOM      3  C   UNL A   1      32.990  36.191  30.845  1.00  0.00     0.280 C 
ATOM      4  O   UNL A   1      32.880  37.396  30.599  1.00  0.00    -0.268 OA
ATOM      5  H   UNL A   1      31.861  34.886  29.722  1.00  0.00     0.163 HD
BRANCH   3   6
ATOM      6  C   UNL A   1      33.110  35.641  32.302  1.00  0.00     0.169 C 
ATOM      7  C   UNL A   1      31.655  35.678  32.835  1.00  0.00     0.090 C 
ATOM      8  C   UNL A   1      33.937  36.570  33.211  1.00  0.00     0.090 C 
BRANCH   6   9
ATOM      9  N   UNL A   1      33.537  34.232  32.472  1.00  0.00    -0.333 N 
ATOM     10  H   UNL A   1      33.944  33.952  31.579  1.00  0.00     0.347 HD
ATOM     11  H   UNL A   1      32.676  33.795  32.798  1.00  0.00     0.347 HD
BRANCH   9  12
ATOM     12  C   UNL A   1      34.484  33.809  33.495  1.00  0.00     0.273 C 
BRANCH  12  13
ATOM     13  C   UNL A   1      35.990  33.513  33.292  1.00  0.00     0.116 C 
ATOM     14  C   UNL A   1      36.830  34.461  34.167  1.00  0.00     0.244 C 
ATOM     15  C   UNL A   1      36.724  33.641  32.002  1.00  0.00     0.006 A 
ATOM     16  O   UNL A   1      38.078  34.760  33.518  1.00  0.00    -0.492 OA
ATOM     17  C   UNL A   1      37.881  34.377  32.219  1.00  0.00     0.123 A 
ATOM     18  C   UNL A   1      36.500  33.120  30.737  1.00  0.00     0.008 A 
ATOM     19  C   UNL A   1      38.771  34.688  31.207  1.00  0.00     0.047 A 
ATOM     20  C   UNL A   1      37.372  33.436  29.689  1.00  0.00     0.001 A 
ATOM     21  C   UNL A   1      38.496  34.231  29.921  1.00  0.00     0.004 A 
ENDBRANCH  12  13
ENDBRANCH   9  12
ENDBRANCH   6   9
ENDBRANCH   3   6
ENDBRANCH   1   2
BRANCH   1  22
ATOM     22  C   UNL A   1      33.457  33.870  27.946  1.00  0.00     0.042 C 
BRANCH  22  23
ATOM     23  C   UNL A   1      34.075  32.579  28.424  1.00  0.00     0.118 C 
BRANCH  23  24
ATOM     24  N   UNL A   1      33.671  31.408  27.654  1.00  0.00    -0.352 N 
ATOM     25  C   UNL A   1      34.363  30.232  27.436  1.00  0.00     0.251 C 
ATOM     26  H   UNL A   1      32.784  31.463  27.232  1.00  0.00     0.163 HD
ATOM     27  O   UNL A   1      33.902  29.370  26.706  1.00  0.00    -0.269 OA
BRANCH  25  28
ATOM     28  C   UNL A   1      35.699  30.058  28.050  1.00  0.00     0.039 A 
ATOM     29  C   UNL A   1      35.784  29.630  29.378  1.00  0.00     0.014 A 
ATOM     30  C   UNL A   1      36.860  30.237  27.299  1.00  0.00     0.014 A 
ATOM     31  C   UNL A   1      37.028  29.283  29.910  1.00  0.00     0.010 A 
ATOM     32  C   UNL A   1      38.069  29.763  27.782  1.00  0.00     0.010 A 
ATOM     33  C   UNL A   1      38.172  29.292  29.097  1.00  0.00    -0.014 A 
BRANCH  33  34
ATOM     34  C   UNL A   1      39.498  28.846  29.593  1.00  0.00     0.031 A 
ATOM     35  C   UNL A   1      40.222  29.681  30.617  1.00  0.00     0.074 A 
ATOM     36  C   UNL A   1      40.089  27.757  29.063  1.00  0.00     0.049 A 
ATOM     37  N   UNL A   1      41.442  29.561  31.074  1.00  0.00    -0.248 NA
ATOM     38  C   UNL A   1      39.490  30.836  31.164  1.00  0.00     0.031 C 
ATOM     39  C   UNL A   1      39.519  26.899  28.023  1.00  0.00     0.029 A 
ATOM     40  N   UNL A   1      41.313  27.190  29.322  1.00  0.00    -0.354 N 
ATOM     41  C   UNL A   1      41.628  30.638  31.932  1.00  0.00     0.074 A 
ATOM     42  C   UNL A   1      40.427  31.438  31.881  1.00  0.00     0.031 C 
ATOM     43  C   UNL A   1      40.376  25.900  27.754  1.00  0.00     0.029 A 
ATOM     44  C   UNL A   1      41.572  26.068  28.571  1.00  0.00     0.049 A 
ATOM     45  H   UNL A   1      41.946  27.554  29.982  1.00  0.00     0.167 HD
ATOM     46  C   UNL A   1      42.691  30.914  32.722  1.00  0.00     0.037 A 
ATOM     47  C   UNL A   1      42.657  25.271  28.546  1.00  0.00     0.037 A 
ATOM     48  C   UNL A   1      43.860  30.084  32.814  1.00  0.00     0.049 A 
ATOM     49  C   UNL A   1      43.815  25.588  29.456  1.00  0.00     0.074 A 
ATOM     50  C   UNL A   1      44.969  30.241  33.626  1.00  0.00     0.029 A 
ATOM     51  N   UNL A   1      44.061  28.927  32.076  1.00  0.00    -0.354 N 
ATOM     52  N   UNL A   1      43.956  26.577  30.304  1.00  0.00    -0.248 NA
ATOM     53  C   UNL A   1      44.964  24.671  29.409  1.00  0.00     0.031 C 
ATOM     54  C   UNL A   1      45.855  29.192  33.360  1.00  0.00     0.029 A 
ATOM     55  C   UNL A   1      45.279  28.361  32.412  1.00  0.00     0.049 A 
ATOM     56  H   UNL A   1      43.431  28.562  31.414  1.00  0.00     0.167 HD
ATOM     57  C   UNL A   1      45.187  26.385  30.914  1.00  0.00     0.074 A 
ATOM     58  C   UNL A   1      45.749  25.176  30.349  1.00  0.00     0.031 C 
ATOM     59  C   UNL A   1      45.803  27.142  31.854  1.00  0.00     0.037 A 
BRANCH  46  60
ATOM     60  C   UNL A   1      42.623  32.150  33.571  1.00  0.00     0.064 A 
ATOM     61  C   UNL A   1      42.121  32.111  34.882  1.00  0.00     0.173 A 
ATOM     62  C   UNL A   1      43.093  33.379  33.086  1.00  0.00     0.173 A 
ATOM     63  F   UNL A   1      41.643  30.964  35.387  1.00  0.00    -0.203 F 
ATOM     64  C   UNL A   1      42.067  33.261  35.664  1.00  0.00     0.198 A 
ATOM     65  C   UNL A   1      43.067  34.521  33.882  1.00  0.00     0.198 A 
ATOM     66  F   UNL A   1      43.584  33.471  31.841  1.00  0.00    -0.203 F 
ATOM     67  F   UNL A   1      41.537  33.208  36.894  1.00  0.00    -0.200 F 
ATOM     68  C   UNL A   1      42.548  34.463  35.167  1.00  0.00     0.200 A 
ATOM     69  F   UNL A   1      43.542  35.680  33.405  1.00  0.00    -0.200 F 
ATOM     70  F   UNL A   1      42.505  35.567  35.924  1.00  0.00    -0.200 F 
ENDBRANCH  46  60
BRANCH  47  71
ATOM     71  C   UNL A   1      42.696  24.078  27.659  1.00  0.00     0.064 A 
ATOM     72  C   UNL A   1      42.377  22.806  28.154  1.00  0.00     0.173 A 
ATOM     73  C   UNL A   1      43.075  24.177  26.312  1.00  0.00     0.173 A 
ATOM     74  F   UNL A   1      42.027  22.658  29.441  1.00  0.00    -0.203 F 
ATOM     75  C   UNL A   1      42.466  21.673  27.347  1.00  0.00     0.198 A 
ATOM     76  C   UNL A   1      43.135  23.047  25.498  1.00  0.00     0.198 A 
ATOM     77  F   UNL A   1      43.383  25.371  25.786  1.00  0.00    -0.203 F 
ATOM     78  F   UNL A   1      42.210  20.464  27.863  1.00  0.00    -0.200 F 
ATOM     79  C   UNL A   1      42.841  21.796  26.018  1.00  0.00     0.200 A 
ATOM     80  F   UNL A   1      43.485  23.171  24.210  1.00  0.00    -0.200 F 
ATOM     81  F   UNL A   1      42.931  20.706  25.242  1.00  0.00    -0.200 F 
ENDBRANCH  47  71
BRANCH  59  82
ATOM     82  C   UNL A   1      47.126  26.659  32.368  1.00  0.00     0.064 A 
ATOM     83  C   UNL A   1      48.336  27.098  31.812  1.00  0.00     0.173 A 
ATOM     84  C   UNL A   1      47.182  25.785  33.464  1.00  0.00     0.173 A 
ATOM     85  F   UNL A   1      48.331  27.924  30.754  1.00  0.00    -0.203 F 
ATOM     86  C   UNL A   1      49.554  26.660  32.320  1.00  0.00     0.198 A 
ATOM     87  C   UNL A   1      48.403  25.372  33.987  1.00  0.00     0.198 A 
ATOM     88  F   UNL A   1      46.052  25.343  34.035  1.00  0.00    -0.203 F 
ATOM     89  F   UNL A   1      50.698  27.058  31.745  1.00  0.00    -0.200 F 
ATOM     90  C   UNL A   1      49.588  25.804  33.411  1.00  0.00     0.200 A 
ATOM     91  F   UNL A   1      48.434  24.557  35.050  1.00  0.00    -0.200 F 
ATOM     92  F   UNL A   1      50.764  25.392  33.903  1.00  0.00    -0.200 F 
ENDBRANCH  59  82
ENDBRANCH  33  34
ENDBRANCH  25  28
ENDBRANCH  23  24
ENDBRANCH  22  23
ENDBRANCH   1  22
TORSDOF 13
ENDMDL
MODEL 2
REMARK VINA RESULT:     -11.3      0.674      2.101
REMARK SMILES CC(C)([NH2+]C[C@@H]1COc2ccccc21)C(=O)NCCCNC(=O)c1ccc(-c2c3nc(c(-c4c(F)c(F)c(F)c(F)c4F)c4ccc([nH]4)c(-c4c(F)c(F)c(F)c(F)c4F)c4nc(c(-c5c(F)c(F)c(F)c(F)c5F)c5ccc2[nH]5)C=C4)C=C3)cc1
REMARK SMILES IDX 18 1 17 2 15 3 16 4 2 6 1 7 3 8 4 9 5 12 6 13 7 14 14 15
REMARK SMILES IDX 8 16 9 17 13 18 10 19 12 20 11 21 19 22 20 23 21 24 22 25
REMARK SMILES IDX 23 27 24 28 25 29 86 30 26 31 85 32 27 33 28 34 29 35 79 36
REMARK SMILES IDX 30 37 84 38 78 39 80 40 31 41 83 42 77 43 76 44 32 46 64 47
REMARK SMILES IDX 44 48 63 49 45 50 48 51 62 52 81 53 46 54 47 55 61 57 82 58
REMARK SMILES IDX 49 59 33 60 34 61 42 62 35 63 36 64 40 65 43 66 37 67 38 68
REMARK SMILES IDX 41 69 39 70 65 71 66 72 74 73 67 74 68 75 72 76 75 77 69 78
REMARK SMILES IDX 70 79 73 80 71 81 50 82 51 83 59 84 52 85 53 86 57 87 60 88
REMARK SMILES IDX 54 89 55 90 58 91 56 92
REMARK H PARENT 17 5 4 10 4 11 21 26 80 45 48 56
REMARK Flexibility Score: inf
ROOT
ATOM      1  C   UNL A   1      34.285  35.130  28.688  1.00  0.00     0.118 C 
ENDROOT
BRANCH   1   2
ATOM      2  N   UNL A   1      33.133  35.147  29.570  1.00  0.00    -0.351 N 
ATOM      3  C   UNL A   1      33.072  36.085  30.577  1.00  0.00     0.280 C 
ATOM      4  O   UNL A   1      32.664  37.210  30.273  1.00  0.00    -0.268 OA
ATOM      5  H   UNL A   1      32.403  34.497  29.450  1.00  0.00     0.163 HD
BRANCH   3   6
ATOM      6  C   UNL A   1      33.238  35.625  32.060  1.00  0.00     0.169 C 
ATOM      7  C   UNL A   1      31.805  35.727  32.643  1.00  0.00     0.090 C 
ATOM      8  C   UNL A   1      34.117  36.592  32.876  1.00  0.00     0.090 C 
BRANCH   6   9
ATOM      9  N   UNL A   1      33.645  34.222  32.304  1.00  0.00    -0.333 N 
ATOM     10  H   UNL A   1      34.025  33.882  31.421  1.00  0.00     0.347 HD
ATOM     11  H   UNL A   1      32.784  33.821  32.676  1.00  0.00     0.347 HD
BRANCH   9  12
ATOM     12  C   UNL A   1      34.609  33.843  33.328  1.00  0.00     0.273 C 
BRANCH  12  13
ATOM     13  C   UNL A   1      36.099  33.486  33.106  1.00  0.00     0.116 C 
ATOM     14  C   UNL A   1      36.986  34.373  33.998  1.00  0.00     0.244 C 
ATOM     15  C   UNL A   1      36.829  33.615  31.814  1.00  0.00     0.006 A 
ATOM     16  O   UNL A   1      38.242  34.634  33.347  1.00  0.00    -0.492 OA
ATOM     17  C   UNL A   1      38.019  34.293  32.040  1.00  0.00     0.123 A 
ATOM     18  C   UNL A   1      36.574  33.137  30.538  1.00  0.00     0.008 A 
ATOM     19  C   UNL A   1      38.915  34.591  31.029  1.00  0.00     0.047 A 
ATOM     20  C   UNL A   1      37.452  33.442  29.492  1.00  0.00     0.001 A 
ATOM     21  C   UNL A   1      38.611  34.180  29.734  1.00  0.00     0.004 A 
ENDBRANCH  12  13
ENDBRANCH   9  12
ENDBRANCH   6   9
ENDBRANCH   3   6
ENDBRANCH   1   2
BRANCH   1  22
ATOM     22  C   UNL A   1      34.282  33.934  27.757  1.00  0.00     0.042 C 
BRANCH  22  23
ATOM     23  C   UNL A   1      33.893  32.663  28.474  1.00  0.00     0.118 C 
BRANCH  23  24
ATOM     24  N   UNL A   1      33.574  31.554  27.582  1.00  0.00    -0.352 N 
ATOM     25  C   UNL A   1      34.299  30.405  27.334  1.00  0.00     0.251 C 
ATOM     26  H   UNL A   1      32.726  31.635  27.090  1.00  0.00     0.163 HD
ATOM     27  O   UNL A   1      33.915  29.599  26.502  1.00  0.00    -0.269 OA
BRANCH  25  28
ATOM     28  C   UNL A   1      35.579  30.192  28.048  1.00  0.00     0.039 A 
ATOM     29  C   UNL A   1      35.555  29.673  29.345  1.00  0.00     0.014 A 
ATOM     30  C   UNL A   1      36.798  30.427  27.413  1.00  0.00     0.014 A 
ATOM     31  C   UNL A   1      36.751  29.294  29.957  1.00  0.00     0.010 A 
ATOM     32  C   UNL A   1      37.966  29.924  27.964  1.00  0.00     0.010 A 
ATOM     33  C   UNL A   1      37.961  29.363  29.248  1.00  0.00    -0.014 A 
BRANCH  33  34
ATOM     34  C   UNL A   1      39.244  28.888  29.824  1.00  0.00     0.031 A 
ATOM     35  C   UNL A   1      39.858  29.638  30.976  1.00  0.00     0.074 A 
ATOM     36  C   UNL A   1      39.898  27.853  29.260  1.00  0.00     0.049 A 
ATOM     37  N   UNL A   1      41.033  29.491  31.531  1.00  0.00    -0.248 NA
ATOM     38  C   UNL A   1      39.061  30.736  31.549  1.00  0.00     0.031 C 
ATOM     39  C   UNL A   1      39.438  27.082  28.104  1.00  0.00     0.029 A 
ATOM     40  N   UNL A   1      41.102  27.277  29.581  1.00  0.00    -0.354 N 
ATOM     41  C   UNL A   1      41.123  30.492  32.490  1.00  0.00     0.074 A 
ATOM     42  C   UNL A   1      39.919  31.284  32.397  1.00  0.00     0.031 C 
ATOM     43  C   UNL A   1      40.331  26.116  27.832  1.00  0.00     0.029 A 
ATOM     44  C   UNL A   1      41.446  26.225  28.766  1.00  0.00     0.049 A 
ATOM     45  H   UNL A   1      41.667  27.588  30.326  1.00  0.00     0.167 HD
ATOM     46  C   UNL A   1      42.106  30.709  33.395  1.00  0.00     0.037 A 
ATOM     47  C   UNL A   1      42.542  25.442  28.774  1.00  0.00     0.037 A 
ATOM     48  C   UNL A   1      43.276  29.884  33.523  1.00  0.00     0.049 A 
ATOM     49  C   UNL A   1      43.607  25.690  29.809  1.00  0.00     0.074 A 
ATOM     50  C   UNL A   1      44.303  29.981  34.443  1.00  0.00     0.029 A 
ATOM     51  N   UNL A   1      43.561  28.796  32.712  1.00  0.00    -0.354 N 
ATOM     52  N   UNL A   1      43.655  26.604  30.746  1.00  0.00    -0.248 NA
ATOM     53  C   UNL A   1      44.770  24.790  29.791  1.00  0.00     0.031 C 
ATOM     54  C   UNL A   1      45.227  28.966  34.173  1.00  0.00     0.029 A 
ATOM     55  C   UNL A   1      44.753  28.214  33.109  1.00  0.00     0.049 A 
ATOM     56  H   UNL A   1      43.000  28.484  31.967  1.00  0.00     0.167 HD
ATOM     57  C   UNL A   1      44.829  26.372  31.448  1.00  0.00     0.074 A 
ATOM     58  C   UNL A   1      45.460  25.220  30.838  1.00  0.00     0.031 C 
ATOM     59  C   UNL A   1      45.345  27.051  32.501  1.00  0.00     0.037 A 
BRANCH  46  60
ATOM     60  C   UNL A   1      41.941  31.867  34.335  1.00  0.00     0.064 A 
ATOM     61  C   UNL A   1      42.400  33.151  34.002  1.00  0.00     0.173 A 
ATOM     62  C   UNL A   1      41.289  31.702  35.566  1.00  0.00     0.173 A 
ATOM     63  F   UNL A   1      43.044  33.358  32.844  1.00  0.00    -0.203 F 
ATOM     64  C   UNL A   1      42.236  34.221  34.878  1.00  0.00     0.198 A 
ATOM     65  C   UNL A   1      41.100  32.781  36.426  1.00  0.00     0.198 A 
ATOM     66  F   UNL A   1      40.831  30.496  35.933  1.00  0.00    -0.203 F 
ATOM     67  F   UNL A   1      42.728  35.426  34.560  1.00  0.00    -0.200 F 
ATOM     68  C   UNL A   1      41.579  34.037  36.085  1.00  0.00     0.200 A 
ATOM     69  F   UNL A   1      40.455  32.604  37.588  1.00  0.00    -0.200 F 
ATOM     70  F   UNL A   1      41.414  35.068  36.923  1.00  0.00    -0.200 F 
ENDBRANCH  46  60
BRANCH  47  71
ATOM     71  C   UNL A   1      42.680  24.330  27.796  1.00  0.00     0.064 A 
ATOM     72  C   UNL A   1      43.090  24.581  26.479  1.00  0.00     0.173 A 
ATOM     73  C   UNL A   1      42.383  23.004  28.145  1.00  0.00     0.173 A 
ATOM     74  F   UNL A   1      43.367  25.835  26.093  1.00  0.00    -0.203 F 
ATOM     75  C   UNL A   1      43.167  23.554  25.539  1.00  0.00     0.198 A 
ATOM     76  C   UNL A   1      42.488  21.974  27.212  1.00  0.00     0.198 A 
ATOM     77  F   UNL A   1      41.993  22.709  29.393  1.00  0.00    -0.203 F 
ATOM     78  F   UNL A   1      43.507  23.833  24.273  1.00  0.00    -0.200 F 
ATOM     79  C   UNL A   1      42.870  22.251  25.907  1.00  0.00     0.200 A 
ATOM     80  F   UNL A   1      42.213  20.714  27.574  1.00  0.00    -0.200 F 
ATOM     81  F   UNL A   1      42.940  21.265  25.002  1.00  0.00    -0.200 F 
ENDBRANCH  47  71
BRANCH  59  82
ATOM     82  C   UNL A   1      46.624  26.538  33.092  1.00  0.00     0.064 A 
ATOM     83  C   UNL A   1      46.629  25.547  34.084  1.00  0.00     0.173 A 
ATOM     84  C   UNL A   1      47.859  27.008  32.621  1.00  0.00     0.173 A 
ATOM     85  F   UNL A   1      45.472  25.076  34.574  1.00  0.00    -0.203 F 
ATOM     86  C   UNL A   1      47.827  25.063  34.601  1.00  0.00     0.198 A 
ATOM     87  C   UNL A   1      49.054  26.500  33.120  1.00  0.00     0.198 A 
ATOM     88  F   UNL A   1      47.905  27.949  31.667  1.00  0.00    -0.203 F 
ATOM     89  F   UNL A   1      47.809  24.148  35.580  1.00  0.00    -0.200 F 
ATOM     90  C   UNL A   1      49.038  25.534  34.114  1.00  0.00     0.200 A 
ATOM     91  F   UNL A   1      50.222  26.946  32.638  1.00  0.00    -0.200 F 
ATOM     92  F   UNL A   1      50.189  25.058  34.607  1.00  0.00    -0.200 F 
ENDBRANCH  59  82
ENDBRANCH  33  34
ENDBRANCH  25  28
ENDBRANCH  23  24
ENDBRANCH  22  23
ENDBRANCH   1  22
TORSDOF 13
ENDMDL
MODEL 3
REMARK VINA RESULT:     -11.2      1.110      1.700
REMARK SMILES CC(C)([NH2+]C[C@@H]1COc2ccccc21)C(=O)NCCCNC(=O)c1ccc(-c2c3nc(c(-c4c(F)c(F)c(F)c(F)c4F)c4ccc([nH]4)c(-c4c(F)c(F)c(F)c(F)c4F)c4nc(c(-c5c(F)c(F)c(F)c(F)c5F)c5ccc2[nH]5)C=C4)C=C3)cc1
REMARK SMILES IDX 18 1 17 2 15 3 16 4 2 6 1 7 3 8 4 9 5 12 6 13 7 14 14 15
REMARK SMILES IDX 8 16 9 17 13 18 10 19 12 20 11 21 19 22 20 23 21 24 22 25
REMARK SMILES IDX 23 27 24 28 25 29 86 30 26 31 85 32 27 33 28 34 29 35 79 36
REMARK SMILES IDX 30 37 84 38 78 39 80 40 31 41 83 42 77 43 76 44 32 46 64 47
REMARK SMILES IDX 44 48 63 49 45 50 48 51 62 52 81 53 46 54 47 55 61 57 82 58
REMARK SMILES IDX 49 59 33 60 34 61 42 62 35 63 36 64 40 65 43 66 37 67 38 68
REMARK SMILES IDX 41 69 39 70 65 71 66 72 74 73 67 74 68 75 72 76 75 77 69 78
REMARK SMILES IDX 70 79 73 80 71 81 50 82 51 83 59 84 52 85 53 86 57 87 60 88
REMARK SMILES IDX 54 89 55 90 58 91 56 92
REMARK H PARENT 17 5 4 10 4 11 21 26 80 45 48 56
REMARK Flexibility Score: inf
ROOT
ATOM      1  C   UNL A   1      34.415  34.861  28.633  1.00  0.00     0.118 C 
ENDROOT
BRANCH   1   2
ATOM      2  N   UNL A   1      33.252  34.777  29.497  1.00  0.00    -0.351 N 
ATOM      3  C   UNL A   1      33.037  35.765  30.432  1.00  0.00     0.280 C 
ATOM      4  O   UNL A   1      32.482  36.797  30.042  1.00  0.00    -0.268 OA
ATOM      5  H   UNL A   1      32.624  34.023  29.416  1.00  0.00     0.163 HD
BRANCH   3   6
ATOM      6  C   UNL A   1      33.232  35.441  31.947  1.00  0.00     0.169 C 
ATOM      7  C   UNL A   1      31.833  35.690  32.564  1.00  0.00     0.090 C 
ATOM      8  C   UNL A   1      34.200  36.423  32.635  1.00  0.00     0.090 C 
BRANCH   6   9
ATOM      9  N   UNL A   1      33.562  34.044  32.314  1.00  0.00    -0.333 N 
ATOM     10  H   UNL A   1      34.069  33.656  31.517  1.00  0.00     0.347 HD
ATOM     11  H   UNL A   1      32.645  33.675  32.562  1.00  0.00     0.347 HD
BRANCH   9  12
ATOM     12  C   UNL A   1      34.344  33.697  33.493  1.00  0.00     0.273 C 
BRANCH  12  13
ATOM     13  C   UNL A   1      35.816  33.218  33.517  1.00  0.00     0.116 C 
ATOM     14  C   UNL A   1      36.500  33.699  34.809  1.00  0.00     0.244 C 
ATOM     15  C   UNL A   1      36.859  33.599  32.522  1.00  0.00     0.006 A 
ATOM     16  O   UNL A   1      37.894  33.957  34.567  1.00  0.00    -0.492 OA
ATOM     17  C   UNL A   1      37.991  34.022  33.204  1.00  0.00     0.123 A 
ATOM     18  C   UNL A   1      36.908  33.529  31.139  1.00  0.00     0.008 A 
ATOM     19  C   UNL A   1      39.132  34.463  32.558  1.00  0.00     0.047 A 
ATOM     20  C   UNL A   1      38.042  33.988  30.458  1.00  0.00     0.001 A 
ATOM     21  C   UNL A   1      39.144  34.469  31.166  1.00  0.00     0.004 A 
ENDBRANCH  12  13
ENDBRANCH   9  12
ENDBRANCH   6   9
ENDBRANCH   3   6
ENDBRANCH   1   2
BRANCH   1  22
ATOM     22  C   UNL A   1      34.780  33.523  28.024  1.00  0.00     0.042 C 
BRANCH  22  23
ATOM     23  C   UNL A   1      34.442  32.374  28.944  1.00  0.00     0.118 C 
BRANCH  23  24
ATOM     24  N   UNL A   1      33.962  31.183  28.253  1.00  0.00    -0.352 N 
ATOM     25  C   UNL A   1      34.640  30.015  27.965  1.00  0.00     0.251 C 
ATOM     26  H   UNL A   1      33.026  31.216  27.951  1.00  0.00     0.163 HD
ATOM     27  O   UNL A   1      34.103  29.132  27.316  1.00  0.00    -0.269 OA
BRANCH  25  28
ATOM     28  C   UNL A   1      36.048  29.872  28.402  1.00  0.00     0.039 A 
ATOM     29  C   UNL A   1      36.316  29.334  29.663  1.00  0.00     0.014 A 
ATOM     30  C   UNL A   1      37.098  30.193  27.542  1.00  0.00     0.014 A 
ATOM     31  C   UNL A   1      37.632  29.022  30.013  1.00  0.00     0.010 A 
ATOM     32  C   UNL A   1      38.381  29.757  27.834  1.00  0.00     0.010 A 
ATOM     33  C   UNL A   1      38.668  29.177  29.077  1.00  0.00    -0.014 A 
BRANCH  33  34
ATOM     34  C   UNL A   1      40.066  28.776  29.372  1.00  0.00     0.031 A 
ATOM     35  C   UNL A   1      40.943  29.696  30.179  1.00  0.00     0.074 A 
ATOM     36  C   UNL A   1      40.572  27.644  28.842  1.00  0.00     0.049 A 
ATOM     37  N   UNL A   1      42.226  29.616  30.425  1.00  0.00    -0.248 NA
ATOM     38  C   UNL A   1      40.301  30.894  30.744  1.00  0.00     0.031 C 
ATOM     39  C   UNL A   1      39.843  26.700  27.993  1.00  0.00     0.029 A 
ATOM     40  N   UNL A   1      41.830  27.102  28.931  1.00  0.00    -0.354 N 
ATOM     41  C   UNL A   1      42.542  30.762  31.143  1.00  0.00     0.074 A 
ATOM     42  C   UNL A   1      41.338  31.556  31.233  1.00  0.00     0.031 C 
ATOM     43  C   UNL A   1      40.655  25.681  27.666  1.00  0.00     0.029 A 
ATOM     44  C   UNL A   1      41.972  25.919  28.246  1.00  0.00     0.049 A 
ATOM     45  H   UNL A   1      42.563  27.521  29.438  1.00  0.00     0.167 HD
ATOM     46  C   UNL A   1      43.722  31.105  31.710  1.00  0.00     0.037 A 
ATOM     47  C   UNL A   1      43.048  25.122  28.101  1.00  0.00     0.037 A 
ATOM     48  C   UNL A   1      44.901  30.286  31.668  1.00  0.00     0.049 A 
ATOM     49  C   UNL A   1      44.341  25.516  28.765  1.00  0.00     0.074 A 
ATOM     50  C   UNL A   1      46.131  30.512  32.258  1.00  0.00     0.029 A 
ATOM     51  N   UNL A   1      44.988  29.069  31.008  1.00  0.00    -0.354 N 
ATOM     52  N   UNL A   1      44.612  26.575  29.488  1.00  0.00    -0.248 NA
ATOM     53  C   UNL A   1      45.477  24.598  28.598  1.00  0.00     0.031 C 
ATOM     54  C   UNL A   1      46.973  29.444  31.933  1.00  0.00     0.029 A 
ATOM     55  C   UNL A   1      46.254  28.534  31.174  1.00  0.00     0.049 A 
ATOM     56  H   UNL A   1      44.259  28.649  30.498  1.00  0.00     0.167 HD
ATOM     57  C   UNL A   1      45.933  26.436  29.888  1.00  0.00     0.074 A 
ATOM     58  C   UNL A   1      46.407  25.183  29.340  1.00  0.00     0.031 C 
ATOM     59  C   UNL A   1      46.691  27.271  30.639  1.00  0.00     0.037 A 
BRANCH  46  60
ATOM     60  C   UNL A   1      43.783  32.410  32.449  1.00  0.00     0.064 A 
ATOM     61  C   UNL A   1      43.494  32.489  33.821  1.00  0.00     0.173 A 
ATOM     62  C   UNL A   1      44.166  33.589  31.792  1.00  0.00     0.173 A 
ATOM     63  F   UNL A   1      43.107  31.394  34.492  1.00  0.00    -0.203 F 
ATOM     64  C   UNL A   1      43.560  33.702  34.499  1.00  0.00     0.198 A 
ATOM     65  C   UNL A   1      44.262  34.795  32.481  1.00  0.00     0.198 A 
ATOM     66  F   UNL A   1      44.455  33.569  30.482  1.00  0.00    -0.203 F 
ATOM     67  F   UNL A   1      43.231  33.761  35.797  1.00  0.00    -0.200 F 
ATOM     68  C   UNL A   1      43.952  34.853  33.831  1.00  0.00     0.200 A 
ATOM     69  F   UNL A   1      44.652  35.903  31.836  1.00  0.00    -0.200 F 
ATOM     70  F   UNL A   1      44.025  36.018  34.487  1.00  0.00    -0.200 F 
ENDBRANCH  46  60
BRANCH  47  71
ATOM     71  C   UNL A   1      42.949  23.857  27.325  1.00  0.00     0.064 A 
ATOM     72  C   UNL A   1      42.488  22.680  27.931  1.00  0.00     0.173 A 
ATOM     73  C   UNL A   1      43.336  23.789  25.979  1.00  0.00     0.173 A 
ATOM     74  F   UNL A   1      42.125  22.689  29.222  1.00  0.00    -0.203 F 
ATOM     75  C   UNL A   1      42.447  21.475  27.229  1.00  0.00     0.198 A 
ATOM     76  C   UNL A   1      43.266  22.591  25.270  1.00  0.00     0.198 A 
ATOM     77  F   UNL A   1      43.778  24.888  25.350  1.00  0.00    -0.203 F 
ATOM     78  F   UNL A   1      42.056  20.354  27.851  1.00  0.00    -0.200 F 
ATOM     79  C   UNL A   1      42.833  21.433  25.899  1.00  0.00     0.200 A 
ATOM     80  F   UNL A   1      43.627  22.556  23.980  1.00  0.00    -0.200 F 
ATOM     81  F   UNL A   1      42.797  20.274  25.225  1.00  0.00    -0.200 F 
ENDBRANCH  47  71
BRANCH  59  82
ATOM     82  C   UNL A   1      48.090  26.834  30.955  1.00  0.00     0.064 A 
ATOM     83  C   UNL A   1      48.373  26.011  32.055  1.00  0.00     0.173 A 
ATOM     84  C   UNL A   1      49.153  27.203  30.116  1.00  0.00     0.173 A 
ATOM     85  F   UNL A   1      47.391  25.644  32.892  1.00  0.00    -0.203 F 
ATOM     86  C   UNL A   1      49.673  25.593  32.316  1.00  0.00     0.198 A 
ATOM     87  C   UNL A   1      50.447  26.759  30.365  1.00  0.00     0.198 A 
ATOM     88  F   UNL A   1      48.931  27.983  29.048  1.00  0.00    -0.203 F 
ATOM     89  F   UNL A   1      49.928  24.843  33.398  1.00  0.00    -0.200 F 
ATOM     90  C   UNL A   1      50.708  25.961  31.468  1.00  0.00     0.200 A 
ATOM     91  F   UNL A   1      51.442  27.103  29.537  1.00  0.00    -0.200 F 
ATOM     92  F   UNL A   1      51.958  25.548  31.718  1.00  0.00    -0.200 F 
ENDBRANCH  59  82
ENDBRANCH  33  34
ENDBRANCH  25  28
ENDBRANCH  23  24
ENDBRANCH  22  23
ENDBRANCH   1  22
TORSDOF 13
ENDMDL
