MODEL 1
REMARK VINA RESULT:     -10.6      0.000      0.000
REMARK SMILES O=C(CCCCc1nc(-c2ccccc2)no1)NCCCNC(=O)c1ccc(-c2c3nc(c(-c4c(F)c(F)c(F)c(F)c4F)c4ccc([nH]4)c(-c4c(F)c(F)c(F)c(F)c4F)c4nc(c(-c5c(F)c(F)c(F)c(F)c5F)c5ccc2[nH]5)C=C4)C=C3)cc1
REMARK SMILES IDX 1 1 2 2 18 3 3 5 4 6 5 7 6 8 7 9 8 10 17 11 9 12 16 13 10 14
REMARK SMILES IDX 11 15 15 16 12 17 14 18 13 19 19 20 20 21 21 22 22 23 23 24
REMARK SMILES IDX 24 26 25 27 26 28 87 29 27 30 86 31 28 32 29 33 30 34 80 35
REMARK SMILES IDX 31 36 85 37 79 38 81 39 32 40 84 41 78 42 77 43 33 45 65 46
REMARK SMILES IDX 45 47 64 48 46 49 49 50 63 51 82 52 47 53 48 54 62 56 83 57
REMARK SMILES IDX 50 58 34 59 35 60 43 61 36 62 37 63 41 64 44 65 38 66 39 67
REMARK SMILES IDX 42 68 40 69 66 70 67 71 75 72 68 73 69 74 73 75 76 76 70 77
REMARK SMILES IDX 71 78 74 79 72 80 51 81 52 82 60 83 53 84 54 85 58 86 61 87
REMARK SMILES IDX 55 88 56 89 59 90 57 91
REMARK H PARENT 18 4 22 25 81 44 49 55
REMARK Flexibility Score: inf
ROOT
ATOM      1  O   UNL A   1      32.080  35.358  31.479  1.00  0.00    -0.275 OA
ATOM      2  C   UNL A   1      33.018  36.100  31.210  1.00  0.00     0.219 C 
ATOM      3  N   UNL A   1      33.711  36.059  30.022  1.00  0.00    -0.356 N 
ATOM      4  H   UNL A   1      34.403  36.739  29.851  1.00  0.00     0.163 HD
ENDROOT
BRANCH   2   5
ATOM      5  C   UNL A   1      33.538  37.135  32.189  1.00  0.00     0.100 C 
BRANCH   5   6
ATOM      6  C   UNL A   1      34.179  36.498  33.423  1.00  0.00     0.010 C 
BRANCH   6   7
ATOM      7  C   UNL A   1      35.160  35.346  33.160  1.00  0.00     0.010 C 
BRANCH   7   8
ATOM      8  C   UNL A   1      34.778  33.999  33.777  1.00  0.00     0.100 C 
BRANCH   8   9
ATOM      9  C   UNL A   1      35.936  33.112  34.021  1.00  0.00     0.226 A 
ATOM     10  N   UNL A   1      36.513  32.246  33.220  1.00  0.00    -0.191 NA
ATOM     11  O   UNL A   1      36.446  33.108  35.284  1.00  0.00    -0.339 OA
ATOM     12  C   UNL A   1      37.411  31.623  34.062  1.00  0.00     0.202 A 
ATOM     13  N   UNL A   1      37.423  32.120  35.310  1.00  0.00    -0.057 NA
BRANCH  12  14
ATOM     14  C   UNL A   1      38.213  30.481  33.651  1.00  0.00     0.023 A 
ATOM     15  C   UNL A   1      37.613  29.409  32.973  1.00  0.00     0.012 A 
ATOM     16  C   UNL A   1      39.589  30.442  33.903  1.00  0.00     0.012 A 
ATOM     17  C   UNL A   1      38.374  28.317  32.555  1.00  0.00     0.001 A 
ATOM     18  C   UNL A   1      40.348  29.340  33.497  1.00  0.00     0.001 A 
ATOM     19  C   UNL A   1      39.741  28.281  32.821  1.00  0.00     0.000 A 
ENDBRANCH  12  14
ENDBRANCH   8   9
ENDBRANCH   7   8
ENDBRANCH   6   7
ENDBRANCH   5   6
ENDBRANCH   2   5
BRANCH   3  20
ATOM     20  C   UNL A   1      33.460  35.051  29.013  1.00  0.00     0.117 C 
BRANCH  20  21
ATOM     21  C   UNL A   1      34.199  33.746  29.288  1.00  0.00     0.042 C 
BRANCH  21  22
ATOM     22  C   UNL A   1      34.673  32.990  28.050  1.00  0.00     0.118 C 
BRANCH  22  23
ATOM     23  N   UNL A   1      33.879  31.811  27.743  1.00  0.00    -0.352 N 
ATOM     24  C   UNL A   1      34.252  30.491  27.682  1.00  0.00     0.251 C 
ATOM     25  H   UNL A   1      32.930  31.985  27.549  1.00  0.00     0.163 HD
ATOM     26  O   UNL A   1      33.438  29.651  27.298  1.00  0.00    -0.269 OA
BRANCH  24  27
ATOM     27  C   UNL A   1      35.627  30.063  28.033  1.00  0.00     0.039 A 
ATOM     28  C   UNL A   1      36.614  30.122  27.045  1.00  0.00     0.014 A 
ATOM     29  C   UNL A   1      35.953  29.589  29.307  1.00  0.00     0.014 A 
ATOM     30  C   UNL A   1      37.933  29.774  27.349  1.00  0.00     0.010 A 
ATOM     31  C   UNL A   1      37.282  29.308  29.631  1.00  0.00     0.010 A 
ATOM     32  C   UNL A   1      38.287  29.401  28.657  1.00  0.00    -0.014 A 
BRANCH  32  33
ATOM     33  C   UNL A   1      39.708  29.142  29.010  1.00  0.00     0.031 A 
ATOM     34  C   UNL A   1      40.501  30.136  29.815  1.00  0.00     0.074 A 
ATOM     35  C   UNL A   1      40.303  28.018  28.567  1.00  0.00     0.049 A 
ATOM     36  N   UNL A   1      41.746  30.068  30.219  1.00  0.00    -0.248 NA
ATOM     37  C   UNL A   1      39.815  31.380  30.194  1.00  0.00     0.031 C 
ATOM     38  C   UNL A   1      39.669  27.004  27.724  1.00  0.00     0.029 A 
ATOM     39  N   UNL A   1      41.575  27.538  28.762  1.00  0.00    -0.354 N 
ATOM     40  C   UNL A   1      41.992  31.258  30.891  1.00  0.00     0.074 A 
ATOM     41  C   UNL A   1      40.786  32.052  30.796  1.00  0.00     0.031 C 
ATOM     42  C   UNL A   1      40.540  26.008  27.501  1.00  0.00     0.029 A 
ATOM     43  C   UNL A   1      41.803  26.323  28.162  1.00  0.00     0.049 A 
ATOM     44  H   UNL A   1      42.258  28.018  29.282  1.00  0.00     0.167 HD
ATOM     45  C   UNL A   1      43.113  31.643  31.550  1.00  0.00     0.037 A 
ATOM     46  C   UNL A   1      42.903  25.547  28.150  1.00  0.00     0.037 A 
ATOM     47  C   UNL A   1      44.308  30.846  31.663  1.00  0.00     0.049 A 
ATOM     48  C   UNL A   1      44.124  25.986  28.911  1.00  0.00     0.074 A 
ATOM     49  C   UNL A   1      45.473  31.127  32.356  1.00  0.00     0.029 A 
ATOM     50  N   UNL A   1      44.491  29.608  31.064  1.00  0.00    -0.354 N 
ATOM     51  N   UNL A   1      44.317  27.078  29.609  1.00  0.00    -0.248 NA
ATOM     52  C   UNL A   1      45.276  25.074  28.893  1.00  0.00     0.031 C 
ATOM     53  C   UNL A   1      46.375  30.079  32.143  1.00  0.00     0.029 A 
ATOM     54  C   UNL A   1      45.756  29.120  31.359  1.00  0.00     0.049 A 
ATOM     55  H   UNL A   1      43.823  29.143  30.511  1.00  0.00     0.167 HD
ATOM     56  C   UNL A   1      45.596  26.973  30.136  1.00  0.00     0.074 A 
ATOM     57  C   UNL A   1      46.127  25.700  29.692  1.00  0.00     0.031 C 
ATOM     58  C   UNL A   1      46.273  27.852  30.916  1.00  0.00     0.037 A 
BRANCH  45  59
ATOM     59  C   UNL A   1      43.100  32.992  32.210  1.00  0.00     0.064 A 
ATOM     60  C   UNL A   1      43.390  34.164  31.494  1.00  0.00     0.173 A 
ATOM     61  C   UNL A   1      42.753  33.121  33.564  1.00  0.00     0.173 A 
ATOM     62  F   UNL A   1      43.738  34.094  30.200  1.00  0.00    -0.203 F 
ATOM     63  C   UNL A   1      43.360  35.410  32.114  1.00  0.00     0.198 A 
ATOM     64  C   UNL A   1      42.695  34.373  34.173  1.00  0.00     0.198 A 
ATOM     65  F   UNL A   1      42.460  32.035  34.294  1.00  0.00    -0.203 F 
ATOM     66  F   UNL A   1      43.687  36.510  31.420  1.00  0.00    -0.200 F 
ATOM     67  C   UNL A   1      43.006  35.514  33.450  1.00  0.00     0.200 A 
ATOM     68  F   UNL A   1      42.340  34.473  35.462  1.00  0.00    -0.200 F 
ATOM     69  F   UNL A   1      42.970  36.715  34.044  1.00  0.00    -0.200 F 
ENDBRANCH  45  59
BRANCH  46  70
ATOM     70  C   UNL A   1      42.885  24.249  27.429  1.00  0.00     0.064 A 
ATOM     71  C   UNL A   1      42.522  23.065  28.089  1.00  0.00     0.173 A 
ATOM     72  C   UNL A   1      43.231  24.161  26.074  1.00  0.00     0.173 A 
ATOM     73  F   UNL A   1      42.204  23.096  29.391  1.00  0.00    -0.203 F 
ATOM     74  C   UNL A   1      42.529  21.840  27.426  1.00  0.00     0.198 A 
ATOM     75  C   UNL A   1      43.209  22.939  25.404  1.00  0.00     0.198 A 
ATOM     76  F   UNL A   1      43.578  25.265  25.396  1.00  0.00    -0.203 F 
ATOM     77  F   UNL A   1      42.224  20.719  28.092  1.00  0.00    -0.200 F 
ATOM     78  C   UNL A   1      42.867  21.779  26.082  1.00  0.00     0.200 A 
ATOM     79  F   UNL A   1      43.523  22.885  24.102  1.00  0.00    -0.200 F 
ATOM     80  F   UNL A   1      42.870  20.601  25.443  1.00  0.00    -0.200 F 
ENDBRANCH  46  70
BRANCH  58  81
ATOM     81  C   UNL A   1      47.647  27.448  31.366  1.00  0.00     0.064 A 
ATOM     82  C   UNL A   1      47.853  26.715  32.544  1.00  0.00     0.173 A 
ATOM     83  C   UNL A   1      48.773  27.794  30.604  1.00  0.00     0.173 A 
ATOM     84  F   UNL A   1      46.810  26.373  33.316  1.00  0.00    -0.203 F 
ATOM     85  C   UNL A   1      49.136  26.378  32.962  1.00  0.00     0.198 A 
ATOM     86  C   UNL A   1      50.054  27.427  31.009  1.00  0.00     0.198 A 
ATOM     87  F   UNL A   1      48.632  28.487  29.464  1.00  0.00    -0.203 F 
ATOM     88  F   UNL A   1      49.313  25.731  34.124  1.00  0.00    -0.200 F 
ATOM     89  C   UNL A   1      50.236  26.730  32.194  1.00  0.00     0.200 A 
ATOM     90  F   UNL A   1      51.113  27.758  30.258  1.00  0.00    -0.200 F 
ATOM     91  F   UNL A   1      51.471  26.409  32.600  1.00  0.00    -0.200 F 
ENDBRANCH  58  81
ENDBRANCH  32  33
ENDBRANCH  24  27
ENDBRANCH  22  23
ENDBRANCH  21  22
ENDBRANCH  20  21
ENDBRANCH   3  20
TORSDOF 15
ENDMDL
MODEL 2
REMARK VINA RESULT:     -10.5      3.900     10.990
REMARK SMILES O=C(CCCCc1nc(-c2ccccc2)no1)NCCCNC(=O)c1ccc(-c2c3nc(c(-c4c(F)c(F)c(F)c(F)c4F)c4ccc([nH]4)c(-c4c(F)c(F)c(F)c(F)c4F)c4nc(c(-c5c(F)c(F)c(F)c(F)c5F)c5ccc2[nH]5)C=C4)C=C3)cc1
REMARK SMILES IDX 1 1 2 2 18 3 3 5 4 6 5 7 6 8 7 9 8 10 17 11 9 12 16 13 10 14
REMARK SMILES IDX 11 15 15 16 12 17 14 18 13 19 19 20 20 21 21 22 22 23 23 24
REMARK SMILES IDX 24 26 25 27 26 28 87 29 27 30 86 31 28 32 29 33 30 34 80 35
REMARK SMILES IDX 31 36 85 37 79 38 81 39 32 40 84 41 78 42 77 43 33 45 65 46
REMARK SMILES IDX 45 47 64 48 46 49 49 50 63 51 82 52 47 53 48 54 62 56 83 57
REMARK SMILES IDX 50 58 34 59 35 60 43 61 36 62 37 63 41 64 44 65 38 66 39 67
REMARK SMILES IDX 42 68 40 69 66 70 67 71 75 72 68 73 69 74 73 75 76 76 70 77
REMARK SMILES IDX 71 78 74 79 72 80 51 81 52 82 60 83 53 84 54 85 58 86 61 87
REMARK SMILES IDX 55 88 56 89 59 90 57 91
REMARK H PARENT 18 4 22 25 81 44 49 55
REMARK Flexibility Score: inf
ROOT
ATOM      1  O   UNL A   1      44.571  18.075  25.675  1.00  0.00    -0.275 OA
ATOM      2  C   UNL A   1      44.257  19.129  25.134  1.00  0.00     0.219 C 
ATOM      3  N   UNL A   1      43.101  19.820  25.418  1.00  0.00    -0.356 N 
ATOM      4  H   UNL A   1      42.956  20.698  24.996  1.00  0.00     0.163 HD
ENDROOT
BRANCH   2   5
ATOM      5  C   UNL A   1      45.108  19.773  24.058  1.00  0.00     0.100 C 
BRANCH   5   6
ATOM      6  C   UNL A   1      46.021  20.867  24.615  1.00  0.00     0.010 C 
BRANCH   6   7
ATOM      7  C   UNL A   1      45.333  21.977  25.424  1.00  0.00     0.010 C 
BRANCH   7   8
ATOM      8  C   UNL A   1      44.530  22.990  24.606  1.00  0.00     0.100 C 
BRANCH   8   9
ATOM      9  C   UNL A   1      44.786  24.396  24.990  1.00  0.00     0.226 A 
ATOM     10  N   UNL A   1      44.011  25.247  25.622  1.00  0.00    -0.191 NA
ATOM     11  O   UNL A   1      45.957  24.941  24.561  1.00  0.00    -0.339 OA
ATOM     12  C   UNL A   1      44.733  26.420  25.533  1.00  0.00     0.202 A 
ATOM     13  N   UNL A   1      45.921  26.283  24.920  1.00  0.00    -0.057 NA
BRANCH  12  14
ATOM     14  C   UNL A   1      44.215  27.699  25.992  1.00  0.00     0.023 A 
ATOM     15  C   UNL A   1      42.895  28.070  25.693  1.00  0.00     0.012 A 
ATOM     16  C   UNL A   1      45.011  28.566  26.750  1.00  0.00     0.012 A 
ATOM     17  C   UNL A   1      42.379  29.285  26.146  1.00  0.00     0.001 A 
ATOM     18  C   UNL A   1      44.498  29.789  27.190  1.00  0.00     0.001 A 
ATOM     19  C   UNL A   1      43.183  30.146  26.890  1.00  0.00     0.000 A 
ENDBRANCH  12  14
ENDBRANCH   8   9
ENDBRANCH   7   8
ENDBRANCH   6   7
ENDBRANCH   5   6
ENDBRANCH   2   5
BRANCH   3  20
ATOM     20  C   UNL A   1      42.088  19.302  26.316  1.00  0.00     0.117 C 
BRANCH  20  21
ATOM     21  C   UNL A   1      41.416  20.396  27.138  1.00  0.00     0.042 C 
BRANCH  21  22
ATOM     22  C   UNL A   1      41.177  21.712  26.403  1.00  0.00     0.118 C 
BRANCH  22  23
ATOM     23  N   UNL A   1      39.831  21.851  25.872  1.00  0.00    -0.352 N 
ATOM     24  C   UNL A   1      38.937  22.885  26.001  1.00  0.00     0.251 C 
ATOM     25  H   UNL A   1      39.511  21.088  25.338  1.00  0.00     0.163 HD
ATOM     26  O   UNL A   1      37.797  22.757  25.553  1.00  0.00    -0.269 OA
BRANCH  24  27
ATOM     27  C   UNL A   1      39.306  24.138  26.701  1.00  0.00     0.039 A 
ATOM     28  C   UNL A   1      38.924  24.288  28.038  1.00  0.00     0.014 A 
ATOM     29  C   UNL A   1      40.000  25.168  26.061  1.00  0.00     0.014 A 
ATOM     30  C   UNL A   1      39.295  25.433  28.748  1.00  0.00     0.010 A 
ATOM     31  C   UNL A   1      40.432  26.280  26.788  1.00  0.00     0.010 A 
ATOM     32  C   UNL A   1      40.087  26.423  28.141  1.00  0.00    -0.014 A 
BRANCH  32  33
ATOM     33  C   UNL A   1      40.579  27.585  28.927  1.00  0.00     0.031 A 
ATOM     34  C   UNL A   1      41.993  27.634  29.437  1.00  0.00     0.074 A 
ATOM     35  C   UNL A   1      39.730  28.590  29.220  1.00  0.00     0.049 A 
ATOM     36  N   UNL A   1      42.591  28.572  30.130  1.00  0.00    -0.248 NA
ATOM     37  C   UNL A   1      42.841  26.466  29.153  1.00  0.00     0.031 C 
ATOM     38  C   UNL A   1      38.317  28.637  28.843  1.00  0.00     0.029 A 
ATOM     39  N   UNL A   1      39.930  29.765  29.901  1.00  0.00    -0.354 N 
ATOM     40  C   UNL A   1      43.877  28.106  30.370  1.00  0.00     0.074 A 
ATOM     41  C   UNL A   1      43.958  26.780  29.795  1.00  0.00     0.031 C 
ATOM     42  C   UNL A   1      37.786  29.794  29.269  1.00  0.00     0.029 A 
ATOM     43  C   UNL A   1      38.812  30.559  29.972  1.00  0.00     0.049 A 
ATOM     44  H   UNL A   1      40.794  30.015  30.303  1.00  0.00     0.167 HD
ATOM     45  C   UNL A   1      44.905  28.735  30.992  1.00  0.00     0.037 A 
ATOM     46  C   UNL A   1      38.632  31.770  30.532  1.00  0.00     0.037 A 
ATOM     47  C   UNL A   1      44.833  30.062  31.547  1.00  0.00     0.049 A 
ATOM     48  C   UNL A   1      39.797  32.457  31.192  1.00  0.00     0.074 A 
ATOM     49  C   UNL A   1      45.836  30.805  32.146  1.00  0.00     0.029 A 
ATOM     50  N   UNL A   1      43.689  30.847  31.574  1.00  0.00    -0.354 N 
ATOM     51  N   UNL A   1      41.028  32.038  31.342  1.00  0.00    -0.248 NA
ATOM     52  C   UNL A   1      39.545  33.794  31.746  1.00  0.00     0.031 C 
ATOM     53  C   UNL A   1      45.290  32.021  32.571  1.00  0.00     0.029 A 
ATOM     54  C   UNL A   1      43.958  32.059  32.193  1.00  0.00     0.049 A 
ATOM     55  H   UNL A   1      42.814  30.583  31.208  1.00  0.00     0.167 HD
ATOM     56  C   UNL A   1      41.706  33.067  31.981  1.00  0.00     0.074 A 
ATOM     57  C   UNL A   1      40.751  34.139  32.172  1.00  0.00     0.031 C 
ATOM     58  C   UNL A   1      43.002  33.119  32.375  1.00  0.00     0.037 A 
BRANCH  45  59
ATOM     59  C   UNL A   1      46.208  27.995  31.098  1.00  0.00     0.064 A 
ATOM     60  C   UNL A   1      46.427  27.036  32.100  1.00  0.00     0.173 A 
ATOM     61  C   UNL A   1      47.233  28.216  30.166  1.00  0.00     0.173 A 
ATOM     62  F   UNL A   1      45.483  26.795  33.022  1.00  0.00    -0.203 F 
ATOM     63  C   UNL A   1      47.634  26.346  32.180  1.00  0.00     0.198 A 
ATOM     64  C   UNL A   1      48.427  27.501  30.232  1.00  0.00     0.198 A 
ATOM     65  F   UNL A   1      47.073  29.116  29.185  1.00  0.00    -0.203 F 
ATOM     66  F   UNL A   1      47.838  25.469  33.173  1.00  0.00    -0.200 F 
ATOM     67  C   UNL A   1      48.630  26.574  31.242  1.00  0.00     0.200 A 
ATOM     68  F   UNL A   1      49.384  27.713  29.317  1.00  0.00    -0.200 F 
ATOM     69  F   UNL A   1      49.788  25.903  31.316  1.00  0.00    -0.200 F 
ENDBRANCH  45  59
BRANCH  46  70
ATOM     70  C   UNL A   1      37.306  32.433  30.452  1.00  0.00     0.064 A 
ATOM     71  C   UNL A   1      36.345  32.240  31.455  1.00  0.00     0.173 A 
ATOM     72  C   UNL A   1      36.969  33.267  29.377  1.00  0.00     0.173 A 
ATOM     73  F   UNL A   1      36.614  31.435  32.493  1.00  0.00    -0.203 F 
ATOM     74  C   UNL A   1      35.089  32.838  31.374  1.00  0.00     0.198 A 
ATOM     75  C   UNL A   1      35.723  33.887  29.311  1.00  0.00     0.198 A 
ATOM     76  F   UNL A   1      37.856  33.489  28.396  1.00  0.00    -0.203 F 
ATOM     77  F   UNL A   1      34.173  32.598  32.322  1.00  0.00    -0.200 F 
ATOM     78  C   UNL A   1      34.782  33.665  30.305  1.00  0.00     0.200 A 
ATOM     79  F   UNL A   1      35.434  34.697  28.284  1.00  0.00    -0.200 F 
ATOM     80  F   UNL A   1      33.575  34.242  30.227  1.00  0.00    -0.200 F 
ENDBRANCH  46  70
BRANCH  58  81
ATOM     81  C   UNL A   1      43.468  34.392  33.021  1.00  0.00     0.064 A 
ATOM     82  C   UNL A   1      43.479  34.552  34.415  1.00  0.00     0.173 A 
ATOM     83  C   UNL A   1      43.916  35.464  32.235  1.00  0.00     0.173 A 
ATOM     84  F   UNL A   1      43.046  33.562  35.211  1.00  0.00    -0.203 F 
ATOM     85  C   UNL A   1      43.884  35.751  34.995  1.00  0.00     0.198 A 
ATOM     86  C   UNL A   1      44.350  36.651  32.820  1.00  0.00     0.198 A 
ATOM     87  F   UNL A   1      43.935  35.361  30.898  1.00  0.00    -0.203 F 
ATOM     88  F   UNL A   1      43.826  35.903  36.326  1.00  0.00    -0.200 F 
ATOM     89  C   UNL A   1      44.323  36.798  34.198  1.00  0.00     0.200 A 
ATOM     90  F   UNL A   1      44.786  37.656  32.049  1.00  0.00    -0.200 F 
ATOM     91  F   UNL A   1      44.707  37.952  34.758  1.00  0.00    -0.200 F 
ENDBRANCH  58  81
ENDBRANCH  32  33
ENDBRANCH  24  27
ENDBRANCH  22  23
ENDBRANCH  21  22
ENDBRANCH  20  21
ENDBRANCH   3  20
TORSDOF 15
ENDMDL
MODEL 3
REMARK VINA RESULT:     -10.3      1.859      2.995
REMARK SMILES O=C(CCCCc1nc(-c2ccccc2)no1)NCCCNC(=O)c1ccc(-c2c3nc(c(-c4c(F)c(F)c(F)c(F)c4F)c4ccc([nH]4)c(-c4c(F)c(F)c(F)c(F)c4F)c4nc(c(-c5c(F)c(F)c(F)c(F)c5F)c5ccc2[nH]5)C=C4)C=C3)cc1
REMARK SMILES IDX 1 1 2 2 18 3 3 5 4 6 5 7 6 8 7 9 8 10 17 11 9 12 16 13 10 14
REMARK SMILES IDX 11 15 15 16 12 17 14 18 13 19 19 20 20 21 21 22 22 23 23 24
REMARK SMILES IDX 24 26 25 27 26 28 87 29 27 30 86 31 28 32 29 33 30 34 80 35
REMARK SMILES IDX 31 36 85 37 79 38 81 39 32 40 84 41 78 42 77 43 33 45 65 46
REMARK SMILES IDX 45 47 64 48 46 49 49 50 63 51 82 52 47 53 48 54 62 56 83 57
REMARK SMILES IDX 50 58 34 59 35 60 43 61 36 62 37 63 41 64 44 65 38 66 39 67
REMARK SMILES IDX 42 68 40 69 66 70 67 71 75 72 68 73 69 74 73 75 76 76 70 77
REMARK SMILES IDX 71 78 74 79 72 80 51 81 52 82 60 83 53 84 54 85 58 86 61 87
REMARK SMILES IDX 55 88 56 89 59 90 57 91
REMARK H PARENT 18 4 22 25 81 44 49 55
REMARK Flexibility Score: inf
ROOT
ATOM      1  O   UNL A   1      38.364  34.480  31.878  1.00  0.00    -0.275 OA
ATOM      2  C   UNL A   1      37.784  33.400  31.866  1.00  0.00     0.219 C 
ATOM      3  N   UNL A   1      37.307  32.799  30.723  1.00  0.00    -0.356 N 
ATOM      4  H   UNL A   1      36.920  31.896  30.787  1.00  0.00     0.163 HD
ENDROOT
BRANCH   2   5
ATOM      5  C   UNL A   1      37.500  32.619  33.134  1.00  0.00     0.100 C 
BRANCH   5   6
ATOM      6  C   UNL A   1      37.170  31.152  32.853  1.00  0.00     0.010 C 
BRANCH   6   7
ATOM      7  C   UNL A   1      38.069  30.112  33.538  1.00  0.00     0.010 C 
BRANCH   7   8
ATOM      8  C   UNL A   1      39.376  30.650  34.123  1.00  0.00     0.100 C 
BRANCH   8   9
ATOM      9  C   UNL A   1      40.251  29.596  34.680  1.00  0.00     0.226 A 
ATOM     10  N   UNL A   1      40.841  28.589  34.077  1.00  0.00    -0.191 NA
ATOM     11  O   UNL A   1      40.419  29.594  36.032  1.00  0.00    -0.339 OA
ATOM     12  C   UNL A   1      41.368  27.882  35.139  1.00  0.00     0.202 A 
ATOM     13  N   UNL A   1      41.158  28.457  36.335  1.00  0.00    -0.057 NA
BRANCH  12  14
ATOM     14  C   UNL A   1      42.022  26.593  34.978  1.00  0.00     0.023 A 
ATOM     15  C   UNL A   1      43.237  26.505  34.281  1.00  0.00     0.012 A 
ATOM     16  C   UNL A   1      41.468  25.432  35.529  1.00  0.00     0.012 A 
ATOM     17  C   UNL A   1      43.886  25.278  34.138  1.00  0.00     0.001 A 
ATOM     18  C   UNL A   1      42.111  24.201  35.372  1.00  0.00     0.001 A 
ATOM     19  C   UNL A   1      43.320  24.125  34.680  1.00  0.00     0.000 A 
ENDBRANCH  12  14
ENDBRANCH   8   9
ENDBRANCH   7   8
ENDBRANCH   6   7
ENDBRANCH   5   6
ENDBRANCH   2   5
BRANCH   3  20
ATOM     20  C   UNL A   1      37.356  33.447  29.428  1.00  0.00     0.117 C 
BRANCH  20  21
ATOM     21  C   UNL A   1      36.014  33.419  28.707  1.00  0.00     0.042 C 
BRANCH  21  22
ATOM     22  C   UNL A   1      34.890  32.697  29.445  1.00  0.00     0.118 C 
BRANCH  22  23
ATOM     23  N   UNL A   1      34.189  31.716  28.633  1.00  0.00    -0.352 N 
ATOM     24  C   UNL A   1      34.632  30.524  28.116  1.00  0.00     0.251 C 
ATOM     25  H   UNL A   1      33.254  31.940  28.420  1.00  0.00     0.163 HD
ATOM     26  O   UNL A   1      33.901  29.885  27.359  1.00  0.00    -0.269 OA
BRANCH  24  27
ATOM     27  C   UNL A   1      35.987  30.009  28.422  1.00  0.00     0.039 A 
ATOM     28  C   UNL A   1      36.981  30.134  27.447  1.00  0.00     0.014 A 
ATOM     29  C   UNL A   1      36.288  29.391  29.640  1.00  0.00     0.014 A 
ATOM     30  C   UNL A   1      38.284  29.706  27.716  1.00  0.00     0.010 A 
ATOM     31  C   UNL A   1      37.604  29.028  29.935  1.00  0.00     0.010 A 
ATOM     32  C   UNL A   1      38.617  29.184  28.977  1.00  0.00    -0.014 A 
BRANCH  32  33
ATOM     33  C   UNL A   1      40.025  28.835  29.303  1.00  0.00     0.031 A 
ATOM     34  C   UNL A   1      40.872  29.743  30.153  1.00  0.00     0.074 A 
ATOM     35  C   UNL A   1      40.560  27.708  28.794  1.00  0.00     0.049 A 
ATOM     36  N   UNL A   1      42.114  29.590  30.543  1.00  0.00    -0.248 NA
ATOM     37  C   UNL A   1      40.252  30.997  30.605  1.00  0.00     0.031 C 
ATOM     38  C   UNL A   1      39.870  26.775  27.903  1.00  0.00     0.029 A 
ATOM     39  N   UNL A   1      41.807  27.155  28.952  1.00  0.00    -0.354 N 
ATOM     40  C   UNL A   1      42.425  30.728  31.276  1.00  0.00     0.074 A 
ATOM     41  C   UNL A   1      41.260  31.586  31.234  1.00  0.00     0.031 C 
ATOM     42  C   UNL A   1      40.689  25.750  27.620  1.00  0.00     0.029 A 
ATOM     43  C   UNL A   1      41.970  25.965  28.285  1.00  0.00     0.049 A 
ATOM     44  H   UNL A   1      42.517  27.571  29.492  1.00  0.00     0.167 HD
ATOM     45  C   UNL A   1      43.568  31.020  31.944  1.00  0.00     0.037 A 
ATOM     46  C   UNL A   1      43.029  25.136  28.222  1.00  0.00     0.037 A 
ATOM     47  C   UNL A   1      44.721  30.159  32.004  1.00  0.00     0.049 A 
ATOM     48  C   UNL A   1      44.276  25.471  28.995  1.00  0.00     0.074 A 
ATOM     49  C   UNL A   1      45.903  30.343  32.701  1.00  0.00     0.029 A 
ATOM     50  N   UNL A   1      44.838  28.947  31.337  1.00  0.00    -0.354 N 
ATOM     51  N   UNL A   1      44.527  26.512  29.749  1.00  0.00    -0.248 NA
ATOM     52  C   UNL A   1      45.379  24.505  28.917  1.00  0.00     0.031 C 
ATOM     53  C   UNL A   1      46.750  29.264  32.424  1.00  0.00     0.029 A 
ATOM     54  C   UNL A   1      46.078  28.382  31.595  1.00  0.00     0.049 A 
ATOM     55  H   UNL A   1      44.144  28.547  30.766  1.00  0.00     0.167 HD
ATOM     56  C   UNL A   1      45.803  26.315  30.258  1.00  0.00     0.074 A 
ATOM     57  C   UNL A   1      46.265  25.043  29.741  1.00  0.00     0.031 C 
ATOM     58  C   UNL A   1      46.527  27.115  31.078  1.00  0.00     0.037 A 
BRANCH  45  59
ATOM     59  C   UNL A   1      43.627  32.330  32.677  1.00  0.00     0.064 A 
ATOM     60  C   UNL A   1      43.295  32.426  34.038  1.00  0.00     0.173 A 
ATOM     61  C   UNL A   1      44.059  33.494  32.025  1.00  0.00     0.173 A 
ATOM     62  F   UNL A   1      42.865  31.344  34.705  1.00  0.00    -0.203 F 
ATOM     63  C   UNL A   1      43.368  33.643  34.710  1.00  0.00     0.198 A 
ATOM     64  C   UNL A   1      44.159  34.704  32.709  1.00  0.00     0.198 A 
ATOM     65  F   UNL A   1      44.394  33.458  30.727  1.00  0.00    -0.203 F 
ATOM     66  F   UNL A   1      43.001  33.718  35.997  1.00  0.00    -0.200 F 
ATOM     67  C   UNL A   1      43.806  34.779  34.047  1.00  0.00     0.200 A 
ATOM     68  F   UNL A   1      44.595  35.799  32.070  1.00  0.00    -0.200 F 
ATOM     69  F   UNL A   1      43.883  35.948  34.698  1.00  0.00    -0.200 F 
ENDBRANCH  45  59
BRANCH  46  70
ATOM     70  C   UNL A   1      42.941  23.882  27.432  1.00  0.00     0.064 A 
ATOM     71  C   UNL A   1      42.531  22.682  28.032  1.00  0.00     0.173 A 
ATOM     72  C   UNL A   1      43.265  23.852  26.069  1.00  0.00     0.173 A 
ATOM     73  F   UNL A   1      42.230  22.656  29.338  1.00  0.00    -0.203 F 
ATOM     74  C   UNL A   1      42.471  21.496  27.303  1.00  0.00     0.198 A 
ATOM     75  C   UNL A   1      43.178  22.671  25.335  1.00  0.00     0.198 A 
ATOM     76  F   UNL A   1      43.656  24.975  25.447  1.00  0.00    -0.203 F 
ATOM     77  F   UNL A   1      42.122  20.355  27.912  1.00  0.00    -0.200 F 
ATOM     78  C   UNL A   1      42.790  21.494  25.954  1.00  0.00     0.200 A 
ATOM     79  F   UNL A   1      43.473  22.675  24.027  1.00  0.00    -0.200 F 
ATOM     80  F   UNL A   1      42.730  20.354  25.252  1.00  0.00    -0.200 F 
ENDBRANCH  46  70
BRANCH  58  81
ATOM     81  C   UNL A   1      47.882  26.619  31.494  1.00  0.00     0.064 A 
ATOM     82  C   UNL A   1      48.054  25.789  32.612  1.00  0.00     0.173 A 
ATOM     83  C   UNL A   1      49.024  26.974  30.760  1.00  0.00     0.173 A 
ATOM     84  F   UNL A   1      46.996  25.432  33.357  1.00  0.00    -0.203 F 
ATOM     85  C   UNL A   1      49.321  25.365  33.001  1.00  0.00     0.198 A 
ATOM     86  C   UNL A   1      50.287  26.522  31.134  1.00  0.00     0.198 A 
ATOM     87  F   UNL A   1      48.915  27.759  29.677  1.00  0.00    -0.203 F 
ATOM     88  F   UNL A   1      49.468  24.623  34.108  1.00  0.00    -0.200 F 
ATOM     89  C   UNL A   1      50.436  25.728  32.260  1.00  0.00     0.200 A 
ATOM     90  F   UNL A   1      51.361  26.864  30.409  1.00  0.00    -0.200 F 
ATOM     91  F   UNL A   1      51.655  25.323  32.639  1.00  0.00    -0.200 F 
ENDBRANCH  58  81
ENDBRANCH  32  33
ENDBRANCH  24  27
ENDBRANCH  22  23
ENDBRANCH  21  22
ENDBRANCH  20  21
ENDBRANCH   3  20
TORSDOF 15
ENDMDL
