MODEL 1
REMARK VINA RESULT:     -14.4      0.000      0.000
REMARK SMILES O=C(CSc1nnc2sc3ccccc3n12)N[C@H](Cc1c[nH]c2ccccc12)C(=O)NCCCNC(=O)c1ccc(-c2c3nc(c(-c4c(F)c(F)c(F)c(F)c4F)c4ccc([nH]4)c(-c4c(F)c(F)c(F)c(F)c4F)c4nc(c(-c5c(F)c(F)c(F)c(F)c5F)c5ccc2[nH]5)C=C4)C=C3)cc1
REMARK SMILES IDX 32 1 31 2 29 3 30 4 18 6 17 7 1 8 2 9 3 11 4 12 5 13 6 14
REMARK SMILES IDX 16 15 7 16 8 17 15 18 9 19 10 20 14 21 11 22 13 23 12 24
REMARK SMILES IDX 19 25 20 26 21 27 28 28 22 29 23 30 27 31 24 33 26 34 25 35
REMARK SMILES IDX 33 36 34 37 35 38 36 39 37 41 38 42 39 43 100 44 40 45 99 46
REMARK SMILES IDX 41 47 42 48 43 49 93 50 44 51 98 52 92 53 94 54 45 55 97 56
REMARK SMILES IDX 91 57 90 58 46 60 78 61 58 62 77 63 59 64 62 65 76 66 95 67
REMARK SMILES IDX 60 68 61 69 75 71 96 72 63 73 47 74 48 75 56 76 49 77 50 78
REMARK SMILES IDX 54 79 57 80 51 81 52 82 55 83 53 84 79 85 80 86 88 87 81 88
REMARK SMILES IDX 82 89 86 90 89 91 83 92 84 93 87 94 85 95 64 96 65 97 73 98
REMARK SMILES IDX 66 99 67 100 71 101 74 102 68 103 69 104 72 105 70 106
REMARK H PARENT 31 5 17 10 22 32 35 40 94 59 62 70
REMARK Flexibility Score: inf
ROOT
ATOM      1  C   UNL A   1      31.821  29.498  25.670  1.00  0.00     0.117 C 
ENDROOT
BRANCH   1   2
ATOM      2  N   UNL A   1      32.965  28.701  25.295  1.00  0.00    -0.354 N 
ATOM      3  C   UNL A   1      32.994  27.385  24.962  1.00  0.00     0.242 C 
ATOM      4  O   UNL A   1      34.074  26.900  24.613  1.00  0.00    -0.273 OA
ATOM      5  H   UNL A   1      33.830  29.170  25.278  1.00  0.00     0.163 HD
BRANCH   3   6
ATOM      6  C   UNL A   1      31.777  26.472  25.130  1.00  0.00     0.175 C 
BRANCH   6   7
ATOM      7  N   UNL A   1      31.939  25.263  26.002  1.00  0.00    -0.343 N 
ATOM      8  O   UNL A   1      29.796  24.919  26.797  1.00  0.00    -0.274 OA
ATOM      9  C   UNL A   1      30.899  24.483  26.486  1.00  0.00     0.231 C 
ATOM     10  H   UNL A   1      32.854  25.003  26.251  1.00  0.00     0.164 HD
BRANCH   9  11
ATOM     11  C   UNL A   1      31.144  22.986  26.632  1.00  0.00     0.178 C 
BRANCH  11  12
ATOM     12  S   UNL A   1      32.873  22.700  27.059  1.00  0.00    -0.076 SA
BRANCH  12  13
ATOM     13  C   UNL A   1      33.582  21.928  25.664  1.00  0.00     0.197 A 
ATOM     14  N   UNL A   1      32.935  20.994  24.978  1.00  0.00    -0.122 NA
ATOM     15  N   UNL A   1      34.925  21.696  25.523  1.00  0.00    -0.260 N 
ATOM     16  N   UNL A   1      33.862  20.037  24.555  1.00  0.00    -0.118 NA
ATOM     17  C   UNL A   1      35.020  20.444  24.997  1.00  0.00     0.217 A 
ATOM     18  C   UNL A   1      36.140  22.320  25.764  1.00  0.00     0.068 A 
ATOM     19  S   UNL A   1      36.635  19.818  25.002  1.00  0.00    -0.094 S 
ATOM     20  C   UNL A   1      37.199  21.416  25.601  1.00  0.00     0.055 A 
ATOM     21  C   UNL A   1      36.358  23.657  25.981  1.00  0.00     0.028 A 
ATOM     22  C   UNL A   1      38.506  21.827  25.813  1.00  0.00     0.021 A 
ATOM     23  C   UNL A   1      37.678  24.086  26.111  1.00  0.00     0.002 A 
ATOM     24  C   UNL A   1      38.741  23.177  26.089  1.00  0.00     0.002 A 
ENDBRANCH  12  13
ENDBRANCH  11  12
ENDBRANCH   9  11
ENDBRANCH   6   7
BRANCH   6  25
ATOM     25  C   UNL A   1      31.016  26.240  23.792  1.00  0.00     0.072 C 
BRANCH  25  26
ATOM     26  C   UNL A   1      29.624  26.850  23.598  1.00  0.00    -0.020 A 
ATOM     27  C   UNL A   1      28.372  26.327  23.876  1.00  0.00     0.087 A 
ATOM     28  C   UNL A   1      29.351  28.146  23.018  1.00  0.00     0.003 A 
ATOM     29  N   UNL A   1      27.424  27.303  23.736  1.00  0.00    -0.361 N 
ATOM     30  C   UNL A   1      27.985  28.408  23.157  1.00  0.00     0.046 A 
ATOM     31  C   UNL A   1      30.143  29.123  22.383  1.00  0.00     0.010 A 
ATOM     32  H   UNL A   1      26.483  27.223  24.010  1.00  0.00     0.166 HD
ATOM     33  C   UNL A   1      27.377  29.595  22.739  1.00  0.00     0.026 A 
ATOM     34  C   UNL A   1      29.541  30.297  21.907  1.00  0.00     0.001 A 
ATOM     35  C   UNL A   1      28.182  30.533  22.094  1.00  0.00     0.002 A 
ENDBRANCH  25  26
ENDBRANCH   6  25
ENDBRANCH   3   6
ENDBRANCH   1   2
BRANCH   1  36
ATOM     36  C   UNL A   1      32.116  30.406  26.843  1.00  0.00     0.042 C 
BRANCH  36  37
ATOM     37  C   UNL A   1      33.581  30.374  27.291  1.00  0.00     0.118 C 
BRANCH  37  38
ATOM     38  N   UNL A   1      34.191  31.667  27.551  1.00  0.00    -0.352 N 
ATOM     39  C   UNL A   1      35.443  32.106  27.900  1.00  0.00     0.251 C 
ATOM     40  H   UNL A   1      33.550  32.408  27.454  1.00  0.00     0.163 HD
ATOM     41  O   UNL A   1      35.638  33.312  27.845  1.00  0.00    -0.269 OA
BRANCH  39  42
ATOM     42  C   UNL A   1      36.527  31.231  28.419  1.00  0.00     0.039 A 
ATOM     43  C   UNL A   1      37.658  31.682  29.088  1.00  0.00     0.014 A 
ATOM     44  C   UNL A   1      36.441  29.864  28.092  1.00  0.00     0.014 A 
ATOM     45  C   UNL A   1      38.752  30.849  29.254  1.00  0.00     0.010 A 
ATOM     46  C   UNL A   1      37.508  29.002  28.324  1.00  0.00     0.010 A 
ATOM     47  C   UNL A   1      38.691  29.516  28.839  1.00  0.00    -0.014 A 
BRANCH  47  48
ATOM     48  C   UNL A   1      39.880  28.704  29.077  1.00  0.00     0.031 A 
ATOM     49  C   UNL A   1      40.223  28.543  30.520  1.00  0.00     0.074 A 
ATOM     50  C   UNL A   1      40.608  28.119  28.107  1.00  0.00     0.049 A 
ATOM     51  N   UNL A   1      41.274  28.966  31.143  1.00  0.00    -0.248 NA
ATOM     52  C   UNL A   1      39.197  27.963  31.401  1.00  0.00     0.031 C 
ATOM     53  C   UNL A   1      40.277  27.964  26.688  1.00  0.00     0.029 A 
ATOM     54  N   UNL A   1      41.798  27.462  28.218  1.00  0.00    -0.354 N 
ATOM     55  C   UNL A   1      41.116  28.579  32.473  1.00  0.00     0.074 A 
ATOM     56  C   UNL A   1      39.774  28.075  32.598  1.00  0.00     0.031 C 
ATOM     57  C   UNL A   1      41.126  27.075  26.124  1.00  0.00     0.029 A 
ATOM     58  C   UNL A   1      42.147  26.723  27.096  1.00  0.00     0.049 A 
ATOM     59  H   UNL A   1      42.361  27.506  29.025  1.00  0.00     0.167 HD
ATOM     60  C   UNL A   1      42.172  28.522  33.329  1.00  0.00     0.037 A 
ATOM     61  C   UNL A   1      43.176  25.848  27.001  1.00  0.00     0.037 A 
ATOM     62  C   UNL A   1      43.281  29.294  32.842  1.00  0.00     0.049 A 
ATOM     63  C   UNL A   1      44.155  26.201  28.055  1.00  0.00     0.074 A 
ATOM     64  C   UNL A   1      43.573  30.634  32.701  1.00  0.00     0.029 A 
ATOM     65  N   UNL A   1      44.192  28.610  32.084  1.00  0.00    -0.354 N 
ATOM     66  N   UNL A   1      44.858  27.298  28.062  1.00  0.00    -0.248 NA
ATOM     67  C   UNL A   1      44.113  25.478  29.318  1.00  0.00     0.031 C 
ATOM     68  C   UNL A   1      44.434  30.719  31.567  1.00  0.00     0.029 A 
ATOM     69  C   UNL A   1      44.656  29.427  31.087  1.00  0.00     0.049 A 
ATOM     70  H   UNL A   1      44.470  27.678  32.230  1.00  0.00     0.167 HD
ATOM     71  C   UNL A   1      44.987  27.621  29.401  1.00  0.00     0.074 A 
ATOM     72  C   UNL A   1      44.657  26.396  30.119  1.00  0.00     0.031 C 
ATOM     73  C   UNL A   1      45.071  28.923  29.796  1.00  0.00     0.037 A 
BRANCH  60  74
ATOM     74  C   UNL A   1      42.352  27.450  34.382  1.00  0.00     0.064 A 
ATOM     75  C   UNL A   1      42.858  26.188  34.006  1.00  0.00     0.173 A 
ATOM     76  C   UNL A   1      41.756  27.506  35.661  1.00  0.00     0.173 A 
ATOM     77  F   UNL A   1      43.420  26.006  32.802  1.00  0.00    -0.203 F 
ATOM     78  C   UNL A   1      42.718  25.060  34.823  1.00  0.00     0.198 A 
ATOM     79  C   UNL A   1      41.664  26.391  36.493  1.00  0.00     0.198 A 
ATOM     80  F   UNL A   1      41.140  28.605  36.111  1.00  0.00    -0.203 F 
ATOM     81  F   UNL A   1      43.108  23.859  34.375  1.00  0.00    -0.200 F 
ATOM     82  C   UNL A   1      42.117  25.162  36.063  1.00  0.00     0.200 A 
ATOM     83  F   UNL A   1      41.054  26.506  37.681  1.00  0.00    -0.200 F 
ATOM     84  F   UNL A   1      41.927  24.075  36.823  1.00  0.00    -0.200 F 
ENDBRANCH  60  74
BRANCH  61  85
ATOM     85  C   UNL A   1      43.203  24.534  26.315  1.00  0.00     0.064 A 
ATOM     86  C   UNL A   1      44.201  24.233  25.373  1.00  0.00     0.173 A 
ATOM     87  C   UNL A   1      42.451  23.447  26.799  1.00  0.00     0.173 A 
ATOM     88  F   UNL A   1      44.989  25.207  24.892  1.00  0.00    -0.203 F 
ATOM     89  C   UNL A   1      44.464  22.918  24.978  1.00  0.00     0.198 A 
ATOM     90  C   UNL A   1      42.710  22.136  26.399  1.00  0.00     0.198 A 
ATOM     91  F   UNL A   1      41.522  23.622  27.750  1.00  0.00    -0.203 F 
ATOM     92  F   UNL A   1      45.478  22.662  24.138  1.00  0.00    -0.200 F 
ATOM     93  C   UNL A   1      43.729  21.869  25.503  1.00  0.00     0.200 A 
ATOM     94  F   UNL A   1      42.017  21.126  26.944  1.00  0.00    -0.200 F 
ATOM     95  F   UNL A   1      44.029  20.603  25.183  1.00  0.00    -0.200 F 
ENDBRANCH  61  85
BRANCH  73  96
ATOM     96  C   UNL A   1      45.424  29.938  28.745  1.00  0.00     0.064 A 
ATOM     97  C   UNL A   1      44.485  30.584  27.921  1.00  0.00     0.173 A 
ATOM     98  C   UNL A   1      46.759  30.350  28.650  1.00  0.00     0.173 A 
ATOM     99  F   UNL A   1      43.179  30.310  28.016  1.00  0.00    -0.203 F 
ATOM    100  C   UNL A   1      44.880  31.569  27.016  1.00  0.00     0.198 A 
ATOM    101  C   UNL A   1      47.144  31.361  27.774  1.00  0.00     0.198 A 
ATOM    102  F   UNL A   1      47.689  29.802  29.447  1.00  0.00    -0.203 F 
ATOM    103  F   UNL A   1      43.970  32.165  26.230  1.00  0.00    -0.200 F 
ATOM    104  C   UNL A   1      46.207  31.962  26.950  1.00  0.00     0.200 A 
ATOM    105  F   UNL A   1      48.419  31.771  27.750  1.00  0.00    -0.200 F 
ATOM    106  F   UNL A   1      46.577  32.941  26.114  1.00  0.00    -0.200 F 
ENDBRANCH  73  96
ENDBRANCH  47  48
ENDBRANCH  39  42
ENDBRANCH  37  38
ENDBRANCH  36  37
ENDBRANCH   1  36
TORSDOF 16
ENDMDL
MODEL 2
REMARK VINA RESULT:     -14.2      3.360      9.420
REMARK SMILES O=C(CSc1nnc2sc3ccccc3n12)N[C@H](Cc1c[nH]c2ccccc12)C(=O)NCCCNC(=O)c1ccc(-c2c3nc(c(-c4c(F)c(F)c(F)c(F)c4F)c4ccc([nH]4)c(-c4c(F)c(F)c(F)c(F)c4F)c4nc(c(-c5c(F)c(F)c(F)c(F)c5F)c5ccc2[nH]5)C=C4)C=C3)cc1
REMARK SMILES IDX 32 1 31 2 29 3 30 4 18 6 17 7 1 8 2 9 3 11 4 12 5 13 6 14
REMARK SMILES IDX 16 15 7 16 8 17 15 18 9 19 10 20 14 21 11 22 13 23 12 24
REMARK SMILES IDX 19 25 20 26 21 27 28 28 22 29 23 30 27 31 24 33 26 34 25 35
REMARK SMILES IDX 33 36 34 37 35 38 36 39 37 41 38 42 39 43 100 44 40 45 99 46
REMARK SMILES IDX 41 47 42 48 43 49 93 50 44 51 98 52 92 53 94 54 45 55 97 56
REMARK SMILES IDX 91 57 90 58 46 60 78 61 58 62 77 63 59 64 62 65 76 66 95 67
REMARK SMILES IDX 60 68 61 69 75 71 96 72 63 73 47 74 48 75 56 76 49 77 50 78
REMARK SMILES IDX 54 79 57 80 51 81 52 82 55 83 53 84 79 85 80 86 88 87 81 88
REMARK SMILES IDX 82 89 86 90 89 91 83 92 84 93 87 94 85 95 64 96 65 97 73 98
REMARK SMILES IDX 66 99 67 100 71 101 74 102 68 103 69 104 72 105 70 106
REMARK H PARENT 31 5 17 10 22 32 35 40 94 59 62 70
REMARK Flexibility Score: inf
ROOT
ATOM      1  C   UNL A   1      36.330  21.669  25.089  1.00  0.00     0.117 C 
ENDROOT
BRANCH   1   2
ATOM      2  N   UNL A   1      35.480  22.747  25.537  1.00  0.00    -0.354 N 
ATOM      3  C   UNL A   1      34.288  23.141  25.020  1.00  0.00     0.242 C 
ATOM      4  O   UNL A   1      33.684  24.057  25.588  1.00  0.00    -0.273 OA
ATOM      5  H   UNL A   1      35.806  23.260  26.311  1.00  0.00     0.163 HD
BRANCH   3   6
ATOM      6  C   UNL A   1      33.741  22.582  23.704  1.00  0.00     0.175 C 
BRANCH   6   7
ATOM      7  N   UNL A   1      33.531  23.550  22.579  1.00  0.00    -0.343 N 
ATOM      8  O   UNL A   1      31.388  24.325  22.967  1.00  0.00    -0.274 OA
ATOM      9  C   UNL A   1      32.516  24.494  22.516  1.00  0.00     0.231 C 
ATOM     10  H   UNL A   1      34.163  23.514  21.826  1.00  0.00     0.164 HD
BRANCH   9  11
ATOM     11  C   UNL A   1      32.828  25.828  21.850  1.00  0.00     0.178 C 
BRANCH  11  12
ATOM     12  S   UNL A   1      33.586  26.938  23.055  1.00  0.00    -0.076 SA
BRANCH  12  13
ATOM     13  C   UNL A   1      32.278  27.504  24.062  1.00  0.00     0.197 A 
ATOM     14  N   UNL A   1      31.016  27.474  23.652  1.00  0.00    -0.122 NA
ATOM     15  N   UNL A   1      32.401  28.530  24.962  1.00  0.00    -0.260 N 
ATOM     16  N   UNL A   1      30.367  28.611  24.140  1.00  0.00    -0.118 NA
ATOM     17  C   UNL A   1      31.263  29.265  24.827  1.00  0.00     0.217 A 
ATOM     18  C   UNL A   1      33.300  29.016  25.899  1.00  0.00     0.068 A 
ATOM     19  S   UNL A   1      31.323  30.782  25.660  1.00  0.00    -0.094 S 
ATOM     20  C   UNL A   1      32.910  30.289  26.342  1.00  0.00     0.055 A 
ATOM     21  C   UNL A   1      34.350  28.343  26.469  1.00  0.00     0.028 A 
ATOM     22  C   UNL A   1      33.682  30.970  27.271  1.00  0.00     0.021 A 
ATOM     23  C   UNL A   1      35.076  28.996  27.464  1.00  0.00     0.002 A 
ATOM     24  C   UNL A   1      34.787  30.318  27.822  1.00  0.00     0.002 A 
ENDBRANCH  12  13
ENDBRANCH  11  12
ENDBRANCH   9  11
ENDBRANCH   6   7
BRANCH   6  25
ATOM     25  C   UNL A   1      32.600  21.547  23.924  1.00  0.00     0.072 C 
BRANCH  25  26
ATOM     26  C   UNL A   1      32.835  20.345  24.844  1.00  0.00    -0.020 A 
ATOM     27  C   UNL A   1      32.947  20.285  26.224  1.00  0.00     0.087 A 
ATOM     28  C   UNL A   1      33.032  18.982  24.408  1.00  0.00     0.003 A 
ATOM     29  N   UNL A   1      32.945  18.978  26.628  1.00  0.00    -0.361 N 
ATOM     30  C   UNL A   1      33.057  18.160  25.538  1.00  0.00     0.046 A 
ATOM     31  C   UNL A   1      33.197  18.368  23.150  1.00  0.00     0.010 A 
ATOM     32  H   UNL A   1      32.874  18.673  27.561  1.00  0.00     0.166 HD
ATOM     33  C   UNL A   1      33.193  16.770  25.483  1.00  0.00     0.026 A 
ATOM     34  C   UNL A   1      33.390  16.981  23.078  1.00  0.00     0.001 A 
ATOM     35  C   UNL A   1      33.376  16.194  24.227  1.00  0.00     0.002 A 
ENDBRANCH  25  26
ENDBRANCH   6  25
ENDBRANCH   3   6
ENDBRANCH   1   2
BRANCH   1  36
ATOM     36  C   UNL A   1      37.757  22.119  24.870  1.00  0.00     0.042 C 
BRANCH  36  37
ATOM     37  C   UNL A   1      38.649  21.959  26.107  1.00  0.00     0.118 C 
BRANCH  37  38
ATOM     38  N   UNL A   1      40.077  22.102  25.880  1.00  0.00    -0.352 N 
ATOM     39  C   UNL A   1      41.059  22.949  26.328  1.00  0.00     0.251 C 
ATOM     40  H   UNL A   1      40.424  21.428  25.252  1.00  0.00     0.163 HD
ATOM     41  O   UNL A   1      42.212  22.643  26.062  1.00  0.00    -0.269 OA
BRANCH  39  42
ATOM     42  C   UNL A   1      40.805  24.240  27.022  1.00  0.00     0.039 A 
ATOM     43  C   UNL A   1      39.808  25.142  26.676  1.00  0.00     0.014 A 
ATOM     44  C   UNL A   1      41.729  24.609  28.018  1.00  0.00     0.014 A 
ATOM     45  C   UNL A   1      39.840  26.440  27.159  1.00  0.00     0.010 A 
ATOM     46  C   UNL A   1      41.722  25.888  28.565  1.00  0.00     0.010 A 
ATOM     47  C   UNL A   1      40.821  26.825  28.078  1.00  0.00    -0.014 A 
BRANCH  47  48
ATOM     48  C   UNL A   1      40.763  28.204  28.553  1.00  0.00     0.031 A 
ATOM     49  C   UNL A   1      41.878  29.062  28.058  1.00  0.00     0.074 A 
ATOM     50  C   UNL A   1      39.790  28.694  29.345  1.00  0.00     0.049 A 
ATOM     51  N   UNL A   1      42.814  29.630  28.746  1.00  0.00    -0.248 NA
ATOM     52  C   UNL A   1      42.049  29.179  26.601  1.00  0.00     0.031 C 
ATOM     53  C   UNL A   1      38.513  28.074  29.709  1.00  0.00     0.029 A 
ATOM     54  N   UNL A   1      39.720  29.917  29.945  1.00  0.00    -0.354 N 
ATOM     55  C   UNL A   1      43.615  30.303  27.824  1.00  0.00     0.074 A 
ATOM     56  C   UNL A   1      43.171  29.894  26.518  1.00  0.00     0.031 C 
ATOM     57  C   UNL A   1      37.709  29.003  30.275  1.00  0.00     0.029 A 
ATOM     58  C   UNL A   1      38.467  30.229  30.454  1.00  0.00     0.049 A 
ATOM     59  H   UNL A   1      40.491  30.525  30.012  1.00  0.00     0.167 HD
ATOM     60  C   UNL A   1      44.459  31.299  28.207  1.00  0.00     0.037 A 
ATOM     61  C   UNL A   1      38.078  31.432  30.940  1.00  0.00     0.037 A 
ATOM     62  C   UNL A   1      44.727  31.243  29.618  1.00  0.00     0.049 A 
ATOM     63  C   UNL A   1      39.302  32.167  31.335  1.00  0.00     0.074 A 
ATOM     64  C   UNL A   1      45.446  30.421  30.459  1.00  0.00     0.029 A 
ATOM     65  N   UNL A   1      43.900  31.992  30.410  1.00  0.00    -0.354 N 
ATOM     66  N   UNL A   1      40.074  31.820  32.326  1.00  0.00    -0.248 NA
ATOM     67  C   UNL A   1      39.876  33.122  30.399  1.00  0.00     0.031 C 
ATOM     68  C   UNL A   1      44.757  30.458  31.708  1.00  0.00     0.029 A 
ATOM     69  C   UNL A   1      43.670  31.325  31.583  1.00  0.00     0.049 A 
ATOM     70  H   UNL A   1      43.528  32.872  30.173  1.00  0.00     0.167 HD
ATOM     71  C   UNL A   1      41.348  32.170  31.913  1.00  0.00     0.074 A 
ATOM     72  C   UNL A   1      41.145  33.102  30.811  1.00  0.00     0.031 C 
ATOM     73  C   UNL A   1      42.431  31.449  32.321  1.00  0.00     0.037 A 
BRANCH  60  74
ATOM     74  C   UNL A   1      44.706  32.556  27.401  1.00  0.00     0.064 A 
ATOM     75  C   UNL A   1      45.932  32.712  26.720  1.00  0.00     0.173 A 
ATOM     76  C   UNL A   1      43.934  33.730  27.532  1.00  0.00     0.173 A 
ATOM     77  F   UNL A   1      46.764  31.673  26.560  1.00  0.00    -0.203 F 
ATOM     78  C   UNL A   1      46.373  33.960  26.265  1.00  0.00     0.198 A 
ATOM     79  C   UNL A   1      44.354  34.962  27.033  1.00  0.00     0.198 A 
ATOM     80  F   UNL A   1      42.801  33.760  28.243  1.00  0.00    -0.203 F 
ATOM     81  F   UNL A   1      47.595  34.081  25.729  1.00  0.00    -0.200 F 
ATOM     82  C   UNL A   1      45.585  35.084  26.426  1.00  0.00     0.200 A 
ATOM     83  F   UNL A   1      43.586  36.044  27.222  1.00  0.00    -0.200 F 
ATOM     84  F   UNL A   1      46.028  36.290  26.046  1.00  0.00    -0.200 F 
ENDBRANCH  60  74
BRANCH  61  85
ATOM     85  C   UNL A   1      36.777  32.119  30.754  1.00  0.00     0.064 A 
ATOM     86  C   UNL A   1      35.909  32.324  31.840  1.00  0.00     0.173 A 
ATOM     87  C   UNL A   1      36.508  32.861  29.588  1.00  0.00     0.173 A 
ATOM     88  F   UNL A   1      36.120  31.687  33.001  1.00  0.00    -0.203 F 
ATOM     89  C   UNL A   1      34.865  33.254  31.778  1.00  0.00     0.198 A 
ATOM     90  C   UNL A   1      35.463  33.782  29.527  1.00  0.00     0.198 A 
ATOM     91  F   UNL A   1      37.318  32.785  28.523  1.00  0.00    -0.203 F 
ATOM     92  F   UNL A   1      34.108  33.480  32.862  1.00  0.00    -0.200 F 
ATOM     93  C   UNL A   1      34.653  33.993  30.627  1.00  0.00     0.200 A 
ATOM     94  F   UNL A   1      35.292  34.520  28.420  1.00  0.00    -0.200 F 
ATOM     95  F   UNL A   1      33.702  34.936  30.593  1.00  0.00    -0.200 F 
ENDBRANCH  61  85
BRANCH  73  96
ATOM     96  C   UNL A   1      42.252  30.555  33.514  1.00  0.00     0.064 A 
ATOM     97  C   UNL A   1      42.342  30.987  34.849  1.00  0.00     0.173 A 
ATOM     98  C   UNL A   1      41.866  29.227  33.290  1.00  0.00     0.173 A 
ATOM     99  F   UNL A   1      42.618  32.263  35.144  1.00  0.00    -0.203 F 
ATOM    100  C   UNL A   1      42.093  30.113  35.907  1.00  0.00     0.198 A 
ATOM    101  C   UNL A   1      41.580  28.368  34.348  1.00  0.00     0.198 A 
ATOM    102  F   UNL A   1      41.717  28.774  32.036  1.00  0.00    -0.203 F 
ATOM    103  F   UNL A   1      42.196  30.544  37.174  1.00  0.00    -0.200 F 
ATOM    104  C   UNL A   1      41.704  28.808  35.655  1.00  0.00     0.200 A 
ATOM    105  F   UNL A   1      41.156  27.122  34.097  1.00  0.00    -0.200 F 
ATOM    106  F   UNL A   1      41.419  27.983  36.671  1.00  0.00    -0.200 F 
ENDBRANCH  73  96
ENDBRANCH  47  48
ENDBRANCH  39  42
ENDBRANCH  37  38
ENDBRANCH  36  37
ENDBRANCH   1  36
TORSDOF 16
ENDMDL
MODEL 3
REMARK VINA RESULT:     -14.0      1.483      2.381
REMARK SMILES O=C(CSc1nnc2sc3ccccc3n12)N[C@H](Cc1c[nH]c2ccccc12)C(=O)NCCCNC(=O)c1ccc(-c2c3nc(c(-c4c(F)c(F)c(F)c(F)c4F)c4ccc([nH]4)c(-c4c(F)c(F)c(F)c(F)c4F)c4nc(c(-c5c(F)c(F)c(F)c(F)c5F)c5ccc2[nH]5)C=C4)C=C3)cc1
REMARK SMILES IDX 32 1 31 2 29 3 30 4 18 6 17 7 1 8 2 9 3 11 4 12 5 13 6 14
REMARK SMILES IDX 16 15 7 16 8 17 15 18 9 19 10 20 14 21 11 22 13 23 12 24
REMARK SMILES IDX 19 25 20 26 21 27 28 28 22 29 23 30 27 31 24 33 26 34 25 35
REMARK SMILES IDX 33 36 34 37 35 38 36 39 37 41 38 42 39 43 100 44 40 45 99 46
REMARK SMILES IDX 41 47 42 48 43 49 93 50 44 51 98 52 92 53 94 54 45 55 97 56
REMARK SMILES IDX 91 57 90 58 46 60 78 61 58 62 77 63 59 64 62 65 76 66 95 67
REMARK SMILES IDX 60 68 61 69 75 71 96 72 63 73 47 74 48 75 56 76 49 77 50 78
REMARK SMILES IDX 54 79 57 80 51 81 52 82 55 83 53 84 79 85 80 86 88 87 81 88
REMARK SMILES IDX 82 89 86 90 89 91 83 92 84 93 87 94 85 95 64 96 65 97 73 98
REMARK SMILES IDX 66 99 67 100 71 101 74 102 68 103 69 104 72 105 70 106
REMARK H PARENT 31 5 17 10 22 32 35 40 94 59 62 70
REMARK Flexibility Score: inf
ROOT
ATOM      1  C   UNL A   1      32.524  29.144  26.730  1.00  0.00     0.117 C 
ENDROOT
BRANCH   1   2
ATOM      2  N   UNL A   1      33.560  28.204  26.373  1.00  0.00    -0.354 N 
ATOM      3  C   UNL A   1      33.421  27.000  25.761  1.00  0.00     0.242 C 
ATOM      4  O   UNL A   1      34.446  26.366  25.489  1.00  0.00    -0.273 OA
ATOM      5  H   UNL A   1      34.480  28.468  26.601  1.00  0.00     0.163 HD
BRANCH   3   6
ATOM      6  C   UNL A   1      32.053  26.357  25.521  1.00  0.00     0.175 C 
BRANCH   6   7
ATOM      7  N   UNL A   1      31.747  25.091  26.264  1.00  0.00    -0.343 N 
ATOM      8  O   UNL A   1      29.456  25.207  26.548  1.00  0.00    -0.274 OA
ATOM      9  C   UNL A   1      30.482  24.546  26.427  1.00  0.00     0.231 C 
ATOM     10  H   UNL A   1      32.504  24.608  26.668  1.00  0.00     0.164 HD
BRANCH   9  11
ATOM     11  C   UNL A   1      30.361  23.027  26.450  1.00  0.00     0.178 C 
BRANCH  11  12
ATOM     12  S   UNL A   1      31.425  22.321  25.174  1.00  0.00    -0.076 SA
BRANCH  12  13
ATOM     13  C   UNL A   1      32.920  21.920  25.978  1.00  0.00     0.197 A 
ATOM     14  N   UNL A   1      33.692  22.851  26.526  1.00  0.00    -0.122 NA
ATOM     15  N   UNL A   1      33.726  20.875  25.608  1.00  0.00    -0.260 N 
ATOM     16  N   UNL A   1      35.027  22.489  26.329  1.00  0.00    -0.118 NA
ATOM     17  C   UNL A   1      34.997  21.357  25.682  1.00  0.00     0.217 A 
ATOM     18  C   UNL A   1      33.627  19.557  25.187  1.00  0.00     0.068 A 
ATOM     19  S   UNL A   1      36.174  20.300  24.978  1.00  0.00    -0.094 S 
ATOM     20  C   UNL A   1      34.868  19.091  24.730  1.00  0.00     0.055 A 
ATOM     21  C   UNL A   1      32.545  18.724  25.316  1.00  0.00     0.028 A 
ATOM     22  C   UNL A   1      34.992  17.799  24.243  1.00  0.00     0.021 A 
ATOM     23  C   UNL A   1      32.693  17.400  24.905  1.00  0.00     0.002 A 
ATOM     24  C   UNL A   1      33.882  16.953  24.318  1.00  0.00     0.002 A 
ENDBRANCH  12  13
ENDBRANCH  11  12
ENDBRANCH   9  11
ENDBRANCH   6   7
BRANCH   6  25
ATOM     25  C   UNL A   1      31.640  26.373  24.020  1.00  0.00     0.072 C 
BRANCH  25  26
ATOM     26  C   UNL A   1      31.415  27.713  23.312  1.00  0.00    -0.020 A 
ATOM     27  C   UNL A   1      32.330  28.635  22.831  1.00  0.00     0.087 A 
ATOM     28  C   UNL A   1      30.127  28.308  23.038  1.00  0.00     0.003 A 
ATOM     29  N   UNL A   1      31.681  29.583  22.090  1.00  0.00    -0.361 N 
ATOM     30  C   UNL A   1      30.330  29.443  22.247  1.00  0.00     0.046 A 
ATOM     31  C   UNL A   1      28.802  27.987  23.393  1.00  0.00     0.010 A 
ATOM     32  H   UNL A   1      32.119  30.263  21.529  1.00  0.00     0.166 HD
ATOM     33  C   UNL A   1      29.292  30.244  21.760  1.00  0.00     0.026 A 
ATOM     34  C   UNL A   1      27.752  28.811  22.961  1.00  0.00     0.001 A 
ATOM     35  C   UNL A   1      27.994  29.914  22.147  1.00  0.00     0.002 A 
ENDBRANCH  25  26
ENDBRANCH   6  25
ENDBRANCH   3   6
ENDBRANCH   1   2
BRANCH   1  36
ATOM     36  C   UNL A   1      33.040  30.565  26.797  1.00  0.00     0.042 C 
BRANCH  36  37
ATOM     37  C   UNL A   1      34.371  30.700  27.544  1.00  0.00     0.118 C 
BRANCH  37  38
ATOM     38  N   UNL A   1      34.364  31.590  28.692  1.00  0.00    -0.352 N 
ATOM     39  C   UNL A   1      35.273  31.955  29.654  1.00  0.00     0.251 C 
ATOM     40  H   UNL A   1      33.497  32.040  28.810  1.00  0.00     0.163 HD
ATOM     41  O   UNL A   1      34.967  32.897  30.369  1.00  0.00    -0.269 OA
BRANCH  39  42
ATOM     42  C   UNL A   1      36.540  31.229  29.932  1.00  0.00     0.039 A 
ATOM     43  C   UNL A   1      37.811  31.737  29.702  1.00  0.00     0.014 A 
ATOM     44  C   UNL A   1      36.417  29.888  30.344  1.00  0.00     0.014 A 
ATOM     45  C   UNL A   1      38.911  30.894  29.689  1.00  0.00     0.010 A 
ATOM     46  C   UNL A   1      37.528  29.052  30.407  1.00  0.00     0.010 A 
ATOM     47  C   UNL A   1      38.764  29.541  30.007  1.00  0.00    -0.014 A 
BRANCH  47  48
ATOM     48  C   UNL A   1      39.979  28.733  29.995  1.00  0.00     0.031 A 
ATOM     49  C   UNL A   1      40.623  28.588  31.332  1.00  0.00     0.074 A 
ATOM     50  C   UNL A   1      40.484  28.138  28.897  1.00  0.00     0.049 A 
ATOM     51  N   UNL A   1      41.782  29.019  31.712  1.00  0.00    -0.248 NA
ATOM     52  C   UNL A   1      39.811  28.018  32.418  1.00  0.00     0.031 C 
ATOM     53  C   UNL A   1      39.859  27.967  27.584  1.00  0.00     0.029 A 
ATOM     54  N   UNL A   1      41.673  27.483  28.759  1.00  0.00    -0.354 N 
ATOM     55  C   UNL A   1      41.913  28.647  33.049  1.00  0.00     0.074 A 
ATOM     56  C   UNL A   1      40.630  28.144  33.463  1.00  0.00     0.031 C 
ATOM     57  C   UNL A   1      40.570  27.072  26.861  1.00  0.00     0.029 A 
ATOM     58  C   UNL A   1      41.776  26.732  27.596  1.00  0.00     0.049 A 
ATOM     59  H   UNL A   1      42.395  27.537  29.426  1.00  0.00     0.167 HD
ATOM     60  C   UNL A   1      43.127  28.601  33.660  1.00  0.00     0.037 A 
ATOM     61  C   UNL A   1      42.764  25.857  27.293  1.00  0.00     0.037 A 
ATOM     62  C   UNL A   1      44.104  29.368  32.938  1.00  0.00     0.049 A 
ATOM     63  C   UNL A   1      43.945  26.223  28.110  1.00  0.00     0.074 A 
ATOM     64  C   UNL A   1      44.354  30.707  32.724  1.00  0.00     0.029 A 
ATOM     65  N   UNL A   1      44.835  28.677  32.010  1.00  0.00    -0.354 N 
ATOM     66  N   UNL A   1      44.629  27.320  27.954  1.00  0.00    -0.248 NA
ATOM     67  C   UNL A   1      44.176  25.514  29.359  1.00  0.00     0.031 C 
ATOM     68  C   UNL A   1      44.953  30.780  31.431  1.00  0.00     0.029 A 
ATOM     69  C   UNL A   1      45.072  29.483  30.929  1.00  0.00     0.049 A 
ATOM     70  H   UNL A   1      45.140  27.746  32.104  1.00  0.00     0.167 HD
ATOM     71  C   UNL A   1      45.041  27.658  29.231  1.00  0.00     0.074 A 
ATOM     72  C   UNL A   1      44.876  26.441  30.016  1.00  0.00     0.031 C 
ATOM     73  C   UNL A   1      45.203  28.965  29.584  1.00  0.00     0.037 A 
BRANCH  60  74
ATOM     74  C   UNL A   1      43.531  27.541  34.661  1.00  0.00     0.064 A 
ATOM     75  C   UNL A   1      43.863  27.922  35.979  1.00  0.00     0.173 A 
ATOM     76  C   UNL A   1      43.910  26.230  34.299  1.00  0.00     0.173 A 
ATOM     77  F   UNL A   1      43.580  29.154  36.428  1.00  0.00    -0.203 F 
ATOM     78  C   UNL A   1      44.575  27.077  36.838  1.00  0.00     0.198 A 
ATOM     79  C   UNL A   1      44.574  25.373  35.175  1.00  0.00     0.198 A 
ATOM     80  F   UNL A   1      43.757  25.765  33.053  1.00  0.00    -0.203 F 
ATOM     81  F   UNL A   1      44.970  27.524  38.037  1.00  0.00    -0.200 F 
ATOM     82  C   UNL A   1      44.933  25.805  36.433  1.00  0.00     0.200 A 
ATOM     83  F   UNL A   1      44.935  24.153  34.753  1.00  0.00    -0.200 F 
ATOM     84  F   UNL A   1      45.665  25.015  37.229  1.00  0.00    -0.200 F 
ENDBRANCH  60  74
BRANCH  61  85
ATOM     85  C   UNL A   1      42.648  24.536  26.631  1.00  0.00     0.064 A 
ATOM     86  C   UNL A   1      43.312  24.275  25.419  1.00  0.00     0.173 A 
ATOM     87  C   UNL A   1      42.153  23.416  27.327  1.00  0.00     0.173 A 
ATOM     88  F   UNL A   1      43.848  25.283  24.716  1.00  0.00    -0.203 F 
ATOM     89  C   UNL A   1      43.511  22.970  24.959  1.00  0.00     0.198 A 
ATOM     90  C   UNL A   1      42.348  22.115  26.862  1.00  0.00     0.198 A 
ATOM     91  F   UNL A   1      41.566  23.555  28.523  1.00  0.00    -0.203 F 
ATOM     92  F   UNL A   1      44.219  22.758  23.839  1.00  0.00    -0.200 F 
ATOM     93  C   UNL A   1      43.043  21.891  25.688  1.00  0.00     0.200 A 
ATOM     94  F   UNL A   1      41.924  21.077  27.597  1.00  0.00    -0.200 F 
ATOM     95  F   UNL A   1      43.299  20.639  25.286  1.00  0.00    -0.200 F 
ENDBRANCH  61  85
BRANCH  73  96
ATOM     96  C   UNL A   1      45.319  29.969  28.472  1.00  0.00     0.064 A 
ATOM     97  C   UNL A   1      44.225  30.603  27.859  1.00  0.00     0.173 A 
ATOM     98  C   UNL A   1      46.602  30.382  28.090  1.00  0.00     0.173 A 
ATOM     99  F   UNL A   1      42.969  30.326  28.232  1.00  0.00    -0.203 F 
ATOM    100  C   UNL A   1      44.413  31.578  26.880  1.00  0.00     0.198 A 
ATOM    101  C   UNL A   1      46.787  31.384  27.142  1.00  0.00     0.198 A 
ATOM    102  F   UNL A   1      47.683  29.846  28.678  1.00  0.00    -0.203 F 
ATOM    103  F   UNL A   1      43.354  32.162  26.299  1.00  0.00    -0.200 F 
ATOM    104  C   UNL A   1      45.694  31.973  26.529  1.00  0.00     0.200 A 
ATOM    105  F   UNL A   1      48.026  31.797  26.843  1.00  0.00    -0.200 F 
ATOM    106  F   UNL A   1      45.873  32.943  25.623  1.00  0.00    -0.200 F 
ENDBRANCH  73  96
ENDBRANCH  47  48
ENDBRANCH  39  42
ENDBRANCH  37  38
ENDBRANCH  36  37
ENDBRANCH   1  36
TORSDOF 16
ENDMDL
