MODEL 1
REMARK VINA RESULT:     -12.4      0.000      0.000
REMARK SMILES CCC(CC)(Nc1cc2ccccc2c(=O)[nH]1)C(=O)NCCCNC(=O)c1ccc(-c2c3nc(c(-c4c(F)c(F)c(F)c(F)c4F)c4ccc([nH]4)c(-c4c(F)c(F)c(F)c(F)c4F)c4nc(c(-c5c(F)c(F)c(F)c(F)c5F)c5ccc2[nH]5)C=C4)C=C3)cc1
REMARK SMILES IDX 22 1 21 2 20 3 18 4 19 5 3 7 2 8 1 9 4 10 5 11 6 12 7 14
REMARK SMILES IDX 8 15 17 16 9 17 15 18 10 20 14 21 16 22 11 23 13 24 12 25
REMARK SMILES IDX 23 26 24 27 25 28 26 30 27 31 28 32 89 33 29 34 88 35 30 36
REMARK SMILES IDX 31 37 32 38 82 39 33 40 87 41 81 42 83 43 34 44 86 45 80 46
REMARK SMILES IDX 79 47 35 49 67 50 47 51 66 52 48 53 51 54 65 55 84 56 49 57
REMARK SMILES IDX 50 58 64 60 85 61 52 62 36 63 37 64 45 65 38 66 39 67 43 68
REMARK SMILES IDX 46 69 40 70 41 71 44 72 42 73 68 74 69 75 77 76 70 77 71 78
REMARK SMILES IDX 75 79 78 80 72 81 73 82 76 83 74 84 53 85 54 86 62 87 55 88
REMARK SMILES IDX 56 89 60 90 63 91 57 92 58 93 61 94 59 95
REMARK H PARENT 20 6 6 13 17 19 24 29 83 48 51 59
REMARK Flexibility Score: inf
ROOT
ATOM      1  C   UNL A   1      31.446  32.221  26.593  1.00  0.00     0.042 C 
ENDROOT
BRANCH   1   2
ATOM      2  C   UNL A   1      31.641  30.792  26.097  1.00  0.00     0.117 C 
BRANCH   2   3
ATOM      3  N   UNL A   1      31.462  29.733  27.087  1.00  0.00    -0.354 N 
ATOM      4  C   UNL A   1      31.718  28.384  27.058  1.00  0.00     0.245 C 
ATOM      5  O   UNL A   1      31.468  27.779  28.106  1.00  0.00    -0.272 OA
ATOM      6  H   UNL A   1      31.084  30.048  27.941  1.00  0.00     0.163 HD
BRANCH   4   7
ATOM      7  C   UNL A   1      32.196  27.655  25.763  1.00  0.00     0.117 C 
BRANCH   7   8
ATOM      8  C   UNL A   1      33.609  28.154  25.312  1.00  0.00     0.035 C 
ATOM      9  C   UNL A   1      33.785  28.520  23.840  1.00  0.00     0.007 C 
ENDBRANCH   7   8
BRANCH   7  10
ATOM     10  C   UNL A   1      31.144  27.972  24.654  1.00  0.00     0.035 C 
ATOM     11  C   UNL A   1      30.023  26.967  24.437  1.00  0.00     0.007 C 
ENDBRANCH   7  10
BRANCH   7  12
ATOM     12  N   UNL A   1      32.356  26.181  25.994  1.00  0.00    -0.357 N 
ATOM     13  H   UNL A   1      31.790  25.813  26.710  1.00  0.00     0.163 HD
BRANCH  12  14
ATOM     14  C   UNL A   1      33.177  25.246  25.358  1.00  0.00     0.107 A 
ATOM     15  C   UNL A   1      34.213  24.667  26.004  1.00  0.00     0.053 A 
ATOM     16  N   UNL A   1      33.025  24.924  24.033  1.00  0.00    -0.308 N 
ATOM     17  C   UNL A   1      35.175  23.797  25.299  1.00  0.00    -0.009 A 
ATOM     18  C   UNL A   1      33.901  24.225  23.242  1.00  0.00     0.257 A 
ATOM     19  H   UNL A   1      32.194  25.228  23.601  1.00  0.00     0.171 HD
ATOM     20  C   UNL A   1      36.229  23.150  25.952  1.00  0.00     0.009 A 
ATOM     21  C   UNL A   1      35.082  23.663  23.910  1.00  0.00     0.047 A 
ATOM     22  O   UNL A   1      33.729  24.103  22.032  1.00  0.00    -0.269 OA
ATOM     23  C   UNL A   1      37.191  22.444  25.215  1.00  0.00     0.001 A 
ATOM     24  C   UNL A   1      36.060  22.998  23.163  1.00  0.00     0.014 A 
ATOM     25  C   UNL A   1      37.126  22.394  23.821  1.00  0.00     0.001 A 
ENDBRANCH  12  14
ENDBRANCH   7  12
ENDBRANCH   4   7
ENDBRANCH   2   3
ENDBRANCH   1   2
BRANCH   1  26
ATOM     26  C   UNL A   1      32.681  32.905  27.150  1.00  0.00     0.118 C 
BRANCH  26  27
ATOM     27  N   UNL A   1      32.414  34.251  27.621  1.00  0.00    -0.352 N 
ATOM     28  C   UNL A   1      33.014  34.960  28.633  1.00  0.00     0.251 C 
ATOM     29  H   UNL A   1      31.697  34.728  27.144  1.00  0.00     0.163 HD
ATOM     30  O   UNL A   1      32.544  36.042  28.977  1.00  0.00    -0.269 OA
BRANCH  28  31
ATOM     31  C   UNL A   1      34.193  34.417  29.349  1.00  0.00     0.039 A 
ATOM     32  C   UNL A   1      33.979  33.753  30.560  1.00  0.00     0.014 A 
ATOM     33  C   UNL A   1      35.495  34.570  28.863  1.00  0.00     0.014 A 
ATOM     34  C   UNL A   1      35.056  33.189  31.248  1.00  0.00     0.010 A 
ATOM     35  C   UNL A   1      36.561  33.945  29.512  1.00  0.00     0.010 A 
ATOM     36  C   UNL A   1      36.353  33.248  30.712  1.00  0.00    -0.014 A 
BRANCH  36  37
ATOM     37  C   UNL A   1      37.487  32.575  31.398  1.00  0.00     0.031 A 
ATOM     38  C   UNL A   1      38.188  31.409  30.757  1.00  0.00     0.074 A 
ATOM     39  C   UNL A   1      37.873  32.999  32.619  1.00  0.00     0.049 A 
ATOM     40  N   UNL A   1      39.182  30.687  31.214  1.00  0.00    -0.248 NA
ATOM     41  C   UNL A   1      37.700  30.991  29.435  1.00  0.00     0.031 C 
ATOM     42  C   UNL A   1      37.256  34.098  33.362  1.00  0.00     0.029 A 
ATOM     43  N   UNL A   1      38.870  32.553  33.451  1.00  0.00    -0.354 N 
ATOM     44  C   UNL A   1      39.433  29.731  30.240  1.00  0.00     0.074 A 
ATOM     45  C   UNL A   1      38.457  29.931  29.190  1.00  0.00     0.031 C 
ATOM     46  C   UNL A   1      37.904  34.258  34.527  1.00  0.00     0.029 A 
ATOM     47  C   UNL A   1      38.950  33.245  34.635  1.00  0.00     0.049 A 
ATOM     48  H   UNL A   1      39.472  31.808  33.220  1.00  0.00     0.167 HD
ATOM     49  C   UNL A   1      40.402  28.784  30.213  1.00  0.00     0.037 A 
ATOM     50  C   UNL A   1      39.763  33.074  35.696  1.00  0.00     0.037 A 
ATOM     51  C   UNL A   1      41.378  28.590  31.256  1.00  0.00     0.049 A 
ATOM     52  C   UNL A   1      40.801  31.984  35.660  1.00  0.00     0.074 A 
ATOM     53  C   UNL A   1      42.430  27.691  31.296  1.00  0.00     0.029 A 
ATOM     54  N   UNL A   1      41.413  29.296  32.449  1.00  0.00    -0.354 N 
ATOM     55  N   UNL A   1      41.075  31.132  34.703  1.00  0.00    -0.248 NA
ATOM     56  C   UNL A   1      41.646  31.836  36.853  1.00  0.00     0.031 C 
ATOM     57  C   UNL A   1      43.062  27.810  32.537  1.00  0.00     0.029 A 
ATOM     58  C   UNL A   1      42.446  28.827  33.248  1.00  0.00     0.049 A 
ATOM     59  H   UNL A   1      40.796  30.024  32.694  1.00  0.00     0.167 HD
ATOM     60  C   UNL A   1      42.134  30.363  35.167  1.00  0.00     0.074 A 
ATOM     61  C   UNL A   1      42.470  30.866  36.482  1.00  0.00     0.031 C 
ATOM     62  C   UNL A   1      42.770  29.332  34.558  1.00  0.00     0.037 A 
BRANCH  49  63
ATOM     63  C   UNL A   1      40.455  27.873  29.019  1.00  0.00     0.064 A 
ATOM     64  C   UNL A   1      39.689  26.699  28.951  1.00  0.00     0.173 A 
ATOM     65  C   UNL A   1      41.247  28.203  27.909  1.00  0.00     0.173 A 
ATOM     66  F   UNL A   1      38.920  26.334  29.987  1.00  0.00    -0.203 F 
ATOM     67  C   UNL A   1      39.737  25.876  27.829  1.00  0.00     0.198 A 
ATOM     68  C   UNL A   1      41.267  27.394  26.776  1.00  0.00     0.198 A 
ATOM     69  F   UNL A   1      41.993  29.319  27.916  1.00  0.00    -0.203 F 
ATOM     70  F   UNL A   1      39.033  24.736  27.807  1.00  0.00    -0.200 F 
ATOM     71  C   UNL A   1      40.520  26.227  26.740  1.00  0.00     0.200 A 
ATOM     72  F   UNL A   1      42.011  27.745  25.717  1.00  0.00    -0.200 F 
ATOM     73  F   UNL A   1      40.556  25.439  25.656  1.00  0.00    -0.200 F 
ENDBRANCH  49  63
BRANCH  50  74
ATOM     74  C   UNL A   1      39.628  33.956  36.885  1.00  0.00     0.064 A 
ATOM     75  C   UNL A   1      40.292  35.189  36.949  1.00  0.00     0.173 A 
ATOM     76  C   UNL A   1      38.849  33.578  37.988  1.00  0.00     0.173 A 
ATOM     77  F   UNL A   1      41.070  35.585  35.930  1.00  0.00    -0.203 F 
ATOM     78  C   UNL A   1      40.199  36.000  38.079  1.00  0.00     0.198 A 
ATOM     79  C   UNL A   1      38.730  34.405  39.104  1.00  0.00     0.198 A 
ATOM     80  F   UNL A   1      38.193  32.409  37.980  1.00  0.00    -0.203 F 
ATOM     81  F   UNL A   1      40.887  37.148  38.136  1.00  0.00    -0.200 F 
ATOM     82  C   UNL A   1      39.413  35.610  39.153  1.00  0.00     0.200 A 
ATOM     83  F   UNL A   1      37.957  34.031  40.133  1.00  0.00    -0.200 F 
ATOM     84  F   UNL A   1      39.322  36.391  40.238  1.00  0.00    -0.200 F 
ENDBRANCH  50  74
BRANCH  62  85
ATOM     85  C   UNL A   1      43.909  28.689  35.298  1.00  0.00     0.064 A 
ATOM     86  C   UNL A   1      45.232  29.130  35.142  1.00  0.00     0.173 A 
ATOM     87  C   UNL A   1      43.672  27.641  36.200  1.00  0.00     0.173 A 
ATOM     88  F   UNL A   1      45.517  30.118  34.279  1.00  0.00    -0.203 F 
ATOM     89  C   UNL A   1      46.275  28.529  35.840  1.00  0.00     0.198 A 
ATOM     90  C   UNL A   1      44.713  27.065  36.923  1.00  0.00     0.198 A 
ATOM     91  F   UNL A   1      42.425  27.183  36.393  1.00  0.00    -0.203 F 
ATOM     92  F   UNL A   1      47.537  28.933  35.635  1.00  0.00    -0.200 F 
ATOM     93  C   UNL A   1      46.015  27.503  36.736  1.00  0.00     0.200 A 
ATOM     94  F   UNL A   1      44.456  26.084  37.800  1.00  0.00    -0.200 F 
ATOM     95  F   UNL A   1      47.020  26.931  37.414  1.00  0.00    -0.200 F 
ENDBRANCH  62  85
ENDBRANCH  36  37
ENDBRANCH  28  31
ENDBRANCH  26  27
ENDBRANCH   1  26
TORSDOF 14
ENDMDL
MODEL 2
REMARK VINA RESULT:     -12.4      5.400     10.763
REMARK SMILES CCC(CC)(Nc1cc2ccccc2c(=O)[nH]1)C(=O)NCCCNC(=O)c1ccc(-c2c3nc(c(-c4c(F)c(F)c(F)c(F)c4F)c4ccc([nH]4)c(-c4c(F)c(F)c(F)c(F)c4F)c4nc(c(-c5c(F)c(F)c(F)c(F)c5F)c5ccc2[nH]5)C=C4)C=C3)cc1
REMARK SMILES IDX 22 1 21 2 20 3 18 4 19 5 3 7 2 8 1 9 4 10 5 11 6 12 7 14
REMARK SMILES IDX 8 15 17 16 9 17 15 18 10 20 14 21 16 22 11 23 13 24 12 25
REMARK SMILES IDX 23 26 24 27 25 28 26 30 27 31 28 32 89 33 29 34 88 35 30 36
REMARK SMILES IDX 31 37 32 38 82 39 33 40 87 41 81 42 83 43 34 44 86 45 80 46
REMARK SMILES IDX 79 47 35 49 67 50 47 51 66 52 48 53 51 54 65 55 84 56 49 57
REMARK SMILES IDX 50 58 64 60 85 61 52 62 36 63 37 64 45 65 38 66 39 67 43 68
REMARK SMILES IDX 46 69 40 70 41 71 44 72 42 73 68 74 69 75 77 76 70 77 71 78
REMARK SMILES IDX 75 79 78 80 72 81 73 82 76 83 74 84 53 85 54 86 62 87 55 88
REMARK SMILES IDX 56 89 60 90 63 91 57 92 58 93 61 94 59 95
REMARK H PARENT 20 6 6 13 17 19 24 29 83 48 51 59
REMARK Flexibility Score: inf
ROOT
ATOM      1  C   UNL A   1      38.141  19.543  25.027  1.00  0.00     0.042 C 
ENDROOT
BRANCH   1   2
ATOM      2  C   UNL A   1      36.949  20.493  24.990  1.00  0.00     0.117 C 
BRANCH   2   3
ATOM      3  N   UNL A   1      36.991  21.547  23.979  1.00  0.00    -0.354 N 
ATOM      4  C   UNL A   1      36.171  22.617  23.720  1.00  0.00     0.245 C 
ATOM      5  O   UNL A   1      36.529  23.340  22.784  1.00  0.00    -0.272 OA
ATOM      6  H   UNL A   1      37.757  21.475  23.364  1.00  0.00     0.163 HD
BRANCH   4   7
ATOM      7  C   UNL A   1      34.831  22.845  24.490  1.00  0.00     0.117 C 
BRANCH   7   8
ATOM      8  C   UNL A   1      35.086  23.179  25.997  1.00  0.00     0.035 C 
ATOM      9  C   UNL A   1      34.322  22.358  27.034  1.00  0.00     0.007 C 
ENDBRANCH   7   8
BRANCH   7  10
ATOM     10  C   UNL A   1      34.014  21.520  24.372  1.00  0.00     0.035 C 
ATOM     11  C   UNL A   1      32.679  21.577  23.646  1.00  0.00     0.007 C 
ENDBRANCH   7  10
BRANCH   7  12
ATOM     12  N   UNL A   1      34.084  24.027  23.947  1.00  0.00    -0.357 N 
ATOM     13  H   UNL A   1      34.054  24.079  22.964  1.00  0.00     0.163 HD
BRANCH  12  14
ATOM     14  C   UNL A   1      33.424  25.067  24.608  1.00  0.00     0.107 A 
ATOM     15  C   UNL A   1      34.027  26.256  24.825  1.00  0.00     0.053 A 
ATOM     16  N   UNL A   1      32.167  24.912  25.136  1.00  0.00    -0.308 N 
ATOM     17  C   UNL A   1      33.397  27.303  25.653  1.00  0.00    -0.009 A 
ATOM     18  C   UNL A   1      31.523  25.754  26.007  1.00  0.00     0.257 A 
ATOM     19  H   UNL A   1      31.672  24.107  24.860  1.00  0.00     0.171 HD
ATOM     20  C   UNL A   1      33.978  28.558  25.856  1.00  0.00     0.009 A 
ATOM     21  C   UNL A   1      32.205  27.015  26.325  1.00  0.00     0.047 A 
ATOM     22  O   UNL A   1      30.448  25.457  26.522  1.00  0.00    -0.269 OA
ATOM     23  C   UNL A   1      33.404  29.467  26.758  1.00  0.00     0.001 A 
ATOM     24  C   UNL A   1      31.649  27.896  27.259  1.00  0.00     0.014 A 
ATOM     25  C   UNL A   1      32.260  29.124  27.483  1.00  0.00     0.001 A 
ENDBRANCH  12  14
ENDBRANCH   7  12
ENDBRANCH   4   7
ENDBRANCH   2   3
ENDBRANCH   1   2
BRANCH   1  26
ATOM     26  C   UNL A   1      39.340  20.015  25.831  1.00  0.00     0.118 C 
BRANCH  26  27
ATOM     27  N   UNL A   1      40.426  19.052  25.837  1.00  0.00    -0.352 N 
ATOM     28  C   UNL A   1      41.764  19.244  26.076  1.00  0.00     0.251 C 
ATOM     29  H   UNL A   1      40.164  18.123  25.642  1.00  0.00     0.163 HD
ATOM     30  O   UNL A   1      42.552  18.320  25.890  1.00  0.00    -0.269 OA
BRANCH  28  31
ATOM     31  C   UNL A   1      42.279  20.565  26.510  1.00  0.00     0.039 A 
ATOM     32  C   UNL A   1      42.833  21.406  25.541  1.00  0.00     0.014 A 
ATOM     33  C   UNL A   1      42.247  20.974  27.846  1.00  0.00     0.014 A 
ATOM     34  C   UNL A   1      43.293  22.676  25.897  1.00  0.00     0.010 A 
ATOM     35  C   UNL A   1      42.639  22.270  28.190  1.00  0.00     0.010 A 
ATOM     36  C   UNL A   1      43.167  23.134  27.218  1.00  0.00    -0.014 A 
BRANCH  36  37
ATOM     37  C   UNL A   1      43.576  24.516  27.583  1.00  0.00     0.031 A 
ATOM     38  C   UNL A   1      42.544  25.558  27.917  1.00  0.00     0.074 A 
ATOM     39  C   UNL A   1      44.883  24.844  27.589  1.00  0.00     0.049 A 
ATOM     40  N   UNL A   1      42.713  26.817  28.237  1.00  0.00    -0.248 NA
ATOM     41  C   UNL A   1      41.137  25.133  27.870  1.00  0.00     0.031 C 
ATOM     42  C   UNL A   1      45.980  23.935  27.255  1.00  0.00     0.029 A 
ATOM     43  N   UNL A   1      45.512  26.030  27.880  1.00  0.00    -0.354 N 
ATOM     44  C   UNL A   1      41.438  27.333  28.427  1.00  0.00     0.074 A 
ATOM     45  C   UNL A   1      40.503  26.267  28.136  1.00  0.00     0.031 C 
ATOM     46  C   UNL A   1      47.146  24.587  27.385  1.00  0.00     0.029 A 
ATOM     47  C   UNL A   1      46.879  25.972  27.765  1.00  0.00     0.049 A 
ATOM     48  H   UNL A   1      45.027  26.845  28.147  1.00  0.00     0.167 HD
ATOM     49  C   UNL A   1      41.079  28.578  28.826  1.00  0.00     0.037 A 
ATOM     50  C   UNL A   1      47.813  26.929  27.930  1.00  0.00     0.037 A 
ATOM     51  C   UNL A   1      42.010  29.637  29.122  1.00  0.00     0.049 A 
ATOM     52  C   UNL A   1      47.384  28.316  28.329  1.00  0.00     0.074 A 
ATOM     53  C   UNL A   1      41.744  30.915  29.582  1.00  0.00     0.029 A 
ATOM     54  N   UNL A   1      43.386  29.546  28.973  1.00  0.00    -0.354 N 
ATOM     55  N   UNL A   1      46.179  28.772  28.574  1.00  0.00    -0.248 NA
ATOM     56  C   UNL A   1      48.446  29.320  28.478  1.00  0.00     0.031 C 
ATOM     57  C   UNL A   1      42.952  31.617  29.651  1.00  0.00     0.029 A 
ATOM     58  C   UNL A   1      43.979  30.758  29.296  1.00  0.00     0.049 A 
ATOM     59  H   UNL A   1      43.871  28.740  28.681  1.00  0.00     0.167 HD
ATOM     60  C   UNL A   1      46.340  30.106  28.926  1.00  0.00     0.074 A 
ATOM     61  C   UNL A   1      47.761  30.379  28.886  1.00  0.00     0.031 C 
ATOM     62  C   UNL A   1      45.395  31.022  29.250  1.00  0.00     0.037 A 
BRANCH  49  63
ATOM     63  C   UNL A   1      39.611  28.870  28.961  1.00  0.00     0.064 A 
ATOM     64  C   UNL A   1      38.947  28.763  30.193  1.00  0.00     0.173 A 
ATOM     65  C   UNL A   1      38.869  29.308  27.854  1.00  0.00     0.173 A 
ATOM     66  F   UNL A   1      39.607  28.342  31.282  1.00  0.00    -0.203 F 
ATOM     67  C   UNL A   1      37.590  29.055  30.304  1.00  0.00     0.198 A 
ATOM     68  C   UNL A   1      37.520  29.630  27.975  1.00  0.00     0.198 A 
ATOM     69  F   UNL A   1      39.456  29.438  26.653  1.00  0.00    -0.203 F 
ATOM     70  F   UNL A   1      36.967  28.899  31.480  1.00  0.00    -0.200 F 
ATOM     71  C   UNL A   1      36.879  29.495  29.197  1.00  0.00     0.200 A 
ATOM     72  F   UNL A   1      36.839  30.073  26.909  1.00  0.00    -0.200 F 
ATOM     73  F   UNL A   1      35.575  29.787  29.308  1.00  0.00    -0.200 F 
ENDBRANCH  49  63
BRANCH  50  74
ATOM     74  C   UNL A   1      49.250  26.610  27.719  1.00  0.00     0.064 A 
ATOM     75  C   UNL A   1      49.788  26.517  26.428  1.00  0.00     0.173 A 
ATOM     76  C   UNL A   1      50.110  26.374  28.802  1.00  0.00     0.173 A 
ATOM     77  F   UNL A   1      49.001  26.710  25.359  1.00  0.00    -0.203 F 
ATOM     78  C   UNL A   1      51.125  26.179  26.227  1.00  0.00     0.198 A 
ATOM     79  C   UNL A   1      51.455  26.069  28.601  1.00  0.00     0.198 A 
ATOM     80  F   UNL A   1      49.647  26.449  30.058  1.00  0.00    -0.203 F 
ATOM     81  F   UNL A   1      51.601  26.045  24.982  1.00  0.00    -0.200 F 
ATOM     82  C   UNL A   1      51.959  25.962  27.314  1.00  0.00     0.200 A 
ATOM     83  F   UNL A   1      52.260  25.874  29.654  1.00  0.00    -0.200 F 
ATOM     84  F   UNL A   1      53.245  25.640  27.121  1.00  0.00    -0.200 F 
ENDBRANCH  50  74
BRANCH  62  85
ATOM     85  C   UNL A   1      45.866  32.403  29.610  1.00  0.00     0.064 A 
ATOM     86  C   UNL A   1      46.013  33.407  28.642  1.00  0.00     0.173 A 
ATOM     87  C   UNL A   1      46.141  32.736  30.946  1.00  0.00     0.173 A 
ATOM     88  F   UNL A   1      45.781  33.137  27.349  1.00  0.00    -0.203 F 
ATOM     89  C   UNL A   1      46.444  34.683  28.993  1.00  0.00     0.198 A 
ATOM     90  C   UNL A   1      46.536  34.023  31.298  1.00  0.00     0.198 A 
ATOM     91  F   UNL A   1      46.010  31.815  31.913  1.00  0.00    -0.203 F 
ATOM     92  F   UNL A   1      46.628  35.612  28.044  1.00  0.00    -0.200 F 
ATOM     93  C   UNL A   1      46.696  34.994  30.321  1.00  0.00     0.200 A 
ATOM     94  F   UNL A   1      46.765  34.324  32.585  1.00  0.00    -0.200 F 
ATOM     95  F   UNL A   1      47.102  36.226  30.658  1.00  0.00    -0.200 F 
ENDBRANCH  62  85
ENDBRANCH  36  37
ENDBRANCH  28  31
ENDBRANCH  26  27
ENDBRANCH   1  26
TORSDOF 14
ENDMDL
MODEL 3
REMARK VINA RESULT:     -12.4      0.238      1.964
REMARK SMILES CCC(CC)(Nc1cc2ccccc2c(=O)[nH]1)C(=O)NCCCNC(=O)c1ccc(-c2c3nc(c(-c4c(F)c(F)c(F)c(F)c4F)c4ccc([nH]4)c(-c4c(F)c(F)c(F)c(F)c4F)c4nc(c(-c5c(F)c(F)c(F)c(F)c5F)c5ccc2[nH]5)C=C4)C=C3)cc1
REMARK SMILES IDX 22 1 21 2 20 3 18 4 19 5 3 7 2 8 1 9 4 10 5 11 6 12 7 14
REMARK SMILES IDX 8 15 17 16 9 17 15 18 10 20 14 21 16 22 11 23 13 24 12 25
REMARK SMILES IDX 23 26 24 27 25 28 26 30 27 31 28 32 89 33 29 34 88 35 30 36
REMARK SMILES IDX 31 37 32 38 82 39 33 40 87 41 81 42 83 43 34 44 86 45 80 46
REMARK SMILES IDX 79 47 35 49 67 50 47 51 66 52 48 53 51 54 65 55 84 56 49 57
REMARK SMILES IDX 50 58 64 60 85 61 52 62 36 63 37 64 45 65 38 66 39 67 43 68
REMARK SMILES IDX 46 69 40 70 41 71 44 72 42 73 68 74 69 75 77 76 70 77 71 78
REMARK SMILES IDX 75 79 78 80 72 81 73 82 76 83 74 84 53 85 54 86 62 87 55 88
REMARK SMILES IDX 56 89 60 90 63 91 57 92 58 93 61 94 59 95
REMARK H PARENT 20 6 6 13 17 19 24 29 83 48 51 59
REMARK Flexibility Score: inf
ROOT
ATOM      1  C   UNL A   1      31.381  32.250  26.542  1.00  0.00     0.042 C 
ENDROOT
BRANCH   1   2
ATOM      2  C   UNL A   1      31.574  30.857  25.952  1.00  0.00     0.117 C 
BRANCH   2   3
ATOM      3  N   UNL A   1      31.533  29.743  26.896  1.00  0.00    -0.354 N 
ATOM      4  C   UNL A   1      31.763  28.397  26.752  1.00  0.00     0.245 C 
ATOM      5  O   UNL A   1      31.667  27.733  27.789  1.00  0.00    -0.272 OA
ATOM      6  H   UNL A   1      31.293  30.009  27.814  1.00  0.00     0.163 HD
BRANCH   4   7
ATOM      7  C   UNL A   1      32.029  27.742  25.360  1.00  0.00     0.117 C 
BRANCH   7   8
ATOM      8  C   UNL A   1      33.451  28.107  24.817  1.00  0.00     0.035 C 
ATOM      9  C   UNL A   1      33.539  28.634  23.386  1.00  0.00     0.007 C 
ENDBRANCH   7   8
BRANCH   7  10
ATOM     10  C   UNL A   1      30.936  28.288  24.389  1.00  0.00     0.035 C 
ATOM     11  C   UNL A   1      29.916  27.298  23.847  1.00  0.00     0.007 C 
ENDBRANCH   7  10
BRANCH   7  12
ATOM     12  N   UNL A   1      32.018  26.244  25.450  1.00  0.00    -0.357 N 
ATOM     13  H   UNL A   1      31.224  25.865  25.894  1.00  0.00     0.163 HD
BRANCH  12  14
ATOM     14  C   UNL A   1      32.947  25.299  25.007  1.00  0.00     0.107 A 
ATOM     15  C   UNL A   1      34.007  24.948  25.767  1.00  0.00     0.053 A 
ATOM     16  N   UNL A   1      32.877  24.740  23.755  1.00  0.00    -0.308 N 
ATOM     17  C   UNL A   1      35.074  24.069  25.247  1.00  0.00    -0.009 A 
ATOM     18  C   UNL A   1      33.846  24.006  23.119  1.00  0.00     0.257 A 
ATOM     19  H   UNL A   1      32.039  24.881  23.258  1.00  0.00     0.171 HD
ATOM     20  C   UNL A   1      36.157  23.652  26.026  1.00  0.00     0.009 A 
ATOM     21  C   UNL A   1      35.047  23.688  23.901  1.00  0.00     0.047 A 
ATOM     22  O   UNL A   1      33.733  23.660  21.946  1.00  0.00    -0.269 OA
ATOM     23  C   UNL A   1      37.210  22.929  25.445  1.00  0.00     0.001 A 
ATOM     24  C   UNL A   1      36.112  23.005  23.304  1.00  0.00     0.014 A 
ATOM     25  C   UNL A   1      37.204  22.634  24.081  1.00  0.00     0.001 A 
ENDBRANCH  12  14
ENDBRANCH   7  12
ENDBRANCH   4   7
ENDBRANCH   2   3
ENDBRANCH   1   2
BRANCH   1  26
ATOM     26  C   UNL A   1      32.589  32.849  27.238  1.00  0.00     0.118 C 
BRANCH  26  27
ATOM     27  N   UNL A   1      32.373  34.221  27.658  1.00  0.00    -0.352 N 
ATOM     28  C   UNL A   1      33.016  34.953  28.625  1.00  0.00     0.251 C 
ATOM     29  H   UNL A   1      31.658  34.699  27.178  1.00  0.00     0.163 HD
ATOM     30  O   UNL A   1      32.587  36.061  28.934  1.00  0.00    -0.269 OA
BRANCH  28  31
ATOM     31  C   UNL A   1      34.196  34.405  29.336  1.00  0.00     0.039 A 
ATOM     32  C   UNL A   1      33.978  33.680  30.512  1.00  0.00     0.014 A 
ATOM     33  C   UNL A   1      35.502  34.611  28.881  1.00  0.00     0.014 A 
ATOM     34  C   UNL A   1      35.056  33.110  31.192  1.00  0.00     0.010 A 
ATOM     35  C   UNL A   1      36.572  33.980  29.520  1.00  0.00     0.010 A 
ATOM     36  C   UNL A   1      36.360  33.224  30.683  1.00  0.00    -0.014 A 
BRANCH  36  37
ATOM     37  C   UNL A   1      37.499  32.546  31.358  1.00  0.00     0.031 A 
ATOM     38  C   UNL A   1      38.183  31.373  30.713  1.00  0.00     0.074 A 
ATOM     39  C   UNL A   1      37.903  32.973  32.571  1.00  0.00     0.049 A 
ATOM     40  N   UNL A   1      39.177  30.646  31.161  1.00  0.00    -0.248 NA
ATOM     41  C   UNL A   1      37.675  30.951  29.399  1.00  0.00     0.031 C 
ATOM     42  C   UNL A   1      37.304  34.080  33.317  1.00  0.00     0.029 A 
ATOM     43  N   UNL A   1      38.909  32.525  33.393  1.00  0.00    -0.354 N 
ATOM     44  C   UNL A   1      39.410  29.682  30.188  1.00  0.00     0.074 A 
ATOM     45  C   UNL A   1      38.422  29.884  29.150  1.00  0.00     0.031 C 
ATOM     46  C   UNL A   1      37.968  34.241  34.472  1.00  0.00     0.029 A 
ATOM     47  C   UNL A   1      39.008  33.221  34.572  1.00  0.00     0.049 A 
ATOM     48  H   UNL A   1      39.502  31.774  33.157  1.00  0.00     0.167 HD
ATOM     49  C   UNL A   1      40.372  28.729  30.154  1.00  0.00     0.037 A 
ATOM     50  C   UNL A   1      39.834  33.049  35.623  1.00  0.00     0.037 A 
ATOM     51  C   UNL A   1      41.360  28.533  31.185  1.00  0.00     0.049 A 
ATOM     52  C   UNL A   1      40.864  31.952  35.579  1.00  0.00     0.074 A 
ATOM     53  C   UNL A   1      42.406  27.626  31.215  1.00  0.00     0.029 A 
ATOM     54  N   UNL A   1      41.415  29.245  32.373  1.00  0.00    -0.354 N 
ATOM     55  N   UNL A   1      41.119  31.093  34.622  1.00  0.00    -0.248 NA
ATOM     56  C   UNL A   1      41.723  31.804  36.761  1.00  0.00     0.031 C 
ATOM     57  C   UNL A   1      43.055  27.747  32.447  1.00  0.00     0.029 A 
ATOM     58  C   UNL A   1      42.455  28.772  33.161  1.00  0.00     0.049 A 
ATOM     59  H   UNL A   1      40.807  29.978  32.622  1.00  0.00     0.167 HD
ATOM     60  C   UNL A   1      42.179  30.319  35.076  1.00  0.00     0.074 A 
ATOM     61  C   UNL A   1      42.535  30.826  36.385  1.00  0.00     0.031 C 
ATOM     62  C   UNL A   1      42.799  29.281  34.464  1.00  0.00     0.037 A 
BRANCH  49  63
ATOM     63  C   UNL A   1      40.403  27.812  28.963  1.00  0.00     0.064 A 
ATOM     64  C   UNL A   1      41.200  28.086  27.841  1.00  0.00     0.173 A 
ATOM     65  C   UNL A   1      39.661  26.621  28.963  1.00  0.00     0.173 A 
ATOM     66  F   UNL A   1      41.924  29.214  27.786  1.00  0.00    -0.203 F 
ATOM     67  C   UNL A   1      41.230  27.217  26.753  1.00  0.00     0.198 A 
ATOM     68  C   UNL A   1      39.719  25.739  27.888  1.00  0.00     0.198 A 
ATOM     69  F   UNL A   1      38.888  26.305  30.015  1.00  0.00    -0.203 F 
ATOM     70  F   UNL A   1      41.963  27.523  25.673  1.00  0.00    -0.200 F 
ATOM     71  C   UNL A   1      40.496  26.041  26.781  1.00  0.00     0.200 A 
ATOM     72  F   UNL A   1      39.022  24.594  27.924  1.00  0.00    -0.200 F 
ATOM     73  F   UNL A   1      40.535  25.200  25.737  1.00  0.00    -0.200 F 
ENDBRANCH  49  63
BRANCH  50  74
ATOM     74  C   UNL A   1      39.721  33.939  36.810  1.00  0.00     0.064 A 
ATOM     75  C   UNL A   1      38.910  33.591  37.899  1.00  0.00     0.173 A 
ATOM     76  C   UNL A   1      40.407  35.161  36.871  1.00  0.00     0.173 A 
ATOM     77  F   UNL A   1      38.215  32.444  37.877  1.00  0.00    -0.203 F 
ATOM     78  C   UNL A   1      38.773  34.441  38.995  1.00  0.00     0.198 A 
ATOM     79  C   UNL A   1      40.294  35.995  37.982  1.00  0.00     0.198 A 
ATOM     80  F   UNL A   1      41.195  35.542  35.856  1.00  0.00    -0.203 F 
ATOM     81  F   UNL A   1      37.949  34.110  39.998  1.00  0.00    -0.200 F 
ATOM     82  C   UNL A   1      39.469  35.639  39.038  1.00  0.00     0.200 A 
ATOM     83  F   UNL A   1      40.981  37.144  38.026  1.00  0.00    -0.200 F 
ATOM     84  F   UNL A   1      39.339  36.455  40.093  1.00  0.00    -0.200 F 
ENDBRANCH  50  74
BRANCH  62  85
ATOM     85  C   UNL A   1      43.944  28.634  35.192  1.00  0.00     0.064 A 
ATOM     86  C   UNL A   1      43.741  27.584  36.101  1.00  0.00     0.173 A 
ATOM     87  C   UNL A   1      45.265  29.046  34.954  1.00  0.00     0.173 A 
ATOM     88  F   UNL A   1      42.497  27.164  36.379  1.00  0.00    -0.203 F 
ATOM     89  C   UNL A   1      44.812  26.991  36.762  1.00  0.00     0.198 A 
ATOM     90  C   UNL A   1      46.337  28.426  35.590  1.00  0.00     0.198 A 
ATOM     91  F   UNL A   1      45.517  30.041  34.090  1.00  0.00    -0.203 F 
ATOM     92  F   UNL A   1      44.589  26.025  37.665  1.00  0.00    -0.200 F 
ATOM     93  C   UNL A   1      46.110  27.405  36.500  1.00  0.00     0.200 A 
ATOM     94  F   UNL A   1      47.590  28.819  35.323  1.00  0.00    -0.200 F 
ATOM     95  F   UNL A   1      47.141  26.826  37.131  1.00  0.00    -0.200 F 
ENDBRANCH  62  85
ENDBRANCH  36  37
ENDBRANCH  28  31
ENDBRANCH  26  27
ENDBRANCH   1  26
TORSDOF 14
ENDMDL
