MODEL 1
REMARK VINA RESULT:     -13.3      0.000      0.000
REMARK SMILES O=C(NCCCNC(=O)[C@H]1CC[C@H]2CCCC[C@@H]2[N@H+]1[C@@H]1CCCSC1)c1ccc(-c2c3nc(c(-c4c(F)c(F)c(F)c(F)c4F)c4ccc([nH]4)c(-c4c(F)c(F)c(F)c(F)c4F)c4nc(c(-c5c(F)c(F)c(F)c(F)c5F)c5ccc2[nH]5)C=C4)C=C3)cc1
REMARK SMILES IDX 4 1 3 2 1 3 2 4 26 6 27 7 88 8 28 9 87 10 29 11 30 12 31 13
REMARK SMILES IDX 81 14 32 15 86 16 80 17 82 18 33 19 85 20 79 21 78 22 34 24
REMARK SMILES IDX 66 25 46 26 65 27 47 28 50 29 64 30 83 31 48 32 49 33 63 35
REMARK SMILES IDX 84 36 51 37 35 38 36 39 44 40 37 41 38 42 42 43 45 44 39 45
REMARK SMILES IDX 40 46 43 47 41 48 67 49 68 50 76 51 69 52 70 53 74 54 77 55
REMARK SMILES IDX 71 56 72 57 75 58 73 59 52 60 53 61 61 62 54 63 55 64 59 65
REMARK SMILES IDX 62 66 56 67 57 68 60 69 58 70 5 71 6 72 7 73 8 74 9 76 10 77
REMARK SMILES IDX 11 78 19 79 12 80 18 81 13 83 17 84 14 85 16 86 15 87 20 88
REMARK SMILES IDX 21 89 25 90 22 91 24 92 23 93
REMARK H PARENT 3 5 82 23 50 34 7 75 19 82
REMARK Flexibility Score: inf
ROOT
ATOM      1  C   UNL A   1      32.666  32.740  27.268  1.00  0.00     0.118 C 
ENDROOT
BRANCH   1   2
ATOM      2  N   UNL A   1      32.440  34.137  27.648  1.00  0.00    -0.352 N 
ATOM      3  O   UNL A   1      32.512  36.023  28.874  1.00  0.00    -0.269 OA
ATOM      4  C   UNL A   1      33.007  34.932  28.619  1.00  0.00     0.251 C 
ATOM      5  H   UNL A   1      31.756  34.592  27.107  1.00  0.00     0.163 HD
BRANCH   4   6
ATOM      6  C   UNL A   1      34.187  34.466  29.380  1.00  0.00     0.039 A 
ATOM      7  C   UNL A   1      35.470  34.677  28.891  1.00  0.00     0.014 A 
ATOM      8  C   UNL A   1      34.014  33.808  30.603  1.00  0.00     0.014 A 
ATOM      9  C   UNL A   1      36.540  34.006  29.461  1.00  0.00     0.010 A 
ATOM     10  C   UNL A   1      35.122  33.272  31.270  1.00  0.00     0.010 A 
ATOM     11  C   UNL A   1      36.389  33.311  30.669  1.00  0.00    -0.014 A 
BRANCH  11  12
ATOM     12  C   UNL A   1      37.591  32.671  31.267  1.00  0.00     0.031 A 
ATOM     13  C   UNL A   1      38.019  32.975  32.677  1.00  0.00     0.074 A 
ATOM     14  C   UNL A   1      38.240  31.731  30.551  1.00  0.00     0.049 A 
ATOM     15  N   UNL A   1      38.998  32.451  33.370  1.00  0.00    -0.248 NA
ATOM     16  C   UNL A   1      37.266  34.010  33.402  1.00  0.00     0.031 C 
ATOM     17  C   UNL A   1      37.922  31.358  29.169  1.00  0.00     0.029 A 
ATOM     18  N   UNL A   1      39.258  30.878  30.893  1.00  0.00    -0.354 N 
ATOM     19  C   UNL A   1      39.007  33.120  34.587  1.00  0.00     0.074 A 
ATOM     20  C   UNL A   1      37.942  34.097  34.539  1.00  0.00     0.031 C 
ATOM     21  C   UNL A   1      38.650  30.290  28.820  1.00  0.00     0.029 A 
ATOM     22  C   UNL A   1      39.552  29.959  29.916  1.00  0.00     0.049 A 
ATOM     23  H   UNL A   1      39.731  30.922  31.755  1.00  0.00     0.167 HD
ATOM     24  C   UNL A   1      39.831  32.931  35.647  1.00  0.00     0.037 A 
ATOM     25  C   UNL A   1      40.453  28.960  29.897  1.00  0.00     0.037 A 
ATOM     26  C   UNL A   1      40.857  31.922  35.707  1.00  0.00     0.049 A 
ATOM     27  C   UNL A   1      41.328  28.757  31.097  1.00  0.00     0.074 A 
ATOM     28  C   UNL A   1      41.721  31.628  36.748  1.00  0.00     0.029 A 
ATOM     29  N   UNL A   1      41.149  31.032  34.683  1.00  0.00    -0.354 N 
ATOM     30  N   UNL A   1      41.323  29.397  32.240  1.00  0.00    -0.248 NA
ATOM     31  C   UNL A   1      42.343  27.701  31.000  1.00  0.00     0.031 C 
ATOM     32  C   UNL A   1      42.559  30.585  36.341  1.00  0.00     0.029 A 
ATOM     33  C   UNL A   1      42.189  30.199  35.063  1.00  0.00     0.049 A 
ATOM     34  H   UNL A   1      40.687  30.999  33.815  1.00  0.00     0.167 HD
ATOM     35  C   UNL A   1      42.326  28.820  33.002  1.00  0.00     0.074 A 
ATOM     36  C   UNL A   1      42.901  27.758  32.201  1.00  0.00     0.031 C 
ATOM     37  C   UNL A   1      42.742  29.146  34.250  1.00  0.00     0.037 A 
BRANCH  24  38
ATOM     38  C   UNL A   1      39.678  33.853  36.823  1.00  0.00     0.064 A 
ATOM     39  C   UNL A   1      40.282  35.118  36.858  1.00  0.00     0.173 A 
ATOM     40  C   UNL A   1      38.876  33.479  37.912  1.00  0.00     0.173 A 
ATOM     41  F   UNL A   1      41.070  35.519  35.850  1.00  0.00    -0.203 F 
ATOM     42  C   UNL A   1      40.108  35.965  37.953  1.00  0.00     0.198 A 
ATOM     43  C   UNL A   1      38.683  34.338  38.992  1.00  0.00     0.198 A 
ATOM     44  F   UNL A   1      38.271  32.281  37.927  1.00  0.00    -0.203 F 
ATOM     45  F   UNL A   1      40.729  37.151  37.984  1.00  0.00    -0.200 F 
ATOM     46  C   UNL A   1      39.303  35.577  39.013  1.00  0.00     0.200 A 
ATOM     47  F   UNL A   1      37.896  33.965  40.011  1.00  0.00    -0.200 F 
ATOM     48  F   UNL A   1      39.131  36.396  40.060  1.00  0.00    -0.200 F 
ENDBRANCH  24  38
BRANCH  25  49
ATOM     49  C   UNL A   1      40.563  28.088  28.701  1.00  0.00     0.064 A 
ATOM     50  C   UNL A   1      39.865  26.875  28.626  1.00  0.00     0.173 A 
ATOM     51  C   UNL A   1      41.343  28.462  27.596  1.00  0.00     0.173 A 
ATOM     52  F   UNL A   1      39.119  26.467  29.663  1.00  0.00    -0.203 F 
ATOM     53  C   UNL A   1      39.951  26.065  27.496  1.00  0.00     0.198 A 
ATOM     54  C   UNL A   1      41.403  27.667  26.455  1.00  0.00     0.198 A 
ATOM     55  F   UNL A   1      42.025  29.617  27.615  1.00  0.00    -0.203 F 
ATOM     56  F   UNL A   1      39.301  24.894  27.463  1.00  0.00    -0.200 F 
ATOM     57  C   UNL A   1      40.713  26.465  26.408  1.00  0.00     0.200 A 
ATOM     58  F   UNL A   1      42.124  28.068  25.398  1.00  0.00    -0.200 F 
ATOM     59  F   UNL A   1      40.783  25.692  25.316  1.00  0.00    -0.200 F 
ENDBRANCH  25  49
BRANCH  37  60
ATOM     60  C   UNL A   1      43.854  28.324  34.826  1.00  0.00     0.064 A 
ATOM     61  C   UNL A   1      45.197  28.702  34.681  1.00  0.00     0.173 A 
ATOM     62  C   UNL A   1      43.571  27.150  35.541  1.00  0.00     0.173 A 
ATOM     63  F   UNL A   1      45.516  29.806  33.989  1.00  0.00    -0.203 F 
ATOM     64  C   UNL A   1      46.220  27.916  35.204  1.00  0.00     0.198 A 
ATOM     65  C   UNL A   1      44.594  26.382  36.085  1.00  0.00     0.198 A 
ATOM     66  F   UNL A   1      42.301  26.751  35.709  1.00  0.00    -0.203 F 
ATOM     67  F   UNL A   1      47.498  28.267  35.009  1.00  0.00    -0.200 F 
ATOM     68  C   UNL A   1      45.917  26.760  35.909  1.00  0.00     0.200 A 
ATOM     69  F   UNL A   1      44.301  25.269  36.774  1.00  0.00    -0.200 F 
ATOM     70  F   UNL A   1      46.903  26.003  36.411  1.00  0.00    -0.200 F 
ENDBRANCH  37  60
ENDBRANCH  11  12
ENDBRANCH   4   6
ENDBRANCH   1   2
BRANCH   1  71
ATOM     71  C   UNL A   1      31.469  32.118  26.574  1.00  0.00     0.042 C 
BRANCH  71  72
ATOM     72  C   UNL A   1      31.675  30.648  26.307  1.00  0.00     0.118 C 
BRANCH  72  73
ATOM     73  N   UNL A   1      32.787  30.339  25.445  1.00  0.00    -0.351 N 
ATOM     74  C   UNL A   1      33.016  29.200  24.729  1.00  0.00     0.278 C 
ATOM     75  H   UNL A   1      33.471  31.042  25.361  1.00  0.00     0.163 HD
ATOM     76  O   UNL A   1      33.872  29.282  23.839  1.00  0.00    -0.268 OA
BRANCH  74  77
ATOM     77  C   UNL A   1      32.310  27.850  25.026  1.00  0.00     0.274 C 
ATOM     78  C   UNL A   1      31.918  27.621  26.498  1.00  0.00     0.076 C 
ATOM     79  N   UNL A   1      31.333  27.382  24.003  1.00  0.00    -0.319 N 
ATOM     80  C   UNL A   1      31.131  26.322  26.707  1.00  0.00     0.016 C 
ATOM     81  C   UNL A   1      30.951  25.971  24.205  1.00  0.00     0.188 C 
ATOM     82  H   UNL A   1      31.881  27.448  23.145  1.00  0.00     0.349 HD
ATOM     83  C   UNL A   1      31.394  25.355  25.557  1.00  0.00     0.048 C 
ATOM     84  C   UNL A   1      31.510  25.081  23.083  1.00  0.00     0.065 C 
ATOM     85  C   UNL A   1      30.687  24.007  25.729  1.00  0.00     0.010 C 
ATOM     86  C   UNL A   1      30.925  23.670  23.201  1.00  0.00     0.006 C 
ATOM     87  C   UNL A   1      31.086  23.058  24.596  1.00  0.00     0.001 C 
BRANCH  79  88
ATOM     88  C   UNL A   1      30.207  28.269  23.623  1.00  0.00     0.194 C 
ATOM     89  C   UNL A   1      28.841  27.560  23.414  1.00  0.00     0.067 C 
ATOM     90  C   UNL A   1      30.536  29.107  22.364  1.00  0.00     0.134 C 
ATOM     91  C   UNL A   1      27.677  28.544  23.299  1.00  0.00     0.017 C 
ATOM     92  S   UNL A   1      29.306  30.433  22.084  1.00  0.00    -0.156 SA
ATOM     93  C   UNL A   1      27.785  29.439  22.076  1.00  0.00     0.070 C 
ENDBRANCH  79  88
ENDBRANCH  74  77
ENDBRANCH  72  73
ENDBRANCH  71  72
ENDBRANCH   1  71
TORSDOF 11
ENDMDL
MODEL 2
REMARK VINA RESULT:     -13.3      0.097      1.605
REMARK SMILES O=C(NCCCNC(=O)[C@H]1CC[C@H]2CCCC[C@@H]2[N@H+]1[C@@H]1CCCSC1)c1ccc(-c2c3nc(c(-c4c(F)c(F)c(F)c(F)c4F)c4ccc([nH]4)c(-c4c(F)c(F)c(F)c(F)c4F)c4nc(c(-c5c(F)c(F)c(F)c(F)c5F)c5ccc2[nH]5)C=C4)C=C3)cc1
REMARK SMILES IDX 4 1 3 2 1 3 2 4 26 6 27 7 88 8 28 9 87 10 29 11 30 12 31 13
REMARK SMILES IDX 81 14 32 15 86 16 80 17 82 18 33 19 85 20 79 21 78 22 34 24
REMARK SMILES IDX 66 25 46 26 65 27 47 28 50 29 64 30 83 31 48 32 49 33 63 35
REMARK SMILES IDX 84 36 51 37 35 38 36 39 44 40 37 41 38 42 42 43 45 44 39 45
REMARK SMILES IDX 40 46 43 47 41 48 67 49 68 50 76 51 69 52 70 53 74 54 77 55
REMARK SMILES IDX 71 56 72 57 75 58 73 59 52 60 53 61 61 62 54 63 55 64 59 65
REMARK SMILES IDX 62 66 56 67 57 68 60 69 58 70 5 71 6 72 7 73 8 74 9 76 10 77
REMARK SMILES IDX 11 78 19 79 12 80 18 81 13 83 17 84 14 85 16 86 15 87 20 88
REMARK SMILES IDX 21 89 25 90 22 91 24 92 23 93
REMARK H PARENT 3 5 82 23 50 34 7 75 19 82
REMARK Flexibility Score: inf
ROOT
ATOM      1  C   UNL A   1      32.622  32.717  27.274  1.00  0.00     0.118 C 
ENDROOT
BRANCH   1   2
ATOM      2  N   UNL A   1      32.409  34.117  27.650  1.00  0.00    -0.352 N 
ATOM      3  O   UNL A   1      32.505  36.007  28.868  1.00  0.00    -0.269 OA
ATOM      4  C   UNL A   1      32.991  34.913  28.612  1.00  0.00     0.251 C 
ATOM      5  H   UNL A   1      31.721  34.574  27.114  1.00  0.00     0.163 HD
BRANCH   4   6
ATOM      6  C   UNL A   1      34.175  34.442  29.363  1.00  0.00     0.039 A 
ATOM      7  C   UNL A   1      35.456  34.657  28.867  1.00  0.00     0.014 A 
ATOM      8  C   UNL A   1      34.011  33.775  30.582  1.00  0.00     0.014 A 
ATOM      9  C   UNL A   1      36.529  33.984  29.425  1.00  0.00     0.010 A 
ATOM     10  C   UNL A   1      35.124  33.236  31.238  1.00  0.00     0.010 A 
ATOM     11  C   UNL A   1      36.386  33.280  30.629  1.00  0.00    -0.014 A 
BRANCH  11  12
ATOM     12  C   UNL A   1      37.592  32.637  31.216  1.00  0.00     0.031 A 
ATOM     13  C   UNL A   1      38.037  32.943  32.620  1.00  0.00     0.074 A 
ATOM     14  C   UNL A   1      38.230  31.693  30.495  1.00  0.00     0.049 A 
ATOM     15  N   UNL A   1      39.023  32.416  33.303  1.00  0.00    -0.248 NA
ATOM     16  C   UNL A   1      37.296  33.982  33.351  1.00  0.00     0.031 C 
ATOM     17  C   UNL A   1      37.895  31.317  29.117  1.00  0.00     0.029 A 
ATOM     18  N   UNL A   1      39.248  30.837  30.828  1.00  0.00    -0.354 N 
ATOM     19  C   UNL A   1      39.048  33.089  34.518  1.00  0.00     0.074 A 
ATOM     20  C   UNL A   1      37.986  34.069  34.480  1.00  0.00     0.031 C 
ATOM     21  C   UNL A   1      38.615  30.246  28.762  1.00  0.00     0.029 A 
ATOM     22  C   UNL A   1      39.528  29.914  29.849  1.00  0.00     0.049 A 
ATOM     23  H   UNL A   1      39.732  30.881  31.684  1.00  0.00     0.167 HD
ATOM     24  C   UNL A   1      39.882  32.899  35.570  1.00  0.00     0.037 A 
ATOM     25  C   UNL A   1      40.425  28.912  29.823  1.00  0.00     0.037 A 
ATOM     26  C   UNL A   1      40.905  31.886  35.621  1.00  0.00     0.049 A 
ATOM     27  C   UNL A   1      41.312  28.708  31.014  1.00  0.00     0.074 A 
ATOM     28  C   UNL A   1      41.780  31.591  36.653  1.00  0.00     0.029 A 
ATOM     29  N   UNL A   1      41.183  30.993  34.595  1.00  0.00    -0.354 N 
ATOM     30  N   UNL A   1      41.323  29.351  32.154  1.00  0.00    -0.248 NA
ATOM     31  C   UNL A   1      42.323  27.648  30.908  1.00  0.00     0.031 C 
ATOM     32  C   UNL A   1      42.610  30.544  36.239  1.00  0.00     0.029 A 
ATOM     33  C   UNL A   1      42.224  30.156  34.966  1.00  0.00     0.049 A 
ATOM     34  H   UNL A   1      40.710  30.960  33.733  1.00  0.00     0.167 HD
ATOM     35  C   UNL A   1      42.333  28.772  32.907  1.00  0.00     0.074 A 
ATOM     36  C   UNL A   1      42.894  27.706  32.102  1.00  0.00     0.031 C 
ATOM     37  C   UNL A   1      42.764  29.100  34.150  1.00  0.00     0.037 A 
BRANCH  24  38
ATOM     38  C   UNL A   1      39.746  33.825  36.745  1.00  0.00     0.064 A 
ATOM     39  C   UNL A   1      40.390  35.070  36.788  1.00  0.00     0.173 A 
ATOM     40  C   UNL A   1      38.921  33.475  37.825  1.00  0.00     0.173 A 
ATOM     41  F   UNL A   1      41.201  35.446  35.789  1.00  0.00    -0.203 F 
ATOM     42  C   UNL A   1      40.231  35.921  37.882  1.00  0.00     0.198 A 
ATOM     43  C   UNL A   1      38.744  34.339  38.904  1.00  0.00     0.198 A 
ATOM     44  F   UNL A   1      38.278  32.297  37.832  1.00  0.00    -0.203 F 
ATOM     45  F   UNL A   1      40.889  37.087  37.921  1.00  0.00    -0.200 F 
ATOM     46  C   UNL A   1      39.403  35.558  38.933  1.00  0.00     0.200 A 
ATOM     47  F   UNL A   1      37.935  33.990  39.914  1.00  0.00    -0.200 F 
ATOM     48  F   UNL A   1      39.246  36.381  39.979  1.00  0.00    -0.200 F 
ENDBRANCH  24  38
BRANCH  25  49
ATOM     49  C   UNL A   1      40.518  28.036  28.628  1.00  0.00     0.064 A 
ATOM     50  C   UNL A   1      41.310  28.396  27.529  1.00  0.00     0.173 A 
ATOM     51  C   UNL A   1      39.842  26.808  28.571  1.00  0.00     0.173 A 
ATOM     52  F   UNL A   1      41.962  29.568  27.530  1.00  0.00    -0.203 F 
ATOM     53  C   UNL A   1      41.414  27.566  26.415  1.00  0.00     0.198 A 
ATOM     54  C   UNL A   1      39.971  25.964  27.471  1.00  0.00     0.198 A 
ATOM     55  F   UNL A   1      39.077  26.414  29.600  1.00  0.00    -0.203 F 
ATOM     56  F   UNL A   1      42.150  27.949  25.364  1.00  0.00    -0.200 F 
ATOM     57  C   UNL A   1      40.752  26.347  26.390  1.00  0.00     0.200 A 
ATOM     58  F   UNL A   1      39.347  24.779  27.460  1.00  0.00    -0.200 F 
ATOM     59  F   UNL A   1      40.864  25.543  25.325  1.00  0.00    -0.200 F 
ENDBRANCH  25  49
BRANCH  37  60
ATOM     60  C   UNL A   1      43.878  28.274  34.715  1.00  0.00     0.064 A 
ATOM     61  C   UNL A   1      43.627  27.096  35.433  1.00  0.00     0.173 A 
ATOM     62  C   UNL A   1      45.214  28.661  34.527  1.00  0.00     0.173 A 
ATOM     63  F   UNL A   1      42.365  26.697  35.655  1.00  0.00    -0.203 F 
ATOM     64  C   UNL A   1      44.673  26.350  35.970  1.00  0.00     0.198 A 
ATOM     65  C   UNL A   1      46.257  27.899  35.041  1.00  0.00     0.198 A 
ATOM     66  F   UNL A   1      45.503  29.778  33.843  1.00  0.00    -0.203 F 
ATOM     67  F   UNL A   1      44.409  25.257  36.698  1.00  0.00    -0.200 F 
ATOM     68  C   UNL A   1      45.986  26.750  35.770  1.00  0.00     0.200 A 
ATOM     69  F   UNL A   1      47.526  28.281  34.841  1.00  0.00    -0.200 F 
ATOM     70  F   UNL A   1      46.992  26.033  36.288  1.00  0.00    -0.200 F 
ENDBRANCH  37  60
ENDBRANCH  11  12
ENDBRANCH   4   6
ENDBRANCH   1   2
BRANCH   1  71
ATOM     71  C   UNL A   1      31.449  32.127  26.515  1.00  0.00     0.042 C 
BRANCH  71  72
ATOM     72  C   UNL A   1      31.642  30.657  26.235  1.00  0.00     0.118 C 
BRANCH  72  73
ATOM     73  N   UNL A   1      32.777  30.342  25.407  1.00  0.00    -0.351 N 
ATOM     74  C   UNL A   1      33.029  29.195  24.712  1.00  0.00     0.278 C 
ATOM     75  H   UNL A   1      33.461  31.047  25.333  1.00  0.00     0.163 HD
ATOM     76  O   UNL A   1      33.908  29.269  23.844  1.00  0.00    -0.268 OA
BRANCH  74  77
ATOM     77  C   UNL A   1      32.320  27.846  25.007  1.00  0.00     0.274 C 
ATOM     78  C   UNL A   1      31.932  27.614  26.479  1.00  0.00     0.076 C 
ATOM     79  N   UNL A   1      31.339  27.384  23.985  1.00  0.00    -0.319 N 
ATOM     80  C   UNL A   1      31.141  26.317  26.686  1.00  0.00     0.016 C 
ATOM     81  C   UNL A   1      30.953  25.973  24.183  1.00  0.00     0.188 C 
ATOM     82  H   UNL A   1      31.884  27.451  23.125  1.00  0.00     0.349 HD
ATOM     83  C   UNL A   1      31.399  25.352  25.532  1.00  0.00     0.048 C 
ATOM     84  C   UNL A   1      31.507  25.085  23.058  1.00  0.00     0.065 C 
ATOM     85  C   UNL A   1      30.689  24.006  25.703  1.00  0.00     0.010 C 
ATOM     86  C   UNL A   1      30.918  23.675  23.173  1.00  0.00     0.006 C 
ATOM     87  C   UNL A   1      31.081  23.058  24.565  1.00  0.00     0.001 C 
BRANCH  79  88
ATOM     88  C   UNL A   1      30.214  28.275  23.611  1.00  0.00     0.194 C 
ATOM     89  C   UNL A   1      28.847  27.570  23.398  1.00  0.00     0.067 C 
ATOM     90  C   UNL A   1      30.544  29.121  22.357  1.00  0.00     0.134 C 
ATOM     91  C   UNL A   1      27.684  28.557  23.290  1.00  0.00     0.017 C 
ATOM     92  S   UNL A   1      29.316  30.450  22.086  1.00  0.00    -0.156 SA
ATOM     93  C   UNL A   1      27.794  29.459  22.072  1.00  0.00     0.070 C 
ENDBRANCH  79  88
ENDBRANCH  74  77
ENDBRANCH  72  73
ENDBRANCH  71  72
ENDBRANCH   1  71
TORSDOF 11
ENDMDL
MODEL 3
REMARK VINA RESULT:     -13.2      2.382      4.093
REMARK SMILES O=C(NCCCNC(=O)[C@H]1CC[C@H]2CCCC[C@@H]2[N@H+]1[C@@H]1CCCSC1)c1ccc(-c2c3nc(c(-c4c(F)c(F)c(F)c(F)c4F)c4ccc([nH]4)c(-c4c(F)c(F)c(F)c(F)c4F)c4nc(c(-c5c(F)c(F)c(F)c(F)c5F)c5ccc2[nH]5)C=C4)C=C3)cc1
REMARK SMILES IDX 4 1 3 2 1 3 2 4 26 6 27 7 88 8 28 9 87 10 29 11 30 12 31 13
REMARK SMILES IDX 81 14 32 15 86 16 80 17 82 18 33 19 85 20 79 21 78 22 34 24
REMARK SMILES IDX 66 25 46 26 65 27 47 28 50 29 64 30 83 31 48 32 49 33 63 35
REMARK SMILES IDX 84 36 51 37 35 38 36 39 44 40 37 41 38 42 42 43 45 44 39 45
REMARK SMILES IDX 40 46 43 47 41 48 67 49 68 50 76 51 69 52 70 53 74 54 77 55
REMARK SMILES IDX 71 56 72 57 75 58 73 59 52 60 53 61 61 62 54 63 55 64 59 65
REMARK SMILES IDX 62 66 56 67 57 68 60 69 58 70 5 71 6 72 7 73 8 74 9 76 10 77
REMARK SMILES IDX 11 78 19 79 12 80 18 81 13 83 17 84 14 85 16 86 15 87 20 88
REMARK SMILES IDX 21 89 25 90 22 91 24 92 23 93
REMARK H PARENT 3 5 82 23 50 34 7 75 19 82
REMARK Flexibility Score: inf
ROOT
ATOM      1  C   UNL A   1      32.562  29.684  26.387  1.00  0.00     0.118 C 
ENDROOT
BRANCH   1   2
ATOM      2  N   UNL A   1      32.436  31.125  26.617  1.00  0.00    -0.352 N 
ATOM      3  O   UNL A   1      32.799  33.152  27.526  1.00  0.00    -0.269 OA
ATOM      4  C   UNL A   1      33.217  32.021  27.313  1.00  0.00     0.251 C 
ATOM      5  H   UNL A   1      31.645  31.530  26.193  1.00  0.00     0.163 HD
BRANCH   4   6
ATOM      6  C   UNL A   1      34.541  31.617  27.836  1.00  0.00     0.039 A 
ATOM      7  C   UNL A   1      34.788  30.295  28.186  1.00  0.00     0.014 A 
ATOM      8  C   UNL A   1      35.556  32.570  27.980  1.00  0.00     0.014 A 
ATOM      9  C   UNL A   1      35.917  29.980  28.921  1.00  0.00     0.010 A 
ATOM     10  C   UNL A   1      36.771  32.210  28.574  1.00  0.00     0.010 A 
ATOM     11  C   UNL A   1      36.936  30.925  29.110  1.00  0.00    -0.014 A 
BRANCH  11  12
ATOM     12  C   UNL A   1      38.158  30.505  29.849  1.00  0.00     0.031 A 
ATOM     13  C   UNL A   1      38.361  30.867  31.294  1.00  0.00     0.074 A 
ATOM     14  C   UNL A   1      39.042  29.704  29.221  1.00  0.00     0.049 A 
ATOM     15  N   UNL A   1      39.333  30.519  32.100  1.00  0.00    -0.248 NA
ATOM     16  C   UNL A   1      37.357  31.742  31.918  1.00  0.00     0.031 C 
ATOM     17  C   UNL A   1      38.955  29.294  27.815  1.00  0.00     0.029 A 
ATOM     18  N   UNL A   1      40.150  29.044  29.685  1.00  0.00    -0.354 N 
ATOM     19  C   UNL A   1      39.084  31.167  33.303  1.00  0.00     0.074 A 
ATOM     20  C   UNL A   1      37.873  31.937  33.123  1.00  0.00     0.031 C 
ATOM     21  C   UNL A   1      39.898  28.378  27.562  1.00  0.00     0.029 A 
ATOM     22  C   UNL A   1      40.713  28.202  28.757  1.00  0.00     0.049 A 
ATOM     23  H   UNL A   1      40.507  29.163  30.595  1.00  0.00     0.167 HD
ATOM     24  C   UNL A   1      39.801  31.117  34.452  1.00  0.00     0.037 A 
ATOM     25  C   UNL A   1      41.776  27.381  28.852  1.00  0.00     0.037 A 
ATOM     26  C   UNL A   1      40.978  30.308  34.639  1.00  0.00     0.049 A 
ATOM     27  C   UNL A   1      42.530  27.325  30.145  1.00  0.00     0.074 A 
ATOM     28  C   UNL A   1      41.757  30.163  35.774  1.00  0.00     0.029 A 
ATOM     29  N   UNL A   1      41.540  29.496  33.664  1.00  0.00    -0.354 N 
ATOM     30  N   UNL A   1      42.281  27.943  31.273  1.00  0.00    -0.248 NA
ATOM     31  C   UNL A   1      43.722  26.470  30.175  1.00  0.00     0.031 C 
ATOM     32  C   UNL A   1      42.809  29.291  35.476  1.00  0.00     0.029 A 
ATOM     33  C   UNL A   1      42.662  28.858  34.168  1.00  0.00     0.049 A 
ATOM     34  H   UNL A   1      41.193  29.389  32.749  1.00  0.00     0.167 HD
ATOM     35  C   UNL A   1      43.278  27.547  32.151  1.00  0.00     0.074 A 
ATOM     36  C   UNL A   1      44.121  26.613  31.431  1.00  0.00     0.031 C 
ATOM     37  C   UNL A   1      43.484  27.930  33.435  1.00  0.00     0.037 A 
BRANCH  24  38
ATOM     38  C   UNL A   1      39.353  31.985  35.593  1.00  0.00     0.064 A 
ATOM     39  C   UNL A   1      38.452  31.527  36.565  1.00  0.00     0.173 A 
ATOM     40  C   UNL A   1      39.869  33.283  35.736  1.00  0.00     0.173 A 
ATOM     41  F   UNL A   1      37.918  30.301  36.467  1.00  0.00    -0.203 F 
ATOM     42  C   UNL A   1      38.067  32.345  37.627  1.00  0.00     0.198 A 
ATOM     43  C   UNL A   1      39.502  34.087  36.812  1.00  0.00     0.198 A 
ATOM     44  F   UNL A   1      40.738  33.768  34.837  1.00  0.00    -0.203 F 
ATOM     45  F   UNL A   1      37.173  31.901  38.521  1.00  0.00    -0.200 F 
ATOM     46  C   UNL A   1      38.598  33.620  37.754  1.00  0.00     0.200 A 
ATOM     47  F   UNL A   1      40.024  35.315  36.938  1.00  0.00    -0.200 F 
ATOM     48  F   UNL A   1      38.232  34.401  38.779  1.00  0.00    -0.200 F 
ENDBRANCH  24  38
BRANCH  25  49
ATOM     49  C   UNL A   1      42.175  26.555  27.685  1.00  0.00     0.064 A 
ATOM     50  C   UNL A   1      43.166  26.992  26.796  1.00  0.00     0.173 A 
ATOM     51  C   UNL A   1      41.597  25.298  27.450  1.00  0.00     0.173 A 
ATOM     52  F   UNL A   1      43.737  28.194  26.969  1.00  0.00    -0.203 F 
ATOM     53  C   UNL A   1      43.556  26.209  25.712  1.00  0.00     0.198 A 
ATOM     54  C   UNL A   1      42.009  24.502  26.385  1.00  0.00     0.198 A 
ATOM     55  F   UNL A   1      40.648  24.830  28.277  1.00  0.00    -0.203 F 
ATOM     56  F   UNL A   1      44.482  26.665  24.857  1.00  0.00    -0.200 F 
ATOM     57  C   UNL A   1      42.984  24.961  25.512  1.00  0.00     0.200 A 
ATOM     58  F   UNL A   1      41.469  23.289  26.209  1.00  0.00    -0.200 F 
ATOM     59  F   UNL A   1      43.371  24.202  24.478  1.00  0.00    -0.200 F 
ENDBRANCH  25  49
BRANCH  37  60
ATOM     60  C   UNL A   1      44.652  27.314  34.142  1.00  0.00     0.064 A 
ATOM     61  C   UNL A   1      44.542  26.080  34.801  1.00  0.00     0.173 A 
ATOM     62  C   UNL A   1      45.897  27.960  34.150  1.00  0.00     0.173 A 
ATOM     63  F   UNL A   1      43.367  25.435  34.835  1.00  0.00    -0.203 F 
ATOM     64  C   UNL A   1      45.632  25.530  35.471  1.00  0.00     0.198 A 
ATOM     65  C   UNL A   1      46.990  27.394  34.798  1.00  0.00     0.198 A 
ATOM     66  F   UNL A   1      46.050  29.139  33.530  1.00  0.00    -0.203 F 
ATOM     67  F   UNL A   1      45.492  24.377  36.139  1.00  0.00    -0.200 F 
ATOM     68  C   UNL A   1      46.854  26.185  35.465  1.00  0.00     0.200 A 
ATOM     69  F   UNL A   1      48.174  28.023  34.785  1.00  0.00    -0.200 F 
ATOM     70  F   UNL A   1      47.902  25.656  36.112  1.00  0.00    -0.200 F 
ENDBRANCH  37  60
ENDBRANCH  11  12
ENDBRANCH   4   6
ENDBRANCH   1   2
BRANCH   1  71
ATOM     71  C   UNL A   1      32.961  29.348  24.964  1.00  0.00     0.042 C 
BRANCH  71  72
ATOM     72  C   UNL A   1      33.639  28.003  24.872  1.00  0.00     0.118 C 
BRANCH  72  73
ATOM     73  N   UNL A   1      34.036  27.614  23.544  1.00  0.00    -0.351 N 
ATOM     74  C   UNL A   1      33.600  26.554  22.803  1.00  0.00     0.278 C 
ATOM     75  H   UNL A   1      34.711  28.189  23.113  1.00  0.00     0.163 HD
ATOM     76  O   UNL A   1      33.857  26.595  21.593  1.00  0.00    -0.268 OA
BRANCH  74  77
ATOM     77  C   UNL A   1      32.877  25.325  23.417  1.00  0.00     0.274 C 
ATOM     78  C   UNL A   1      32.226  24.369  22.400  1.00  0.00     0.076 C 
ATOM     79  N   UNL A   1      33.544  24.689  24.588  1.00  0.00    -0.319 N 
ATOM     80  C   UNL A   1      31.624  23.123  23.061  1.00  0.00     0.016 C 
ATOM     81  C   UNL A   1      32.653  23.746  25.290  1.00  0.00     0.188 C 
ATOM     82  H   UNL A   1      33.708  25.491  25.197  1.00  0.00     0.349 HD
ATOM     83  C   UNL A   1      31.345  23.390  24.536  1.00  0.00     0.048 C 
ATOM     84  C   UNL A   1      32.260  24.283  26.675  1.00  0.00     0.065 C 
ATOM     85  C   UNL A   1      30.683  22.207  25.249  1.00  0.00     0.010 C 
ATOM     86  C   UNL A   1      31.514  23.198  27.460  1.00  0.00     0.006 C 
ATOM     87  C   UNL A   1      30.337  22.590  26.691  1.00  0.00     0.001 C 
BRANCH  79  88
ATOM     88  C   UNL A   1      34.943  24.217  24.451  1.00  0.00     0.194 C 
ATOM     89  C   UNL A   1      35.137  22.951  23.574  1.00  0.00     0.067 C 
ATOM     90  C   UNL A   1      35.605  23.978  25.830  1.00  0.00     0.134 C 
ATOM     91  C   UNL A   1      36.605  22.678  23.246  1.00  0.00     0.017 C 
ATOM     92  S   UNL A   1      37.411  23.722  25.687  1.00  0.00    -0.156 SA
ATOM     93  C   UNL A   1      37.431  22.362  24.483  1.00  0.00     0.070 C 
ENDBRANCH  79  88
ENDBRANCH  74  77
ENDBRANCH  72  73
ENDBRANCH  71  72
ENDBRANCH   1  71
TORSDOF 11
ENDMDL
