MODEL 1
REMARK VINA RESULT:     -12.2      0.000      0.000
REMARK SMILES Nn1c(Cc2ccc(F)c(F)c2)nnc1SCC(=O)NCCCNC(=O)c1ccc(-c2c3nc(c(-c4c(F)c(F)c(F)c(F)c4F)c4ccc([nH]4)c(-c4c(F)c(F)c(F)c(F)c4F)c4nc(c(-c5c(F)c(F)c(F)c(F)c5F)c5ccc2[nH]5)C=C4)C=C3)cc1
REMARK SMILES IDX 21 1 20 2 18 3 19 4 17 6 16 7 15 8 2 9 3 10 13 11 14 12 1 13
REMARK SMILES IDX 4 16 5 17 6 18 12 19 7 20 10 21 8 22 11 23 9 24 22 25 23 26
REMARK SMILES IDX 24 27 25 28 26 30 27 31 28 32 89 33 29 34 88 35 30 36 31 37
REMARK SMILES IDX 32 38 82 39 33 40 87 41 81 42 83 43 34 44 86 45 80 46 79 47
REMARK SMILES IDX 35 49 67 50 47 51 66 52 48 53 51 54 65 55 84 56 49 57 50 58
REMARK SMILES IDX 64 60 85 61 52 62 36 63 37 64 45 65 38 66 39 67 43 68 46 69
REMARK SMILES IDX 40 70 41 71 44 72 42 73 68 74 69 75 77 76 70 77 71 78 75 79
REMARK SMILES IDX 78 80 72 81 73 82 76 83 74 84 53 85 54 86 62 87 55 88 56 89
REMARK SMILES IDX 60 90 63 91 57 92 58 93 61 94 59 95
REMARK H PARENT 20 5 1 14 1 15 24 29 83 48 51 59
REMARK Flexibility Score: inf
ROOT
ATOM      1  C   UNL A   1      31.685  30.513  26.821  1.00  0.00     0.117 C 
ENDROOT
BRANCH   1   2
ATOM      2  N   UNL A   1      32.953  30.138  27.421  1.00  0.00    -0.355 N 
ATOM      3  C   UNL A   1      33.987  29.430  26.890  1.00  0.00     0.230 C 
ATOM      4  O   UNL A   1      34.904  29.089  27.644  1.00  0.00    -0.274 OA
ATOM      5  H   UNL A   1      33.085  30.440  28.349  1.00  0.00     0.163 HD
BRANCH   3   6
ATOM      6  C   UNL A   1      34.034  29.106  25.413  1.00  0.00     0.178 C 
BRANCH   6   7
ATOM      7  S   UNL A   1      33.617  27.406  25.004  1.00  0.00    -0.074 SA
BRANCH   7   8
ATOM      8  C   UNL A   1      32.007  27.418  24.375  1.00  0.00     0.210 A 
ATOM      9  N   UNL A   1      31.523  28.138  23.304  1.00  0.00    -0.221 N 
ATOM     10  C   UNL A   1      30.160  27.911  23.297  1.00  0.00     0.157 A 
ATOM     11  N   UNL A   1      29.861  27.102  24.299  1.00  0.00    -0.132 NA
ATOM     12  N   UNL A   1      31.014  26.793  24.968  1.00  0.00    -0.121 NA
BRANCH   9  13
ATOM     13  N   UNL A   1      32.269  28.943  22.381  1.00  0.00    -0.336 N 
ATOM     14  H   UNL A   1      31.802  29.578  21.793  1.00  0.00     0.178 HD
ATOM     15  H   UNL A   1      33.250  28.860  22.337  1.00  0.00     0.178 HD
ENDBRANCH   9  13
BRANCH  10  16
ATOM     16  C   UNL A   1      29.185  28.539  22.358  1.00  0.00     0.115 C 
BRANCH  16  17
ATOM     17  C   UNL A   1      29.023  30.035  22.547  1.00  0.00    -0.037 A 
ATOM     18  C   UNL A   1      29.352  30.643  23.774  1.00  0.00     0.007 A 
ATOM     19  C   UNL A   1      28.542  30.841  21.504  1.00  0.00     0.046 A 
ATOM     20  C   UNL A   1      29.188  32.017  23.960  1.00  0.00     0.043 A 
ATOM     21  C   UNL A   1      28.389  32.212  21.696  1.00  0.00     0.159 A 
ATOM     22  C   UNL A   1      28.706  32.796  22.916  1.00  0.00     0.158 A 
ATOM     23  F   UNL A   1      27.929  32.966  20.687  1.00  0.00    -0.204 F 
ATOM     24  F   UNL A   1      28.548  34.114  23.096  1.00  0.00    -0.204 F 
ENDBRANCH  16  17
ENDBRANCH  10  16
ENDBRANCH   7   8
ENDBRANCH   6   7
ENDBRANCH   3   6
ENDBRANCH   1   2
BRANCH   1  25
ATOM     25  C   UNL A   1      31.476  32.026  26.848  1.00  0.00     0.042 C 
BRANCH  25  26
ATOM     26  C   UNL A   1      32.743  32.836  27.119  1.00  0.00     0.118 C 
BRANCH  26  27
ATOM     27  N   UNL A   1      32.466  34.180  27.607  1.00  0.00    -0.352 N 
ATOM     28  C   UNL A   1      33.029  34.877  28.646  1.00  0.00     0.251 C 
ATOM     29  H   UNL A   1      31.766  34.665  27.114  1.00  0.00     0.163 HD
ATOM     30  O   UNL A   1      32.536  35.951  28.993  1.00  0.00    -0.269 OA
BRANCH  28  31
ATOM     31  C   UNL A   1      34.204  34.347  29.370  1.00  0.00     0.039 A 
ATOM     32  C   UNL A   1      33.994  33.603  30.534  1.00  0.00     0.014 A 
ATOM     33  C   UNL A   1      35.506  34.599  28.927  1.00  0.00     0.014 A 
ATOM     34  C   UNL A   1      35.083  33.050  31.213  1.00  0.00     0.010 A 
ATOM     35  C   UNL A   1      36.585  33.992  29.566  1.00  0.00     0.010 A 
ATOM     36  C   UNL A   1      36.385  33.207  30.710  1.00  0.00    -0.014 A 
BRANCH  36  37
ATOM     37  C   UNL A   1      37.543  32.537  31.354  1.00  0.00     0.031 A 
ATOM     38  C   UNL A   1      38.266  31.421  30.657  1.00  0.00     0.074 A 
ATOM     39  C   UNL A   1      37.910  32.902  32.598  1.00  0.00     0.049 A 
ATOM     40  N   UNL A   1      39.256  30.680  31.087  1.00  0.00    -0.248 NA
ATOM     41  C   UNL A   1      37.802  31.079  29.304  1.00  0.00     0.031 C 
ATOM     42  C   UNL A   1      37.268  33.951  33.390  1.00  0.00     0.029 A 
ATOM     43  N   UNL A   1      38.908  32.430  33.413  1.00  0.00    -0.354 N 
ATOM     44  C   UNL A   1      39.530  29.785  30.064  1.00  0.00     0.074 A 
ATOM     45  C   UNL A   1      38.566  30.037  29.013  1.00  0.00     0.031 C 
ATOM     46  C   UNL A   1      37.911  34.068  34.563  1.00  0.00     0.029 A 
ATOM     47  C   UNL A   1      38.980  33.076  34.623  1.00  0.00     0.049 A 
ATOM     48  H   UNL A   1      39.513  31.697  33.156  1.00  0.00     0.167 HD
ATOM     49  C   UNL A   1      40.513  28.854  29.996  1.00  0.00     0.037 A 
ATOM     50  C   UNL A   1      39.813  32.889  35.663  1.00  0.00     0.037 A 
ATOM     51  C   UNL A   1      41.472  28.609  31.040  1.00  0.00     0.049 A 
ATOM     52  C   UNL A   1      40.869  31.823  35.584  1.00  0.00     0.074 A 
ATOM     53  C   UNL A   1      42.522  27.707  31.053  1.00  0.00     0.029 A 
ATOM     54  N   UNL A   1      41.498  29.270  32.260  1.00  0.00    -0.354 N 
ATOM     55  N   UNL A   1      41.141  31.004  34.598  1.00  0.00    -0.248 NA
ATOM     56  C   UNL A   1      41.731  31.654  36.762  1.00  0.00     0.031 C 
ATOM     57  C   UNL A   1      43.156  27.790  32.296  1.00  0.00     0.029 A 
ATOM     58  C   UNL A   1      42.535  28.780  33.041  1.00  0.00     0.049 A 
ATOM     59  H   UNL A   1      40.874  29.980  32.532  1.00  0.00     0.167 HD
ATOM     60  C   UNL A   1      42.216  30.237  35.025  1.00  0.00     0.074 A 
ATOM     61  C   UNL A   1      42.553  30.695  36.356  1.00  0.00     0.031 C 
ATOM     62  C   UNL A   1      42.862  29.243  34.367  1.00  0.00     0.037 A 
BRANCH  49  63
ATOM     63  C   UNL A   1      40.601  28.035  28.740  1.00  0.00     0.064 A 
ATOM     64  C   UNL A   1      39.927  26.809  28.634  1.00  0.00     0.173 A 
ATOM     65  C   UNL A   1      41.383  28.449  27.651  1.00  0.00     0.173 A 
ATOM     66  F   UNL A   1      39.172  26.362  29.649  1.00  0.00    -0.203 F 
ATOM     67  C   UNL A   1      40.034  26.029  27.485  1.00  0.00     0.198 A 
ATOM     68  C   UNL A   1      41.463  27.682  26.492  1.00  0.00     0.198 A 
ATOM     69  F   UNL A   1      42.040  29.618  27.697  1.00  0.00    -0.203 F 
ATOM     70  F   UNL A   1      39.399  24.852  27.415  1.00  0.00    -0.200 F 
ATOM     71  C   UNL A   1      40.794  26.470  26.412  1.00  0.00     0.200 A 
ATOM     72  F   UNL A   1      42.176  28.123  25.446  1.00  0.00    -0.200 F 
ATOM     73  F   UNL A   1      40.878  25.729  25.298  1.00  0.00    -0.200 F 
ENDBRANCH  49  63
BRANCH  50  74
ATOM     74  C   UNL A   1      39.704  33.781  36.845  1.00  0.00     0.064 A 
ATOM     75  C   UNL A   1      38.924  33.436  37.958  1.00  0.00     0.173 A 
ATOM     76  C   UNL A   1      40.334  35.033  36.850  1.00  0.00     0.173 A 
ATOM     77  F   UNL A   1      38.299  32.250  37.998  1.00  0.00    -0.203 F 
ATOM     78  C   UNL A   1      38.754  34.324  39.018  1.00  0.00     0.198 A 
ATOM     79  C   UNL A   1      40.181  35.911  37.920  1.00  0.00     0.198 A 
ATOM     80  F   UNL A   1      41.105  35.397  35.816  1.00  0.00    -0.203 F 
ATOM     81  F   UNL A   1      37.970  33.989  40.052  1.00  0.00    -0.200 F 
ATOM     82  C   UNL A   1      39.382  35.560  38.999  1.00  0.00     0.200 A 
ATOM     83  F   UNL A   1      40.804  37.097  37.905  1.00  0.00    -0.200 F 
ATOM     84  F   UNL A   1      39.217  36.415  40.018  1.00  0.00    -0.200 F 
ENDBRANCH  50  74
BRANCH  62  85
ATOM     85  C   UNL A   1      44.018  28.586  35.063  1.00  0.00     0.064 A 
ATOM     86  C   UNL A   1      45.327  29.042  34.850  1.00  0.00     0.173 A 
ATOM     87  C   UNL A   1      43.838  27.459  35.877  1.00  0.00     0.173 A 
ATOM     88  F   UNL A   1      45.554  30.113  34.074  1.00  0.00    -0.203 F 
ATOM     89  C   UNL A   1      46.416  28.382  35.413  1.00  0.00     0.198 A 
ATOM     90  C   UNL A   1      44.928  26.817  36.460  1.00  0.00     0.198 A 
ATOM     91  F   UNL A   1      42.604  26.993  36.123  1.00  0.00    -0.203 F 
ATOM     92  F   UNL A   1      47.661  28.815  35.167  1.00  0.00    -0.200 F 
ATOM     93  C   UNL A   1      46.216  27.272  36.219  1.00  0.00     0.200 A 
ATOM     94  F   UNL A   1      44.731  25.759  37.259  1.00  0.00    -0.200 F 
ATOM     95  F   UNL A   1      47.264  26.642  36.767  1.00  0.00    -0.200 F 
ENDBRANCH  62  85
ENDBRANCH  36  37
ENDBRANCH  28  31
ENDBRANCH  26  27
ENDBRANCH  25  26
ENDBRANCH   1  25
TORSDOF 15
ENDMDL
MODEL 2
REMARK VINA RESULT:     -12.1      6.696     11.969
REMARK SMILES Nn1c(Cc2ccc(F)c(F)c2)nnc1SCC(=O)NCCCNC(=O)c1ccc(-c2c3nc(c(-c4c(F)c(F)c(F)c(F)c4F)c4ccc([nH]4)c(-c4c(F)c(F)c(F)c(F)c4F)c4nc(c(-c5c(F)c(F)c(F)c(F)c5F)c5ccc2[nH]5)C=C4)C=C3)cc1
REMARK SMILES IDX 21 1 20 2 18 3 19 4 17 6 16 7 15 8 2 9 3 10 13 11 14 12 1 13
REMARK SMILES IDX 4 16 5 17 6 18 12 19 7 20 10 21 8 22 11 23 9 24 22 25 23 26
REMARK SMILES IDX 24 27 25 28 26 30 27 31 28 32 89 33 29 34 88 35 30 36 31 37
REMARK SMILES IDX 32 38 82 39 33 40 87 41 81 42 83 43 34 44 86 45 80 46 79 47
REMARK SMILES IDX 35 49 67 50 47 51 66 52 48 53 51 54 65 55 84 56 49 57 50 58
REMARK SMILES IDX 64 60 85 61 52 62 36 63 37 64 45 65 38 66 39 67 43 68 46 69
REMARK SMILES IDX 40 70 41 71 44 72 42 73 68 74 69 75 77 76 70 77 71 78 75 79
REMARK SMILES IDX 78 80 72 81 73 82 76 83 74 84 53 85 54 86 62 87 55 88 56 89
REMARK SMILES IDX 60 90 63 91 57 92 58 93 61 94 59 95
REMARK H PARENT 20 5 1 14 1 15 24 29 83 48 51 59
REMARK Flexibility Score: inf
ROOT
ATOM      1  C   UNL A   1      36.908  20.521  25.006  1.00  0.00     0.117 C 
ENDROOT
BRANCH   1   2
ATOM      2  N   UNL A   1      36.949  21.431  23.876  1.00  0.00    -0.355 N 
ATOM      3  C   UNL A   1      36.876  22.790  23.855  1.00  0.00     0.230 C 
ATOM      4  O   UNL A   1      36.767  23.349  22.758  1.00  0.00    -0.274 OA
ATOM      5  H   UNL A   1      37.042  21.003  22.994  1.00  0.00     0.163 HD
BRANCH   3   6
ATOM      6  C   UNL A   1      36.970  23.596  25.132  1.00  0.00     0.178 C 
BRANCH   6   7
ATOM      7  S   UNL A   1      35.465  24.474  25.576  1.00  0.00    -0.074 SA
BRANCH   7   8
ATOM      8  C   UNL A   1      34.138  23.476  25.095  1.00  0.00     0.210 A 
ATOM      9  N   UNL A   1      33.710  22.300  25.675  1.00  0.00    -0.221 N 
ATOM     10  C   UNL A   1      32.715  21.824  24.843  1.00  0.00     0.157 A 
ATOM     11  N   UNL A   1      32.562  22.670  23.839  1.00  0.00    -0.132 NA
ATOM     12  N   UNL A   1      33.447  23.702  24.001  1.00  0.00    -0.121 NA
BRANCH   9  13
ATOM     13  N   UNL A   1      34.184  21.699  26.888  1.00  0.00    -0.336 N 
ATOM     14  H   UNL A   1      34.366  20.733  26.920  1.00  0.00     0.178 HD
ATOM     15  H   UNL A   1      34.327  22.255  27.689  1.00  0.00     0.178 HD
ENDBRANCH   9  13
BRANCH  10  16
ATOM     16  C   UNL A   1      31.992  20.530  25.016  1.00  0.00     0.115 C 
BRANCH  16  17
ATOM     17  C   UNL A   1      32.663  19.353  24.335  1.00  0.00    -0.037 A 
ATOM     18  C   UNL A   1      32.153  18.834  23.130  1.00  0.00     0.007 A 
ATOM     19  C   UNL A   1      33.805  18.759  24.895  1.00  0.00     0.046 A 
ATOM     20  C   UNL A   1      32.756  17.739  22.508  1.00  0.00     0.043 A 
ATOM     21  C   UNL A   1      34.405  17.672  24.263  1.00  0.00     0.159 A 
ATOM     22  C   UNL A   1      33.883  17.163  23.080  1.00  0.00     0.158 A 
ATOM     23  F   UNL A   1      35.497  17.118  24.812  1.00  0.00    -0.204 F 
ATOM     24  F   UNL A   1      34.461  16.111  22.484  1.00  0.00    -0.204 F 
ENDBRANCH  16  17
ENDBRANCH  10  16
ENDBRANCH   7   8
ENDBRANCH   6   7
ENDBRANCH   3   6
ENDBRANCH   1   2
BRANCH   1  25
ATOM     25  C   UNL A   1      38.110  19.577  25.012  1.00  0.00     0.042 C 
BRANCH  25  26
ATOM     26  C   UNL A   1      39.314  20.091  25.800  1.00  0.00     0.118 C 
BRANCH  26  27
ATOM     27  N   UNL A   1      40.379  19.104  25.919  1.00  0.00    -0.352 N 
ATOM     28  C   UNL A   1      41.725  19.276  26.124  1.00  0.00     0.251 C 
ATOM     29  H   UNL A   1      40.088  18.167  25.842  1.00  0.00     0.163 HD
ATOM     30  O   UNL A   1      42.480  18.307  26.035  1.00  0.00    -0.269 OA
BRANCH  28  31
ATOM     31  C   UNL A   1      42.285  20.610  26.426  1.00  0.00     0.039 A 
ATOM     32  C   UNL A   1      42.797  21.375  25.375  1.00  0.00     0.014 A 
ATOM     33  C   UNL A   1      42.333  21.100  27.734  1.00  0.00     0.014 A 
ATOM     34  C   UNL A   1      43.289  22.659  25.623  1.00  0.00     0.010 A 
ATOM     35  C   UNL A   1      42.761  22.405  27.971  1.00  0.00     0.010 A 
ATOM     36  C   UNL A   1      43.237  23.199  26.919  1.00  0.00    -0.014 A 
BRANCH  36  37
ATOM     37  C   UNL A   1      43.653  24.599  27.185  1.00  0.00     0.031 A 
ATOM     38  C   UNL A   1      42.670  25.602  27.715  1.00  0.00     0.074 A 
ATOM     39  C   UNL A   1      44.912  24.981  26.895  1.00  0.00     0.049 A 
ATOM     40  N   UNL A   1      42.835  26.879  27.948  1.00  0.00    -0.248 NA
ATOM     41  C   UNL A   1      41.315  25.108  28.001  1.00  0.00     0.031 C 
ATOM     42  C   UNL A   1      45.952  24.108  26.350  1.00  0.00     0.029 A 
ATOM     43  N   UNL A   1      45.530  26.201  27.017  1.00  0.00    -0.354 N 
ATOM     44  C   UNL A   1      41.609  27.342  28.404  1.00  0.00     0.074 A 
ATOM     45  C   UNL A   1      40.693  26.222  28.360  1.00  0.00     0.031 C 
ATOM     46  C   UNL A   1      47.088  24.811  26.217  1.00  0.00     0.029 A 
ATOM     47  C   UNL A   1      46.846  26.190  26.627  1.00  0.00     0.049 A 
ATOM     48  H   UNL A   1      45.072  27.006  27.350  1.00  0.00     0.167 HD
ATOM     49  C   UNL A   1      41.283  28.582  28.843  1.00  0.00     0.037 A 
ATOM     50  C   UNL A   1      47.757  27.182  26.602  1.00  0.00     0.037 A 
ATOM     51  C   UNL A   1      42.197  29.692  28.889  1.00  0.00     0.049 A 
ATOM     52  C   UNL A   1      47.363  28.559  27.053  1.00  0.00     0.074 A 
ATOM     53  C   UNL A   1      41.968  30.980  29.343  1.00  0.00     0.029 A 
ATOM     54  N   UNL A   1      43.517  29.648  28.464  1.00  0.00    -0.354 N 
ATOM     55  N   UNL A   1      46.210  28.978  27.514  1.00  0.00    -0.248 NA
ATOM     56  C   UNL A   1      48.396  29.602  26.980  1.00  0.00     0.031 C 
ATOM     57  C   UNL A   1      43.136  31.726  29.153  1.00  0.00     0.029 A 
ATOM     58  C   UNL A   1      44.109  30.891  28.628  1.00  0.00     0.049 A 
ATOM     59  H   UNL A   1      43.967  28.851  28.101  1.00  0.00     0.167 HD
ATOM     60  C   UNL A   1      46.381  30.325  27.804  1.00  0.00     0.074 A 
ATOM     61  C   UNL A   1      47.753  30.651  27.477  1.00  0.00     0.031 C 
ATOM     62  C   UNL A   1      45.478  31.206  28.298  1.00  0.00     0.037 A 
BRANCH  49  63
ATOM     63  C   UNL A   1      39.874  28.797  29.316  1.00  0.00     0.064 A 
ATOM     64  C   UNL A   1      39.517  28.538  30.648  1.00  0.00     0.173 A 
ATOM     65  C   UNL A   1      38.866  29.228  28.441  1.00  0.00     0.173 A 
ATOM     66  F   UNL A   1      40.440  28.116  31.526  1.00  0.00    -0.203 F 
ATOM     67  C   UNL A   1      38.205  28.702  31.084  1.00  0.00     0.198 A 
ATOM     68  C   UNL A   1      37.562  29.420  28.886  1.00  0.00     0.198 A 
ATOM     69  F   UNL A   1      39.156  29.499  27.158  1.00  0.00    -0.203 F 
ATOM     70  F   UNL A   1      37.883  28.427  32.355  1.00  0.00    -0.200 F 
ATOM     71  C   UNL A   1      37.231  29.151  30.206  1.00  0.00     0.200 A 
ATOM     72  F   UNL A   1      36.628  29.881  28.042  1.00  0.00    -0.200 F 
ATOM     73  F   UNL A   1      35.972  29.330  30.632  1.00  0.00    -0.200 F 
ENDBRANCH  49  63
BRANCH  50  74
ATOM     74  C   UNL A   1      49.147  26.875  26.181  1.00  0.00     0.064 A 
ATOM     75  C   UNL A   1      49.555  26.999  24.845  1.00  0.00     0.173 A 
ATOM     76  C   UNL A   1      50.078  26.388  27.108  1.00  0.00     0.173 A 
ATOM     77  F   UNL A   1      48.698  27.457  23.921  1.00  0.00    -0.203 F 
ATOM     78  C   UNL A   1      50.834  26.616  24.447  1.00  0.00     0.198 A 
ATOM     79  C   UNL A   1      51.365  26.028  26.713  1.00  0.00     0.198 A 
ATOM     80  F   UNL A   1      49.738  26.273  28.399  1.00  0.00    -0.203 F 
ATOM     81  F   UNL A   1      51.188  26.704  23.158  1.00  0.00    -0.200 F 
ATOM     82  C   UNL A   1      51.738  26.131  25.380  1.00  0.00     0.200 A 
ATOM     83  F   UNL A   1      52.240  25.575  27.621  1.00  0.00    -0.200 F 
ATOM     84  F   UNL A   1      52.968  25.762  24.997  1.00  0.00    -0.200 F 
ENDBRANCH  50  74
BRANCH  62  85
ATOM     85  C   UNL A   1      45.939  32.614  28.538  1.00  0.00     0.064 A 
ATOM     86  C   UNL A   1      46.447  32.991  29.790  1.00  0.00     0.173 A 
ATOM     87  C   UNL A   1      45.807  33.606  27.556  1.00  0.00     0.173 A 
ATOM     88  F   UNL A   1      46.588  32.081  30.766  1.00  0.00    -0.203 F 
ATOM     89  C   UNL A   1      46.790  34.314  30.056  1.00  0.00     0.198 A 
ATOM     90  C   UNL A   1      46.176  34.923  27.816  1.00  0.00     0.198 A 
ATOM     91  F   UNL A   1      45.341  33.292  26.337  1.00  0.00    -0.203 F 
ATOM     92  F   UNL A   1      47.240  34.658  31.270  1.00  0.00    -0.200 F 
ATOM     93  C   UNL A   1      46.656  35.278  29.068  1.00  0.00     0.200 A 
ATOM     94  F   UNL A   1      46.069  35.850  26.854  1.00  0.00    -0.200 F 
ATOM     95  F   UNL A   1      46.994  36.550  29.323  1.00  0.00    -0.200 F 
ENDBRANCH  62  85
ENDBRANCH  36  37
ENDBRANCH  28  31
ENDBRANCH  26  27
ENDBRANCH  25  26
ENDBRANCH   1  25
TORSDOF 15
ENDMDL
MODEL 3
REMARK VINA RESULT:     -12.0      2.713      4.622
REMARK SMILES Nn1c(Cc2ccc(F)c(F)c2)nnc1SCC(=O)NCCCNC(=O)c1ccc(-c2c3nc(c(-c4c(F)c(F)c(F)c(F)c4F)c4ccc([nH]4)c(-c4c(F)c(F)c(F)c(F)c4F)c4nc(c(-c5c(F)c(F)c(F)c(F)c5F)c5ccc2[nH]5)C=C4)C=C3)cc1
REMARK SMILES IDX 21 1 20 2 18 3 19 4 17 6 16 7 15 8 2 9 3 10 13 11 14 12 1 13
REMARK SMILES IDX 4 16 5 17 6 18 12 19 7 20 10 21 8 22 11 23 9 24 22 25 23 26
REMARK SMILES IDX 24 27 25 28 26 30 27 31 28 32 89 33 29 34 88 35 30 36 31 37
REMARK SMILES IDX 32 38 82 39 33 40 87 41 81 42 83 43 34 44 86 45 80 46 79 47
REMARK SMILES IDX 35 49 67 50 47 51 66 52 48 53 51 54 65 55 84 56 49 57 50 58
REMARK SMILES IDX 64 60 85 61 52 62 36 63 37 64 45 65 38 66 39 67 43 68 46 69
REMARK SMILES IDX 40 70 41 71 44 72 42 73 68 74 69 75 77 76 70 77 71 78 75 79
REMARK SMILES IDX 78 80 72 81 73 82 76 83 74 84 53 85 54 86 62 87 55 88 56 89
REMARK SMILES IDX 60 90 63 91 57 92 58 93 61 94 59 95
REMARK H PARENT 20 5 1 14 1 15 24 29 83 48 51 59
REMARK Flexibility Score: inf
ROOT
ATOM      1  C   UNL A   1      31.649  30.593  25.920  1.00  0.00     0.117 C 
ENDROOT
BRANCH   1   2
ATOM      2  N   UNL A   1      30.916  30.388  24.683  1.00  0.00    -0.355 N 
ATOM      3  C   UNL A   1      30.938  29.329  23.828  1.00  0.00     0.230 C 
ATOM      4  O   UNL A   1      30.350  29.444  22.747  1.00  0.00    -0.274 OA
ATOM      5  H   UNL A   1      30.314  31.124  24.424  1.00  0.00     0.163 HD
BRANCH   3   6
ATOM      6  C   UNL A   1      31.623  28.034  24.207  1.00  0.00     0.178 C 
BRANCH   6   7
ATOM      7  S   UNL A   1      33.199  27.754  23.389  1.00  0.00    -0.074 SA
BRANCH   7   8
ATOM      8  C   UNL A   1      33.380  26.043  23.215  1.00  0.00     0.210 A 
ATOM      9  N   UNL A   1      33.392  25.088  24.209  1.00  0.00    -0.221 N 
ATOM     10  C   UNL A   1      33.703  23.902  23.573  1.00  0.00     0.157 A 
ATOM     11  N   UNL A   1      33.858  24.142  22.283  1.00  0.00    -0.132 NA
ATOM     12  N   UNL A   1      33.652  25.477  22.061  1.00  0.00    -0.121 NA
BRANCH   9  13
ATOM     13  N   UNL A   1      33.127  25.276  25.607  1.00  0.00    -0.336 N 
ATOM     14  H   UNL A   1      32.424  24.750  26.049  1.00  0.00     0.178 HD
ATOM     15  H   UNL A   1      33.650  25.932  26.123  1.00  0.00     0.178 HD
ENDBRANCH   9  13
BRANCH  10  16
ATOM     16  C   UNL A   1      33.903  22.586  24.250  1.00  0.00     0.115 C 
BRANCH  16  17
ATOM     17  C   UNL A   1      35.339  22.315  24.656  1.00  0.00    -0.037 A 
ATOM     18  C   UNL A   1      36.187  23.371  25.045  1.00  0.00     0.007 A 
ATOM     19  C   UNL A   1      35.850  21.008  24.649  1.00  0.00     0.046 A 
ATOM     20  C   UNL A   1      37.515  23.129  25.402  1.00  0.00     0.043 A 
ATOM     21  C   UNL A   1      37.174  20.776  25.015  1.00  0.00     0.159 A 
ATOM     22  C   UNL A   1      38.002  21.828  25.385  1.00  0.00     0.158 A 
ATOM     23  F   UNL A   1      37.644  19.519  25.004  1.00  0.00    -0.204 F 
ATOM     24  F   UNL A   1      39.277  21.597  25.726  1.00  0.00    -0.204 F 
ENDBRANCH  16  17
ENDBRANCH  10  16
ENDBRANCH   7   8
ENDBRANCH   6   7
ENDBRANCH   3   6
ENDBRANCH   1   2
BRANCH   1  25
ATOM     25  C   UNL A   1      31.409  31.989  26.491  1.00  0.00     0.042 C 
BRANCH  25  26
ATOM     26  C   UNL A   1      32.600  32.577  27.247  1.00  0.00     0.118 C 
BRANCH  26  27
ATOM     27  N   UNL A   1      32.417  33.979  27.599  1.00  0.00    -0.352 N 
ATOM     28  C   UNL A   1      33.048  34.743  28.546  1.00  0.00     0.251 C 
ATOM     29  H   UNL A   1      31.733  34.452  27.073  1.00  0.00     0.163 HD
ATOM     30  O   UNL A   1      32.629  35.875  28.791  1.00  0.00    -0.269 OA
BRANCH  28  31
ATOM     31  C   UNL A   1      34.210  34.219  29.296  1.00  0.00     0.039 A 
ATOM     32  C   UNL A   1      33.978  33.458  30.445  1.00  0.00     0.014 A 
ATOM     33  C   UNL A   1      35.520  34.494  28.893  1.00  0.00     0.014 A 
ATOM     34  C   UNL A   1      35.055  32.910  31.147  1.00  0.00     0.010 A 
ATOM     35  C   UNL A   1      36.589  33.892  29.554  1.00  0.00     0.010 A 
ATOM     36  C   UNL A   1      36.368  33.090  30.682  1.00  0.00    -0.014 A 
BRANCH  36  37
ATOM     37  C   UNL A   1      37.516  32.427  31.349  1.00  0.00     0.031 A 
ATOM     38  C   UNL A   1      38.244  31.299  30.679  1.00  0.00     0.074 A 
ATOM     39  C   UNL A   1      37.871  32.811  32.592  1.00  0.00     0.049 A 
ATOM     40  N   UNL A   1      39.226  30.562  31.132  1.00  0.00    -0.248 NA
ATOM     41  C   UNL A   1      37.794  30.936  29.326  1.00  0.00     0.031 C 
ATOM     42  C   UNL A   1      37.224  33.875  33.360  1.00  0.00     0.029 A 
ATOM     43  N   UNL A   1      38.858  32.349  33.425  1.00  0.00    -0.354 N 
ATOM     44  C   UNL A   1      39.510  29.649  30.126  1.00  0.00     0.074 A 
ATOM     45  C   UNL A   1      38.558  29.887  29.061  1.00  0.00     0.031 C 
ATOM     46  C   UNL A   1      37.854  34.008  34.538  1.00  0.00     0.029 A 
ATOM     47  C   UNL A   1      38.919  33.014  34.625  1.00  0.00     0.049 A 
ATOM     48  H   UNL A   1      39.464  31.610  33.187  1.00  0.00     0.167 HD
ATOM     49  C   UNL A   1      40.490  28.714  30.084  1.00  0.00     0.037 A 
ATOM     50  C   UNL A   1      39.740  32.842  35.678  1.00  0.00     0.037 A 
ATOM     51  C   UNL A   1      41.437  28.484  31.142  1.00  0.00     0.049 A 
ATOM     52  C   UNL A   1      40.793  31.772  35.627  1.00  0.00     0.074 A 
ATOM     53  C   UNL A   1      42.483  27.578  31.181  1.00  0.00     0.029 A 
ATOM     54  N   UNL A   1      41.451  29.163  32.352  1.00  0.00    -0.354 N 
ATOM     55  N   UNL A   1      41.074  30.936  34.658  1.00  0.00    -0.248 NA
ATOM     56  C   UNL A   1      41.641  31.619  36.817  1.00  0.00     0.031 C 
ATOM     57  C   UNL A   1      43.104  27.680  32.430  1.00  0.00     0.029 A 
ATOM     58  C   UNL A   1      42.478  28.683  33.152  1.00  0.00     0.049 A 
ATOM     59  H   UNL A   1      40.826  29.880  32.605  1.00  0.00     0.167 HD
ATOM     60  C   UNL A   1      42.141  30.172  35.109  1.00  0.00     0.074 A 
ATOM     61  C   UNL A   1      42.465  30.650  36.437  1.00  0.00     0.031 C 
ATOM     62  C   UNL A   1      42.792  29.167  34.475  1.00  0.00     0.037 A 
BRANCH  49  63
ATOM     63  C   UNL A   1      40.589  27.875  28.842  1.00  0.00     0.064 A 
ATOM     64  C   UNL A   1      41.366  28.296  27.752  1.00  0.00     0.173 A 
ATOM     65  C   UNL A   1      39.885  26.669  28.716  1.00  0.00     0.173 A 
ATOM     66  F   UNL A   1      42.054  29.447  27.815  1.00  0.00    -0.203 F 
ATOM     67  C   UNL A   1      41.434  27.540  26.585  1.00  0.00     0.198 A 
ATOM     68  C   UNL A   1      39.978  25.900  27.560  1.00  0.00     0.198 A 
ATOM     69  F   UNL A   1      39.134  26.216  29.733  1.00  0.00    -0.203 F 
ATOM     70  F   UNL A   1      42.165  27.972  25.549  1.00  0.00    -0.200 F 
ATOM     71  C   UNL A   1      40.747  26.339  26.493  1.00  0.00     0.200 A 
ATOM     72  F   UNL A   1      39.336  24.726  27.485  1.00  0.00    -0.200 F 
ATOM     73  F   UNL A   1      40.831  25.600  25.377  1.00  0.00    -0.200 F 
ENDBRANCH  49  63
BRANCH  50  74
ATOM     74  C   UNL A   1      39.620  33.753  36.844  1.00  0.00     0.064 A 
ATOM     75  C   UNL A   1      38.814  33.435  37.946  1.00  0.00     0.173 A 
ATOM     76  C   UNL A   1      40.268  34.996  36.843  1.00  0.00     0.173 A 
ATOM     77  F   UNL A   1      38.170  32.260  37.991  1.00  0.00    -0.203 F 
ATOM     78  C   UNL A   1      38.635  34.342  38.989  1.00  0.00     0.198 A 
ATOM     79  C   UNL A   1      40.108  35.892  37.897  1.00  0.00     0.198 A 
ATOM     80  F   UNL A   1      41.065  35.333  35.819  1.00  0.00    -0.203 F 
ATOM     81  F   UNL A   1      37.826  34.033  40.012  1.00  0.00    -0.200 F 
ATOM     82  C   UNL A   1      39.281  35.568  38.964  1.00  0.00     0.200 A 
ATOM     83  F   UNL A   1      40.747  37.069  37.877  1.00  0.00    -0.200 F 
ATOM     84  F   UNL A   1      39.109  36.440  39.967  1.00  0.00    -0.200 F 
ENDBRANCH  50  74
BRANCH  62  85
ATOM     85  C   UNL A   1      43.938  28.517  35.193  1.00  0.00     0.064 A 
ATOM     86  C   UNL A   1      45.246  28.993  35.020  1.00  0.00     0.173 A 
ATOM     87  C   UNL A   1      43.752  27.379  35.990  1.00  0.00     0.173 A 
ATOM     88  F   UNL A   1      45.478  30.075  34.262  1.00  0.00    -0.203 F 
ATOM     89  C   UNL A   1      46.328  28.341  35.605  1.00  0.00     0.198 A 
ATOM     90  C   UNL A   1      44.834  26.745  36.595  1.00  0.00     0.198 A 
ATOM     91  F   UNL A   1      42.518  26.894  36.198  1.00  0.00    -0.203 F 
ATOM     92  F   UNL A   1      47.573  28.793  35.397  1.00  0.00    -0.200 F 
ATOM     93  C   UNL A   1      46.122  27.220  36.393  1.00  0.00     0.200 A 
ATOM     94  F   UNL A   1      44.631  25.675  37.377  1.00  0.00    -0.200 F 
ATOM     95  F   UNL A   1      47.164  26.598  36.962  1.00  0.00    -0.200 F 
ENDBRANCH  62  85
ENDBRANCH  36  37
ENDBRANCH  28  31
ENDBRANCH  26  27
ENDBRANCH  25  26
ENDBRANCH   1  25
TORSDOF 15
ENDMDL
