MODEL 1
REMARK VINA RESULT:     -12.2      0.000      0.000
REMARK SMILES N#C/C(=C\c1ccc(-c2cc(C(=O)NCCCNC(=O)c3ccc(-c4c5nc(c(-c6c(F)c(F)c(F)c(F)c6F)c6ccc([nH]6)c(-c6c(F)c(F)c(F)c(F)c6F)c6nc(c(-c7c(F)c(F)c(F)c(F)c7F)c7ccc4[nH]7)C=C6)C=C5)cc3)ccc2Cl)o1)C(=O)N1CCOCC1
REMARK SMILES IDX 15 1 14 2 12 3 13 4 11 6 9 7 10 8 86 9 85 10 87 11 84 12
REMARK SMILES IDX 8 13 5 14 6 15 88 16 7 17 4 18 3 19 2 20 1 21 89 22 90 23
REMARK SMILES IDX 91 24 92 25 96 26 93 27 95 28 94 29 16 30 17 31 18 32 19 33
REMARK SMILES IDX 20 35 21 36 22 37 83 38 23 39 82 40 24 41 25 42 26 43 76 44
REMARK SMILES IDX 27 45 81 46 75 47 77 48 28 49 80 50 74 51 73 52 29 54 61 55
REMARK SMILES IDX 41 56 60 57 42 58 45 59 59 60 78 61 43 62 44 63 58 65 79 66
REMARK SMILES IDX 46 67 30 68 31 69 39 70 32 71 33 72 37 73 40 74 34 75 35 76
REMARK SMILES IDX 38 77 36 78 62 79 63 80 71 81 64 82 65 83 69 84 72 85 66 86
REMARK SMILES IDX 67 87 70 88 68 89 47 90 48 91 56 92 49 93 50 94 54 95 57 96
REMARK SMILES IDX 51 97 52 98 55 99 53 100
REMARK H PARENT 14 5 18 34 77 53 45 64
REMARK Flexibility Score: inf
ROOT
ATOM      1  C   UNL A   1      41.301  19.884  27.586  1.00  0.00     0.118 C 
ENDROOT
BRANCH   1   2
ATOM      2  N   UNL A   1      41.262  21.266  27.135  1.00  0.00    -0.352 N 
ATOM      3  C   UNL A   1      40.320  22.013  26.474  1.00  0.00     0.251 C 
ATOM      4  O   UNL A   1      40.576  23.204  26.295  1.00  0.00    -0.269 OA
ATOM      5  H   UNL A   1      42.081  21.768  27.346  1.00  0.00     0.163 HD
BRANCH   3   6
ATOM      6  C   UNL A   1      39.011  21.482  25.991  1.00  0.00     0.040 A 
ATOM      7  C   UNL A   1      36.595  21.882  25.754  1.00  0.00     0.037 A 
ATOM      8  C   UNL A   1      37.873  22.298  26.171  1.00  0.00     0.027 A 
ATOM      9  C   UNL A   1      36.465  20.620  25.151  1.00  0.00     0.052 A 
ATOM     10  C   UNL A   1      37.590  19.823  24.937  1.00  0.00     0.022 A 
ATOM     11  Cl  UNL A   1      34.945  19.991  24.611  1.00  0.00    -0.084 Cl
ATOM     12  C   UNL A   1      38.856  20.261  25.333  1.00  0.00     0.015 A 
BRANCH   7  13
ATOM     13  C   UNL A   1      35.439  22.734  25.989  1.00  0.00     0.136 A 
ATOM     14  C   UNL A   1      34.244  24.597  25.694  1.00  0.00     0.129 A 
ATOM     15  C   UNL A   1      33.477  23.689  26.421  1.00  0.00     0.051 A 
ATOM     16  O   UNL A   1      35.447  23.971  25.412  1.00  0.00    -0.457 OA
ATOM     17  C   UNL A   1      34.252  22.534  26.652  1.00  0.00     0.051 A 
BRANCH  14  18
ATOM     18  C   UNL A   1      33.937  25.930  25.252  1.00  0.00     0.072 C 
ATOM     19  C   UNL A   1      33.586  26.244  23.978  1.00  0.00     0.121 C 
BRANCH  19  20
ATOM     20  C   UNL A   1      33.174  25.043  23.143  1.00  0.00     0.105 C 
ATOM     21  N   UNL A   1      32.833  24.047  22.449  1.00  0.00    -0.192 NA
ENDBRANCH  19  20
BRANCH  19  22
ATOM     22  C   UNL A   1      33.129  27.609  23.610  1.00  0.00     0.264 C 
ATOM     23  O   UNL A   1      33.937  28.374  23.085  1.00  0.00    -0.268 OA
ATOM     24  N   UNL A   1      31.804  27.968  23.800  1.00  0.00    -0.333 N 
ATOM     25  C   UNL A   1      30.792  27.348  24.673  1.00  0.00     0.148 C 
ATOM     26  C   UNL A   1      31.265  29.105  23.045  1.00  0.00     0.148 C 
ATOM     27  C   UNL A   1      29.551  26.960  23.853  1.00  0.00     0.181 C 
ATOM     28  C   UNL A   1      30.035  28.645  22.252  1.00  0.00     0.181 C 
ATOM     29  O   UNL A   1      29.038  28.090  23.128  1.00  0.00    -0.378 OA
ENDBRANCH  19  22
ENDBRANCH  14  18
ENDBRANCH   7  13
ENDBRANCH   3   6
ENDBRANCH   1   2
BRANCH   1  30
ATOM     30  C   UNL A   1      42.400  19.094  26.875  1.00  0.00     0.042 C 
BRANCH  30  31
ATOM     31  C   UNL A   1      42.494  19.390  25.377  1.00  0.00     0.118 C 
BRANCH  31  32
ATOM     32  N   UNL A   1      43.737  18.896  24.799  1.00  0.00    -0.352 N 
ATOM     33  C   UNL A   1      44.871  19.569  24.419  1.00  0.00     0.251 C 
ATOM     34  H   UNL A   1      43.767  17.922  24.657  1.00  0.00     0.163 HD
ATOM     35  O   UNL A   1      45.715  18.995  23.737  1.00  0.00    -0.269 OA
BRANCH  33  36
ATOM     36  C   UNL A   1      45.090  20.979  24.814  1.00  0.00     0.039 A 
ATOM     37  C   UNL A   1      44.947  21.978  23.846  1.00  0.00     0.014 A 
ATOM     38  C   UNL A   1      45.491  21.317  26.109  1.00  0.00     0.014 A 
ATOM     39  C   UNL A   1      45.145  23.319  24.191  1.00  0.00     0.010 A 
ATOM     40  C   UNL A   1      45.626  22.656  26.469  1.00  0.00     0.010 A 
ATOM     41  C   UNL A   1      45.454  23.671  25.514  1.00  0.00    -0.014 A 
BRANCH  41  42
ATOM     42  C   UNL A   1      45.590  25.091  25.926  1.00  0.00     0.031 A 
ATOM     43  C   UNL A   1      46.931  25.768  25.881  1.00  0.00     0.074 A 
ATOM     44  C   UNL A   1      44.520  25.745  26.417  1.00  0.00     0.049 A 
ATOM     45  N   UNL A   1      47.275  26.957  26.308  1.00  0.00    -0.248 NA
ATOM     46  C   UNL A   1      48.040  24.994  25.301  1.00  0.00     0.031 C 
ATOM     47  C   UNL A   1      43.175  25.184  26.547  1.00  0.00     0.029 A 
ATOM     48  N   UNL A   1      44.400  27.016  26.921  1.00  0.00    -0.354 N 
ATOM     49  C   UNL A   1      48.636  27.068  26.063  1.00  0.00     0.074 A 
ATOM     50  C   UNL A   1      49.067  25.808  25.495  1.00  0.00     0.031 C 
ATOM     51  C   UNL A   1      42.365  26.105  27.089  1.00  0.00     0.029 A 
ATOM     52  C   UNL A   1      43.139  27.306  27.385  1.00  0.00     0.049 A 
ATOM     53  H   UNL A   1      45.146  27.658  26.949  1.00  0.00     0.167 HD
ATOM     54  C   UNL A   1      49.449  28.131  26.275  1.00  0.00     0.037 A 
ATOM     55  C   UNL A   1      42.668  28.408  27.997  1.00  0.00     0.037 A 
ATOM     56  C   UNL A   1      49.012  29.388  26.823  1.00  0.00     0.049 A 
ATOM     57  C   UNL A   1      43.594  29.568  28.241  1.00  0.00     0.074 A 
ATOM     58  C   UNL A   1      49.744  30.546  27.021  1.00  0.00     0.029 A 
ATOM     59  N   UNL A   1      47.723  29.650  27.265  1.00  0.00    -0.354 N 
ATOM     60  N   UNL A   1      44.867  29.684  27.950  1.00  0.00    -0.248 NA
ATOM     61  C   UNL A   1      43.019  30.750  28.899  1.00  0.00     0.031 C 
ATOM     62  C   UNL A   1      48.910  31.493  27.625  1.00  0.00     0.029 A 
ATOM     63  C   UNL A   1      47.645  30.942  27.760  1.00  0.00     0.049 A 
ATOM     64  H   UNL A   1      46.974  29.012  27.233  1.00  0.00     0.167 HD
ATOM     65  C   UNL A   1      45.240  30.953  28.369  1.00  0.00     0.074 A 
ATOM     66  C   UNL A   1      44.055  31.576  28.920  1.00  0.00     0.031 C 
ATOM     67  C   UNL A   1      46.457  31.546  28.307  1.00  0.00     0.037 A 
BRANCH  54  68
ATOM     68  C   UNL A   1      50.899  27.980  25.911  1.00  0.00     0.064 A 
ATOM     69  C   UNL A   1      51.864  27.628  26.867  1.00  0.00     0.173 A 
ATOM     70  C   UNL A   1      51.324  28.158  24.586  1.00  0.00     0.173 A 
ATOM     71  F   UNL A   1      51.510  27.455  28.150  1.00  0.00    -0.203 F 
ATOM     72  C   UNL A   1      53.204  27.492  26.518  1.00  0.00     0.198 A 
ATOM     73  C   UNL A   1      52.662  27.991  24.234  1.00  0.00     0.198 A 
ATOM     74  F   UNL A   1      50.443  28.488  23.630  1.00  0.00    -0.203 F 
ATOM     75  F   UNL A   1      54.114  27.205  27.459  1.00  0.00    -0.200 F 
ATOM     76  C   UNL A   1      53.601  27.668  25.201  1.00  0.00     0.200 A 
ATOM     77  F   UNL A   1      53.041  28.149  22.958  1.00  0.00    -0.200 F 
ATOM     78  F   UNL A   1      54.892  27.532  24.865  1.00  0.00    -0.200 F 
ENDBRANCH  54  68
BRANCH  55  79
ATOM     79  C   UNL A   1      41.244  28.465  28.418  1.00  0.00     0.064 A 
ATOM     80  C   UNL A   1      40.847  28.002  29.680  1.00  0.00     0.173 A 
ATOM     81  C   UNL A   1      40.253  28.990  27.574  1.00  0.00     0.173 A 
ATOM     82  F   UNL A   1      41.754  27.472  30.514  1.00  0.00    -0.203 F 
ATOM     83  C   UNL A   1      39.512  28.049  30.077  1.00  0.00     0.198 A 
ATOM     84  C   UNL A   1      38.924  29.062  27.983  1.00  0.00     0.198 A 
ATOM     85  F   UNL A   1      40.582  29.452  26.358  1.00  0.00    -0.203 F 
ATOM     86  F   UNL A   1      39.154  27.564  31.274  1.00  0.00    -0.200 F 
ATOM     87  C   UNL A   1      38.553  28.586  29.231  1.00  0.00     0.200 A 
ATOM     88  F   UNL A   1      38.003  29.596  27.169  1.00  0.00    -0.200 F 
ATOM     89  F   UNL A   1      37.271  28.639  29.617  1.00  0.00    -0.200 F 
ENDBRANCH  55  79
BRANCH  67  90
ATOM     90  C   UNL A   1      46.567  32.948  28.833  1.00  0.00     0.064 A 
ATOM     91  C   UNL A   1      46.971  33.205  30.150  1.00  0.00     0.173 A 
ATOM     92  C   UNL A   1      46.315  34.044  27.994  1.00  0.00     0.173 A 
ATOM     93  F   UNL A   1      47.207  32.190  30.994  1.00  0.00    -0.203 F 
ATOM     94  C   UNL A   1      47.103  34.512  30.614  1.00  0.00     0.198 A 
ATOM     95  C   UNL A   1      46.475  35.348  28.454  1.00  0.00     0.198 A 
ATOM     96  F   UNL A   1      45.929  33.850  26.724  1.00  0.00    -0.203 F 
ATOM     97  F   UNL A   1      47.454  34.735  31.888  1.00  0.00    -0.200 F 
ATOM     98  C   UNL A   1      46.864  35.581  29.764  1.00  0.00     0.200 A 
ATOM     99  F   UNL A   1      46.255  36.380  27.627  1.00  0.00    -0.200 F 
ATOM    100  F   UNL A   1      47.004  36.837  30.210  1.00  0.00    -0.200 F 
ENDBRANCH  67  90
ENDBRANCH  41  42
ENDBRANCH  33  36
ENDBRANCH  31  32
ENDBRANCH  30  31
ENDBRANCH   1  30
TORSDOF 14
ENDMDL
MODEL 2
REMARK VINA RESULT:     -12.2      1.007      2.049
REMARK SMILES N#C/C(=C\c1ccc(-c2cc(C(=O)NCCCNC(=O)c3ccc(-c4c5nc(c(-c6c(F)c(F)c(F)c(F)c6F)c6ccc([nH]6)c(-c6c(F)c(F)c(F)c(F)c6F)c6nc(c(-c7c(F)c(F)c(F)c(F)c7F)c7ccc4[nH]7)C=C6)C=C5)cc3)ccc2Cl)o1)C(=O)N1CCOCC1
REMARK SMILES IDX 15 1 14 2 12 3 13 4 11 6 9 7 10 8 86 9 85 10 87 11 84 12
REMARK SMILES IDX 8 13 5 14 6 15 88 16 7 17 4 18 3 19 2 20 1 21 89 22 90 23
REMARK SMILES IDX 91 24 92 25 96 26 93 27 95 28 94 29 16 30 17 31 18 32 19 33
REMARK SMILES IDX 20 35 21 36 22 37 83 38 23 39 82 40 24 41 25 42 26 43 76 44
REMARK SMILES IDX 27 45 81 46 75 47 77 48 28 49 80 50 74 51 73 52 29 54 61 55
REMARK SMILES IDX 41 56 60 57 42 58 45 59 59 60 78 61 43 62 44 63 58 65 79 66
REMARK SMILES IDX 46 67 30 68 31 69 39 70 32 71 33 72 37 73 40 74 34 75 35 76
REMARK SMILES IDX 38 77 36 78 62 79 63 80 71 81 64 82 65 83 69 84 72 85 66 86
REMARK SMILES IDX 67 87 70 88 68 89 47 90 48 91 56 92 49 93 50 94 54 95 57 96
REMARK SMILES IDX 51 97 52 98 55 99 53 100
REMARK H PARENT 14 5 18 34 77 53 45 64
REMARK Flexibility Score: inf
ROOT
ATOM      1  C   UNL A   1      40.755  20.361  26.950  1.00  0.00     0.118 C 
ENDROOT
BRANCH   1   2
ATOM      2  N   UNL A   1      40.472  21.763  26.687  1.00  0.00    -0.352 N 
ATOM      3  C   UNL A   1      39.364  22.429  26.227  1.00  0.00     0.251 C 
ATOM      4  O   UNL A   1      39.430  23.658  26.179  1.00  0.00    -0.269 OA
ATOM      5  H   UNL A   1      41.233  22.357  26.878  1.00  0.00     0.163 HD
BRANCH   3   6
ATOM      6  C   UNL A   1      38.094  21.764  25.815  1.00  0.00     0.040 A 
ATOM      7  C   UNL A   1      35.635  21.839  25.839  1.00  0.00     0.037 A 
ATOM      8  C   UNL A   1      36.883  22.393  26.178  1.00  0.00     0.027 A 
ATOM      9  C   UNL A   1      35.609  20.629  25.127  1.00  0.00     0.052 A 
ATOM     10  C   UNL A   1      36.801  20.019  24.732  1.00  0.00     0.022 A 
ATOM     11  Cl  UNL A   1      34.137  19.843  24.667  1.00  0.00    -0.084 Cl
ATOM     12  C   UNL A   1      38.032  20.595  25.054  1.00  0.00     0.015 A 
BRANCH   7  13
ATOM     13  C   UNL A   1      34.407  22.498  26.262  1.00  0.00     0.136 A 
ATOM     14  C   UNL A   1      33.005  24.233  26.348  1.00  0.00     0.129 A 
ATOM     15  C   UNL A   1      32.379  23.128  26.924  1.00  0.00     0.051 A 
ATOM     16  O   UNL A   1      34.251  23.810  25.919  1.00  0.00    -0.457 OA
ATOM     17  C   UNL A   1      33.286  22.048  26.917  1.00  0.00     0.051 A 
BRANCH  14  18
ATOM     18  C   UNL A   1      32.532  25.578  26.165  1.00  0.00     0.072 C 
ATOM     19  C   UNL A   1      32.297  26.140  24.952  1.00  0.00     0.121 C 
BRANCH  19  20
ATOM     20  C   UNL A   1      32.207  25.132  23.817  1.00  0.00     0.105 C 
ATOM     21  N   UNL A   1      32.132  24.296  22.876  1.00  0.00    -0.192 NA
ENDBRANCH  19  20
BRANCH  19  22
ATOM     22  C   UNL A   1      31.664  27.478  24.822  1.00  0.00     0.264 C 
ATOM     23  O   UNL A   1      30.491  27.537  24.454  1.00  0.00    -0.268 OA
ATOM     24  N   UNL A   1      32.374  28.615  25.179  1.00  0.00    -0.333 N 
ATOM     25  C   UNL A   1      33.829  28.789  25.326  1.00  0.00     0.148 C 
ATOM     26  C   UNL A   1      31.633  29.844  25.480  1.00  0.00     0.148 C 
ATOM     27  C   UNL A   1      34.158  29.334  26.725  1.00  0.00     0.181 C 
ATOM     28  C   UNL A   1      32.007  30.326  26.887  1.00  0.00     0.181 C 
ATOM     29  O   UNL A   1      33.426  30.540  26.995  1.00  0.00    -0.378 OA
ENDBRANCH  19  22
ENDBRANCH  14  18
ENDBRANCH   7  13
ENDBRANCH   3   6
ENDBRANCH   1   2
BRANCH   1  30
ATOM     30  C   UNL A   1      41.577  19.736  25.822  1.00  0.00     0.042 C 
BRANCH  30  31
ATOM     31  C   UNL A   1      42.811  18.978  26.312  1.00  0.00     0.118 C 
BRANCH  31  32
ATOM     32  N   UNL A   1      43.721  18.650  25.223  1.00  0.00    -0.352 N 
ATOM     33  C   UNL A   1      44.518  19.462  24.454  1.00  0.00     0.251 C 
ATOM     34  H   UNL A   1      43.772  17.692  25.003  1.00  0.00     0.163 HD
ATOM     35  O   UNL A   1      45.031  19.012  23.434  1.00  0.00    -0.269 OA
BRANCH  33  36
ATOM     36  C   UNL A   1      44.761  20.871  24.833  1.00  0.00     0.039 A 
ATOM     37  C   UNL A   1      44.439  21.879  23.917  1.00  0.00     0.014 A 
ATOM     38  C   UNL A   1      45.357  21.204  26.051  1.00  0.00     0.014 A 
ATOM     39  C   UNL A   1      44.656  23.220  24.248  1.00  0.00     0.010 A 
ATOM     40  C   UNL A   1      45.514  22.542  26.408  1.00  0.00     0.010 A 
ATOM     41  C   UNL A   1      45.165  23.563  25.510  1.00  0.00    -0.014 A 
BRANCH  41  42
ATOM     42  C   UNL A   1      45.330  24.982  25.920  1.00  0.00     0.031 A 
ATOM     43  C   UNL A   1      46.681  25.636  25.857  1.00  0.00     0.074 A 
ATOM     44  C   UNL A   1      44.278  25.653  26.424  1.00  0.00     0.049 A 
ATOM     45  N   UNL A   1      47.050  26.820  26.278  1.00  0.00    -0.248 NA
ATOM     46  C   UNL A   1      47.770  24.843  25.264  1.00  0.00     0.031 C 
ATOM     47  C   UNL A   1      42.925  25.114  26.571  1.00  0.00     0.029 A 
ATOM     48  N   UNL A   1      44.184  26.926  26.928  1.00  0.00    -0.354 N 
ATOM     49  C   UNL A   1      48.410  26.908  26.015  1.00  0.00     0.074 A 
ATOM     50  C   UNL A   1      48.813  25.640  25.443  1.00  0.00     0.031 C 
ATOM     51  C   UNL A   1      42.137  26.050  27.123  1.00  0.00     0.029 A 
ATOM     52  C   UNL A   1      42.935  27.238  27.408  1.00  0.00     0.049 A 
ATOM     53  H   UNL A   1      44.942  27.556  26.946  1.00  0.00     0.167 HD
ATOM     54  C   UNL A   1      49.243  27.958  26.216  1.00  0.00     0.037 A 
ATOM     55  C   UNL A   1      42.490  28.348  28.025  1.00  0.00     0.037 A 
ATOM     56  C   UNL A   1      48.833  29.222  26.769  1.00  0.00     0.049 A 
ATOM     57  C   UNL A   1      43.438  29.492  28.256  1.00  0.00     0.074 A 
ATOM     58  C   UNL A   1      49.587  30.368  26.956  1.00  0.00     0.029 A 
ATOM     59  N   UNL A   1      47.554  29.506  27.227  1.00  0.00    -0.354 N 
ATOM     60  N   UNL A   1      44.708  29.587  27.949  1.00  0.00    -0.248 NA
ATOM     61  C   UNL A   1      42.891  30.684  28.920  1.00  0.00     0.031 C 
ATOM     62  C   UNL A   1      48.776  31.329  27.570  1.00  0.00     0.029 A 
ATOM     63  C   UNL A   1      47.505  30.799  27.722  1.00  0.00     0.049 A 
ATOM     64  H   UNL A   1      46.795  28.880  27.205  1.00  0.00     0.167 HD
ATOM     65  C   UNL A   1      45.108  30.850  28.362  1.00  0.00     0.074 A 
ATOM     66  C   UNL A   1      43.940  31.493  28.927  1.00  0.00     0.031 C 
ATOM     67  C   UNL A   1      46.333  31.423  28.283  1.00  0.00     0.037 A 
BRANCH  54  68
ATOM     68  C   UNL A   1      50.685  27.783  25.833  1.00  0.00     0.064 A 
ATOM     69  C   UNL A   1      51.120  27.955  24.510  1.00  0.00     0.173 A 
ATOM     70  C   UNL A   1      51.648  27.470  26.804  1.00  0.00     0.173 A 
ATOM     71  F   UNL A   1      50.237  28.245  23.542  1.00  0.00    -0.203 F 
ATOM     72  C   UNL A   1      52.458  27.788  24.167  1.00  0.00     0.198 A 
ATOM     73  C   UNL A   1      52.992  27.334  26.462  1.00  0.00     0.198 A 
ATOM     74  F   UNL A   1      51.289  27.302  28.085  1.00  0.00    -0.203 F 
ATOM     75  F   UNL A   1      52.840  27.907  22.888  1.00  0.00    -0.200 F 
ATOM     76  C   UNL A   1      53.394  27.484  25.144  1.00  0.00     0.200 A 
ATOM     77  F   UNL A   1      53.897  27.053  27.410  1.00  0.00    -0.200 F 
ATOM     78  F   UNL A   1      54.684  27.328  24.813  1.00  0.00    -0.200 F 
ENDBRANCH  54  68
BRANCH  55  79
ATOM     79  C   UNL A   1      41.072  28.428  28.465  1.00  0.00     0.064 A 
ATOM     80  C   UNL A   1      40.688  27.989  29.739  1.00  0.00     0.173 A 
ATOM     81  C   UNL A   1      40.077  28.952  27.626  1.00  0.00     0.173 A 
ATOM     82  F   UNL A   1      41.600  27.462  30.569  1.00  0.00    -0.203 F 
ATOM     83  C   UNL A   1      39.358  28.060  30.153  1.00  0.00     0.198 A 
ATOM     84  C   UNL A   1      38.754  29.046  28.051  1.00  0.00     0.198 A 
ATOM     85  F   UNL A   1      40.394  29.390  26.398  1.00  0.00    -0.203 F 
ATOM     86  F   UNL A   1      39.011  27.598  31.362  1.00  0.00    -0.200 F 
ATOM     87  C   UNL A   1      38.394  28.594  29.311  1.00  0.00     0.200 A 
ATOM     88  F   UNL A   1      37.828  29.578  27.241  1.00  0.00    -0.200 F 
ATOM     89  F   UNL A   1      37.119  28.669  29.714  1.00  0.00    -0.200 F 
ENDBRANCH  55  79
BRANCH  67  90
ATOM     90  C   UNL A   1      46.473  32.823  28.806  1.00  0.00     0.064 A 
ATOM     91  C   UNL A   1      46.228  33.936  27.991  1.00  0.00     0.173 A 
ATOM     92  C   UNL A   1      46.806  33.050  30.150  1.00  0.00     0.173 A 
ATOM     93  F   UNL A   1      45.924  33.770  26.696  1.00  0.00    -0.203 F 
ATOM     94  C   UNL A   1      46.328  35.230  28.499  1.00  0.00     0.198 A 
ATOM     95  C   UNL A   1      46.877  34.343  30.662  1.00  0.00     0.198 A 
ATOM     96  F   UNL A   1      47.046  32.017  30.972  1.00  0.00    -0.203 F 
ATOM     97  F   UNL A   1      46.126  36.281  27.693  1.00  0.00    -0.200 F 
ATOM     98  C   UNL A   1      46.642  35.431  29.835  1.00  0.00     0.200 A 
ATOM     99  F   UNL A   1      47.170  34.535  31.955  1.00  0.00    -0.200 F 
ATOM    100  F   UNL A   1      46.725  36.676  30.324  1.00  0.00    -0.200 F 
ENDBRANCH  67  90
ENDBRANCH  41  42
ENDBRANCH  33  36
ENDBRANCH  31  32
ENDBRANCH  30  31
ENDBRANCH   1  30
TORSDOF 14
ENDMDL
MODEL 3
REMARK VINA RESULT:     -12.0      7.202     12.484
REMARK SMILES N#C/C(=C\c1ccc(-c2cc(C(=O)NCCCNC(=O)c3ccc(-c4c5nc(c(-c6c(F)c(F)c(F)c(F)c6F)c6ccc([nH]6)c(-c6c(F)c(F)c(F)c(F)c6F)c6nc(c(-c7c(F)c(F)c(F)c(F)c7F)c7ccc4[nH]7)C=C6)C=C5)cc3)ccc2Cl)o1)C(=O)N1CCOCC1
REMARK SMILES IDX 15 1 14 2 12 3 13 4 11 6 9 7 10 8 86 9 85 10 87 11 84 12
REMARK SMILES IDX 8 13 5 14 6 15 88 16 7 17 4 18 3 19 2 20 1 21 89 22 90 23
REMARK SMILES IDX 91 24 92 25 96 26 93 27 95 28 94 29 16 30 17 31 18 32 19 33
REMARK SMILES IDX 20 35 21 36 22 37 83 38 23 39 82 40 24 41 25 42 26 43 76 44
REMARK SMILES IDX 27 45 81 46 75 47 77 48 28 49 80 50 74 51 73 52 29 54 61 55
REMARK SMILES IDX 41 56 60 57 42 58 45 59 59 60 78 61 43 62 44 63 58 65 79 66
REMARK SMILES IDX 46 67 30 68 31 69 39 70 32 71 33 72 37 73 40 74 34 75 35 76
REMARK SMILES IDX 38 77 36 78 62 79 63 80 71 81 64 82 65 83 69 84 72 85 66 86
REMARK SMILES IDX 67 87 70 88 68 89 47 90 48 91 56 92 49 93 50 94 54 95 57 96
REMARK SMILES IDX 51 97 52 98 55 99 53 100
REMARK H PARENT 14 5 18 34 77 53 45 64
REMARK Flexibility Score: inf
ROOT
ATOM      1  C   UNL A   1      34.948  34.316  30.255  1.00  0.00     0.118 C 
ENDROOT
BRANCH   1   2
ATOM      2  N   UNL A   1      34.016  34.016  31.329  1.00  0.00    -0.352 N 
ATOM      3  C   UNL A   1      34.146  33.375  32.535  1.00  0.00     0.251 C 
ATOM      4  O   UNL A   1      33.153  33.346  33.264  1.00  0.00    -0.269 OA
ATOM      5  H   UNL A   1      33.103  34.340  31.156  1.00  0.00     0.163 HD
BRANCH   3   6
ATOM      6  C   UNL A   1      35.408  32.744  33.021  1.00  0.00     0.040 A 
ATOM      7  C   UNL A   1      37.088  32.629  34.815  1.00  0.00     0.037 A 
ATOM      8  C   UNL A   1      35.903  33.162  34.276  1.00  0.00     0.027 A 
ATOM      9  C   UNL A   1      37.787  31.664  34.073  1.00  0.00     0.052 A 
ATOM     10  C   UNL A   1      37.286  31.218  32.849  1.00  0.00     0.022 A 
ATOM     11  Cl  UNL A   1      39.263  30.946  34.623  1.00  0.00    -0.084 Cl
ATOM     12  C   UNL A   1      36.095  31.738  32.339  1.00  0.00     0.015 A 
BRANCH   7  13
ATOM     13  C   UNL A   1      37.587  33.111  36.095  1.00  0.00     0.136 A 
ATOM     14  C   UNL A   1      37.555  33.242  38.324  1.00  0.00     0.129 A 
ATOM     15  C   UNL A   1      38.703  33.881  37.858  1.00  0.00     0.051 A 
ATOM     16  O   UNL A   1      36.893  32.748  37.213  1.00  0.00    -0.457 OA
ATOM     17  C   UNL A   1      38.694  33.844  36.449  1.00  0.00     0.051 A 
BRANCH  14  18
ATOM     18  C   UNL A   1      37.074  33.057  39.666  1.00  0.00     0.072 C 
ATOM     19  C   UNL A   1      36.526  31.901  40.121  1.00  0.00     0.121 C 
BRANCH  19  20
ATOM     20  C   UNL A   1      36.799  30.701  39.230  1.00  0.00     0.105 C 
ATOM     21  N   UNL A   1      37.026  29.705  38.490  1.00  0.00    -0.192 NA
ENDBRANCH  19  20
BRANCH  19  22
ATOM     22  C   UNL A   1      36.186  31.712  41.555  1.00  0.00     0.264 C 
ATOM     23  O   UNL A   1      34.999  31.646  41.871  1.00  0.00    -0.268 OA
ATOM     24  N   UNL A   1      37.199  31.548  42.488  1.00  0.00    -0.333 N 
ATOM     25  C   UNL A   1      38.624  31.904  42.380  1.00  0.00     0.148 C 
ATOM     26  C   UNL A   1      36.877  30.927  43.777  1.00  0.00     0.148 C 
ATOM     27  C   UNL A   1      39.500  30.672  42.661  1.00  0.00     0.181 C 
ATOM     28  C   UNL A   1      37.784  29.708  43.989  1.00  0.00     0.181 C 
ATOM     29  O   UNL A   1      39.172  30.084  43.931  1.00  0.00    -0.378 OA
ENDBRANCH  19  22
ENDBRANCH  14  18
ENDBRANCH   7  13
ENDBRANCH   3   6
ENDBRANCH   1   2
BRANCH   1  30
ATOM     30  C   UNL A   1      34.315  34.075  28.883  1.00  0.00     0.042 C 
BRANCH  30  31
ATOM     31  C   UNL A   1      35.041  33.017  28.052  1.00  0.00     0.118 C 
BRANCH  31  32
ATOM     32  N   UNL A   1      34.210  31.847  27.808  1.00  0.00    -0.352 N 
ATOM     33  C   UNL A   1      34.545  30.518  27.720  1.00  0.00     0.251 C 
ATOM     34  H   UNL A   1      33.252  32.040  27.687  1.00  0.00     0.163 HD
ATOM     35  O   UNL A   1      33.728  29.717  27.276  1.00  0.00    -0.269 OA
BRANCH  33  36
ATOM     36  C   UNL A   1      35.879  30.040  28.146  1.00  0.00     0.039 A 
ATOM     37  C   UNL A   1      36.936  30.093  27.232  1.00  0.00     0.014 A 
ATOM     38  C   UNL A   1      36.082  29.485  29.412  1.00  0.00     0.014 A 
ATOM     39  C   UNL A   1      38.209  29.650  27.606  1.00  0.00     0.010 A 
ATOM     40  C   UNL A   1      37.363  29.103  29.808  1.00  0.00     0.010 A 
ATOM     41  C   UNL A   1      38.438  29.181  28.909  1.00  0.00    -0.014 A 
BRANCH  41  42
ATOM     42  C   UNL A   1      39.796  28.780  29.360  1.00  0.00     0.031 A 
ATOM     43  C   UNL A   1      40.615  29.706  30.213  1.00  0.00     0.074 A 
ATOM     44  C   UNL A   1      40.319  27.616  28.933  1.00  0.00     0.049 A 
ATOM     45  N   UNL A   1      41.858  29.589  30.608  1.00  0.00    -0.248 NA
ATOM     46  C   UNL A   1      39.957  30.943  30.662  1.00  0.00     0.031 C 
ATOM     47  C   UNL A   1      39.637  26.650  28.071  1.00  0.00     0.029 A 
ATOM     48  N   UNL A   1      41.555  27.057  29.144  1.00  0.00    -0.354 N 
ATOM     49  C   UNL A   1      42.134  30.738  31.336  1.00  0.00     0.074 A 
ATOM     50  C   UNL A   1      40.946  31.564  31.288  1.00  0.00     0.031 C 
ATOM     51  C   UNL A   1      40.459  25.617  27.832  1.00  0.00     0.029 A 
ATOM     52  C   UNL A   1      41.740  25.865  28.486  1.00  0.00     0.049 A 
ATOM     53  H   UNL A   1      42.244  27.471  29.714  1.00  0.00     0.167 HD
ATOM     54  C   UNL A   1      43.269  31.066  31.999  1.00  0.00     0.037 A 
ATOM     55  C   UNL A   1      42.826  25.074  28.403  1.00  0.00     0.037 A 
ATOM     56  C   UNL A   1      44.442  30.233  32.058  1.00  0.00     0.049 A 
ATOM     57  C   UNL A   1      44.082  25.468  29.131  1.00  0.00     0.074 A 
ATOM     58  C   UNL A   1      45.619  30.447  32.753  1.00  0.00     0.029 A 
ATOM     59  N   UNL A   1      44.585  29.024  31.391  1.00  0.00    -0.354 N 
ATOM     60  N   UNL A   1      44.311  26.529  29.866  1.00  0.00    -0.248 NA
ATOM     61  C   UNL A   1      45.229  24.557  29.017  1.00  0.00     0.031 C 
ATOM     62  C   UNL A   1      46.492  29.391  32.469  1.00  0.00     0.029 A 
ATOM     63  C   UNL A   1      45.842  28.495  31.636  1.00  0.00     0.049 A 
ATOM     64  H   UNL A   1      43.896  28.605  30.827  1.00  0.00     0.167 HD
ATOM     65  C   UNL A   1      45.617  26.405  30.318  1.00  0.00     0.074 A 
ATOM     66  C   UNL A   1      46.126  25.157  29.788  1.00  0.00     0.031 C 
ATOM     67  C   UNL A   1      46.332  27.251  31.098  1.00  0.00     0.037 A 
BRANCH  54  68
ATOM     68  C   UNL A   1      43.297  32.385  32.718  1.00  0.00     0.064 A 
ATOM     69  C   UNL A   1      42.939  32.492  34.071  1.00  0.00     0.173 A 
ATOM     70  C   UNL A   1      43.715  33.549  32.057  1.00  0.00     0.173 A 
ATOM     71  F   UNL A   1      42.523  31.410  34.746  1.00  0.00    -0.203 F 
ATOM     72  C   UNL A   1      42.967  33.720  34.725  1.00  0.00     0.198 A 
ATOM     73  C   UNL A   1      43.772  34.771  32.724  1.00  0.00     0.198 A 
ATOM     74  F   UNL A   1      44.076  33.503  30.766  1.00  0.00    -0.203 F 
ATOM     75  F   UNL A   1      42.571  33.805  36.003  1.00  0.00    -0.200 F 
ATOM     76  C   UNL A   1      43.389  34.857  34.053  1.00  0.00     0.200 A 
ATOM     77  F   UNL A   1      44.192  35.867  32.076  1.00  0.00    -0.200 F 
ATOM     78  F   UNL A   1      43.420  36.038  34.686  1.00  0.00    -0.200 F 
ENDBRANCH  54  68
BRANCH  55  79
ATOM     79  C   UNL A   1      42.767  23.824  27.601  1.00  0.00     0.064 A 
ATOM     80  C   UNL A   1      42.327  22.622  28.171  1.00  0.00     0.173 A 
ATOM     81  C   UNL A   1      43.140  23.808  26.248  1.00  0.00     0.173 A 
ATOM     82  F   UNL A   1      41.979  22.583  29.465  1.00  0.00    -0.203 F 
ATOM     83  C   UNL A   1      42.275  21.448  27.422  1.00  0.00     0.198 A 
ATOM     84  C   UNL A   1      43.061  22.639  25.494  1.00  0.00     0.198 A 
ATOM     85  F   UNL A   1      43.564  24.934  25.654  1.00  0.00    -0.203 F 
ATOM     86  F   UNL A   1      41.886  20.304  28.002  1.00  0.00    -0.200 F 
ATOM     87  C   UNL A   1      42.635  21.459  26.083  1.00  0.00     0.200 A 
ATOM     88  F   UNL A   1      43.396  22.658  24.197  1.00  0.00    -0.200 F 
ATOM     89  F   UNL A   1      42.576  20.331  25.362  1.00  0.00    -0.200 F 
ENDBRANCH  55  79
BRANCH  67  90
ATOM     90  C   UNL A   1      47.737  26.850  31.441  1.00  0.00     0.064 A 
ATOM     91  C   UNL A   1      48.012  25.995  32.517  1.00  0.00     0.173 A 
ATOM     92  C   UNL A   1      48.814  27.285  30.654  1.00  0.00     0.173 A 
ATOM     93  F   UNL A   1      47.018  25.567  33.310  1.00  0.00    -0.203 F 
ATOM     94  C   UNL A   1      49.318  25.602  32.803  1.00  0.00     0.198 A 
ATOM     95  C   UNL A   1      50.114  26.867  30.925  1.00  0.00     0.198 A 
ATOM     96  F   UNL A   1      48.602  28.100  29.610  1.00  0.00    -0.203 F 
ATOM     97  F   UNL A   1      49.562  24.815  33.860  1.00  0.00    -0.200 F 
ATOM     98  C   UNL A   1      50.365  26.031  32.002  1.00  0.00     0.200 A 
ATOM     99  F   UNL A   1      51.123  27.274  30.142  1.00  0.00    -0.200 F 
ATOM    100  F   UNL A   1      51.619  25.642  32.271  1.00  0.00    -0.200 F 
ENDBRANCH  67  90
ENDBRANCH  41  42
ENDBRANCH  33  36
ENDBRANCH  31  32
ENDBRANCH  30  31
ENDBRANCH   1  30
TORSDOF 14
ENDMDL
