MODEL 1
REMARK VINA RESULT:     -11.2      0.000      0.000
REMARK SMILES CC(C)CN(C)S(=O)(=O)c1ccc(C(=O)NCCCNC(=O)c2ccc(-c3c4nc(c(-c5c(F)c(F)c(F)c(F)c5F)c5ccc([nH]5)c(-c5c(F)c(F)c(F)c(F)c5F)c5nc(c(-c6c(F)c(F)c(F)c(F)c6F)c6ccc3[nH]6)C=C5)C=C4)cc2)cc1
REMARK SMILES IDX 17 1 16 2 14 3 15 4 13 6 10 7 11 8 87 9 12 10 86 11 7 12
REMARK SMILES IDX 8 13 9 14 5 15 6 16 4 17 2 18 1 19 3 20 18 21 19 22 20 23
REMARK SMILES IDX 21 24 22 26 23 27 24 28 85 29 25 30 84 31 26 32 27 33 28 34
REMARK SMILES IDX 78 35 29 36 83 37 77 38 79 39 30 40 82 41 76 42 75 43 31 45
REMARK SMILES IDX 63 46 43 47 62 48 44 49 47 50 61 51 80 52 45 53 46 54 60 56
REMARK SMILES IDX 81 57 48 58 32 59 33 60 41 61 34 62 35 63 39 64 42 65 36 66
REMARK SMILES IDX 37 67 40 68 38 69 64 70 65 71 73 72 66 73 67 74 71 75 74 76
REMARK SMILES IDX 68 77 69 78 72 79 70 80 49 81 50 82 58 83 51 84 52 85 56 86
REMARK SMILES IDX 59 87 53 88 54 89 57 90 55 91
REMARK H PARENT 16 5 20 25 79 44 47 55
REMARK Flexibility Score: inf
ROOT
ATOM      1  C   UNL A   1      37.356  20.969  24.686  1.00  0.00     0.118 C 
ENDROOT
BRANCH   1   2
ATOM      2  N   UNL A   1      37.913  22.243  25.110  1.00  0.00    -0.352 N 
ATOM      3  C   UNL A   1      37.325  23.370  25.636  1.00  0.00     0.251 C 
ATOM      4  O   UNL A   1      38.062  24.255  26.068  1.00  0.00    -0.269 OA
ATOM      5  H   UNL A   1      38.889  22.312  25.002  1.00  0.00     0.163 HD
BRANCH   3   6
ATOM      6  C   UNL A   1      35.847  23.554  25.726  1.00  0.00     0.039 A 
ATOM      7  C   UNL A   1      33.063  23.940  25.776  1.00  0.00     0.082 A 
ATOM      8  C   UNL A   1      33.792  24.353  24.662  1.00  0.00     0.022 A 
ATOM      9  C   UNL A   1      33.706  23.283  26.828  1.00  0.00     0.022 A 
ATOM     10  C   UNL A   1      35.186  24.177  24.652  1.00  0.00     0.015 A 
ATOM     11  C   UNL A   1      35.081  23.067  26.785  1.00  0.00     0.015 A 
BRANCH   7  12
ATOM     12  S   UNL A   1      31.312  24.148  25.969  1.00  0.00     0.242 S 
ATOM     13  O   UNL A   1      30.976  23.622  27.278  1.00  0.00    -0.207 OA
ATOM     14  O   UNL A   1      30.728  23.580  24.776  1.00  0.00    -0.207 OA
BRANCH  12  15
ATOM     15  N   UNL A   1      30.971  25.838  26.012  1.00  0.00    -0.201 NA
ATOM     16  C   UNL A   1      31.006  26.469  24.654  1.00  0.00     0.124 C 
BRANCH  15  17
ATOM     17  C   UNL A   1      31.923  26.586  26.921  1.00  0.00     0.105 C 
BRANCH  17  18
ATOM     18  C   UNL A   1      32.451  27.898  26.312  1.00  0.00    -0.002 C 
ATOM     19  C   UNL A   1      32.018  29.143  27.088  1.00  0.00     0.009 C 
ATOM     20  C   UNL A   1      33.986  27.852  26.290  1.00  0.00     0.009 C 
ENDBRANCH  17  18
ENDBRANCH  15  17
ENDBRANCH  12  15
ENDBRANCH   7  12
ENDBRANCH   3   6
ENDBRANCH   1   2
BRANCH   1  21
ATOM     21  C   UNL A   1      38.341  19.815  24.879  1.00  0.00     0.042 C 
BRANCH  21  22
ATOM     22  C   UNL A   1      39.293  19.993  26.054  1.00  0.00     0.118 C 
BRANCH  22  23
ATOM     23  N   UNL A   1      40.472  19.150  25.942  1.00  0.00    -0.352 N 
ATOM     24  C   UNL A   1      41.803  19.483  25.988  1.00  0.00     0.251 C 
ATOM     25  H   UNL A   1      40.287  18.192  25.812  1.00  0.00     0.163 HD
ATOM     26  O   UNL A   1      42.641  18.637  25.685  1.00  0.00    -0.269 OA
BRANCH  24  27
ATOM     27  C   UNL A   1      42.248  20.839  26.385  1.00  0.00     0.039 A 
ATOM     28  C   UNL A   1      42.244  21.166  27.747  1.00  0.00     0.014 A 
ATOM     29  C   UNL A   1      42.598  21.809  25.441  1.00  0.00     0.014 A 
ATOM     30  C   UNL A   1      42.620  22.447  28.161  1.00  0.00     0.010 A 
ATOM     31  C   UNL A   1      43.032  23.068  25.859  1.00  0.00     0.010 A 
ATOM     32  C   UNL A   1      43.031  23.404  27.221  1.00  0.00    -0.014 A 
BRANCH  32  33
ATOM     33  C   UNL A   1      43.434  24.766  27.649  1.00  0.00     0.031 A 
ATOM     34  C   UNL A   1      42.392  25.791  27.994  1.00  0.00     0.074 A 
ATOM     35  C   UNL A   1      44.739  25.094  27.689  1.00  0.00     0.049 A 
ATOM     36  N   UNL A   1      42.545  27.038  28.364  1.00  0.00    -0.248 NA
ATOM     37  C   UNL A   1      40.988  25.365  27.888  1.00  0.00     0.031 C 
ATOM     38  C   UNL A   1      45.845  24.200  27.343  1.00  0.00     0.029 A 
ATOM     39  N   UNL A   1      45.354  26.269  28.039  1.00  0.00    -0.354 N 
ATOM     40  C   UNL A   1      41.263  27.548  28.513  1.00  0.00     0.074 A 
ATOM     41  C   UNL A   1      40.342  26.489  28.159  1.00  0.00     0.031 C 
ATOM     42  C   UNL A   1      47.006  24.850  27.525  1.00  0.00     0.029 A 
ATOM     43  C   UNL A   1      46.724  26.210  27.976  1.00  0.00     0.049 A 
ATOM     44  H   UNL A   1      44.861  27.076  28.309  1.00  0.00     0.167 HD
ATOM     45  C   UNL A   1      40.886  28.782  28.926  1.00  0.00     0.037 A 
ATOM     46  C   UNL A   1      47.649  27.148  28.257  1.00  0.00     0.037 A 
ATOM     47  C   UNL A   1      41.800  29.824  29.315  1.00  0.00     0.049 A 
ATOM     48  C   UNL A   1      47.207  28.505  28.725  1.00  0.00     0.074 A 
ATOM     49  C   UNL A   1      41.516  31.080  29.822  1.00  0.00     0.029 A 
ATOM     50  N   UNL A   1      43.182  29.728  29.237  1.00  0.00    -0.354 N 
ATOM     51  N   UNL A   1      45.993  28.956  28.923  1.00  0.00    -0.248 NA
ATOM     52  C   UNL A   1      48.267  29.482  29.010  1.00  0.00     0.031 C 
ATOM     53  C   UNL A   1      42.726  31.756  30.021  1.00  0.00     0.029 A 
ATOM     54  C   UNL A   1      43.763  30.909  29.668  1.00  0.00     0.049 A 
ATOM     55  H   UNL A   1      43.675  28.937  28.921  1.00  0.00     0.167 HD
ATOM     56  C   UNL A   1      46.140  30.260  29.375  1.00  0.00     0.074 A 
ATOM     57  C   UNL A   1      47.564  30.525  29.432  1.00  0.00     0.031 C 
ATOM     58  C   UNL A   1      45.182  31.156  29.715  1.00  0.00     0.037 A 
BRANCH  45  59
ATOM     59  C   UNL A   1      39.414  29.070  28.974  1.00  0.00     0.064 A 
ATOM     60  C   UNL A   1      38.707  29.476  27.832  1.00  0.00     0.173 A 
ATOM     61  C   UNL A   1      38.702  28.931  30.174  1.00  0.00     0.173 A 
ATOM     62  F   UNL A   1      39.347  29.636  26.664  1.00  0.00    -0.203 F 
ATOM     63  C   UNL A   1      37.347  29.765  27.898  1.00  0.00     0.198 A 
ATOM     64  C   UNL A   1      37.337  29.197  30.231  1.00  0.00     0.198 A 
ATOM     65  F   UNL A   1      39.331  28.542  31.294  1.00  0.00    -0.203 F 
ATOM     66  F   UNL A   1      36.703  30.201  26.806  1.00  0.00    -0.200 F 
ATOM     67  C   UNL A   1      36.662  29.622  29.095  1.00  0.00     0.200 A 
ATOM     68  F   UNL A   1      36.674  29.052  31.387  1.00  0.00    -0.200 F 
ATOM     69  F   UNL A   1      35.354  29.905  29.158  1.00  0.00    -0.200 F 
ENDBRANCH  45  59
BRANCH  46  70
ATOM     70  C   UNL A   1      49.089  26.809  28.151  1.00  0.00     0.064 A 
ATOM     71  C   UNL A   1      49.751  26.897  26.920  1.00  0.00     0.173 A 
ATOM     72  C   UNL A   1      49.834  26.422  29.273  1.00  0.00     0.173 A 
ATOM     73  F   UNL A   1      49.071  27.245  25.818  1.00  0.00    -0.203 F 
ATOM     74  C   UNL A   1      51.109  26.604  26.813  1.00  0.00     0.198 A 
ATOM     75  C   UNL A   1      51.196  26.147  29.168  1.00  0.00     0.198 A 
ATOM     76  F   UNL A   1      49.243  26.327  30.473  1.00  0.00    -0.203 F 
ATOM     77  F   UNL A   1      51.714  26.672  25.619  1.00  0.00    -0.200 F 
ATOM     78  C   UNL A   1      51.832  26.235  27.937  1.00  0.00     0.200 A 
ATOM     79  F   UNL A   1      51.894  25.800  30.257  1.00  0.00    -0.200 F 
ATOM     80  F   UNL A   1      53.139  25.963  27.835  1.00  0.00    -0.200 F 
ENDBRANCH  46  70
BRANCH  58  81
ATOM     81  C   UNL A   1      45.644  32.499  30.194  1.00  0.00     0.064 A 
ATOM     82  C   UNL A   1      45.915  32.737  31.549  1.00  0.00     0.173 A 
ATOM     83  C   UNL A   1      45.843  33.548  29.285  1.00  0.00     0.173 A 
ATOM     84  F   UNL A   1      45.722  31.767  32.456  1.00  0.00    -0.203 F 
ATOM     85  C   UNL A   1      46.348  33.987  31.981  1.00  0.00     0.198 A 
ATOM     86  C   UNL A   1      46.298  34.791  29.717  1.00  0.00     0.198 A 
ATOM     87  F   UNL A   1      45.600  33.367  27.979  1.00  0.00    -0.203 F 
ATOM     88  F   UNL A   1      46.563  34.206  33.285  1.00  0.00    -0.200 F 
ATOM     89  C   UNL A   1      46.545  35.011  31.064  1.00  0.00     0.200 A 
ATOM     90  F   UNL A   1      46.492  35.777  28.832  1.00  0.00    -0.200 F 
ATOM     91  F   UNL A   1      46.962  36.214  31.482  1.00  0.00    -0.200 F 
ENDBRANCH  58  81
ENDBRANCH  32  33
ENDBRANCH  24  27
ENDBRANCH  22  23
ENDBRANCH  21  22
ENDBRANCH   1  21
TORSDOF 14
ENDMDL
MODEL 2
REMARK VINA RESULT:     -11.2      5.231     10.336
REMARK SMILES CC(C)CN(C)S(=O)(=O)c1ccc(C(=O)NCCCNC(=O)c2ccc(-c3c4nc(c(-c5c(F)c(F)c(F)c(F)c5F)c5ccc([nH]5)c(-c5c(F)c(F)c(F)c(F)c5F)c5nc(c(-c6c(F)c(F)c(F)c(F)c6F)c6ccc3[nH]6)C=C5)C=C4)cc2)cc1
REMARK SMILES IDX 17 1 16 2 14 3 15 4 13 6 10 7 11 8 87 9 12 10 86 11 7 12
REMARK SMILES IDX 8 13 9 14 5 15 6 16 4 17 2 18 1 19 3 20 18 21 19 22 20 23
REMARK SMILES IDX 21 24 22 26 23 27 24 28 85 29 25 30 84 31 26 32 27 33 28 34
REMARK SMILES IDX 78 35 29 36 83 37 77 38 79 39 30 40 82 41 76 42 75 43 31 45
REMARK SMILES IDX 63 46 43 47 62 48 44 49 47 50 61 51 80 52 45 53 46 54 60 56
REMARK SMILES IDX 81 57 48 58 32 59 33 60 41 61 34 62 35 63 39 64 42 65 36 66
REMARK SMILES IDX 37 67 40 68 38 69 64 70 65 71 73 72 66 73 67 74 71 75 74 76
REMARK SMILES IDX 68 77 69 78 72 79 70 80 49 81 50 82 58 83 51 84 52 85 56 86
REMARK SMILES IDX 59 87 53 88 54 89 57 90 55 91
REMARK H PARENT 16 5 20 25 79 44 47 55
REMARK Flexibility Score: inf
ROOT
ATOM      1  C   UNL A   1      31.723  30.549  26.823  1.00  0.00     0.118 C 
ENDROOT
BRANCH   1   2
ATOM      2  N   UNL A   1      32.998  30.170  27.410  1.00  0.00    -0.352 N 
ATOM      3  C   UNL A   1      33.942  29.245  27.031  1.00  0.00     0.251 C 
ATOM      4  O   UNL A   1      35.021  29.247  27.624  1.00  0.00    -0.269 OA
ATOM      5  H   UNL A   1      33.228  30.667  28.228  1.00  0.00     0.163 HD
BRANCH   3   6
ATOM      6  C   UNL A   1      33.728  28.263  25.928  1.00  0.00     0.039 A 
ATOM      7  C   UNL A   1      33.271  26.336  23.934  1.00  0.00     0.082 A 
ATOM      8  C   UNL A   1      33.026  26.014  25.267  1.00  0.00     0.022 A 
ATOM      9  C   UNL A   1      33.678  27.627  23.591  1.00  0.00     0.022 A 
ATOM     10  C   UNL A   1      33.276  26.973  26.262  1.00  0.00     0.015 A 
ATOM     11  C   UNL A   1      33.874  28.588  24.580  1.00  0.00     0.015 A 
BRANCH   7  12
ATOM     12  S   UNL A   1      33.066  25.218  22.571  1.00  0.00     0.242 S 
ATOM     13  O   UNL A   1      33.599  25.890  21.403  1.00  0.00    -0.207 OA
ATOM     14  O   UNL A   1      31.680  24.811  22.619  1.00  0.00    -0.207 OA
BRANCH  12  15
ATOM     15  N   UNL A   1      34.066  23.840  22.849  1.00  0.00    -0.201 NA
ATOM     16  C   UNL A   1      33.353  22.747  23.583  1.00  0.00     0.124 C 
BRANCH  15  17
ATOM     17  C   UNL A   1      35.325  24.197  23.612  1.00  0.00     0.105 C 
BRANCH  17  18
ATOM     18  C   UNL A   1      35.797  23.089  24.570  1.00  0.00    -0.002 C 
ATOM     19  C   UNL A   1      36.893  22.201  23.976  1.00  0.00     0.009 C 
ATOM     20  C   UNL A   1      36.344  23.740  25.849  1.00  0.00     0.009 C 
ENDBRANCH  17  18
ENDBRANCH  15  17
ENDBRANCH  12  15
ENDBRANCH   7  12
ENDBRANCH   3   6
ENDBRANCH   1   2
BRANCH   1  21
ATOM     21  C   UNL A   1      31.494  32.061  26.865  1.00  0.00     0.042 C 
BRANCH  21  22
ATOM     22  C   UNL A   1      32.770  32.886  26.968  1.00  0.00     0.118 C 
BRANCH  22  23
ATOM     23  N   UNL A   1      32.536  34.192  27.561  1.00  0.00    -0.352 N 
ATOM     24  C   UNL A   1      33.077  34.761  28.687  1.00  0.00     0.251 C 
ATOM     25  H   UNL A   1      31.888  34.757  27.080  1.00  0.00     0.163 HD
ATOM     26  O   UNL A   1      32.600  35.809  29.115  1.00  0.00    -0.269 OA
BRANCH  24  27
ATOM     27  C   UNL A   1      34.214  34.133  29.401  1.00  0.00     0.039 A 
ATOM     28  C   UNL A   1      35.514  34.465  28.998  1.00  0.00     0.014 A 
ATOM     29  C   UNL A   1      34.023  33.178  30.403  1.00  0.00     0.014 A 
ATOM     30  C   UNL A   1      36.613  33.867  29.618  1.00  0.00     0.010 A 
ATOM     31  C   UNL A   1      35.122  32.627  31.064  1.00  0.00     0.010 A 
ATOM     32  C   UNL A   1      36.427  32.954  30.667  1.00  0.00    -0.014 A 
BRANCH  32  33
ATOM     33  C   UNL A   1      37.587  32.314  31.335  1.00  0.00     0.031 A 
ATOM     34  C   UNL A   1      38.329  31.197  30.658  1.00  0.00     0.074 A 
ATOM     35  C   UNL A   1      37.949  32.712  32.568  1.00  0.00     0.049 A 
ATOM     36  N   UNL A   1      39.349  30.498  31.089  1.00  0.00    -0.248 NA
ATOM     37  C   UNL A   1      37.846  30.796  29.327  1.00  0.00     0.031 C 
ATOM     38  C   UNL A   1      37.287  33.760  33.346  1.00  0.00     0.029 A 
ATOM     39  N   UNL A   1      38.964  32.279  33.384  1.00  0.00    -0.354 N 
ATOM     40  C   UNL A   1      39.614  29.565  30.096  1.00  0.00     0.074 A 
ATOM     41  C   UNL A   1      38.627  29.761  29.056  1.00  0.00     0.031 C 
ATOM     42  C   UNL A   1      37.930  33.910  34.515  1.00  0.00     0.029 A 
ATOM     43  C   UNL A   1      39.032  32.953  34.578  1.00  0.00     0.049 A 
ATOM     44  H   UNL A   1      39.583  31.556  33.137  1.00  0.00     0.167 HD
ATOM     45  C   UNL A   1      40.604  28.641  30.046  1.00  0.00     0.037 A 
ATOM     46  C   UNL A   1      39.891  32.817  35.605  1.00  0.00     0.037 A 
ATOM     47  C   UNL A   1      41.609  28.470  31.062  1.00  0.00     0.049 A 
ATOM     48  C   UNL A   1      40.987  31.793  35.522  1.00  0.00     0.074 A 
ATOM     49  C   UNL A   1      42.698  27.616  31.067  1.00  0.00     0.029 A 
ATOM     50  N   UNL A   1      41.645  29.170  32.259  1.00  0.00    -0.354 N 
ATOM     51  N   UNL A   1      41.268  30.960  34.551  1.00  0.00    -0.248 NA
ATOM     52  C   UNL A   1      41.888  31.695  36.680  1.00  0.00     0.031 C 
ATOM     53  C   UNL A   1      43.375  27.778  32.282  1.00  0.00     0.029 A 
ATOM     54  C   UNL A   1      42.726  28.754  33.019  1.00  0.00     0.049 A 
ATOM     55  H   UNL A   1      40.997  29.861  32.528  1.00  0.00     0.167 HD
ATOM     56  C   UNL A   1      42.387  30.252  34.967  1.00  0.00     0.074 A 
ATOM     57  C   UNL A   1      42.740  30.762  36.277  1.00  0.00     0.031 C 
ATOM     58  C   UNL A   1      43.061  29.270  34.321  1.00  0.00     0.037 A 
BRANCH  45  59
ATOM     59  C   UNL A   1      40.641  27.740  28.847  1.00  0.00     0.064 A 
ATOM     60  C   UNL A   1      41.440  28.032  27.732  1.00  0.00     0.173 A 
ATOM     61  C   UNL A   1      39.873  26.566  28.816  1.00  0.00     0.173 A 
ATOM     62  F   UNL A   1      42.182  29.150  27.709  1.00  0.00    -0.203 F 
ATOM     63  C   UNL A   1      41.443  27.201  26.616  1.00  0.00     0.198 A 
ATOM     64  C   UNL A   1      39.898  25.724  27.709  1.00  0.00     0.198 A 
ATOM     65  F   UNL A   1      39.095  26.239  29.859  1.00  0.00    -0.203 F 
ATOM     66  F   UNL A   1      42.175  27.527  25.541  1.00  0.00    -0.200 F 
ATOM     67  C   UNL A   1      40.676  26.046  26.606  1.00  0.00     0.200 A 
ATOM     68  F   UNL A   1      39.161  24.604  27.702  1.00  0.00    -0.200 F 
ATOM     69  F   UNL A   1      40.677  25.249  25.529  1.00  0.00    -0.200 F 
ENDBRANCH  45  59
BRANCH  46  70
ATOM     70  C   UNL A   1      39.775  33.716  36.780  1.00  0.00     0.064 A 
ATOM     71  C   UNL A   1      40.467  34.933  36.814  1.00  0.00     0.173 A 
ATOM     72  C   UNL A   1      38.956  33.393  37.870  1.00  0.00     0.173 A 
ATOM     73  F   UNL A   1      41.277  35.271  35.800  1.00  0.00    -0.203 F 
ATOM     74  C   UNL A   1      40.348  35.796  37.901  1.00  0.00     0.198 A 
ATOM     75  C   UNL A   1      38.824  34.265  38.949  1.00  0.00     0.198 A 
ATOM     76  F   UNL A   1      38.273  32.240  37.880  1.00  0.00    -0.203 F 
ATOM     77  F   UNL A   1      41.039  36.944  37.921  1.00  0.00    -0.200 F 
ATOM     78  C   UNL A   1      39.522  35.465  38.965  1.00  0.00     0.200 A 
ATOM     79  F   UNL A   1      38.018  33.947  39.971  1.00  0.00    -0.200 F 
ATOM     80  F   UNL A   1      39.401  36.299  40.006  1.00  0.00    -0.200 F 
ENDBRANCH  46  70
BRANCH  58  81
ATOM     81  C   UNL A   1      44.259  28.697  35.016  1.00  0.00     0.064 A 
ATOM     82  C   UNL A   1      44.148  27.591  35.871  1.00  0.00     0.173 A 
ATOM     83  C   UNL A   1      45.533  29.243  34.803  1.00  0.00     0.173 A 
ATOM     84  F   UNL A   1      42.946  27.048  36.118  1.00  0.00    -0.203 F 
ATOM     85  C   UNL A   1      45.268  27.065  36.507  1.00  0.00     0.198 A 
ATOM     86  C   UNL A   1      46.655  28.701  35.424  1.00  0.00     0.198 A 
ATOM     87  F   UNL A   1      45.690  30.299  33.992  1.00  0.00    -0.203 F 
ATOM     88  F   UNL A   1      45.135  26.034  37.352  1.00  0.00    -0.200 F 
ATOM     89  C   UNL A   1      46.521  27.617  36.278  1.00  0.00     0.200 A 
ATOM     90  F   UNL A   1      47.865  29.230  35.198  1.00  0.00    -0.200 F 
ATOM     91  F   UNL A   1      47.600  27.108  36.892  1.00  0.00    -0.200 F 
ENDBRANCH  58  81
ENDBRANCH  32  33
ENDBRANCH  24  27
ENDBRANCH  22  23
ENDBRANCH  21  22
ENDBRANCH   1  21
TORSDOF 14
ENDMDL
MODEL 3
REMARK VINA RESULT:     -11.1      5.163      9.509
REMARK SMILES CC(C)CN(C)S(=O)(=O)c1ccc(C(=O)NCCCNC(=O)c2ccc(-c3c4nc(c(-c5c(F)c(F)c(F)c(F)c5F)c5ccc([nH]5)c(-c5c(F)c(F)c(F)c(F)c5F)c5nc(c(-c6c(F)c(F)c(F)c(F)c6F)c6ccc3[nH]6)C=C5)C=C4)cc2)cc1
REMARK SMILES IDX 17 1 16 2 14 3 15 4 13 6 10 7 11 8 87 9 12 10 86 11 7 12
REMARK SMILES IDX 8 13 9 14 5 15 6 16 4 17 2 18 1 19 3 20 18 21 19 22 20 23
REMARK SMILES IDX 21 24 22 26 23 27 24 28 85 29 25 30 84 31 26 32 27 33 28 34
REMARK SMILES IDX 78 35 29 36 83 37 77 38 79 39 30 40 82 41 76 42 75 43 31 45
REMARK SMILES IDX 63 46 43 47 62 48 44 49 47 50 61 51 80 52 45 53 46 54 60 56
REMARK SMILES IDX 81 57 48 58 32 59 33 60 41 61 34 62 35 63 39 64 42 65 36 66
REMARK SMILES IDX 37 67 40 68 38 69 64 70 65 71 73 72 66 73 67 74 71 75 74 76
REMARK SMILES IDX 68 77 69 78 72 79 70 80 49 81 50 82 58 83 51 84 52 85 56 86
REMARK SMILES IDX 59 87 53 88 54 89 57 90 55 91
REMARK H PARENT 16 5 20 25 79 44 47 55
REMARK Flexibility Score: inf
ROOT
ATOM      1  C   UNL A   1      31.763  30.566  26.881  1.00  0.00     0.118 C 
ENDROOT
BRANCH   1   2
ATOM      2  N   UNL A   1      33.066  30.235  27.435  1.00  0.00    -0.352 N 
ATOM      3  C   UNL A   1      34.008  29.303  27.066  1.00  0.00     0.251 C 
ATOM      4  O   UNL A   1      35.109  29.350  27.615  1.00  0.00    -0.269 OA
ATOM      5  H   UNL A   1      33.321  30.776  28.216  1.00  0.00     0.163 HD
BRANCH   3   6
ATOM      6  C   UNL A   1      33.765  28.262  26.025  1.00  0.00     0.039 A 
ATOM      7  C   UNL A   1      33.251  26.231  24.152  1.00  0.00     0.082 A 
ATOM      8  C   UNL A   1      32.988  26.001  25.501  1.00  0.00     0.022 A 
ATOM      9  C   UNL A   1      33.704  27.484  23.732  1.00  0.00     0.022 A 
ATOM     10  C   UNL A   1      33.267  27.012  26.436  1.00  0.00     0.015 A 
ATOM     11  C   UNL A   1      33.929  28.497  24.660  1.00  0.00     0.015 A 
BRANCH   7  12
ATOM     12  S   UNL A   1      33.013  25.038  22.860  1.00  0.00     0.242 S 
ATOM     13  O   UNL A   1      33.912  25.410  21.785  1.00  0.00    -0.207 OA
ATOM     14  O   UNL A   1      31.585  24.992  22.643  1.00  0.00    -0.207 OA
BRANCH  12  15
ATOM     15  N   UNL A   1      33.544  23.503  23.440  1.00  0.00    -0.201 NA
ATOM     16  C   UNL A   1      35.011  23.283  23.234  1.00  0.00     0.124 C 
BRANCH  15  17
ATOM     17  C   UNL A   1      32.786  22.360  22.797  1.00  0.00     0.105 C 
BRANCH  17  18
ATOM     18  C   UNL A   1      32.138  21.403  23.814  1.00  0.00    -0.002 C 
ATOM     19  C   UNL A   1      33.045  20.236  24.209  1.00  0.00     0.009 C 
ATOM     20  C   UNL A   1      31.786  22.192  25.083  1.00  0.00     0.009 C 
ENDBRANCH  17  18
ENDBRANCH  15  17
ENDBRANCH  12  15
ENDBRANCH   7  12
ENDBRANCH   3   6
ENDBRANCH   1   2
BRANCH   1  21
ATOM     21  C   UNL A   1      31.507  32.074  26.868  1.00  0.00     0.042 C 
BRANCH  21  22
ATOM     22  C   UNL A   1      32.770  32.925  26.925  1.00  0.00     0.118 C 
BRANCH  22  23
ATOM     23  N   UNL A   1      32.556  34.182  27.622  1.00  0.00    -0.352 N 
ATOM     24  C   UNL A   1      33.131  34.662  28.773  1.00  0.00     0.251 C 
ATOM     25  H   UNL A   1      31.897  34.782  27.205  1.00  0.00     0.163 HD
ATOM     26  O   UNL A   1      32.670  35.675  29.293  1.00  0.00    -0.269 OA
BRANCH  24  27
ATOM     27  C   UNL A   1      34.287  33.981  29.404  1.00  0.00     0.039 A 
ATOM     28  C   UNL A   1      35.576  34.365  29.015  1.00  0.00     0.014 A 
ATOM     29  C   UNL A   1      34.121  32.930  30.310  1.00  0.00     0.014 A 
ATOM     30  C   UNL A   1      36.691  33.722  29.556  1.00  0.00     0.010 A 
ATOM     31  C   UNL A   1      35.237  32.329  30.896  1.00  0.00     0.010 A 
ATOM     32  C   UNL A   1      36.531  32.709  30.512  1.00  0.00    -0.014 A 
BRANCH  32  33
ATOM     33  C   UNL A   1      37.709  32.020  31.096  1.00  0.00     0.031 A 
ATOM     34  C   UNL A   1      38.173  32.358  32.484  1.00  0.00     0.074 A 
ATOM     35  C   UNL A   1      38.386  31.119  30.361  1.00  0.00     0.049 A 
ATOM     36  N   UNL A   1      39.192  31.885  33.157  1.00  0.00    -0.248 NA
ATOM     37  C   UNL A   1      37.401  33.381  33.206  1.00  0.00     0.031 C 
ATOM     38  C   UNL A   1      38.059  30.732  28.989  1.00  0.00     0.029 A 
ATOM     39  N   UNL A   1      39.492  30.366  30.668  1.00  0.00    -0.354 N 
ATOM     40  C   UNL A   1      39.195  32.565  34.366  1.00  0.00     0.074 A 
ATOM     41  C   UNL A   1      38.100  33.510  34.324  1.00  0.00     0.031 C 
ATOM     42  C   UNL A   1      38.927  29.791  28.581  1.00  0.00     0.029 A 
ATOM     43  C   UNL A   1      39.884  29.530  29.653  1.00  0.00     0.049 A 
ATOM     44  H   UNL A   1      39.959  30.421  31.532  1.00  0.00     0.167 HD
ATOM     45  C   UNL A   1      40.025  32.403  35.425  1.00  0.00     0.037 A 
ATOM     46  C   UNL A   1      40.899  28.647  29.596  1.00  0.00     0.037 A 
ATOM     47  C   UNL A   1      41.091  31.437  35.484  1.00  0.00     0.049 A 
ATOM     48  C   UNL A   1      41.798  28.477  30.787  1.00  0.00     0.074 A 
ATOM     49  C   UNL A   1      41.935  31.142  36.540  1.00  0.00     0.029 A 
ATOM     50  N   UNL A   1      41.459  30.607  34.435  1.00  0.00    -0.354 N 
ATOM     51  N   UNL A   1      41.753  29.080  31.950  1.00  0.00    -0.248 NA
ATOM     52  C   UNL A   1      42.888  27.499  30.657  1.00  0.00     0.031 C 
ATOM     53  C   UNL A   1      42.835  30.156  36.119  1.00  0.00     0.029 A 
ATOM     54  C   UNL A   1      42.530  29.815  34.812  1.00  0.00     0.049 A 
ATOM     55  H   UNL A   1      41.022  30.586  33.553  1.00  0.00     0.167 HD
ATOM     56  C   UNL A   1      42.792  28.543  32.697  1.00  0.00     0.074 A 
ATOM     57  C   UNL A   1      43.444  27.558  31.860  1.00  0.00     0.031 C 
ATOM     58  C   UNL A   1      43.169  28.840  33.965  1.00  0.00     0.037 A 
BRANCH  45  59
ATOM     59  C   UNL A   1      39.809  33.299  36.609  1.00  0.00     0.064 A 
ATOM     60  C   UNL A   1      38.901  32.968  37.626  1.00  0.00     0.173 A 
ATOM     61  C   UNL A   1      40.523  34.500  36.731  1.00  0.00     0.173 A 
ATOM     62  F   UNL A   1      38.184  31.836  37.547  1.00  0.00    -0.203 F 
ATOM     63  C   UNL A   1      38.691  33.822  38.704  1.00  0.00     0.198 A 
ATOM     64  C   UNL A   1      40.329  35.340  37.824  1.00  0.00     0.198 A 
ATOM     65  F   UNL A   1      41.406  34.861  35.788  1.00  0.00    -0.203 F 
ATOM     66  F   UNL A   1      37.781  33.509  39.638  1.00  0.00    -0.200 F 
ATOM     67  C   UNL A   1      39.407  35.005  38.805  1.00  0.00     0.200 A 
ATOM     68  F   UNL A   1      41.026  36.480  37.924  1.00  0.00    -0.200 F 
ATOM     69  F   UNL A   1      39.201  35.828  39.841  1.00  0.00    -0.200 F 
ENDBRANCH  45  59
BRANCH  46  70
ATOM     70  C   UNL A   1      41.080  27.819  28.379  1.00  0.00     0.064 A 
ATOM     71  C   UNL A   1      41.925  28.247  27.347  1.00  0.00     0.173 A 
ATOM     72  C   UNL A   1      40.441  26.580  28.235  1.00  0.00     0.173 A 
ATOM     73  F   UNL A   1      42.541  29.435  27.436  1.00  0.00    -0.203 F 
ATOM     74  C   UNL A   1      42.122  27.467  26.210  1.00  0.00     0.198 A 
ATOM     75  C   UNL A   1      40.654  25.792  27.105  1.00  0.00     0.198 A 
ATOM     76  F   UNL A   1      39.626  26.127  29.198  1.00  0.00    -0.203 F 
ATOM     77  F   UNL A   1      42.917  27.910  25.226  1.00  0.00    -0.200 F 
ATOM     78  C   UNL A   1      41.491  26.238  26.092  1.00  0.00     0.200 A 
ATOM     79  F   UNL A   1      40.050  24.601  26.998  1.00  0.00    -0.200 F 
ATOM     80  F   UNL A   1      41.689  25.484  25.002  1.00  0.00    -0.200 F 
ENDBRANCH  46  70
BRANCH  58  81
ATOM     81  C   UNL A   1      44.330  28.076  34.526  1.00  0.00     0.064 A 
ATOM     82  C   UNL A   1      45.640  28.567  34.434  1.00  0.00     0.173 A 
ATOM     83  C   UNL A   1      44.125  26.854  35.183  1.00  0.00     0.173 A 
ATOM     84  F   UNL A   1      45.885  29.723  33.799  1.00  0.00    -0.203 F 
ATOM     85  C   UNL A   1      46.709  27.850  34.964  1.00  0.00     0.198 A 
ATOM     86  C   UNL A   1      45.195  26.150  35.730  1.00  0.00     0.198 A 
ATOM     87  F   UNL A   1      42.890  26.346  35.297  1.00  0.00    -0.203 F 
ATOM     88  F   UNL A   1      47.958  28.316  34.831  1.00  0.00    -0.200 F 
ATOM     89  C   UNL A   1      46.485  26.645  35.616  1.00  0.00     0.200 A 
ATOM     90  F   UNL A   1      44.976  24.990  36.364  1.00  0.00    -0.200 F 
ATOM     91  F   UNL A   1      47.516  25.956  36.125  1.00  0.00    -0.200 F 
ENDBRANCH  58  81
ENDBRANCH  32  33
ENDBRANCH  24  27
ENDBRANCH  22  23
ENDBRANCH  21  22
ENDBRANCH   1  21
TORSDOF 14
ENDMDL
