MODEL 1
REMARK VINA RESULT:     -12.8      0.000      0.000
REMARK SMILES C[C@](NC(=O)c1c(F)cccc1F)(C(=O)NCCCNC(=O)c1ccc(-c2c3nc(c(-c4c(F)c(F)c(F)c(F)c4F)c4ccc([nH]4)c(-c4c(F)c(F)c(F)c(F)c4F)c4nc(c(-c5c(F)c(F)c(F)c(F)c5F)c5ccc2[nH]5)C=C4)C=C3)cc1)C(F)(F)F
REMARK SMILES IDX 18 1 17 2 16 3 14 4 15 5 2 7 1 8 86 9 87 10 88 11 89 12 3 13
REMARK SMILES IDX 4 14 5 16 6 17 7 18 12 19 8 20 9 21 11 22 13 23 10 24 19 25
REMARK SMILES IDX 20 26 21 27 22 29 23 30 24 31 85 32 25 33 84 34 26 35 27 36
REMARK SMILES IDX 28 37 78 38 29 39 83 40 77 41 79 42 30 43 82 44 76 45 75 46
REMARK SMILES IDX 31 48 63 49 43 50 62 51 44 52 47 53 61 54 80 55 45 56 46 57
REMARK SMILES IDX 60 59 81 60 48 61 32 62 33 63 41 64 34 65 35 66 39 67 42 68
REMARK SMILES IDX 36 69 37 70 40 71 38 72 64 73 65 74 73 75 66 76 67 77 71 78
REMARK SMILES IDX 74 79 68 80 69 81 72 82 70 83 49 84 50 85 58 86 51 87 52 88
REMARK SMILES IDX 56 89 59 90 53 91 54 92 57 93 55 94
REMARK H PARENT 16 6 3 15 20 28 79 47 47 58
REMARK Flexibility Score: inf
ROOT
ATOM      1  C   UNL A   1      31.301  32.184  26.627  1.00  0.00     0.042 C 
ENDROOT
BRANCH   1   2
ATOM      2  C   UNL A   1      31.596  30.906  25.859  1.00  0.00     0.117 C 
BRANCH   2   3
ATOM      3  N   UNL A   1      30.732  30.757  24.711  1.00  0.00    -0.354 N 
ATOM      4  C   UNL A   1      30.483  29.672  23.918  1.00  0.00     0.254 C 
ATOM      5  O   UNL A   1      29.657  29.860  23.022  1.00  0.00    -0.272 OA
ATOM      6  H   UNL A   1      30.241  31.571  24.456  1.00  0.00     0.163 HD
BRANCH   4   7
ATOM      7  C   UNL A   1      31.082  28.279  24.231  1.00  0.00     0.212 C 
ATOM      8  C   UNL A   1      30.233  27.240  23.487  1.00  0.00     0.056 C 
BRANCH   7   9
ATOM      9  C   UNL A   1      32.490  28.266  23.580  1.00  0.00     0.420 C 
ATOM     10  F   UNL A   1      32.833  27.028  23.150  1.00  0.00    -0.168 F 
ATOM     11  F   UNL A   1      32.504  29.068  22.483  1.00  0.00    -0.168 F 
ATOM     12  F   UNL A   1      33.463  28.724  24.397  1.00  0.00    -0.168 F 
ENDBRANCH   7   9
BRANCH   7  13
ATOM     13  N   UNL A   1      31.236  28.113  25.731  1.00  0.00    -0.330 N 
ATOM     14  C   UNL A   1      31.628  27.166  26.638  1.00  0.00     0.258 C 
ATOM     15  H   UNL A   1      30.973  28.941  26.195  1.00  0.00     0.165 HD
ATOM     16  O   UNL A   1      31.630  27.463  27.831  1.00  0.00    -0.269 OA
BRANCH  14  17
ATOM     17  C   UNL A   1      31.953  25.790  26.269  1.00  0.00     0.111 A 
ATOM     18  C   UNL A   1      30.987  24.801  26.179  1.00  0.00     0.138 A 
ATOM     19  C   UNL A   1      33.284  25.460  26.008  1.00  0.00     0.138 A 
ATOM     20  F   UNL A   1      29.690  25.099  26.323  1.00  0.00    -0.206 F 
ATOM     21  C   UNL A   1      31.359  23.468  25.999  1.00  0.00     0.040 A 
ATOM     22  C   UNL A   1      33.670  24.135  25.827  1.00  0.00     0.040 A 
ATOM     23  F   UNL A   1      34.236  26.401  25.997  1.00  0.00    -0.206 F 
ATOM     24  C   UNL A   1      32.706  23.130  25.852  1.00  0.00     0.006 A 
ENDBRANCH  14  17
ENDBRANCH   7  13
ENDBRANCH   4   7
ENDBRANCH   2   3
ENDBRANCH   1   2
BRANCH   1  25
ATOM     25  C   UNL A   1      32.535  32.759  27.302  1.00  0.00     0.118 C 
BRANCH  25  26
ATOM     26  N   UNL A   1      32.384  34.183  27.590  1.00  0.00    -0.352 N 
ATOM     27  C   UNL A   1      32.977  34.956  28.556  1.00  0.00     0.251 C 
ATOM     28  H   UNL A   1      31.759  34.662  26.999  1.00  0.00     0.163 HD
ATOM     29  O   UNL A   1      32.540  36.076  28.793  1.00  0.00    -0.269 OA
BRANCH  27  30
ATOM     30  C   UNL A   1      34.131  34.433  29.314  1.00  0.00     0.039 A 
ATOM     31  C   UNL A   1      33.914  33.838  30.559  1.00  0.00     0.014 A 
ATOM     32  C   UNL A   1      35.427  34.540  28.804  1.00  0.00     0.014 A 
ATOM     33  C   UNL A   1      34.990  33.291  31.259  1.00  0.00     0.010 A 
ATOM     34  C   UNL A   1      36.479  33.906  29.451  1.00  0.00     0.010 A 
ATOM     35  C   UNL A   1      36.274  33.285  30.690  1.00  0.00    -0.014 A 
BRANCH  35  36
ATOM     36  C   UNL A   1      37.420  32.637  31.373  1.00  0.00     0.031 A 
ATOM     37  C   UNL A   1      38.138  31.493  30.714  1.00  0.00     0.074 A 
ATOM     38  C   UNL A   1      37.767  33.037  32.610  1.00  0.00     0.049 A 
ATOM     39  N   UNL A   1      39.110  30.749  31.179  1.00  0.00    -0.248 NA
ATOM     40  C   UNL A   1      37.689  31.112  29.365  1.00  0.00     0.031 C 
ATOM     41  C   UNL A   1      37.111  34.104  33.369  1.00  0.00     0.029 A 
ATOM     42  N   UNL A   1      38.753  32.589  33.454  1.00  0.00    -0.354 N 
ATOM     43  C   UNL A   1      39.375  29.813  30.190  1.00  0.00     0.074 A 
ATOM     44  C   UNL A   1      38.424  30.037  29.124  1.00  0.00     0.031 C 
ATOM     45  C   UNL A   1      37.733  34.251  34.549  1.00  0.00     0.029 A 
ATOM     46  C   UNL A   1      38.799  33.260  34.652  1.00  0.00     0.049 A 
ATOM     47  H   UNL A   1      39.369  31.857  33.223  1.00  0.00     0.167 HD
ATOM     48  C   UNL A   1      40.347  28.871  30.162  1.00  0.00     0.037 A 
ATOM     49  C   UNL A   1      39.607  33.090  35.717  1.00  0.00     0.037 A 
ATOM     50  C   UNL A   1      41.306  28.673  31.215  1.00  0.00     0.049 A 
ATOM     51  C   UNL A   1      40.667  32.025  35.666  1.00  0.00     0.074 A 
ATOM     52  C   UNL A   1      42.364  27.783  31.258  1.00  0.00     0.029 A 
ATOM     53  N   UNL A   1      41.325  29.377  32.410  1.00  0.00    -0.354 N 
ATOM     54  N   UNL A   1      40.951  31.186  34.699  1.00  0.00    -0.248 NA
ATOM     55  C   UNL A   1      41.523  31.883  36.852  1.00  0.00     0.031 C 
ATOM     56  C   UNL A   1      42.989  27.908  32.501  1.00  0.00     0.029 A 
ATOM     57  C   UNL A   1      42.362  28.922  33.209  1.00  0.00     0.049 A 
ATOM     58  H   UNL A   1      40.696  30.094  32.656  1.00  0.00     0.167 HD
ATOM     59  C   UNL A   1      42.030  30.437  35.146  1.00  0.00     0.074 A 
ATOM     60  C   UNL A   1      42.362  30.930  36.466  1.00  0.00     0.031 C 
ATOM     61  C   UNL A   1      42.686  29.431  34.517  1.00  0.00     0.037 A 
BRANCH  48  62
ATOM     62  C   UNL A   1      40.437  27.989  28.950  1.00  0.00     0.064 A 
ATOM     63  C   UNL A   1      41.178  28.390  27.829  1.00  0.00     0.173 A 
ATOM     64  C   UNL A   1      39.728  26.779  28.869  1.00  0.00     0.173 A 
ATOM     65  F   UNL A   1      41.870  29.539  27.851  1.00  0.00    -0.203 F 
ATOM     66  C   UNL A   1      41.193  27.623  26.668  1.00  0.00     0.198 A 
ATOM     67  C   UNL A   1      39.773  25.998  27.718  1.00  0.00     0.198 A 
ATOM     68  F   UNL A   1      39.014  26.342  29.918  1.00  0.00    -0.203 F 
ATOM     69  F   UNL A   1      41.877  28.046  25.595  1.00  0.00    -0.200 F 
ATOM     70  C   UNL A   1      40.494  26.426  26.613  1.00  0.00     0.200 A 
ATOM     71  F   UNL A   1      39.119  24.828  27.678  1.00  0.00    -0.200 F 
ATOM     72  F   UNL A   1      40.518  25.684  25.498  1.00  0.00    -0.200 F 
ENDBRANCH  48  62
BRANCH  49  73
ATOM     73  C   UNL A   1      39.461  33.978  36.899  1.00  0.00     0.064 A 
ATOM     74  C   UNL A   1      40.079  35.237  36.952  1.00  0.00     0.173 A 
ATOM     75  C   UNL A   1      38.723  33.568  38.018  1.00  0.00     0.173 A 
ATOM     76  F   UNL A   1      40.801  35.675  35.910  1.00  0.00    -0.203 F 
ATOM     77  C   UNL A   1      39.981  36.041  38.086  1.00  0.00     0.198 A 
ATOM     78  C   UNL A   1      38.601  34.386  39.140  1.00  0.00     0.198 A 
ATOM     79  F   UNL A   1      38.098  32.381  38.009  1.00  0.00    -0.203 F 
ATOM     80  F   UNL A   1      40.612  37.222  38.123  1.00  0.00    -0.200 F 
ATOM     81  C   UNL A   1      39.237  35.617  39.177  1.00  0.00     0.200 A 
ATOM     82  F   UNL A   1      37.860  33.983  40.182  1.00  0.00    -0.200 F 
ATOM     83  F   UNL A   1      39.131  36.396  40.262  1.00  0.00    -0.200 F 
ENDBRANCH  49  73
BRANCH  61  84
ATOM     84  C   UNL A   1      43.849  28.803  35.229  1.00  0.00     0.064 A 
ATOM     85  C   UNL A   1      43.641  27.745  36.129  1.00  0.00     0.173 A 
ATOM     86  C   UNL A   1      45.151  29.305  35.095  1.00  0.00     0.173 A 
ATOM     87  F   UNL A   1      42.413  27.236  36.303  1.00  0.00    -0.203 F 
ATOM     88  C   UNL A   1      44.691  27.228  36.882  1.00  0.00     0.198 A 
ATOM     89  C   UNL A   1      46.205  28.762  35.825  1.00  0.00     0.198 A 
ATOM     90  F   UNL A   1      45.403  30.307  34.239  1.00  0.00    -0.203 F 
ATOM     91  F   UNL A   1      44.460  26.249  37.767  1.00  0.00    -0.200 F 
ATOM     92  C   UNL A   1      45.973  27.734  36.726  1.00  0.00     0.200 A 
ATOM     93  F   UNL A   1      47.448  29.235  35.655  1.00  0.00    -0.200 F 
ATOM     94  F   UNL A   1      46.985  27.229  37.445  1.00  0.00    -0.200 F 
ENDBRANCH  61  84
ENDBRANCH  35  36
ENDBRANCH  27  30
ENDBRANCH  25  26
ENDBRANCH   1  25
TORSDOF 13
ENDMDL
MODEL 2
REMARK VINA RESULT:     -12.7      0.256      1.661
REMARK SMILES C[C@](NC(=O)c1c(F)cccc1F)(C(=O)NCCCNC(=O)c1ccc(-c2c3nc(c(-c4c(F)c(F)c(F)c(F)c4F)c4ccc([nH]4)c(-c4c(F)c(F)c(F)c(F)c4F)c4nc(c(-c5c(F)c(F)c(F)c(F)c5F)c5ccc2[nH]5)C=C4)C=C3)cc1)C(F)(F)F
REMARK SMILES IDX 18 1 17 2 16 3 14 4 15 5 2 7 1 8 86 9 87 10 88 11 89 12 3 13
REMARK SMILES IDX 4 14 5 16 6 17 7 18 12 19 8 20 9 21 11 22 13 23 10 24 19 25
REMARK SMILES IDX 20 26 21 27 22 29 23 30 24 31 85 32 25 33 84 34 26 35 27 36
REMARK SMILES IDX 28 37 78 38 29 39 83 40 77 41 79 42 30 43 82 44 76 45 75 46
REMARK SMILES IDX 31 48 63 49 43 50 62 51 44 52 47 53 61 54 80 55 45 56 46 57
REMARK SMILES IDX 60 59 81 60 48 61 32 62 33 63 41 64 34 65 35 66 39 67 42 68
REMARK SMILES IDX 36 69 37 70 40 71 38 72 64 73 65 74 73 75 66 76 67 77 71 78
REMARK SMILES IDX 74 79 68 80 69 81 72 82 70 83 49 84 50 85 58 86 51 87 52 88
REMARK SMILES IDX 56 89 59 90 53 91 54 92 57 93 55 94
REMARK H PARENT 16 6 3 15 20 28 79 47 47 58
REMARK Flexibility Score: inf
ROOT
ATOM      1  C   UNL A   1      31.260  32.235  26.586  1.00  0.00     0.042 C 
ENDROOT
BRANCH   1   2
ATOM      2  C   UNL A   1      31.537  30.938  25.843  1.00  0.00     0.117 C 
BRANCH   2   3
ATOM      3  N   UNL A   1      30.684  30.787  24.687  1.00  0.00    -0.354 N 
ATOM      4  C   UNL A   1      30.441  29.700  23.895  1.00  0.00     0.254 C 
ATOM      5  O   UNL A   1      29.624  29.886  22.990  1.00  0.00    -0.272 OA
ATOM      6  H   UNL A   1      30.197  31.601  24.425  1.00  0.00     0.163 HD
BRANCH   4   7
ATOM      7  C   UNL A   1      31.035  28.307  24.217  1.00  0.00     0.212 C 
ATOM      8  C   UNL A   1      30.181  27.266  23.483  1.00  0.00     0.056 C 
BRANCH   7   9
ATOM      9  C   UNL A   1      32.443  28.284  23.565  1.00  0.00     0.420 C 
ATOM     10  F   UNL A   1      33.404  28.678  24.434  1.00  0.00    -0.168 F 
ATOM     11  F   UNL A   1      32.763  27.018  23.191  1.00  0.00    -0.168 F 
ATOM     12  F   UNL A   1      32.531  29.043  22.451  1.00  0.00    -0.168 F 
ENDBRANCH   7   9
BRANCH   7  13
ATOM     13  N   UNL A   1      31.190  28.152  25.718  1.00  0.00    -0.330 N 
ATOM     14  C   UNL A   1      31.550  27.200  26.634  1.00  0.00     0.258 C 
ATOM     15  H   UNL A   1      30.963  28.995  26.174  1.00  0.00     0.165 HD
ATOM     16  O   UNL A   1      31.570  27.510  27.823  1.00  0.00    -0.269 OA
BRANCH  14  17
ATOM     17  C   UNL A   1      31.819  25.808  26.279  1.00  0.00     0.111 A 
ATOM     18  C   UNL A   1      30.813  24.859  26.196  1.00  0.00     0.138 A 
ATOM     19  C   UNL A   1      33.135  25.420  26.025  1.00  0.00     0.138 A 
ATOM     20  F   UNL A   1      29.529  25.212  26.333  1.00  0.00    -0.206 F 
ATOM     21  C   UNL A   1      31.129  23.510  26.029  1.00  0.00     0.040 A 
ATOM     22  C   UNL A   1      33.466  24.079  25.857  1.00  0.00     0.040 A 
ATOM     23  F   UNL A   1      34.126  26.322  26.007  1.00  0.00    -0.206 F 
ATOM     24  C   UNL A   1      32.461  23.115  25.888  1.00  0.00     0.006 A 
ENDBRANCH  14  17
ENDBRANCH   7  13
ENDBRANCH   4   7
ENDBRANCH   2   3
ENDBRANCH   1   2
BRANCH   1  25
ATOM     25  C   UNL A   1      32.494  32.789  27.277  1.00  0.00     0.118 C 
BRANCH  25  26
ATOM     26  N   UNL A   1      32.347  34.205  27.600  1.00  0.00    -0.352 N 
ATOM     27  C   UNL A   1      32.957  34.958  28.571  1.00  0.00     0.251 C 
ATOM     28  H   UNL A   1      31.711  34.698  27.031  1.00  0.00     0.163 HD
ATOM     29  O   UNL A   1      32.525  36.072  28.841  1.00  0.00    -0.269 OA
BRANCH  27  30
ATOM     30  C   UNL A   1      34.126  34.419  29.296  1.00  0.00     0.039 A 
ATOM     31  C   UNL A   1      33.929  33.776  30.520  1.00  0.00     0.014 A 
ATOM     32  C   UNL A   1      35.415  34.560  28.776  1.00  0.00     0.014 A 
ATOM     33  C   UNL A   1      35.019  33.215  31.187  1.00  0.00     0.010 A 
ATOM     34  C   UNL A   1      36.481  33.914  29.387  1.00  0.00     0.010 A 
ATOM     35  C   UNL A   1      36.296  33.244  30.604  1.00  0.00    -0.014 A 
BRANCH  35  36
ATOM     36  C   UNL A   1      37.457  32.584  31.248  1.00  0.00     0.031 A 
ATOM     37  C   UNL A   1      38.164  31.456  30.550  1.00  0.00     0.074 A 
ATOM     38  C   UNL A   1      37.829  32.957  32.488  1.00  0.00     0.049 A 
ATOM     39  N   UNL A   1      39.147  30.705  30.979  1.00  0.00    -0.248 NA
ATOM     40  C   UNL A   1      37.689  31.105  29.201  1.00  0.00     0.031 C 
ATOM     41  C   UNL A   1      37.186  34.004  33.283  1.00  0.00     0.029 A 
ATOM     42  N   UNL A   1      38.832  32.492  33.301  1.00  0.00    -0.354 N 
ATOM     43  C   UNL A   1      39.394  29.792  29.964  1.00  0.00     0.074 A 
ATOM     44  C   UNL A   1      38.422  30.038  28.923  1.00  0.00     0.031 C 
ATOM     45  C   UNL A   1      37.830  34.127  34.454  1.00  0.00     0.029 A 
ATOM     46  C   UNL A   1      38.901  33.136  34.513  1.00  0.00     0.049 A 
ATOM     47  H   UNL A   1      39.444  31.767  33.041  1.00  0.00     0.167 HD
ATOM     48  C   UNL A   1      40.366  28.853  29.895  1.00  0.00     0.037 A 
ATOM     49  C   UNL A   1      39.729  32.944  35.558  1.00  0.00     0.037 A 
ATOM     50  C   UNL A   1      41.347  28.634  30.923  1.00  0.00     0.049 A 
ATOM     51  C   UNL A   1      40.791  31.882  35.462  1.00  0.00     0.074 A 
ATOM     52  C   UNL A   1      42.408  27.745  30.926  1.00  0.00     0.029 A 
ATOM     53  N   UNL A   1      41.389  29.310  32.134  1.00  0.00    -0.354 N 
ATOM     54  N   UNL A   1      41.057  31.067  34.470  1.00  0.00    -0.248 NA
ATOM     55  C   UNL A   1      41.671  31.716  36.626  1.00  0.00     0.031 C 
ATOM     56  C   UNL A   1      43.057  27.844  32.158  1.00  0.00     0.029 A 
ATOM     57  C   UNL A   1      42.442  28.840  32.901  1.00  0.00     0.049 A 
ATOM     58  H   UNL A   1      40.763  30.020  32.408  1.00  0.00     0.167 HD
ATOM     59  C   UNL A   1      42.146  30.310  34.878  1.00  0.00     0.074 A 
ATOM     60  C   UNL A   1      42.504  30.774  36.203  1.00  0.00     0.031 C 
ATOM     61  C   UNL A   1      42.791  29.320  34.214  1.00  0.00     0.037 A 
BRANCH  48  62
ATOM     62  C   UNL A   1      40.434  27.999  28.662  1.00  0.00     0.064 A 
ATOM     63  C   UNL A   1      39.795  26.751  28.622  1.00  0.00     0.173 A 
ATOM     64  C   UNL A   1      41.194  28.382  27.546  1.00  0.00     0.173 A 
ATOM     65  F   UNL A   1      39.060  26.333  29.664  1.00  0.00    -0.203 F 
ATOM     66  C   UNL A   1      39.928  25.912  27.519  1.00  0.00     0.198 A 
ATOM     67  C   UNL A   1      41.297  27.555  26.430  1.00  0.00     0.198 A 
ATOM     68  F   UNL A   1      41.815  29.571  27.526  1.00  0.00    -0.203 F 
ATOM     69  F   UNL A   1      39.339  24.707  27.520  1.00  0.00    -0.200 F 
ATOM     70  C   UNL A   1      40.675  26.316  26.423  1.00  0.00     0.200 A 
ATOM     71  F   UNL A   1      41.997  27.960  25.361  1.00  0.00    -0.200 F 
ATOM     72  F   UNL A   1      40.793  25.511  25.357  1.00  0.00    -0.200 F 
ENDBRANCH  48  62
BRANCH  49  73
ATOM     73  C   UNL A   1      39.605  33.805  36.762  1.00  0.00     0.064 A 
ATOM     74  C   UNL A   1      38.832  33.413  37.867  1.00  0.00     0.173 A 
ATOM     75  C   UNL A   1      40.234  35.056  36.819  1.00  0.00     0.173 A 
ATOM     76  F   UNL A   1      38.205  32.228  37.861  1.00  0.00    -0.203 F 
ATOM     77  C   UNL A   1      38.678  34.250  38.971  1.00  0.00     0.198 A 
ATOM     78  C   UNL A   1      40.103  35.879  37.936  1.00  0.00     0.198 A 
ATOM     79  F   UNL A   1      40.998  35.467  35.796  1.00  0.00    -0.203 F 
ATOM     80  F   UNL A   1      37.904  33.867  39.995  1.00  0.00    -0.200 F 
ATOM     81  C   UNL A   1      39.318  35.480  39.007  1.00  0.00     0.200 A 
ATOM     82  F   UNL A   1      40.744  37.055  37.977  1.00  0.00    -0.200 F 
ATOM     83  F   UNL A   1      39.181  36.278  40.074  1.00  0.00    -0.200 F 
ENDBRANCH  49  73
BRANCH  61  84
ATOM     84  C   UNL A   1      43.969  28.679  34.889  1.00  0.00     0.064 A 
ATOM     85  C   UNL A   1      43.791  27.550  35.704  1.00  0.00     0.173 A 
ATOM     86  C   UNL A   1      45.255  29.232  34.805  1.00  0.00     0.173 A 
ATOM     87  F   UNL A   1      42.579  26.989  35.827  1.00  0.00    -0.203 F 
ATOM     88  C   UNL A   1      44.852  27.012  36.426  1.00  0.00     0.198 A 
ATOM     89  C   UNL A   1      46.321  28.671  35.503  1.00  0.00     0.198 A 
ATOM     90  F   UNL A   1      45.479  30.304  34.030  1.00  0.00    -0.203 F 
ATOM     91  F   UNL A   1      44.648  25.962  37.233  1.00  0.00    -0.200 F 
ATOM     92  C   UNL A   1      46.117  27.571  36.322  1.00  0.00     0.200 A 
ATOM     93  F   UNL A   1      47.549  29.197  35.382  1.00  0.00    -0.200 F 
ATOM     94  F   UNL A   1      47.140  27.047  37.011  1.00  0.00    -0.200 F 
ENDBRANCH  61  84
ENDBRANCH  35  36
ENDBRANCH  27  30
ENDBRANCH  25  26
ENDBRANCH   1  25
TORSDOF 13
ENDMDL
MODEL 3
REMARK VINA RESULT:     -12.7      0.599      7.423
REMARK SMILES C[C@](NC(=O)c1c(F)cccc1F)(C(=O)NCCCNC(=O)c1ccc(-c2c3nc(c(-c4c(F)c(F)c(F)c(F)c4F)c4ccc([nH]4)c(-c4c(F)c(F)c(F)c(F)c4F)c4nc(c(-c5c(F)c(F)c(F)c(F)c5F)c5ccc2[nH]5)C=C4)C=C3)cc1)C(F)(F)F
REMARK SMILES IDX 18 1 17 2 16 3 14 4 15 5 2 7 1 8 86 9 87 10 88 11 89 12 3 13
REMARK SMILES IDX 4 14 5 16 6 17 7 18 12 19 8 20 9 21 11 22 13 23 10 24 19 25
REMARK SMILES IDX 20 26 21 27 22 29 23 30 24 31 85 32 25 33 84 34 26 35 27 36
REMARK SMILES IDX 28 37 78 38 29 39 83 40 77 41 79 42 30 43 82 44 76 45 75 46
REMARK SMILES IDX 31 48 63 49 43 50 62 51 44 52 47 53 61 54 80 55 45 56 46 57
REMARK SMILES IDX 60 59 81 60 48 61 32 62 33 63 41 64 34 65 35 66 39 67 42 68
REMARK SMILES IDX 36 69 37 70 40 71 38 72 64 73 65 74 73 75 66 76 67 77 71 78
REMARK SMILES IDX 74 79 68 80 69 81 72 82 70 83 49 84 50 85 58 86 51 87 52 88
REMARK SMILES IDX 56 89 59 90 53 91 54 92 57 93 55 94
REMARK H PARENT 16 6 3 15 20 28 79 47 47 58
REMARK Flexibility Score: inf
ROOT
ATOM      1  C   UNL A   1      31.291  32.320  26.506  1.00  0.00     0.042 C 
ENDROOT
BRANCH   1   2
ATOM      2  C   UNL A   1      31.459  30.943  25.885  1.00  0.00     0.117 C 
BRANCH   2   3
ATOM      3  N   UNL A   1      30.650  30.785  24.698  1.00  0.00    -0.354 N 
ATOM      4  C   UNL A   1      30.463  29.703  23.885  1.00  0.00     0.254 C 
ATOM      5  O   UNL A   1      29.673  29.880  22.955  1.00  0.00    -0.272 OA
ATOM      6  H   UNL A   1      30.151  31.590  24.430  1.00  0.00     0.163 HD
BRANCH   4   7
ATOM      7  C   UNL A   1      31.083  28.322  24.210  1.00  0.00     0.212 C 
ATOM      8  C   UNL A   1      30.268  27.266  23.451  1.00  0.00     0.056 C 
BRANCH   7   9
ATOM      9  C   UNL A   1      32.503  28.336  23.586  1.00  0.00     0.420 C 
ATOM     10  F   UNL A   1      32.888  27.100  23.186  1.00  0.00    -0.168 F 
ATOM     11  F   UNL A   1      32.516  29.117  22.474  1.00  0.00    -0.168 F 
ATOM     12  F   UNL A   1      33.448  28.836  24.411  1.00  0.00    -0.168 F 
ENDBRANCH   7   9
BRANCH   7  13
ATOM     13  N   UNL A   1      31.212  28.160  25.712  1.00  0.00    -0.330 N 
ATOM     14  C   UNL A   1      31.590  27.215  26.628  1.00  0.00     0.258 C 
ATOM     15  H   UNL A   1      30.939  28.988  26.170  1.00  0.00     0.165 HD
ATOM     16  O   UNL A   1      31.571  27.515  27.820  1.00  0.00    -0.269 OA
BRANCH  14  17
ATOM     17  C   UNL A   1      31.925  25.839  26.268  1.00  0.00     0.111 A 
ATOM     18  C   UNL A   1      30.966  24.842  26.193  1.00  0.00     0.138 A 
ATOM     19  C   UNL A   1      33.256  25.518  26.001  1.00  0.00     0.138 A 
ATOM     20  F   UNL A   1      29.667  25.130  26.343  1.00  0.00    -0.206 F 
ATOM     21  C   UNL A   1      31.347  23.510  26.020  1.00  0.00     0.040 A 
ATOM     22  C   UNL A   1      33.652  24.194  25.827  1.00  0.00     0.040 A 
ATOM     23  F   UNL A   1      34.200  26.467  25.975  1.00  0.00    -0.206 F 
ATOM     24  C   UNL A   1      32.696  23.182  25.866  1.00  0.00     0.006 A 
ENDBRANCH  14  17
ENDBRANCH   7  13
ENDBRANCH   4   7
ENDBRANCH   2   3
ENDBRANCH   1   2
BRANCH   1  25
ATOM     25  C   UNL A   1      32.540  32.792  27.230  1.00  0.00     0.118 C 
BRANCH  25  26
ATOM     26  N   UNL A   1      32.444  34.195  27.623  1.00  0.00    -0.352 N 
ATOM     27  C   UNL A   1      33.082  34.876  28.628  1.00  0.00     0.251 C 
ATOM     28  H   UNL A   1      31.825  34.737  27.081  1.00  0.00     0.163 HD
ATOM     29  O   UNL A   1      32.689  35.991  28.954  1.00  0.00    -0.269 OA
BRANCH  27  30
ATOM     30  C   UNL A   1      34.231  34.261  29.323  1.00  0.00     0.039 A 
ATOM     31  C   UNL A   1      33.996  33.417  30.410  1.00  0.00     0.014 A 
ATOM     32  C   UNL A   1      35.539  34.528  28.910  1.00  0.00     0.014 A 
ATOM     33  C   UNL A   1      35.071  32.787  31.038  1.00  0.00     0.010 A 
ATOM     34  C   UNL A   1      36.597  33.822  29.467  1.00  0.00     0.010 A 
ATOM     35  C   UNL A   1      36.375  32.954  30.544  1.00  0.00    -0.014 A 
BRANCH  35  36
ATOM     36  C   UNL A   1      37.526  32.232  31.139  1.00  0.00     0.031 A 
ATOM     37  C   UNL A   1      38.022  32.607  32.508  1.00  0.00     0.074 A 
ATOM     38  C   UNL A   1      38.163  31.290  30.419  1.00  0.00     0.049 A 
ATOM     39  N   UNL A   1      39.057  32.149  33.167  1.00  0.00    -0.248 NA
ATOM     40  C   UNL A   1      37.275  33.655  33.224  1.00  0.00     0.031 C 
ATOM     41  C   UNL A   1      37.803  30.877  29.061  1.00  0.00     0.029 A 
ATOM     42  N   UNL A   1      39.252  30.512  30.724  1.00  0.00    -0.354 N 
ATOM     43  C   UNL A   1      39.089  32.858  34.358  1.00  0.00     0.074 A 
ATOM     44  C   UNL A   1      38.012  33.821  34.311  1.00  0.00     0.031 C 
ATOM     45  C   UNL A   1      38.632  29.899  28.664  1.00  0.00     0.029 A 
ATOM     46  C   UNL A   1      39.611  29.649  29.716  1.00  0.00     0.049 A 
ATOM     47  H   UNL A   1      39.730  30.566  31.582  1.00  0.00     0.167 HD
ATOM     48  C   UNL A   1      39.925  32.698  35.411  1.00  0.00     0.037 A 
ATOM     49  C   UNL A   1      40.621  28.760  29.648  1.00  0.00     0.037 A 
ATOM     50  C   UNL A   1      40.977  31.718  35.461  1.00  0.00     0.049 A 
ATOM     51  C   UNL A   1      41.546  28.613  30.825  1.00  0.00     0.074 A 
ATOM     52  C   UNL A   1      41.843  31.438  36.502  1.00  0.00     0.029 A 
ATOM     53  N   UNL A   1      41.306  30.857  34.423  1.00  0.00    -0.354 N 
ATOM     54  N   UNL A   1      41.528  29.245  31.973  1.00  0.00    -0.248 NA
ATOM     55  C   UNL A   1      42.629  27.628  30.700  1.00  0.00     0.031 C 
ATOM     56  C   UNL A   1      42.731  30.448  36.077  1.00  0.00     0.029 A 
ATOM     57  C   UNL A   1      42.379  30.063  34.793  1.00  0.00     0.049 A 
ATOM     58  H   UNL A   1      40.845  30.816  33.554  1.00  0.00     0.167 HD
ATOM     59  C   UNL A   1      42.576  28.718  32.716  1.00  0.00     0.074 A 
ATOM     60  C   UNL A   1      43.201  27.703  31.894  1.00  0.00     0.031 C 
ATOM     61  C   UNL A   1      42.983  29.049  33.966  1.00  0.00     0.037 A 
BRANCH  48  62
ATOM     62  C   UNL A   1      39.732  33.587  36.605  1.00  0.00     0.064 A 
ATOM     63  C   UNL A   1      38.851  33.220  37.633  1.00  0.00     0.173 A 
ATOM     64  C   UNL A   1      40.363  34.838  36.698  1.00  0.00     0.173 A 
ATOM     65  F   UNL A   1      38.219  32.037  37.593  1.00  0.00    -0.203 F 
ATOM     66  C   UNL A   1      38.596  34.078  38.699  1.00  0.00     0.198 A 
ATOM     67  C   UNL A   1      40.130  35.679  37.783  1.00  0.00     0.198 A 
ATOM     68  F   UNL A   1      41.225  35.233  35.749  1.00  0.00    -0.203 F 
ATOM     69  F   UNL A   1      37.720  33.722  39.650  1.00  0.00    -0.200 F 
ATOM     70  C   UNL A   1      39.238  35.305  38.775  1.00  0.00     0.200 A 
ATOM     71  F   UNL A   1      40.773  36.852  37.867  1.00  0.00    -0.200 F 
ATOM     72  F   UNL A   1      38.999  36.125  39.808  1.00  0.00    -0.200 F 
ENDBRANCH  48  62
BRANCH  49  73
ATOM     73  C   UNL A   1      40.779  27.919  28.433  1.00  0.00     0.064 A 
ATOM     74  C   UNL A   1      40.192  26.647  28.339  1.00  0.00     0.173 A 
ATOM     75  C   UNL A   1      41.550  28.360  27.350  1.00  0.00     0.173 A 
ATOM     76  F   UNL A   1      39.449  26.175  29.351  1.00  0.00    -0.203 F 
ATOM     77  C   UNL A   1      40.388  25.844  27.218  1.00  0.00     0.198 A 
ATOM     78  C   UNL A   1      41.722  27.568  26.216  1.00  0.00     0.198 A 
ATOM     79  F   UNL A   1      42.116  29.576  27.383  1.00  0.00    -0.203 F 
ATOM     80  F   UNL A   1      39.848  24.619  27.172  1.00  0.00    -0.200 F 
ATOM     81  C   UNL A   1      41.149  26.307  26.155  1.00  0.00     0.200 A 
ATOM     82  F   UNL A   1      42.436  28.030  25.180  1.00  0.00    -0.200 F 
ATOM     83  F   UNL A   1      41.327  25.540  25.071  1.00  0.00    -0.200 F 
ENDBRANCH  49  73
BRANCH  61  84
ATOM     84  C   UNL A   1      44.143  28.293  34.545  1.00  0.00     0.064 A 
ATOM     85  C   UNL A   1      43.927  27.111  35.273  1.00  0.00     0.173 A 
ATOM     86  C   UNL A   1      45.455  28.781  34.462  1.00  0.00     0.173 A 
ATOM     87  F   UNL A   1      42.690  26.608  35.393  1.00  0.00    -0.203 F 
ATOM     88  C   UNL A   1      44.978  26.460  35.912  1.00  0.00     0.198 A 
ATOM     89  C   UNL A   1      46.509  28.108  35.074  1.00  0.00     0.198 A 
ATOM     90  F   UNL A   1      45.715  29.899  33.768  1.00  0.00    -0.203 F 
ATOM     91  F   UNL A   1      44.740  25.359  36.638  1.00  0.00    -0.200 F 
ATOM     92  C   UNL A   1      46.268  26.957  35.809  1.00  0.00     0.200 A 
ATOM     93  F   UNL A   1      47.760  28.575  34.952  1.00  0.00    -0.200 F 
ATOM     94  F   UNL A   1      47.281  26.325  36.417  1.00  0.00    -0.200 F 
ENDBRANCH  61  84
ENDBRANCH  35  36
ENDBRANCH  27  30
ENDBRANCH  25  26
ENDBRANCH   1  25
TORSDOF 13
ENDMDL
