MODEL 1
REMARK VINA RESULT:     -12.7      0.000      0.000
REMARK SMILES C/C=C(\C)[C@@H]1C=C[C@@H]2C[C@H](C)C[C@H](C)[C@@H]2[C@@H]1C(=O)C1=C(NCCCNC(=O)c2ccc(-c3c4nc(c(-c5c(F)c(F)c(F)c(F)c5F)c5ccc([nH]5)c(-c5c(F)c(F)c(F)c(F)c5F)c5nc(c(-c6c(F)c(F)c(F)c(F)c6F)c6ccc3[nH]6)C=C5)C=C4)cc2)[C@H](C[C@](C)(O)C(=O)[O-])NC1=O
REMARK SMILES IDX 22 1 21 2 20 4 19 5 100 6 91 7 99 8 101 9 17 11 18 12 16 13
REMARK SMILES IDX 5 14 6 15 7 16 15 17 8 18 13 19 9 20 12 21 14 22 10 23 11 24
REMARK SMILES IDX 3 25 1 26 2 27 4 28 92 29 93 30 94 31 95 32 96 34 97 35
REMARK SMILES IDX 98 36 23 37 24 38 25 39 26 40 27 42 28 43 29 44 90 45 30 46
REMARK SMILES IDX 89 47 31 48 32 49 33 50 83 51 34 52 88 53 82 54 84 55 35 56
REMARK SMILES IDX 87 57 81 58 80 59 36 61 68 62 48 63 67 64 49 65 52 66 66 67
REMARK SMILES IDX 85 68 50 69 51 70 65 72 86 73 53 74 37 75 38 76 46 77 39 78
REMARK SMILES IDX 40 79 44 80 47 81 41 82 42 83 45 84 43 85 69 86 70 87 78 88
REMARK SMILES IDX 71 89 72 90 76 91 79 92 73 93 74 94 77 95 75 96 54 97 55 98
REMARK SMILES IDX 63 99 56 100 57 101 61 102 64 103 58 104 59 105 62 106
REMARK SMILES IDX 60 107
REMARK H PARENT 21 3 99 10 95 33 25 41 84 60 52 71
REMARK Flexibility Score: inf
ROOT
ATOM      1  C   UNL A   1      36.966  19.433  24.948  1.00  0.00     0.114 C 
ENDROOT
BRANCH   1   2
ATOM      2  N   UNL A   1      36.053  20.549  24.811  1.00  0.00    -0.386 N 
ATOM      3  H   UNL A   1      36.479  21.414  24.614  1.00  0.00     0.160 HD
BRANCH   2   4
ATOM      4  C   UNL A   1      34.682  20.589  24.912  1.00  0.00     0.050 C 
ATOM      5  C   UNL A   1      33.770  21.571  24.727  1.00  0.00     0.104 C 
ATOM      6  C   UNL A   1      32.519  20.971  25.288  1.00  0.00     0.257 C 
ATOM      7  C   UNL A   1      34.027  19.275  25.337  1.00  0.00     0.133 C 
ATOM      8  N   UNL A   1      32.826  19.783  25.891  1.00  0.00    -0.343 N 
ATOM      9  O   UNL A   1      31.351  21.339  25.267  1.00  0.00    -0.269 OA
ATOM     10  H   UNL A   1      32.296  19.349  26.598  1.00  0.00     0.164 HD
BRANCH   5  11
ATOM     11  C   UNL A   1      33.973  22.802  23.888  1.00  0.00     0.174 C 
ATOM     12  O   UNL A   1      33.712  22.665  22.680  1.00  0.00    -0.294 OA
BRANCH  11  13
ATOM     13  C   UNL A   1      34.527  24.204  24.371  1.00  0.00     0.076 C 
ATOM     14  C   UNL A   1      35.411  24.155  25.643  1.00  0.00     0.048 C 
ATOM     15  C   UNL A   1      34.499  23.762  26.793  1.00  0.00    -0.022 C 
ATOM     16  C   UNL A   1      33.188  24.111  26.795  1.00  0.00    -0.027 C 
ATOM     17  C   UNL A   1      33.522  25.383  24.666  1.00  0.00     0.010 C 
ATOM     18  C   UNL A   1      32.489  24.938  25.699  1.00  0.00     0.016 C 
ATOM     19  C   UNL A   1      32.870  26.184  23.523  1.00  0.00    -0.010 C 
ATOM     20  C   UNL A   1      31.331  24.223  24.985  1.00  0.00     0.011 C 
ATOM     21  C   UNL A   1      31.840  25.380  22.756  1.00  0.00     0.007 C 
ATOM     22  C   UNL A   1      33.891  26.845  22.600  1.00  0.00     0.008 C 
ATOM     23  C   UNL A   1      30.761  24.822  23.690  1.00  0.00    -0.013 C 
ATOM     24  C   UNL A   1      29.987  23.728  22.936  1.00  0.00     0.007 C 
BRANCH  14  25
ATOM     25  C   UNL A   1      36.832  23.587  25.486  1.00  0.00    -0.070 C 
ATOM     26  C   UNL A   1      39.205  23.182  26.381  1.00  0.00     0.035 C 
ATOM     27  C   UNL A   1      37.744  23.523  26.481  1.00  0.00    -0.031 C 
ATOM     28  C   UNL A   1      37.215  23.329  24.035  1.00  0.00     0.040 C 
ENDBRANCH  14  25
ENDBRANCH  11  13
ENDBRANCH   5  11
BRANCH   7  29
ATOM     29  C   UNL A   1      33.614  18.299  24.196  1.00  0.00     0.072 C 
BRANCH  29  30
ATOM     30  C   UNL A   1      33.960  16.797  24.239  1.00  0.00     0.103 C 
ATOM     31  C   UNL A   1      35.270  16.547  24.976  1.00  0.00     0.049 C 
BRANCH  30  32
ATOM     32  O   UNL A   1      34.066  16.196  22.954  1.00  0.00    -0.384 OA
ATOM     33  H   UNL A   1      34.300  15.260  23.054  1.00  0.00     0.211 HD
ENDBRANCH  30  32
BRANCH  30  34
ATOM     34  C   UNL A   1      32.797  16.037  24.900  1.00  0.00     0.073 C 
ATOM     35  O   UNL A   1      32.698  14.840  25.099  1.00  0.00    -0.547 OA
ATOM     36  O   UNL A   1      31.800  16.887  25.258  1.00  0.00    -0.547 OA
ENDBRANCH  30  34
ENDBRANCH  29  30
ENDBRANCH   7  29
ENDBRANCH   2   4
ENDBRANCH   1   2
BRANCH   1  37
ATOM     37  C   UNL A   1      38.384  19.920  24.701  1.00  0.00     0.042 C 
BRANCH  37  38
ATOM     38  C   UNL A   1      39.220  19.995  25.971  1.00  0.00     0.118 C 
BRANCH  38  39
ATOM     39  N   UNL A   1      40.332  19.065  25.971  1.00  0.00    -0.352 N 
ATOM     40  C   UNL A   1      41.677  19.323  26.071  1.00  0.00     0.251 C 
ATOM     41  H   UNL A   1      40.089  18.115  25.887  1.00  0.00     0.163 HD
ATOM     42  O   UNL A   1      42.494  18.427  25.884  1.00  0.00    -0.269 OA
BRANCH  40  43
ATOM     43  C   UNL A   1      42.144  20.694  26.372  1.00  0.00     0.039 A 
ATOM     44  C   UNL A   1      42.370  21.050  27.702  1.00  0.00     0.014 A 
ATOM     45  C   UNL A   1      42.354  21.629  25.354  1.00  0.00     0.014 A 
ATOM     46  C   UNL A   1      42.847  22.326  28.006  1.00  0.00     0.010 A 
ATOM     47  C   UNL A   1      42.944  22.853  25.647  1.00  0.00     0.010 A 
ATOM     48  C   UNL A   1      43.163  23.232  26.979  1.00  0.00    -0.014 A 
BRANCH  48  49
ATOM     49  C   UNL A   1      43.638  24.607  27.277  1.00  0.00     0.031 A 
ATOM     50  C   UNL A   1      42.673  25.616  27.845  1.00  0.00     0.074 A 
ATOM     51  C   UNL A   1      44.910  24.963  27.011  1.00  0.00     0.049 A 
ATOM     52  N   UNL A   1      42.850  26.890  28.090  1.00  0.00    -0.248 NA
ATOM     53  C   UNL A   1      41.312  25.138  28.141  1.00  0.00     0.031 C 
ATOM     54  C   UNL A   1      45.931  24.092  26.425  1.00  0.00     0.029 A 
ATOM     55  N   UNL A   1      45.562  26.156  27.200  1.00  0.00    -0.354 N 
ATOM     56  C   UNL A   1      41.623  27.362  28.542  1.00  0.00     0.074 A 
ATOM     57  C   UNL A   1      40.691  26.260  28.473  1.00  0.00     0.031 C 
ATOM     58  C   UNL A   1      47.088  24.769  26.338  1.00  0.00     0.029 A 
ATOM     59  C   UNL A   1      46.883  26.130  26.824  1.00  0.00     0.049 A 
ATOM     60  H   UNL A   1      45.123  26.956  27.569  1.00  0.00     0.167 HD
ATOM     61  C   UNL A   1      41.309  28.591  29.011  1.00  0.00     0.037 A 
ATOM     62  C   UNL A   1      47.819  27.097  26.871  1.00  0.00     0.037 A 
ATOM     63  C   UNL A   1      42.249  29.671  29.136  1.00  0.00     0.049 A 
ATOM     64  C   UNL A   1      47.444  28.452  27.413  1.00  0.00     0.074 A 
ATOM     65  C   UNL A   1      42.042  30.945  29.633  1.00  0.00     0.029 A 
ATOM     66  N   UNL A   1      43.586  29.591  28.778  1.00  0.00    -0.354 N 
ATOM     67  N   UNL A   1      46.290  28.871  27.871  1.00  0.00    -0.248 NA
ATOM     68  C   UNL A   1      48.508  29.466  27.453  1.00  0.00     0.031 C 
ATOM     69  C   UNL A   1      43.250  31.645  29.554  1.00  0.00     0.029 A 
ATOM     70  C   UNL A   1      44.216  30.794  29.044  1.00  0.00     0.049 A 
ATOM     71  H   UNL A   1      44.022  28.796  28.392  1.00  0.00     0.167 HD
ATOM     72  C   UNL A   1      46.497  30.181  28.283  1.00  0.00     0.074 A 
ATOM     73  C   UNL A   1      47.890  30.483  28.034  1.00  0.00     0.031 C 
ATOM     74  C   UNL A   1      45.612  31.059  28.816  1.00  0.00     0.037 A 
BRANCH  61  75
ATOM     75  C   UNL A   1      39.893  28.824  29.453  1.00  0.00     0.064 A 
ATOM     76  C   UNL A   1      38.915  29.290  28.561  1.00  0.00     0.173 A 
ATOM     77  C   UNL A   1      39.501  28.545  30.770  1.00  0.00     0.173 A 
ATOM     78  F   UNL A   1      39.244  29.587  27.295  1.00  0.00    -0.203 F 
ATOM     79  C   UNL A   1      37.603  29.493  28.977  1.00  0.00     0.198 A 
ATOM     80  C   UNL A   1      38.179  28.720  31.175  1.00  0.00     0.198 A 
ATOM     81  F   UNL A   1      40.395  28.095  31.663  1.00  0.00    -0.203 F 
ATOM     82  F   UNL A   1      36.698  29.984  28.120  1.00  0.00    -0.200 F 
ATOM     83  C   UNL A   1      37.234  29.199  30.281  1.00  0.00     0.200 A 
ATOM     84  F   UNL A   1      37.821  28.427  32.434  1.00  0.00    -0.200 F 
ATOM     85  F   UNL A   1      35.968  29.386  30.679  1.00  0.00    -0.200 F 
ENDBRANCH  61  75
BRANCH  62  86
ATOM     86  C   UNL A   1      49.210  26.820  26.426  1.00  0.00     0.064 A 
ATOM     87  C   UNL A   1      49.583  26.994  25.086  1.00  0.00     0.173 A 
ATOM     88  C   UNL A   1      50.184  26.346  27.317  1.00  0.00     0.173 A 
ATOM     89  F   UNL A   1      48.681  27.426  24.191  1.00  0.00    -0.203 F 
ATOM     90  C   UNL A   1      50.866  26.674  24.647  1.00  0.00     0.198 A 
ATOM     91  C   UNL A   1      51.475  26.054  26.883  1.00  0.00     0.198 A 
ATOM     92  F   UNL A   1      49.880  26.166  28.611  1.00  0.00    -0.203 F 
ATOM     93  F   UNL A   1      51.177  26.796  23.349  1.00  0.00    -0.200 F 
ATOM     94  C   UNL A   1      51.812  26.207  25.546  1.00  0.00     0.200 A 
ATOM     95  F   UNL A   1      52.391  25.613  27.756  1.00  0.00    -0.200 F 
ATOM     96  F   UNL A   1      53.044  25.893  25.123  1.00  0.00    -0.200 F 
ENDBRANCH  62  86
BRANCH  74  97
ATOM     97  C   UNL A   1      46.136  32.405  29.216  1.00  0.00     0.064 A 
ATOM     98  C   UNL A   1      46.119  33.493  28.331  1.00  0.00     0.173 A 
ATOM     99  C   UNL A   1      46.618  32.618  30.516  1.00  0.00     0.173 A 
ATOM    100  F   UNL A   1      45.680  33.333  27.074  1.00  0.00    -0.203 F 
ATOM    101  C   UNL A   1      46.592  34.741  28.727  1.00  0.00     0.198 A 
ATOM    102  C   UNL A   1      47.063  33.874  30.916  1.00  0.00     0.198 A 
ATOM    103  F   UNL A   1      46.647  31.610  31.401  1.00  0.00    -0.203 F 
ATOM    104  F   UNL A   1      46.607  35.757  27.853  1.00  0.00    -0.200 F 
ATOM    105  C   UNL A   1      47.055  34.933  30.021  1.00  0.00     0.200 A 
ATOM    106  F   UNL A   1      47.499  34.061  32.170  1.00  0.00    -0.200 F 
ATOM    107  F   UNL A   1      47.502  36.137  30.402  1.00  0.00    -0.200 F 
ENDBRANCH  74  97
ENDBRANCH  48  49
ENDBRANCH  40  43
ENDBRANCH  38  39
ENDBRANCH  37  38
ENDBRANCH   1  37
TORSDOF 17
ENDMDL
MODEL 2
REMARK VINA RESULT:     -12.7      0.437      7.038
REMARK SMILES C/C=C(\C)[C@@H]1C=C[C@@H]2C[C@H](C)C[C@H](C)[C@@H]2[C@@H]1C(=O)C1=C(NCCCNC(=O)c2ccc(-c3c4nc(c(-c5c(F)c(F)c(F)c(F)c5F)c5ccc([nH]5)c(-c5c(F)c(F)c(F)c(F)c5F)c5nc(c(-c6c(F)c(F)c(F)c(F)c6F)c6ccc3[nH]6)C=C5)C=C4)cc2)[C@H](C[C@](C)(O)C(=O)[O-])NC1=O
REMARK SMILES IDX 22 1 21 2 20 4 19 5 100 6 91 7 99 8 101 9 17 11 18 12 16 13
REMARK SMILES IDX 5 14 6 15 7 16 15 17 8 18 13 19 9 20 12 21 14 22 10 23 11 24
REMARK SMILES IDX 3 25 1 26 2 27 4 28 92 29 93 30 94 31 95 32 96 34 97 35
REMARK SMILES IDX 98 36 23 37 24 38 25 39 26 40 27 42 28 43 29 44 90 45 30 46
REMARK SMILES IDX 89 47 31 48 32 49 33 50 83 51 34 52 88 53 82 54 84 55 35 56
REMARK SMILES IDX 87 57 81 58 80 59 36 61 68 62 48 63 67 64 49 65 52 66 66 67
REMARK SMILES IDX 85 68 50 69 51 70 65 72 86 73 53 74 37 75 38 76 46 77 39 78
REMARK SMILES IDX 40 79 44 80 47 81 41 82 42 83 45 84 43 85 69 86 70 87 78 88
REMARK SMILES IDX 71 89 72 90 76 91 79 92 73 93 74 94 77 95 75 96 54 97 55 98
REMARK SMILES IDX 63 99 56 100 57 101 61 102 64 103 58 104 59 105 62 106
REMARK SMILES IDX 60 107
REMARK H PARENT 21 3 99 10 95 33 25 41 84 60 52 71
REMARK Flexibility Score: inf
ROOT
ATOM      1  C   UNL A   1      37.070  19.466  24.967  1.00  0.00     0.114 C 
ENDROOT
BRANCH   1   2
ATOM      2  N   UNL A   1      36.129  20.547  24.754  1.00  0.00    -0.386 N 
ATOM      3  H   UNL A   1      36.532  21.397  24.466  1.00  0.00     0.160 HD
BRANCH   2   4
ATOM      4  C   UNL A   1      34.762  20.570  24.890  1.00  0.00     0.050 C 
ATOM      5  C   UNL A   1      33.833  21.541  24.731  1.00  0.00     0.104 C 
ATOM      6  C   UNL A   1      32.604  20.924  25.321  1.00  0.00     0.257 C 
ATOM      7  C   UNL A   1      34.134  19.246  25.327  1.00  0.00     0.133 C 
ATOM      8  N   UNL A   1      32.941  19.738  25.913  1.00  0.00    -0.343 N 
ATOM      9  O   UNL A   1      31.431  21.277  25.331  1.00  0.00    -0.269 OA
ATOM     10  H   UNL A   1      32.434  19.295  26.631  1.00  0.00     0.164 HD
BRANCH   5  11
ATOM     11  C   UNL A   1      34.000  22.776  23.891  1.00  0.00     0.174 C 
ATOM     12  O   UNL A   1      33.726  22.635  22.686  1.00  0.00    -0.294 OA
BRANCH  11  13
ATOM     13  C   UNL A   1      34.531  24.189  24.369  1.00  0.00     0.076 C 
ATOM     14  C   UNL A   1      35.406  24.162  25.647  1.00  0.00     0.048 C 
ATOM     15  C   UNL A   1      34.492  23.763  26.793  1.00  0.00    -0.022 C 
ATOM     16  C   UNL A   1      33.176  24.093  26.784  1.00  0.00    -0.027 C 
ATOM     17  C   UNL A   1      33.507  25.356  24.649  1.00  0.00     0.010 C 
ATOM     18  C   UNL A   1      32.473  24.903  25.678  1.00  0.00     0.016 C 
ATOM     19  C   UNL A   1      32.852  26.140  23.496  1.00  0.00    -0.010 C 
ATOM     20  C   UNL A   1      31.331  24.167  24.960  1.00  0.00     0.011 C 
ATOM     21  C   UNL A   1      31.839  25.317  22.727  1.00  0.00     0.007 C 
ATOM     22  C   UNL A   1      33.870  26.810  22.576  1.00  0.00     0.008 C 
ATOM     23  C   UNL A   1      30.761  24.750  23.658  1.00  0.00    -0.013 C 
ATOM     24  C   UNL A   1      30.008  23.640  22.905  1.00  0.00     0.007 C 
BRANCH  14  25
ATOM     25  C   UNL A   1      36.837  23.612  25.503  1.00  0.00    -0.070 C 
ATOM     26  C   UNL A   1      39.212  23.259  26.411  1.00  0.00     0.035 C 
ATOM     27  C   UNL A   1      37.746  23.580  26.501  1.00  0.00    -0.031 C 
ATOM     28  C   UNL A   1      37.228  23.335  24.057  1.00  0.00     0.040 C 
ENDBRANCH  14  25
ENDBRANCH  11  13
ENDBRANCH   5  11
BRANCH   7  29
ATOM     29  C   UNL A   1      33.704  18.269  24.193  1.00  0.00     0.072 C 
BRANCH  29  30
ATOM     30  C   UNL A   1      34.015  16.760  24.254  1.00  0.00     0.103 C 
ATOM     31  C   UNL A   1      35.318  16.487  24.994  1.00  0.00     0.049 C 
BRANCH  30  32
ATOM     32  O   UNL A   1      34.107  16.142  22.975  1.00  0.00    -0.384 OA
ATOM     33  H   UNL A   1      33.299  16.322  22.470  1.00  0.00     0.211 HD
ENDBRANCH  30  32
BRANCH  30  34
ATOM     34  C   UNL A   1      32.834  16.035  24.922  1.00  0.00     0.073 C 
ATOM     35  O   UNL A   1      32.715  14.844  25.149  1.00  0.00    -0.547 OA
ATOM     36  O   UNL A   1      31.848  16.908  25.251  1.00  0.00    -0.547 OA
ENDBRANCH  30  34
ENDBRANCH  29  30
ENDBRANCH   7  29
ENDBRANCH   2   4
ENDBRANCH   1   2
BRANCH   1  37
ATOM     37  C   UNL A   1      38.483  19.997  24.791  1.00  0.00     0.042 C 
BRANCH  37  38
ATOM     38  C   UNL A   1      39.306  19.942  26.071  1.00  0.00     0.118 C 
BRANCH  38  39
ATOM     39  N   UNL A   1      40.494  19.120  25.945  1.00  0.00    -0.352 N 
ATOM     40  C   UNL A   1      41.813  19.497  25.962  1.00  0.00     0.251 C 
ATOM     41  H   UNL A   1      40.330  18.157  25.830  1.00  0.00     0.163 HD
ATOM     42  O   UNL A   1      42.691  18.690  25.671  1.00  0.00    -0.269 OA
BRANCH  40  43
ATOM     43  C   UNL A   1      42.178  20.891  26.298  1.00  0.00     0.039 A 
ATOM     44  C   UNL A   1      42.345  21.237  27.640  1.00  0.00     0.014 A 
ATOM     45  C   UNL A   1      42.348  21.857  25.303  1.00  0.00     0.014 A 
ATOM     46  C   UNL A   1      42.726  22.536  27.979  1.00  0.00     0.010 A 
ATOM     47  C   UNL A   1      42.845  23.113  25.632  1.00  0.00     0.010 A 
ATOM     48  C   UNL A   1      43.004  23.480  26.976  1.00  0.00    -0.014 A 
BRANCH  48  49
ATOM     49  C   UNL A   1      43.376  24.879  27.309  1.00  0.00     0.031 A 
ATOM     50  C   UNL A   1      44.781  25.354  27.042  1.00  0.00     0.074 A 
ATOM     51  C   UNL A   1      42.478  25.708  27.877  1.00  0.00     0.049 A 
ATOM     52  N   UNL A   1      45.343  26.499  27.339  1.00  0.00    -0.248 NA
ATOM     53  C   UNL A   1      45.691  24.400  26.385  1.00  0.00     0.031 C 
ATOM     54  C   UNL A   1      41.099  25.359  28.224  1.00  0.00     0.029 A 
ATOM     55  N   UNL A   1      42.594  27.019  28.264  1.00  0.00    -0.354 N 
ATOM     56  C   UNL A   1      46.666  26.388  26.929  1.00  0.00     0.074 A 
ATOM     57  C   UNL A   1      46.846  25.044  26.427  1.00  0.00     0.031 C 
ATOM     58  C   UNL A   1      40.487  26.439  28.736  1.00  0.00     0.029 A 
ATOM     59  C   UNL A   1      41.439  27.545  28.791  1.00  0.00     0.049 A 
ATOM     60  H   UNL A   1      43.428  27.536  28.174  1.00  0.00     0.167 HD
ATOM     61  C   UNL A   1      47.637  27.330  26.933  1.00  0.00     0.037 A 
ATOM     62  C   UNL A   1      41.182  28.780  29.262  1.00  0.00     0.037 A 
ATOM     63  C   UNL A   1      47.444  28.684  27.377  1.00  0.00     0.049 A 
ATOM     64  C   UNL A   1      42.276  29.814  29.239  1.00  0.00     0.074 A 
ATOM     65  C   UNL A   1      48.351  29.727  27.389  1.00  0.00     0.029 A 
ATOM     66  N   UNL A   1      46.248  29.184  27.870  1.00  0.00    -0.354 N 
ATOM     67  N   UNL A   1      43.512  29.704  28.815  1.00  0.00    -0.248 NA
ATOM     68  C   UNL A   1      41.937  31.149  29.753  1.00  0.00     0.031 C 
ATOM     69  C   UNL A   1      47.710  30.856  27.911  1.00  0.00     0.029 A 
ATOM     70  C   UNL A   1      46.395  30.523  28.188  1.00  0.00     0.049 A 
ATOM     71  H   UNL A   1      45.419  28.664  27.977  1.00  0.00     0.167 HD
ATOM     72  C   UNL A   1      44.084  30.959  28.979  1.00  0.00     0.074 A 
ATOM     73  C   UNL A   1      43.057  31.818  29.528  1.00  0.00     0.031 C 
ATOM     74  C   UNL A   1      45.348  31.364  28.704  1.00  0.00     0.037 A 
BRANCH  61  75
ATOM     75  C   UNL A   1      48.989  26.937  26.412  1.00  0.00     0.064 A 
ATOM     76  C   UNL A   1      49.964  26.381  27.255  1.00  0.00     0.173 A 
ATOM     77  C   UNL A   1      49.301  27.083  25.053  1.00  0.00     0.173 A 
ATOM     78  F   UNL A   1      49.719  26.235  28.565  1.00  0.00    -0.203 F 
ATOM     79  C   UNL A   1      51.210  26.009  26.761  1.00  0.00     0.198 A 
ATOM     80  C   UNL A   1      50.539  26.682  24.556  1.00  0.00     0.198 A 
ATOM     81  F   UNL A   1      48.405  27.607  24.204  1.00  0.00    -0.203 F 
ATOM     82  F   UNL A   1      52.142  25.525  27.593  1.00  0.00    -0.200 F 
ATOM     83  C   UNL A   1      51.494  26.151  25.410  1.00  0.00     0.200 A 
ATOM     84  F   UNL A   1      50.809  26.811  23.249  1.00  0.00    -0.200 F 
ATOM     85  F   UNL A   1      52.692  25.785  24.934  1.00  0.00    -0.200 F 
ENDBRANCH  61  75
BRANCH  62  86
ATOM     86  C   UNL A   1      39.826  29.127  29.764  1.00  0.00     0.064 A 
ATOM     87  C   UNL A   1      39.510  28.997  31.124  1.00  0.00     0.173 A 
ATOM     88  C   UNL A   1      38.812  29.559  28.898  1.00  0.00     0.173 A 
ATOM     89  F   UNL A   1      40.441  28.567  31.989  1.00  0.00    -0.203 F 
ATOM     90  C   UNL A   1      38.224  29.257  31.594  1.00  0.00     0.198 A 
ATOM     91  C   UNL A   1      37.533  29.845  29.374  1.00  0.00     0.198 A 
ATOM     92  F   UNL A   1      39.062  29.703  27.589  1.00  0.00    -0.203 F 
ATOM     93  F   UNL A   1      37.936  29.069  32.889  1.00  0.00    -0.200 F 
ATOM     94  C   UNL A   1      37.238  29.683  30.719  1.00  0.00     0.200 A 
ATOM     95  F   UNL A   1      36.585  30.268  28.527  1.00  0.00    -0.200 F 
ATOM     96  F   UNL A   1      35.999  29.926  31.170  1.00  0.00    -0.200 F 
ENDBRANCH  62  86
BRANCH  74  97
ATOM     97  C   UNL A   1      45.673  32.809  28.940  1.00  0.00     0.064 A 
ATOM     98  C   UNL A   1      46.253  33.245  30.139  1.00  0.00     0.173 A 
ATOM     99  C   UNL A   1      45.442  33.759  27.933  1.00  0.00     0.173 A 
ATOM    100  F   UNL A   1      46.479  32.375  31.135  1.00  0.00    -0.203 F 
ATOM    101  C   UNL A   1      46.566  34.588  30.332  1.00  0.00     0.198 A 
ATOM    102  C   UNL A   1      45.783  35.094  28.119  1.00  0.00     0.198 A 
ATOM    103  F   UNL A   1      44.896  33.388  26.764  1.00  0.00    -0.203 F 
ATOM    104  F   UNL A   1      47.080  34.991  31.503  1.00  0.00    -0.200 F 
ATOM    105  C   UNL A   1      46.339  35.509  29.320  1.00  0.00     0.200 A 
ATOM    106  F   UNL A   1      45.575  35.981  27.136  1.00  0.00    -0.200 F 
ATOM    107  F   UNL A   1      46.649  36.799  29.505  1.00  0.00    -0.200 F 
ENDBRANCH  74  97
ENDBRANCH  48  49
ENDBRANCH  40  43
ENDBRANCH  38  39
ENDBRANCH  37  38
ENDBRANCH   1  37
TORSDOF 17
ENDMDL
MODEL 3
REMARK VINA RESULT:     -12.1      3.222      8.535
REMARK SMILES C/C=C(\C)[C@@H]1C=C[C@@H]2C[C@H](C)C[C@H](C)[C@@H]2[C@@H]1C(=O)C1=C(NCCCNC(=O)c2ccc(-c3c4nc(c(-c5c(F)c(F)c(F)c(F)c5F)c5ccc([nH]5)c(-c5c(F)c(F)c(F)c(F)c5F)c5nc(c(-c6c(F)c(F)c(F)c(F)c6F)c6ccc3[nH]6)C=C5)C=C4)cc2)[C@H](C[C@](C)(O)C(=O)[O-])NC1=O
REMARK SMILES IDX 22 1 21 2 20 4 19 5 100 6 91 7 99 8 101 9 17 11 18 12 16 13
REMARK SMILES IDX 5 14 6 15 7 16 15 17 8 18 13 19 9 20 12 21 14 22 10 23 11 24
REMARK SMILES IDX 3 25 1 26 2 27 4 28 92 29 93 30 94 31 95 32 96 34 97 35
REMARK SMILES IDX 98 36 23 37 24 38 25 39 26 40 27 42 28 43 29 44 90 45 30 46
REMARK SMILES IDX 89 47 31 48 32 49 33 50 83 51 34 52 88 53 82 54 84 55 35 56
REMARK SMILES IDX 87 57 81 58 80 59 36 61 68 62 48 63 67 64 49 65 52 66 66 67
REMARK SMILES IDX 85 68 50 69 51 70 65 72 86 73 53 74 37 75 38 76 46 77 39 78
REMARK SMILES IDX 40 79 44 80 47 81 41 82 42 83 45 84 43 85 69 86 70 87 78 88
REMARK SMILES IDX 71 89 72 90 76 91 79 92 73 93 74 94 77 95 75 96 54 97 55 98
REMARK SMILES IDX 63 99 56 100 57 101 61 102 64 103 58 104 59 105 62 106
REMARK SMILES IDX 60 107
REMARK H PARENT 21 3 99 10 95 33 25 41 84 60 52 71
REMARK Flexibility Score: inf
ROOT
ATOM      1  C   UNL A   1      34.913  24.773  25.117  1.00  0.00     0.114 C 
ENDROOT
BRANCH   1   2
ATOM      2  N   UNL A   1      33.907  25.150  26.089  1.00  0.00    -0.386 N 
ATOM      3  H   UNL A   1      34.252  25.611  26.887  1.00  0.00     0.160 HD
BRANCH   2   4
ATOM      4  C   UNL A   1      32.545  24.965  26.069  1.00  0.00     0.050 C 
ATOM      5  C   UNL A   1      31.500  25.759  26.399  1.00  0.00     0.104 C 
ATOM      6  C   UNL A   1      30.347  24.805  26.397  1.00  0.00     0.257 C 
ATOM      7  C   UNL A   1      32.087  23.584  25.600  1.00  0.00     0.133 C 
ATOM      8  N   UNL A   1      30.820  23.533  26.233  1.00  0.00    -0.343 N 
ATOM      9  O   UNL A   1      29.137  24.979  26.485  1.00  0.00    -0.269 OA
ATOM     10  H   UNL A   1      30.355  22.712  26.511  1.00  0.00     0.164 HD
BRANCH   5  11
ATOM     11  C   UNL A   1      31.526  27.261  26.442  1.00  0.00     0.174 C 
ATOM     12  O   UNL A   1      31.756  27.752  27.561  1.00  0.00    -0.294 OA
BRANCH  11  13
ATOM     13  C   UNL A   1      31.241  28.254  25.243  1.00  0.00     0.076 C 
ATOM     14  C   UNL A   1      31.065  27.577  23.860  1.00  0.00     0.048 C 
ATOM     15  C   UNL A   1      32.419  27.003  23.480  1.00  0.00    -0.022 C 
ATOM     16  C   UNL A   1      33.569  27.594  23.893  1.00  0.00    -0.027 C 
ATOM     17  C   UNL A   1      32.244  29.436  24.949  1.00  0.00     0.010 C 
ATOM     18  C   UNL A   1      33.651  28.881  24.736  1.00  0.00     0.016 C 
ATOM     19  C   UNL A   1      32.263  30.705  25.821  1.00  0.00    -0.010 C 
ATOM     20  C   UNL A   1      34.346  28.721  26.098  1.00  0.00     0.011 C 
ATOM     21  C   UNL A   1      32.823  30.457  27.208  1.00  0.00     0.007 C 
ATOM     22  C   UNL A   1      30.915  31.421  25.862  1.00  0.00     0.008 C 
ATOM     23  C   UNL A   1      34.225  29.844  27.140  1.00  0.00    -0.013 C 
ATOM     24  C   UNL A   1      34.570  29.273  28.526  1.00  0.00     0.007 C 
BRANCH  14  25
ATOM     25  C   UNL A   1      29.749  26.818  23.616  1.00  0.00    -0.070 C 
ATOM     26  C   UNL A   1      27.230  26.503  24.001  1.00  0.00     0.035 C 
ATOM     27  C   UNL A   1      28.532  27.254  24.008  1.00  0.00    -0.031 C 
ATOM     28  C   UNL A   1      29.963  25.398  23.111  1.00  0.00     0.040 C 
ENDBRANCH  14  25
ENDBRANCH  11  13
ENDBRANCH   5  11
BRANCH   7  29
ATOM     29  C   UNL A   1      31.829  23.415  24.074  1.00  0.00     0.072 C 
BRANCH  29  30
ATOM     30  C   UNL A   1      32.601  22.385  23.224  1.00  0.00     0.103 C 
ATOM     31  C   UNL A   1      33.723  23.043  22.431  1.00  0.00     0.049 C 
BRANCH  30  32
ATOM     32  O   UNL A   1      31.783  21.672  22.303  1.00  0.00    -0.384 OA
ATOM     33  H   UNL A   1      31.487  22.273  21.602  1.00  0.00     0.211 HD
ENDBRANCH  30  32
BRANCH  30  34
ATOM     34  C   UNL A   1      33.147  21.284  24.150  1.00  0.00     0.073 C 
ATOM     35  O   UNL A   1      34.296  21.112  24.518  1.00  0.00    -0.547 OA
ATOM     36  O   UNL A   1      32.157  20.443  24.545  1.00  0.00    -0.547 OA
ENDBRANCH  30  34
ENDBRANCH  29  30
ENDBRANCH   7  29
ENDBRANCH   2   4
ENDBRANCH   1   2
BRANCH   1  37
ATOM     37  C   UNL A   1      35.962  23.909  25.799  1.00  0.00     0.042 C 
BRANCH  37  38
ATOM     38  C   UNL A   1      37.194  23.672  24.937  1.00  0.00     0.118 C 
BRANCH  38  39
ATOM     39  N   UNL A   1      38.038  22.605  25.439  1.00  0.00    -0.352 N 
ATOM     40  C   UNL A   1      39.166  22.686  26.216  1.00  0.00     0.251 C 
ATOM     41  H   UNL A   1      37.763  21.694  25.185  1.00  0.00     0.163 HD
ATOM     42  O   UNL A   1      39.856  21.691  26.410  1.00  0.00    -0.269 OA
BRANCH  40  43
ATOM     43  C   UNL A   1      39.571  23.986  26.795  1.00  0.00     0.039 A 
ATOM     44  C   UNL A   1      40.233  24.907  25.981  1.00  0.00     0.014 A 
ATOM     45  C   UNL A   1      39.308  24.299  28.131  1.00  0.00     0.014 A 
ATOM     46  C   UNL A   1      40.590  26.154  26.495  1.00  0.00     0.010 A 
ATOM     47  C   UNL A   1      39.554  25.583  28.605  1.00  0.00     0.010 A 
ATOM     48  C   UNL A   1      40.232  26.514  27.805  1.00  0.00    -0.014 A 
BRANCH  48  49
ATOM     49  C   UNL A   1      40.631  27.820  28.388  1.00  0.00     0.031 A 
ATOM     50  C   UNL A   1      42.082  28.074  28.709  1.00  0.00     0.074 A 
ATOM     51  C   UNL A   1      39.703  28.759  28.660  1.00  0.00     0.049 A 
ATOM     52  N   UNL A   1      42.634  29.101  29.305  1.00  0.00    -0.248 NA
ATOM     53  C   UNL A   1      43.037  27.013  28.347  1.00  0.00     0.031 C 
ATOM     54  C   UNL A   1      38.263  28.622  28.434  1.00  0.00     0.029 A 
ATOM     55  N   UNL A   1      39.836  30.018  29.189  1.00  0.00    -0.354 N 
ATOM     56  C   UNL A   1      43.986  28.795  29.407  1.00  0.00     0.074 A 
ATOM     57  C   UNL A   1      44.163  27.462  28.879  1.00  0.00     0.031 C 
ATOM     58  C   UNL A   1      37.652  29.765  28.785  1.00  0.00     0.029 A 
ATOM     59  C   UNL A   1      38.649  30.701  29.298  1.00  0.00     0.049 A 
ATOM     60  H   UNL A   1      40.702  30.397  29.466  1.00  0.00     0.167 HD
ATOM     61  C   UNL A   1      44.998  29.569  29.864  1.00  0.00     0.037 A 
ATOM     62  C   UNL A   1      38.398  31.941  29.758  1.00  0.00     0.037 A 
ATOM     63  C   UNL A   1      44.832  30.917  30.334  1.00  0.00     0.049 A 
ATOM     64  C   UNL A   1      39.546  32.786  30.245  1.00  0.00     0.074 A 
ATOM     65  C   UNL A   1      45.796  31.800  30.784  1.00  0.00     0.029 A 
ATOM     66  N   UNL A   1      43.617  31.582  30.394  1.00  0.00    -0.354 N 
ATOM     67  N   UNL A   1      40.823  32.497  30.302  1.00  0.00    -0.248 NA
ATOM     68  C   UNL A   1      39.217  34.136  30.725  1.00  0.00     0.031 C 
ATOM     69  C   UNL A   1      45.161  32.995  31.139  1.00  0.00     0.029 A 
ATOM     70  C   UNL A   1      43.808  32.866  30.873  1.00  0.00     0.049 A 
ATOM     71  H   UNL A   1      42.748  31.198  30.134  1.00  0.00     0.167 HD
ATOM     72  C   UNL A   1      41.451  33.636  30.788  1.00  0.00     0.074 A 
ATOM     73  C   UNL A   1      40.417  34.626  30.998  1.00  0.00     0.031 C 
ATOM     74  C   UNL A   1      42.766  33.843  31.043  1.00  0.00     0.037 A 
BRANCH  61  75
ATOM     75  C   UNL A   1      46.381  28.985  29.846  1.00  0.00     0.064 A 
ATOM     76  C   UNL A   1      47.217  29.121  28.727  1.00  0.00     0.173 A 
ATOM     77  C   UNL A   1      46.889  28.316  30.969  1.00  0.00     0.173 A 
ATOM     78  F   UNL A   1      46.772  29.738  27.623  1.00  0.00    -0.203 F 
ATOM     79  C   UNL A   1      48.502  28.585  28.723  1.00  0.00     0.198 A 
ATOM     80  C   UNL A   1      48.187  27.808  30.972  1.00  0.00     0.198 A 
ATOM     81  F   UNL A   1      46.132  28.161  32.065  1.00  0.00    -0.203 F 
ATOM     82  F   UNL A   1      49.264  28.685  27.626  1.00  0.00    -0.200 F 
ATOM     83  C   UNL A   1      48.989  27.938  29.849  1.00  0.00     0.200 A 
ATOM     84  F   UNL A   1      48.660  27.191  32.064  1.00  0.00    -0.200 F 
ATOM     85  F   UNL A   1      50.229  27.431  29.847  1.00  0.00    -0.200 F 
ENDBRANCH  61  75
BRANCH  62  86
ATOM     86  C   UNL A   1      37.013  32.480  29.753  1.00  0.00     0.064 A 
ATOM     87  C   UNL A   1      36.527  33.200  28.652  1.00  0.00     0.173 A 
ATOM     88  C   UNL A   1      36.160  32.320  30.854  1.00  0.00     0.173 A 
ATOM     89  F   UNL A   1      37.312  33.397  27.582  1.00  0.00    -0.203 F 
ATOM     90  C   UNL A   1      35.253  33.765  28.665  1.00  0.00     0.198 A 
ATOM     91  C   UNL A   1      34.876  32.862  30.854  1.00  0.00     0.198 A 
ATOM     92  F   UNL A   1      36.575  31.637  31.931  1.00  0.00    -0.203 F 
ATOM     93  F   UNL A   1      34.837  34.496  27.621  1.00  0.00    -0.200 F 
ATOM     94  C   UNL A   1      34.428  33.593  29.764  1.00  0.00     0.200 A 
ATOM     95  F   UNL A   1      34.076  32.685  31.915  1.00  0.00    -0.200 F 
ATOM     96  F   UNL A   1      33.205  34.142  29.779  1.00  0.00    -0.200 F 
ENDBRANCH  62  86
BRANCH  74  97
ATOM     97  C   UNL A   1      43.166  35.206  31.524  1.00  0.00     0.064 A 
ATOM     98  C   UNL A   1      43.132  35.546  32.883  1.00  0.00     0.173 A 
ATOM     99  C   UNL A   1      43.632  36.168  30.613  1.00  0.00     0.173 A 
ATOM    100  F   UNL A   1      42.681  34.664  33.788  1.00  0.00    -0.203 F 
ATOM    101  C   UNL A   1      43.526  36.810  33.312  1.00  0.00     0.198 A 
ATOM    102  C   UNL A   1      44.051  37.420  31.050  1.00  0.00     0.198 A 
ATOM    103  F   UNL A   1      43.690  35.887  29.303  1.00  0.00    -0.203 F 
ATOM    104  F   UNL A   1      43.445  37.129  34.611  1.00  0.00    -0.200 F 
ATOM    105  C   UNL A   1      43.993  37.743  32.397  1.00  0.00     0.200 A 
ATOM    106  F   UNL A   1      44.514  38.316  30.166  1.00  0.00    -0.200 F 
ATOM    107  F   UNL A   1      44.379  38.956  32.814  1.00  0.00    -0.200 F 
ENDBRANCH  74  97
ENDBRANCH  48  49
ENDBRANCH  40  43
ENDBRANCH  38  39
ENDBRANCH  37  38
ENDBRANCH   1  37
TORSDOF 17
ENDMDL
