MODEL 1
REMARK VINA RESULT:     -11.8      0.000      0.000
REMARK SMILES CCOc1ccc2c(c1)=N[C@H](SCC(=O)NCCCNC(=O)c1ccc(-c3c4nc(c(-c5c(F)c(F)c(F)c(F)c5F)c5ccc([nH]5)c(-c5c(F)c(F)c(F)c(F)c5F)c5nc(c(-c6c(F)c(F)c(F)c(F)c6F)c6ccc3[nH]6)C=C5)C=C4)cc1)N=2
REMARK SMILES IDX 17 1 16 2 14 3 15 4 13 6 12 7 11 8 4 9 5 10 9 11 6 12 8 13
REMARK SMILES IDX 7 14 10 15 86 16 3 17 2 18 1 19 18 20 19 21 20 22 21 23
REMARK SMILES IDX 22 25 23 26 24 27 85 28 25 29 84 30 26 31 27 32 28 33 78 34
REMARK SMILES IDX 29 35 83 36 77 37 79 38 30 39 82 40 76 41 75 42 31 44 63 45
REMARK SMILES IDX 43 46 62 47 44 48 47 49 61 50 80 51 45 52 46 53 60 55 81 56
REMARK SMILES IDX 48 57 32 58 33 59 41 60 34 61 35 62 39 63 42 64 36 65 37 66
REMARK SMILES IDX 40 67 38 68 64 69 65 70 73 71 66 72 67 73 71 74 74 75 68 76
REMARK SMILES IDX 69 77 72 78 70 79 49 80 50 81 58 82 51 83 52 84 56 85 59 86
REMARK SMILES IDX 53 87 54 88 57 89 55 90
REMARK H PARENT 16 5 20 24 79 43 47 54
REMARK Flexibility Score: inf
ROOT
ATOM      1  C   UNL A   1      36.690  20.699  24.996  1.00  0.00     0.117 C 
ENDROOT
BRANCH   1   2
ATOM      2  N   UNL A   1      35.401  20.027  25.012  1.00  0.00    -0.355 N 
ATOM      3  C   UNL A   1      34.158  20.540  25.252  1.00  0.00     0.230 C 
ATOM      4  O   UNL A   1      33.211  19.753  25.311  1.00  0.00    -0.274 OA
ATOM      5  H   UNL A   1      35.428  19.062  24.823  1.00  0.00     0.163 HD
BRANCH   3   6
ATOM      6  C   UNL A   1      33.952  22.037  25.390  1.00  0.00     0.173 C 
BRANCH   6   7
ATOM      7  S   UNL A   1      33.490  22.528  27.072  1.00  0.00    -0.102 SA
BRANCH   7   8
ATOM      8  C   UNL A   1      31.698  22.864  26.807  1.00  0.00     0.281 C 
ATOM      9  C   UNL A   1      30.378  26.518  24.546  1.00  0.00     0.121 A 
ATOM     10  C   UNL A   1      30.369  25.547  23.466  1.00  0.00     0.049 A 
ATOM     11  C   UNL A   1      30.685  26.200  25.812  1.00  0.00     0.076 A 
ATOM     12  C   UNL A   1      30.617  24.242  23.644  1.00  0.00     0.034 A 
ATOM     13  C   UNL A   1      31.016  24.800  26.088  1.00  0.00     0.090 A 
ATOM     14  C   UNL A   1      30.981  23.812  24.993  1.00  0.00     0.087 A 
ATOM     15  N   UNL A   1      31.363  24.265  27.204  1.00  0.00    -0.246 NA
ATOM     16  N   UNL A   1      31.304  22.632  25.392  1.00  0.00    -0.246 NA
BRANCH   9  17
ATOM     17  O   UNL A   1      30.219  27.833  24.169  1.00  0.00    -0.494 OA
BRANCH  17  18
ATOM     18  C   UNL A   1      29.964  28.013  22.772  1.00  0.00     0.226 C 
ATOM     19  C   UNL A   1      28.868  29.045  22.561  1.00  0.00     0.049 C 
ENDBRANCH  17  18
ENDBRANCH   9  17
ENDBRANCH   7   8
ENDBRANCH   6   7
ENDBRANCH   3   6
ENDBRANCH   1   2
BRANCH   1  20
ATOM     20  C   UNL A   1      37.852  19.710  24.963  1.00  0.00     0.042 C 
BRANCH  20  21
ATOM     21  C   UNL A   1      39.085  20.162  25.738  1.00  0.00     0.118 C 
BRANCH  21  22
ATOM     22  N   UNL A   1      40.115  19.136  25.822  1.00  0.00    -0.352 N 
ATOM     23  C   UNL A   1      41.464  19.258  26.062  1.00  0.00     0.251 C 
ATOM     24  H   UNL A   1      39.798  18.214  25.687  1.00  0.00     0.163 HD
ATOM     25  O   UNL A   1      42.194  18.278  25.952  1.00  0.00    -0.269 OA
BRANCH  23  26
ATOM     26  C   UNL A   1      42.049  20.572  26.416  1.00  0.00     0.039 A 
ATOM     27  C   UNL A   1      42.297  20.921  27.744  1.00  0.00     0.014 A 
ATOM     28  C   UNL A   1      42.358  21.472  25.391  1.00  0.00     0.014 A 
ATOM     29  C   UNL A   1      42.687  22.221  28.058  1.00  0.00     0.010 A 
ATOM     30  C   UNL A   1      42.830  22.751  25.704  1.00  0.00     0.010 A 
ATOM     31  C   UNL A   1      42.948  23.154  27.041  1.00  0.00    -0.014 A 
BRANCH  31  32
ATOM     32  C   UNL A   1      43.321  24.547  27.406  1.00  0.00     0.031 A 
ATOM     33  C   UNL A   1      44.705  25.069  27.127  1.00  0.00     0.074 A 
ATOM     34  C   UNL A   1      42.389  25.366  27.931  1.00  0.00     0.049 A 
ATOM     35  N   UNL A   1      45.195  26.266  27.341  1.00  0.00    -0.248 NA
ATOM     36  C   UNL A   1      45.667  24.129  26.532  1.00  0.00     0.031 C 
ATOM     37  C   UNL A   1      41.012  24.981  28.239  1.00  0.00     0.029 A 
ATOM     38  N   UNL A   1      42.448  26.694  28.269  1.00  0.00    -0.354 N 
ATOM     39  C   UNL A   1      46.519  26.216  26.921  1.00  0.00     0.074 A 
ATOM     40  C   UNL A   1      46.769  24.864  26.471  1.00  0.00     0.031 C 
ATOM     41  C   UNL A   1      40.340  26.061  28.665  1.00  0.00     0.029 A 
ATOM     42  C   UNL A   1      41.252  27.202  28.714  1.00  0.00     0.049 A 
ATOM     43  H   UNL A   1      43.270  27.233  28.199  1.00  0.00     0.167 HD
ATOM     44  C   UNL A   1      47.436  27.212  26.896  1.00  0.00     0.037 A 
ATOM     45  C   UNL A   1      40.924  28.442  29.120  1.00  0.00     0.037 A 
ATOM     46  C   UNL A   1      47.181  28.566  27.316  1.00  0.00     0.049 A 
ATOM     47  C   UNL A   1      41.973  29.519  29.119  1.00  0.00     0.074 A 
ATOM     48  C   UNL A   1      48.043  29.649  27.303  1.00  0.00     0.029 A 
ATOM     49  N   UNL A   1      45.972  29.023  27.819  1.00  0.00    -0.354 N 
ATOM     50  N   UNL A   1      43.217  29.459  28.713  1.00  0.00    -0.248 NA
ATOM     51  C   UNL A   1      41.574  30.833  29.644  1.00  0.00     0.031 C 
ATOM     52  C   UNL A   1      47.368  30.751  27.835  1.00  0.00     0.029 A 
ATOM     53  C   UNL A   1      46.072  30.367  28.139  1.00  0.00     0.049 A 
ATOM     54  H   UNL A   1      45.163  28.473  27.932  1.00  0.00     0.167 HD
ATOM     55  C   UNL A   1      43.748  30.723  28.924  1.00  0.00     0.074 A 
ATOM     56  C   UNL A   1      42.684  31.538  29.474  1.00  0.00     0.031 C 
ATOM     57  C   UNL A   1      45.006  31.166  28.688  1.00  0.00     0.037 A 
BRANCH  44  58
ATOM     58  C   UNL A   1      48.812  26.886  26.395  1.00  0.00     0.064 A 
ATOM     59  C   UNL A   1      49.795  26.359  27.246  1.00  0.00     0.173 A 
ATOM     60  C   UNL A   1      49.129  27.033  25.036  1.00  0.00     0.173 A 
ATOM     61  F   UNL A   1      49.544  26.206  28.555  1.00  0.00    -0.203 F 
ATOM     62  C   UNL A   1      51.050  26.004  26.756  1.00  0.00     0.198 A 
ATOM     63  C   UNL A   1      50.376  26.654  24.546  1.00  0.00     0.198 A 
ATOM     64  F   UNL A   1      48.221  27.524  24.180  1.00  0.00    -0.203 F 
ATOM     65  F   UNL A   1      51.983  25.529  27.592  1.00  0.00    -0.200 F 
ATOM     66  C   UNL A   1      51.335  26.143  25.406  1.00  0.00     0.200 A 
ATOM     67  F   UNL A   1      50.646  26.776  23.238  1.00  0.00    -0.200 F 
ATOM     68  F   UNL A   1      52.538  25.786  24.935  1.00  0.00    -0.200 F 
ENDBRANCH  44  58
BRANCH  45  69
ATOM     69  C   UNL A   1      39.532  28.730  29.548  1.00  0.00     0.064 A 
ATOM     70  C   UNL A   1      39.126  28.504  30.870  1.00  0.00     0.173 A 
ATOM     71  C   UNL A   1      38.589  29.259  28.655  1.00  0.00     0.173 A 
ATOM     72  F   UNL A   1      39.986  27.978  31.754  1.00  0.00    -0.203 F 
ATOM     73  C   UNL A   1      37.828  28.797  31.283  1.00  0.00     0.198 A 
ATOM     74  C   UNL A   1      37.299  29.577  29.076  1.00  0.00     0.198 A 
ATOM     75  F   UNL A   1      38.930  29.494  27.379  1.00  0.00    -0.203 F 
ATOM     76  F   UNL A   1      37.457  28.546  32.546  1.00  0.00    -0.200 F 
ATOM     77  C   UNL A   1      36.919  29.341  30.388  1.00  0.00     0.200 A 
ATOM     78  F   UNL A   1      36.429  30.116  28.211  1.00  0.00    -0.200 F 
ATOM     79  F   UNL A   1      35.675  29.636  30.789  1.00  0.00    -0.200 F 
ENDBRANCH  45  69
BRANCH  57  80
ATOM     80  C   UNL A   1      45.310  32.597  29.017  1.00  0.00     0.064 A 
ATOM     81  C   UNL A   1      45.062  33.624  28.097  1.00  0.00     0.173 A 
ATOM     82  C   UNL A   1      45.791  32.950  30.287  1.00  0.00     0.173 A 
ATOM     83  F   UNL A   1      44.615  33.334  26.865  1.00  0.00    -0.203 F 
ATOM     84  C   UNL A   1      45.294  34.955  28.432  1.00  0.00     0.198 A 
ATOM     85  C   UNL A   1      45.998  34.283  30.627  1.00  0.00     0.198 A 
ATOM     86  F   UNL A   1      46.038  32.003  31.204  1.00  0.00    -0.203 F 
ATOM     87  F   UNL A   1      45.078  35.920  27.527  1.00  0.00    -0.200 F 
ATOM     88  C   UNL A   1      45.753  35.284  29.699  1.00  0.00     0.200 A 
ATOM     89  F   UNL A   1      46.429  34.601  31.855  1.00  0.00    -0.200 F 
ATOM     90  F   UNL A   1      45.962  36.567  30.025  1.00  0.00    -0.200 F 
ENDBRANCH  57  80
ENDBRANCH  31  32
ENDBRANCH  23  26
ENDBRANCH  21  22
ENDBRANCH  20  21
ENDBRANCH   1  20
TORSDOF 14
ENDMDL
MODEL 2
REMARK VINA RESULT:     -11.8      5.528     11.175
REMARK SMILES CCOc1ccc2c(c1)=N[C@H](SCC(=O)NCCCNC(=O)c1ccc(-c3c4nc(c(-c5c(F)c(F)c(F)c(F)c5F)c5ccc([nH]5)c(-c5c(F)c(F)c(F)c(F)c5F)c5nc(c(-c6c(F)c(F)c(F)c(F)c6F)c6ccc3[nH]6)C=C5)C=C4)cc1)N=2
REMARK SMILES IDX 17 1 16 2 14 3 15 4 13 6 12 7 11 8 4 9 5 10 9 11 6 12 8 13
REMARK SMILES IDX 7 14 10 15 86 16 3 17 2 18 1 19 18 20 19 21 20 22 21 23
REMARK SMILES IDX 22 25 23 26 24 27 85 28 25 29 84 30 26 31 27 32 28 33 78 34
REMARK SMILES IDX 29 35 83 36 77 37 79 38 30 39 82 40 76 41 75 42 31 44 63 45
REMARK SMILES IDX 43 46 62 47 44 48 47 49 61 50 80 51 45 52 46 53 60 55 81 56
REMARK SMILES IDX 48 57 32 58 33 59 41 60 34 61 35 62 39 63 42 64 36 65 37 66
REMARK SMILES IDX 40 67 38 68 64 69 65 70 73 71 66 72 67 73 71 74 74 75 68 76
REMARK SMILES IDX 69 77 72 78 70 79 49 80 50 81 58 82 51 83 52 84 56 85 59 86
REMARK SMILES IDX 53 87 54 88 57 89 55 90
REMARK H PARENT 16 5 20 24 79 43 47 54
REMARK Flexibility Score: inf
ROOT
ATOM      1  C   UNL A   1      31.709  30.701  26.026  1.00  0.00     0.117 C 
ENDROOT
BRANCH   1   2
ATOM      2  N   UNL A   1      30.929  30.454  24.825  1.00  0.00    -0.355 N 
ATOM      3  C   UNL A   1      30.996  29.411  23.945  1.00  0.00     0.230 C 
ATOM      4  O   UNL A   1      30.294  29.465  22.933  1.00  0.00    -0.274 OA
ATOM      5  H   UNL A   1      30.253  31.138  24.615  1.00  0.00     0.163 HD
BRANCH   3   6
ATOM      6  C   UNL A   1      31.872  28.208  24.238  1.00  0.00     0.173 C 
BRANCH   6   7
ATOM      7  S   UNL A   1      33.273  28.068  23.098  1.00  0.00    -0.102 SA
BRANCH   7   8
ATOM      8  C   UNL A   1      32.638  26.729  22.003  1.00  0.00     0.281 C 
ATOM      9  C   UNL A   1      32.814  22.435  23.318  1.00  0.00     0.121 A 
ATOM     10  C   UNL A   1      31.459  22.760  23.728  1.00  0.00     0.049 A 
ATOM     11  C   UNL A   1      33.616  23.307  22.692  1.00  0.00     0.076 A 
ATOM     12  C   UNL A   1      30.874  23.938  23.476  1.00  0.00     0.034 A 
ATOM     13  C   UNL A   1      33.073  24.640  22.419  1.00  0.00     0.090 A 
ATOM     14  C   UNL A   1      31.687  24.958  22.814  1.00  0.00     0.087 A 
ATOM     15  N   UNL A   1      33.653  25.642  21.860  1.00  0.00    -0.246 NA
ATOM     16  N   UNL A   1      31.362  26.166  22.515  1.00  0.00    -0.246 NA
BRANCH   9  17
ATOM     17  O   UNL A   1      33.298  21.224  23.760  1.00  0.00    -0.494 OA
BRANCH  17  18
ATOM     18  C   UNL A   1      33.879  21.269  25.068  1.00  0.00     0.226 C 
ATOM     19  C   UNL A   1      35.361  20.940  25.002  1.00  0.00     0.049 C 
ENDBRANCH  17  18
ENDBRANCH   9  17
ENDBRANCH   7   8
ENDBRANCH   6   7
ENDBRANCH   3   6
ENDBRANCH   1   2
BRANCH   1  20
ATOM     20  C   UNL A   1      31.414  32.072  26.631  1.00  0.00     0.042 C 
BRANCH  20  21
ATOM     21  C   UNL A   1      32.625  32.759  27.252  1.00  0.00     0.118 C 
BRANCH  21  22
ATOM     22  N   UNL A   1      32.368  34.143  27.626  1.00  0.00    -0.352 N 
ATOM     23  C   UNL A   1      32.989  34.932  28.565  1.00  0.00     0.251 C 
ATOM     24  H   UNL A   1      31.638  34.580  27.130  1.00  0.00     0.163 HD
ATOM     25  O   UNL A   1      32.528  36.038  28.832  1.00  0.00    -0.269 OA
BRANCH  23  26
ATOM     26  C   UNL A   1      34.188  34.444  29.284  1.00  0.00     0.039 A 
ATOM     27  C   UNL A   1      35.468  34.605  28.751  1.00  0.00     0.014 A 
ATOM     28  C   UNL A   1      34.024  33.815  30.522  1.00  0.00     0.014 A 
ATOM     29  C   UNL A   1      36.556  33.989  29.365  1.00  0.00     0.010 A 
ATOM     30  C   UNL A   1      35.131  33.268  31.180  1.00  0.00     0.010 A 
ATOM     31  C   UNL A   1      36.398  33.305  30.581  1.00  0.00    -0.014 A 
BRANCH  31  32
ATOM     32  C   UNL A   1      37.568  32.619  31.191  1.00  0.00     0.031 A 
ATOM     33  C   UNL A   1      38.011  32.956  32.590  1.00  0.00     0.074 A 
ATOM     34  C   UNL A   1      38.194  31.642  30.507  1.00  0.00     0.049 A 
ATOM     35  N   UNL A   1      38.984  32.435  33.298  1.00  0.00    -0.248 NA
ATOM     36  C   UNL A   1      37.270  34.018  33.289  1.00  0.00     0.031 C 
ATOM     37  C   UNL A   1      37.854  31.217  29.150  1.00  0.00     0.029 A 
ATOM     38  N   UNL A   1      39.225  30.811  30.869  1.00  0.00    -0.354 N 
ATOM     39  C   UNL A   1      38.978  33.110  34.511  1.00  0.00     0.074 A 
ATOM     40  C   UNL A   1      37.929  34.104  34.436  1.00  0.00     0.031 C 
ATOM     41  C   UNL A   1      38.619  30.168  28.814  1.00  0.00     0.029 A 
ATOM     42  C   UNL A   1      39.543  29.881  29.909  1.00  0.00     0.049 A 
ATOM     43  H   UNL A   1      39.692  30.874  31.734  1.00  0.00     0.167 HD
ATOM     44  C   UNL A   1      39.764  32.909  35.596  1.00  0.00     0.037 A 
ATOM     45  C   UNL A   1      40.474  28.909  29.907  1.00  0.00     0.037 A 
ATOM     46  C   UNL A   1      40.789  31.901  35.682  1.00  0.00     0.049 A 
ATOM     47  C   UNL A   1      41.359  28.733  31.108  1.00  0.00     0.074 A 
ATOM     48  C   UNL A   1      41.619  31.606  36.751  1.00  0.00     0.029 A 
ATOM     49  N   UNL A   1      41.120  31.020  34.664  1.00  0.00    -0.354 N 
ATOM     50  N   UNL A   1      41.336  29.375  32.251  1.00  0.00    -0.248 NA
ATOM     51  C   UNL A   1      42.405  27.705  31.016  1.00  0.00     0.031 C 
ATOM     52  C   UNL A   1      42.479  30.574  36.365  1.00  0.00     0.029 A 
ATOM     53  C   UNL A   1      42.157  30.196  35.072  1.00  0.00     0.049 A 
ATOM     54  H   UNL A   1      40.684  30.986  33.782  1.00  0.00     0.167 HD
ATOM     55  C   UNL A   1      42.356  28.826  33.015  1.00  0.00     0.074 A 
ATOM     56  C   UNL A   1      42.964  27.782  32.216  1.00  0.00     0.031 C 
ATOM     57  C   UNL A   1      42.754  29.162  34.266  1.00  0.00     0.037 A 
BRANCH  44  58
ATOM     58  C   UNL A   1      39.552  33.792  36.789  1.00  0.00     0.064 A 
ATOM     59  C   UNL A   1      38.731  33.398  37.856  1.00  0.00     0.173 A 
ATOM     60  C   UNL A   1      40.233  35.014  36.901  1.00  0.00     0.173 A 
ATOM     61  F   UNL A   1      38.051  32.243  37.794  1.00  0.00    -0.203 F 
ATOM     62  C   UNL A   1      38.589  34.201  38.985  1.00  0.00     0.198 A 
ATOM     63  C   UNL A   1      40.109  35.802  38.042  1.00  0.00     0.198 A 
ATOM     64  F   UNL A   1      41.037  35.432  35.912  1.00  0.00    -0.203 F 
ATOM     65  F   UNL A   1      37.778  33.818  39.980  1.00  0.00    -0.200 F 
ATOM     66  C   UNL A   1      39.285  35.397  39.081  1.00  0.00     0.200 A 
ATOM     67  F   UNL A   1      40.793  36.951  38.140  1.00  0.00    -0.200 F 
ATOM     68  F   UNL A   1      39.160  36.160  40.176  1.00  0.00    -0.200 F 
ENDBRANCH  44  58
BRANCH  45  69
ATOM     69  C   UNL A   1      40.602  28.020  28.724  1.00  0.00     0.064 A 
ATOM     70  C   UNL A   1      39.912  26.801  28.664  1.00  0.00     0.173 A 
ATOM     71  C   UNL A   1      41.390  28.381  27.622  1.00  0.00     0.173 A 
ATOM     72  F   UNL A   1      39.163  26.404  29.703  1.00  0.00    -0.203 F 
ATOM     73  C   UNL A   1      40.008  25.976  27.546  1.00  0.00     0.198 A 
ATOM     74  C   UNL A   1      41.463  27.568  26.493  1.00  0.00     0.198 A 
ATOM     75  F   UNL A   1      42.068  29.538  27.632  1.00  0.00    -0.203 F 
ATOM     76  F   UNL A   1      39.361  24.803  27.525  1.00  0.00    -0.200 F 
ATOM     77  C   UNL A   1      40.776  26.365  26.458  1.00  0.00     0.200 A 
ATOM     78  F   UNL A   1      42.195  27.954  25.439  1.00  0.00    -0.200 F 
ATOM     79  F   UNL A   1      40.856  25.578  25.377  1.00  0.00    -0.200 F 
ENDBRANCH  45  69
BRANCH  57  80
ATOM     80  C   UNL A   1      43.900  28.397  34.857  1.00  0.00     0.064 A 
ATOM     81  C   UNL A   1      43.694  27.193  35.544  1.00  0.00     0.173 A 
ATOM     82  C   UNL A   1      45.220  28.836  34.676  1.00  0.00     0.173 A 
ATOM     83  F   UNL A   1      42.449  26.740  35.755  1.00  0.00    -0.203 F 
ATOM     84  C   UNL A   1      44.769  26.461  36.040  1.00  0.00     0.198 A 
ATOM     85  C   UNL A   1      46.294  28.088  35.150  1.00  0.00     0.198 A 
ATOM     86  F   UNL A   1      45.469  29.978  34.018  1.00  0.00    -0.203 F 
ATOM     87  F   UNL A   1      44.549  25.328  36.721  1.00  0.00    -0.200 F 
ATOM     88  C   UNL A   1      46.067  26.903  35.835  1.00  0.00     0.200 A 
ATOM     89  F   UNL A   1      47.548  28.511  34.941  1.00  0.00    -0.200 F 
ATOM     90  F   UNL A   1      47.101  26.190  36.301  1.00  0.00    -0.200 F 
ENDBRANCH  57  80
ENDBRANCH  31  32
ENDBRANCH  23  26
ENDBRANCH  21  22
ENDBRANCH  20  21
ENDBRANCH   1  20
TORSDOF 14
ENDMDL
MODEL 3
REMARK VINA RESULT:     -11.8      0.325      1.652
REMARK SMILES CCOc1ccc2c(c1)=N[C@H](SCC(=O)NCCCNC(=O)c1ccc(-c3c4nc(c(-c5c(F)c(F)c(F)c(F)c5F)c5ccc([nH]5)c(-c5c(F)c(F)c(F)c(F)c5F)c5nc(c(-c6c(F)c(F)c(F)c(F)c6F)c6ccc3[nH]6)C=C5)C=C4)cc1)N=2
REMARK SMILES IDX 17 1 16 2 14 3 15 4 13 6 12 7 11 8 4 9 5 10 9 11 6 12 8 13
REMARK SMILES IDX 7 14 10 15 86 16 3 17 2 18 1 19 18 20 19 21 20 22 21 23
REMARK SMILES IDX 22 25 23 26 24 27 85 28 25 29 84 30 26 31 27 32 28 33 78 34
REMARK SMILES IDX 29 35 83 36 77 37 79 38 30 39 82 40 76 41 75 42 31 44 63 45
REMARK SMILES IDX 43 46 62 47 44 48 47 49 61 50 80 51 45 52 46 53 60 55 81 56
REMARK SMILES IDX 48 57 32 58 33 59 41 60 34 61 35 62 39 63 42 64 36 65 37 66
REMARK SMILES IDX 40 67 38 68 64 69 65 70 73 71 66 72 67 73 71 74 74 75 68 76
REMARK SMILES IDX 69 77 72 78 70 79 49 80 50 81 58 82 51 83 52 84 56 85 59 86
REMARK SMILES IDX 53 87 54 88 57 89 55 90
REMARK H PARENT 16 5 20 24 79 43 47 54
REMARK Flexibility Score: inf
ROOT
ATOM      1  C   UNL A   1      36.696  20.653  25.015  1.00  0.00     0.117 C 
ENDROOT
BRANCH   1   2
ATOM      2  N   UNL A   1      35.422  19.953  25.034  1.00  0.00    -0.355 N 
ATOM      3  C   UNL A   1      34.167  20.440  25.263  1.00  0.00     0.230 C 
ATOM      4  O   UNL A   1      33.238  19.632  25.328  1.00  0.00    -0.274 OA
ATOM      5  H   UNL A   1      35.472  18.986  24.857  1.00  0.00     0.163 HD
BRANCH   3   6
ATOM      6  C   UNL A   1      33.927  21.933  25.383  1.00  0.00     0.173 C 
BRANCH   6   7
ATOM      7  S   UNL A   1      33.474  22.437  27.064  1.00  0.00    -0.102 SA
BRANCH   7   8
ATOM      8  C   UNL A   1      31.692  22.818  26.794  1.00  0.00     0.281 C 
ATOM      9  C   UNL A   1      30.468  26.520  24.557  1.00  0.00     0.121 A 
ATOM     10  C   UNL A   1      30.440  25.557  23.470  1.00  0.00     0.049 A 
ATOM     11  C   UNL A   1      30.762  26.184  25.821  1.00  0.00     0.076 A 
ATOM     12  C   UNL A   1      30.656  24.246  23.638  1.00  0.00     0.034 A 
ATOM     13  C   UNL A   1      31.059  24.775  26.088  1.00  0.00     0.090 A 
ATOM     14  C   UNL A   1      31.004  23.796  24.985  1.00  0.00     0.087 A 
ATOM     15  N   UNL A   1      31.388  24.223  27.201  1.00  0.00    -0.246 NA
ATOM     16  N   UNL A   1      31.298  22.606  25.377  1.00  0.00    -0.246 NA
BRANCH   9  17
ATOM     17  O   UNL A   1      30.342  27.840  24.189  1.00  0.00    -0.494 OA
BRANCH  17  18
ATOM     18  C   UNL A   1      29.411  28.064  23.125  1.00  0.00     0.226 C 
ATOM     19  C   UNL A   1      29.036  29.535  23.048  1.00  0.00     0.049 C 
ENDBRANCH  17  18
ENDBRANCH   9  17
ENDBRANCH   7   8
ENDBRANCH   6   7
ENDBRANCH   3   6
ENDBRANCH   1   2
BRANCH   1  20
ATOM     20  C   UNL A   1      37.879  19.691  24.937  1.00  0.00     0.042 C 
BRANCH  20  21
ATOM     21  C   UNL A   1      39.094  20.121  25.750  1.00  0.00     0.118 C 
BRANCH  21  22
ATOM     22  N   UNL A   1      40.112  19.085  25.849  1.00  0.00    -0.352 N 
ATOM     23  C   UNL A   1      41.464  19.195  26.080  1.00  0.00     0.251 C 
ATOM     24  H   UNL A   1      39.783  18.164  25.733  1.00  0.00     0.163 HD
ATOM     25  O   UNL A   1      42.181  18.204  25.984  1.00  0.00    -0.269 OA
BRANCH  23  26
ATOM     26  C   UNL A   1      42.066  20.508  26.406  1.00  0.00     0.039 A 
ATOM     27  C   UNL A   1      42.262  20.907  27.728  1.00  0.00     0.014 A 
ATOM     28  C   UNL A   1      42.447  21.355  25.360  1.00  0.00     0.014 A 
ATOM     29  C   UNL A   1      42.672  22.209  28.005  1.00  0.00     0.010 A 
ATOM     30  C   UNL A   1      42.938  22.634  25.640  1.00  0.00     0.010 A 
ATOM     31  C   UNL A   1      43.005  23.091  26.964  1.00  0.00    -0.014 A 
BRANCH  31  32
ATOM     32  C   UNL A   1      43.397  24.489  27.287  1.00  0.00     0.031 A 
ATOM     33  C   UNL A   1      44.774  24.996  26.951  1.00  0.00     0.074 A 
ATOM     34  C   UNL A   1      42.487  25.324  27.826  1.00  0.00     0.049 A 
ATOM     35  N   UNL A   1      45.278  26.194  27.124  1.00  0.00    -0.248 NA
ATOM     36  C   UNL A   1      45.711  24.038  26.345  1.00  0.00     0.031 C 
ATOM     37  C   UNL A   1      41.119  24.955  28.187  1.00  0.00     0.029 A 
ATOM     38  N   UNL A   1      42.566  26.659  28.134  1.00  0.00    -0.354 N 
ATOM     39  C   UNL A   1      46.587  26.128  26.662  1.00  0.00     0.074 A 
ATOM     40  C   UNL A   1      46.814  24.765  26.232  1.00  0.00     0.031 C 
ATOM     41  C   UNL A   1      40.469  26.048  28.613  1.00  0.00     0.029 A 
ATOM     42  C   UNL A   1      41.388  27.183  28.608  1.00  0.00     0.049 A 
ATOM     43  H   UNL A   1      43.387  27.191  28.026  1.00  0.00     0.167 HD
ATOM     44  C   UNL A   1      47.508  27.117  26.586  1.00  0.00     0.037 A 
ATOM     45  C   UNL A   1      41.081  28.434  28.998  1.00  0.00     0.037 A 
ATOM     46  C   UNL A   1      47.274  28.480  26.986  1.00  0.00     0.049 A 
ATOM     47  C   UNL A   1      42.135  29.503  28.941  1.00  0.00     0.074 A 
ATOM     48  C   UNL A   1      48.142  29.557  26.922  1.00  0.00     0.029 A 
ATOM     49  N   UNL A   1      46.085  28.955  27.519  1.00  0.00    -0.354 N 
ATOM     50  N   UNL A   1      43.365  29.427  28.495  1.00  0.00    -0.248 NA
ATOM     51  C   UNL A   1      41.761  30.830  29.451  1.00  0.00     0.031 C 
ATOM     52  C   UNL A   1      47.492  30.675  27.453  1.00  0.00     0.029 A 
ATOM     53  C   UNL A   1      46.205  30.305  27.808  1.00  0.00     0.049 A 
ATOM     54  H   UNL A   1      45.278  28.413  27.670  1.00  0.00     0.167 HD
ATOM     55  C   UNL A   1      43.909  30.692  28.662  1.00  0.00     0.074 A 
ATOM     56  C   UNL A   1      42.869  31.525  29.229  1.00  0.00     0.031 C 
ATOM     57  C   UNL A   1      45.162  31.122  28.375  1.00  0.00     0.037 A 
BRANCH  44  58
ATOM     58  C   UNL A   1      48.865  26.771  26.047  1.00  0.00     0.064 A 
ATOM     59  C   UNL A   1      49.191  26.978  24.698  1.00  0.00     0.173 A 
ATOM     60  C   UNL A   1      49.871  26.297  26.901  1.00  0.00     0.173 A 
ATOM     61  F   UNL A   1      48.261  27.422  23.839  1.00  0.00    -0.203 F 
ATOM     62  C   UNL A   1      50.472  26.709  24.223  1.00  0.00     0.198 A 
ATOM     63  C   UNL A   1      51.158  26.053  26.427  1.00  0.00     0.198 A 
ATOM     64  F   UNL A   1      49.613  26.090  28.201  1.00  0.00    -0.203 F 
ATOM     65  F   UNL A   1      50.754  26.887  22.925  1.00  0.00    -0.200 F 
ATOM     66  C   UNL A   1      51.456  26.256  25.089  1.00  0.00     0.200 A 
ATOM     67  F   UNL A   1      52.112  25.628  27.268  1.00  0.00    -0.200 F 
ATOM     68  F   UNL A   1      52.692  26.013  24.632  1.00  0.00    -0.200 F 
ENDBRANCH  44  58
BRANCH  45  69
ATOM     69  C   UNL A   1      39.705  28.738  29.466  1.00  0.00     0.064 A 
ATOM     70  C   UNL A   1      39.348  28.562  30.810  1.00  0.00     0.173 A 
ATOM     71  C   UNL A   1      38.730  29.237  28.589  1.00  0.00     0.173 A 
ATOM     72  F   UNL A   1      40.240  28.066  31.680  1.00  0.00    -0.203 F 
ATOM     73  C   UNL A   1      38.066  28.871  31.259  1.00  0.00     0.198 A 
ATOM     74  C   UNL A   1      37.457  29.572  29.045  1.00  0.00     0.198 A 
ATOM     75  F   UNL A   1      39.025  29.424  27.295  1.00  0.00    -0.203 F 
ATOM     76  F   UNL A   1      37.741  28.667  32.542  1.00  0.00    -0.200 F 
ATOM     77  C   UNL A   1      37.125  29.384  30.378  1.00  0.00     0.200 A 
ATOM     78  F   UNL A   1      36.556  30.080  28.194  1.00  0.00    -0.200 F 
ATOM     79  F   UNL A   1      35.897  29.696  30.813  1.00  0.00    -0.200 F 
ENDBRANCH  45  69
BRANCH  57  80
ATOM     80  C   UNL A   1      45.485  32.557  28.664  1.00  0.00     0.064 A 
ATOM     81  C   UNL A   1      46.084  32.940  29.871  1.00  0.00     0.173 A 
ATOM     82  C   UNL A   1      45.254  33.548  27.698  1.00  0.00     0.173 A 
ATOM     83  F   UNL A   1      46.310  32.030  30.831  1.00  0.00    -0.203 F 
ATOM     84  C   UNL A   1      46.431  34.267  30.107  1.00  0.00     0.198 A 
ATOM     85  C   UNL A   1      45.627  34.870  27.926  1.00  0.00     0.198 A 
ATOM     86  F   UNL A   1      44.690  33.230  26.523  1.00  0.00    -0.203 F 
ATOM     87  F   UNL A   1      46.975  34.618  31.281  1.00  0.00    -0.200 F 
ATOM     88  C   UNL A   1      46.211  35.228  29.132  1.00  0.00     0.200 A 
ATOM     89  F   UNL A   1      45.425  35.795  26.979  1.00  0.00    -0.200 F 
ATOM     90  F   UNL A   1      46.559  36.503  29.355  1.00  0.00    -0.200 F 
ENDBRANCH  57  80
ENDBRANCH  31  32
ENDBRANCH  23  26
ENDBRANCH  21  22
ENDBRANCH  20  21
ENDBRANCH   1  20
TORSDOF 14
ENDMDL
