MODEL 1
REMARK VINA RESULT:     -13.0      0.000      0.000
REMARK SMILES O=C(NCCCNC(=O)[C@H](NC(=O)[C@H]1CC(=O)N(CC2CC2)C1)c1ccccc1C(F)(F)F)c1ccc(-c2c3nc(c(-c4c(F)c(F)c(F)c(F)c4F)c4ccc([nH]4)c(-c4c(F)c(F)c(F)c(F)c4F)c4nc(c(-c5c(F)c(F)c(F)c(F)c5F)c5ccc2[nH]5)C=C4)C=C3)cc1
REMARK SMILES IDX 6 1 5 2 4 3 3 4 1 5 2 6 34 8 35 9 96 10 36 11 95 12 37 13
REMARK SMILES IDX 38 14 39 15 89 16 40 17 94 18 88 19 90 20 41 21 93 22 87 23
REMARK SMILES IDX 86 24 42 26 74 27 54 28 73 29 55 30 58 31 72 32 91 33 56 34
REMARK SMILES IDX 57 35 71 37 92 38 59 39 43 40 44 41 52 42 45 43 46 44 50 45
REMARK SMILES IDX 53 46 47 47 48 48 51 49 49 50 75 51 76 52 84 53 77 54 78 55
REMARK SMILES IDX 82 56 85 57 79 58 80 59 83 60 81 61 60 62 61 63 69 64 62 65
REMARK SMILES IDX 63 66 67 67 70 68 64 69 65 70 68 71 66 72 7 73 8 74 9 76
REMARK SMILES IDX 10 77 24 78 25 79 29 80 26 81 28 82 27 83 30 84 31 85 32 86
REMARK SMILES IDX 33 87 11 88 12 89 13 91 14 92 15 93 23 94 16 95 18 96 17 97
REMARK SMILES IDX 19 98 20 99 21 100 22 101
REMARK H PARENT 3 7 90 25 58 36 7 75 11 90
REMARK Flexibility Score: inf
ROOT
ATOM      1  C   UNL A   1      31.481  29.945  25.653  1.00  0.00     0.117 C 
ENDROOT
BRANCH   1   2
ATOM      2  C   UNL A   1      31.322  31.414  26.040  1.00  0.00     0.042 C 
BRANCH   2   3
ATOM      3  C   UNL A   1      32.482  31.978  26.859  1.00  0.00     0.118 C 
BRANCH   3   4
ATOM      4  N   UNL A   1      32.315  33.392  27.188  1.00  0.00    -0.352 N 
ATOM      5  O   UNL A   1      32.508  35.320  28.323  1.00  0.00    -0.269 OA
ATOM      6  C   UNL A   1      32.943  34.195  28.115  1.00  0.00     0.251 C 
ATOM      7  H   UNL A   1      31.631  33.854  26.650  1.00  0.00     0.163 HD
BRANCH   6   8
ATOM      8  C   UNL A   1      34.137  33.726  28.860  1.00  0.00     0.039 A 
ATOM      9  C   UNL A   1      34.036  32.723  29.820  1.00  0.00     0.014 A 
ATOM     10  C   UNL A   1      35.400  34.241  28.533  1.00  0.00     0.014 A 
ATOM     11  C   UNL A   1      35.153  32.343  30.554  1.00  0.00     0.010 A 
ATOM     12  C   UNL A   1      36.545  33.768  29.187  1.00  0.00     0.010 A 
ATOM     13  C   UNL A   1      36.428  32.820  30.212  1.00  0.00    -0.014 A 
BRANCH  13  14
ATOM     14  C   UNL A   1      37.612  32.201  30.862  1.00  0.00     0.031 A 
ATOM     15  C   UNL A   1      38.034  32.577  32.252  1.00  0.00     0.074 A 
ATOM     16  C   UNL A   1      38.280  31.250  30.178  1.00  0.00     0.049 A 
ATOM     17  N   UNL A   1      39.028  32.107  32.964  1.00  0.00    -0.248 NA
ATOM     18  C   UNL A   1      37.252  33.619  32.932  1.00  0.00     0.031 C 
ATOM     19  C   UNL A   1      37.963  30.822  28.812  1.00  0.00     0.029 A 
ATOM     20  N   UNL A   1      39.336  30.451  30.534  1.00  0.00    -0.354 N 
ATOM     21  C   UNL A   1      39.001  32.803  34.165  1.00  0.00     0.074 A 
ATOM     22  C   UNL A   1      37.909  33.749  34.077  1.00  0.00     0.031 C 
ATOM     23  C   UNL A   1      38.757  29.798  28.472  1.00  0.00     0.029 A 
ATOM     24  C   UNL A   1      39.699  29.557  29.555  1.00  0.00     0.049 A 
ATOM     25  H   UNL A   1      39.790  30.513  31.405  1.00  0.00     0.167 HD
ATOM     26  C   UNL A   1      39.815  32.656  35.239  1.00  0.00     0.037 A 
ATOM     27  C   UNL A   1      40.700  28.660  29.519  1.00  0.00     0.037 A 
ATOM     28  C   UNL A   1      40.894  31.703  35.311  1.00  0.00     0.049 A 
ATOM     29  C   UNL A   1      41.604  28.549  30.712  1.00  0.00     0.074 A 
ATOM     30  C   UNL A   1      41.762  31.458  36.361  1.00  0.00     0.029 A 
ATOM     31  N   UNL A   1      41.260  30.842  34.285  1.00  0.00    -0.354 N 
ATOM     32  N   UNL A   1      41.549  29.194  31.853  1.00  0.00    -0.248 NA
ATOM     33  C   UNL A   1      42.712  27.594  30.611  1.00  0.00     0.031 C 
ATOM     34  C   UNL A   1      42.686  30.492  35.951  1.00  0.00     0.029 A 
ATOM     35  C   UNL A   1      42.356  30.085  34.668  1.00  0.00     0.049 A 
ATOM     36  H   UNL A   1      40.807  30.779  33.413  1.00  0.00     0.167 HD
ATOM     37  C   UNL A   1      42.603  28.712  32.612  1.00  0.00     0.074 A 
ATOM     38  C   UNL A   1      43.262  27.699  31.812  1.00  0.00     0.031 C 
ATOM     39  C   UNL A   1      42.998  29.081  33.855  1.00  0.00     0.037 A 
BRANCH  26  40
ATOM     40  C   UNL A   1      39.589  33.559  36.421  1.00  0.00     0.064 A 
ATOM     41  C   UNL A   1      38.787  33.174  37.506  1.00  0.00     0.173 A 
ATOM     42  C   UNL A   1      40.228  34.808  36.492  1.00  0.00     0.173 A 
ATOM     43  F   UNL A   1      38.145  31.997  37.487  1.00  0.00    -0.203 F 
ATOM     44  C   UNL A   1      38.617  34.012  38.606  1.00  0.00     0.198 A 
ATOM     45  C   UNL A   1      40.079  35.630  37.607  1.00  0.00     0.198 A 
ATOM     46  F   UNL A   1      41.011  35.225  35.486  1.00  0.00    -0.203 F 
ATOM     47  F   UNL A   1      37.813  33.640  39.612  1.00  0.00    -0.200 F 
ATOM     48  C   UNL A   1      39.270  35.235  38.659  1.00  0.00     0.200 A 
ATOM     49  F   UNL A   1      40.723  36.804  37.661  1.00  0.00    -0.200 F 
ATOM     50  F   UNL A   1      39.114  36.035  39.724  1.00  0.00    -0.200 F 
ENDBRANCH  26  40
BRANCH  27  51
ATOM     51  C   UNL A   1      40.911  27.826  28.306  1.00  0.00     0.064 A 
ATOM     52  C   UNL A   1      40.297  26.574  28.169  1.00  0.00     0.173 A 
ATOM     53  C   UNL A   1      41.733  28.266  27.256  1.00  0.00     0.173 A 
ATOM     54  F   UNL A   1      39.514  26.101  29.150  1.00  0.00    -0.203 F 
ATOM     55  C   UNL A   1      40.516  25.785  27.041  1.00  0.00     0.198 A 
ATOM     56  C   UNL A   1      41.920  27.493  26.113  1.00  0.00     0.198 A 
ATOM     57  F   UNL A   1      42.339  29.460  27.331  1.00  0.00    -0.203 F 
ATOM     58  F   UNL A   1      39.959  24.569  26.960  1.00  0.00    -0.200 F 
ATOM     59  C   UNL A   1      41.321  26.248  26.012  1.00  0.00     0.200 A 
ATOM     60  F   UNL A   1      42.680  27.956  25.112  1.00  0.00    -0.200 F 
ATOM     61  F   UNL A   1      41.525  25.491  24.925  1.00  0.00    -0.200 F 
ENDBRANCH  27  51
BRANCH  39  62
ATOM     62  C   UNL A   1      44.178  28.354  34.434  1.00  0.00     0.064 A 
ATOM     63  C   UNL A   1      45.485  28.843  34.291  1.00  0.00     0.173 A 
ATOM     64  C   UNL A   1      43.994  27.161  35.149  1.00  0.00     0.173 A 
ATOM     65  F   UNL A   1      45.715  29.969  33.600  1.00  0.00    -0.203 F 
ATOM     66  C   UNL A   1      46.570  28.143  34.814  1.00  0.00     0.198 A 
ATOM     67  C   UNL A   1      45.077  26.484  35.700  1.00  0.00     0.198 A 
ATOM     68  F   UNL A   1      42.764  26.655  35.316  1.00  0.00    -0.203 F 
ATOM     69  F   UNL A   1      47.816  28.593  34.611  1.00  0.00    -0.200 F 
ATOM     70  C   UNL A   1      46.365  26.969  35.523  1.00  0.00     0.200 A 
ATOM     71  F   UNL A   1      44.876  25.358  36.398  1.00  0.00    -0.200 F 
ATOM     72  F   UNL A   1      47.409  26.299  36.027  1.00  0.00    -0.200 F 
ENDBRANCH  39  62
ENDBRANCH  13  14
ENDBRANCH   6   8
ENDBRANCH   3   4
ENDBRANCH   2   3
ENDBRANCH   1   2
BRANCH   1  73
ATOM     73  N   UNL A   1      32.720  29.611  24.963  1.00  0.00    -0.354 N 
ATOM     74  C   UNL A   1      32.936  29.119  23.699  1.00  0.00     0.247 C 
ATOM     75  H   UNL A   1      33.537  29.763  25.491  1.00  0.00     0.163 HD
ATOM     76  O   UNL A   1      33.939  29.566  23.124  1.00  0.00    -0.272 OA
BRANCH  74  77
ATOM     77  C   UNL A   1      32.090  27.977  23.001  1.00  0.00     0.202 C 
BRANCH  77  78
ATOM     78  C   UNL A   1      30.674  28.379  22.724  1.00  0.00    -0.004 A 
ATOM     79  C   UNL A   1      30.599  29.577  22.015  1.00  0.00     0.007 A 
ATOM     80  C   UNL A   1      29.518  27.789  23.298  1.00  0.00     0.061 A 
ATOM     81  C   UNL A   1      29.434  30.286  22.039  1.00  0.00     0.000 A 
ATOM     82  C   UNL A   1      28.312  28.492  23.201  1.00  0.00     0.013 A 
ATOM     83  C   UNL A   1      28.290  29.755  22.630  1.00  0.00     0.001 A 
BRANCH  80  84
ATOM     84  C   UNL A   1      29.465  26.507  24.109  1.00  0.00     0.416 C 
ATOM     85  F   UNL A   1      30.136  26.611  25.288  1.00  0.00    -0.166 F 
ATOM     86  F   UNL A   1      28.181  26.191  24.448  1.00  0.00    -0.166 F 
ATOM     87  F   UNL A   1      29.954  25.397  23.495  1.00  0.00    -0.166 F 
ENDBRANCH  80  84
ENDBRANCH  77  78
BRANCH  77  88
ATOM     88  N   UNL A   1      32.520  27.053  21.959  1.00  0.00    -0.340 N 
ATOM     89  C   UNL A   1      33.153  25.843  21.994  1.00  0.00     0.226 C 
ATOM     90  H   UNL A   1      32.312  27.362  21.048  1.00  0.00     0.164 HD
ATOM     91  O   UNL A   1      33.108  25.239  20.909  1.00  0.00    -0.275 OA
BRANCH  89  92
ATOM     92  C   UNL A   1      33.884  25.108  23.170  1.00  0.00     0.107 C 
ATOM     93  C   UNL A   1      33.439  25.250  24.616  1.00  0.00     0.115 C 
ATOM     94  C   UNL A   1      34.306  23.635  23.032  1.00  0.00     0.133 C 
ATOM     95  C   UNL A   1      33.721  23.904  25.281  1.00  0.00     0.223 C 
ATOM     96  N   UNL A   1      34.042  22.964  24.311  1.00  0.00    -0.342 N 
ATOM     97  O   UNL A   1      33.685  23.717  26.482  1.00  0.00    -0.275 OA
BRANCH  96  98
ATOM     98  C   UNL A   1      34.616  21.629  24.598  1.00  0.00     0.123 C 
BRANCH  98  99
ATOM     99  C   UNL A   1      36.001  21.440  25.225  1.00  0.00     0.008 C 
ATOM    100  C   UNL A   1      37.287  20.673  24.888  1.00  0.00     0.006 C 
ATOM    101  C   UNL A   1      37.172  22.097  24.482  1.00  0.00     0.006 C 
ENDBRANCH  98  99
ENDBRANCH  96  98
ENDBRANCH  89  92
ENDBRANCH  77  88
ENDBRANCH  74  77
ENDBRANCH   1  73
TORSDOF 16
ENDMDL
MODEL 2
REMARK VINA RESULT:     -12.9      0.525      7.021
REMARK SMILES O=C(NCCCNC(=O)[C@H](NC(=O)[C@H]1CC(=O)N(CC2CC2)C1)c1ccccc1C(F)(F)F)c1ccc(-c2c3nc(c(-c4c(F)c(F)c(F)c(F)c4F)c4ccc([nH]4)c(-c4c(F)c(F)c(F)c(F)c4F)c4nc(c(-c5c(F)c(F)c(F)c(F)c5F)c5ccc2[nH]5)C=C4)C=C3)cc1
REMARK SMILES IDX 6 1 5 2 4 3 3 4 1 5 2 6 34 8 35 9 96 10 36 11 95 12 37 13
REMARK SMILES IDX 38 14 39 15 89 16 40 17 94 18 88 19 90 20 41 21 93 22 87 23
REMARK SMILES IDX 86 24 42 26 74 27 54 28 73 29 55 30 58 31 72 32 91 33 56 34
REMARK SMILES IDX 57 35 71 37 92 38 59 39 43 40 44 41 52 42 45 43 46 44 50 45
REMARK SMILES IDX 53 46 47 47 48 48 51 49 49 50 75 51 76 52 84 53 77 54 78 55
REMARK SMILES IDX 82 56 85 57 79 58 80 59 83 60 81 61 60 62 61 63 69 64 62 65
REMARK SMILES IDX 63 66 67 67 70 68 64 69 65 70 68 71 66 72 7 73 8 74 9 76
REMARK SMILES IDX 10 77 24 78 25 79 29 80 26 81 28 82 27 83 30 84 31 85 32 86
REMARK SMILES IDX 33 87 11 88 12 89 13 91 14 92 15 93 23 94 16 95 18 96 17 97
REMARK SMILES IDX 19 98 20 99 21 100 22 101
REMARK H PARENT 3 7 90 25 58 36 7 75 11 90
REMARK Flexibility Score: inf
ROOT
ATOM      1  C   UNL A   1      31.439  30.014  25.600  1.00  0.00     0.117 C 
ENDROOT
BRANCH   1   2
ATOM      2  C   UNL A   1      31.295  31.479  26.007  1.00  0.00     0.042 C 
BRANCH   2   3
ATOM      3  C   UNL A   1      32.423  31.999  26.896  1.00  0.00     0.118 C 
BRANCH   3   4
ATOM      4  N   UNL A   1      32.289  33.418  27.218  1.00  0.00    -0.352 N 
ATOM      5  O   UNL A   1      32.528  35.346  28.344  1.00  0.00    -0.269 OA
ATOM      6  C   UNL A   1      32.936  34.211  28.141  1.00  0.00     0.251 C 
ATOM      7  H   UNL A   1      31.615  33.894  26.679  1.00  0.00     0.163 HD
BRANCH   6   8
ATOM      8  C   UNL A   1      34.120  33.718  28.887  1.00  0.00     0.039 A 
ATOM      9  C   UNL A   1      33.998  32.720  29.849  1.00  0.00     0.014 A 
ATOM     10  C   UNL A   1      35.394  34.206  28.558  1.00  0.00     0.014 A 
ATOM     11  C   UNL A   1      35.106  32.318  30.584  1.00  0.00     0.010 A 
ATOM     12  C   UNL A   1      36.529  33.710  29.213  1.00  0.00     0.010 A 
ATOM     13  C   UNL A   1      36.391  32.766  30.241  1.00  0.00    -0.014 A 
BRANCH  13  14
ATOM     14  C   UNL A   1      37.562  32.124  30.892  1.00  0.00     0.031 A 
ATOM     15  C   UNL A   1      38.375  31.075  30.192  1.00  0.00     0.074 A 
ATOM     16  C   UNL A   1      37.904  32.544  32.127  1.00  0.00     0.049 A 
ATOM     17  N   UNL A   1      39.440  30.441  30.618  1.00  0.00    -0.248 NA
ATOM     18  C   UNL A   1      37.939  30.675  28.847  1.00  0.00     0.031 C 
ATOM     19  C   UNL A   1      37.169  33.546  32.905  1.00  0.00     0.029 A 
ATOM     20  N   UNL A   1      38.961  32.213  32.935  1.00  0.00    -0.354 N 
ATOM     21  C   UNL A   1      39.791  29.560  29.604  1.00  0.00     0.074 A 
ATOM     22  C   UNL A   1      38.811  29.719  28.551  1.00  0.00     0.031 C 
ATOM     23  C   UNL A   1      37.831  33.799  34.042  1.00  0.00     0.029 A 
ATOM     24  C   UNL A   1      38.983  32.912  34.119  1.00  0.00     0.049 A 
ATOM     25  H   UNL A   1      39.637  31.540  32.693  1.00  0.00     0.167 HD
ATOM     26  C   UNL A   1      40.841  28.703  29.563  1.00  0.00     0.037 A 
ATOM     27  C   UNL A   1      39.822  32.830  35.167  1.00  0.00     0.037 A 
ATOM     28  C   UNL A   1      41.812  28.563  30.620  1.00  0.00     0.049 A 
ATOM     29  C   UNL A   1      40.952  31.845  35.102  1.00  0.00     0.074 A 
ATOM     30  C   UNL A   1      42.925  27.742  30.667  1.00  0.00     0.029 A 
ATOM     31  N   UNL A   1      41.779  29.257  31.822  1.00  0.00    -0.354 N 
ATOM     32  N   UNL A   1      41.290  31.038  34.125  1.00  0.00    -0.248 NA
ATOM     33  C   UNL A   1      41.813  31.752  36.286  1.00  0.00     0.031 C 
ATOM     34  C   UNL A   1      43.532  27.896  31.917  1.00  0.00     0.029 A 
ATOM     35  C   UNL A   1      42.837  28.863  32.626  1.00  0.00     0.049 A 
ATOM     36  H   UNL A   1      41.104  29.930  32.067  1.00  0.00     0.167 HD
ATOM     37  C   UNL A   1      42.410  30.353  34.568  1.00  0.00     0.074 A 
ATOM     38  C   UNL A   1      42.712  30.863  35.890  1.00  0.00     0.031 C 
ATOM     39  C   UNL A   1      43.120  29.383  33.942  1.00  0.00     0.037 A 
BRANCH  26  40
ATOM     40  C   UNL A   1      40.988  27.830  28.347  1.00  0.00     0.064 A 
ATOM     41  C   UNL A   1      40.356  26.581  28.250  1.00  0.00     0.173 A 
ATOM     42  C   UNL A   1      41.728  28.274  27.239  1.00  0.00     0.173 A 
ATOM     43  F   UNL A   1      39.644  26.103  29.281  1.00  0.00    -0.203 F 
ATOM     44  C   UNL A   1      40.477  25.801  27.101  1.00  0.00     0.198 A 
ATOM     45  C   UNL A   1      41.822  27.506  26.081  1.00  0.00     0.198 A 
ATOM     46  F   UNL A   1      42.349  29.463  27.273  1.00  0.00    -0.203 F 
ATOM     47  F   UNL A   1      39.899  24.594  27.049  1.00  0.00    -0.200 F 
ATOM     48  C   UNL A   1      41.203  26.268  26.015  1.00  0.00     0.200 A 
ATOM     49  F   UNL A   1      42.512  27.966  25.028  1.00  0.00    -0.200 F 
ATOM     50  F   UNL A   1      41.308  25.522  24.907  1.00  0.00    -0.200 F 
ENDBRANCH  26  40
BRANCH  27  51
ATOM     51  C   UNL A   1      39.602  33.681  36.367  1.00  0.00     0.064 A 
ATOM     52  C   UNL A   1      38.824  33.232  37.443  1.00  0.00     0.173 A 
ATOM     53  C   UNL A   1      40.168  34.962  36.462  1.00  0.00     0.173 A 
ATOM     54  F   UNL A   1      38.250  32.022  37.395  1.00  0.00    -0.203 F 
ATOM     55  C   UNL A   1      38.601  34.042  38.555  1.00  0.00     0.198 A 
ATOM     56  C   UNL A   1      39.975  35.755  37.591  1.00  0.00     0.198 A 
ATOM     57  F   UNL A   1      40.927  35.438  35.464  1.00  0.00    -0.203 F 
ATOM     58  F   UNL A   1      37.811  33.609  39.546  1.00  0.00    -0.200 F 
ATOM     59  C   UNL A   1      39.183  35.298  38.632  1.00  0.00     0.200 A 
ATOM     60  F   UNL A   1      40.559  36.958  37.668  1.00  0.00    -0.200 F 
ATOM     61  F   UNL A   1      38.973  36.072  39.705  1.00  0.00    -0.200 F 
ENDBRANCH  27  51
BRANCH  39  62
ATOM     62  C   UNL A   1      44.313  28.839  34.674  1.00  0.00     0.064 A 
ATOM     63  C   UNL A   1      45.579  29.434  34.563  1.00  0.00     0.173 A 
ATOM     64  C   UNL A   1      44.183  27.716  35.505  1.00  0.00     0.173 A 
ATOM     65  F   UNL A   1      45.758  30.497  33.766  1.00  0.00    -0.203 F 
ATOM     66  C   UNL A   1      46.679  28.901  35.230  1.00  0.00     0.198 A 
ATOM     67  C   UNL A   1      45.277  27.209  36.198  1.00  0.00     0.198 A 
ATOM     68  F   UNL A   1      42.994  27.114  35.648  1.00  0.00    -0.203 F 
ATOM     69  F   UNL A   1      47.891  29.446  35.059  1.00  0.00    -0.200 F 
ATOM     70  C   UNL A   1      46.526  27.795  36.052  1.00  0.00     0.200 A 
ATOM     71  F   UNL A   1      45.125  26.149  37.004  1.00  0.00    -0.200 F 
ATOM     72  F   UNL A   1      47.585  27.285  36.695  1.00  0.00    -0.200 F 
ENDBRANCH  39  62
ENDBRANCH  13  14
ENDBRANCH   6   8
ENDBRANCH   3   4
ENDBRANCH   2   3
ENDBRANCH   1   2
BRANCH   1  73
ATOM     73  N   UNL A   1      32.688  29.670  24.937  1.00  0.00    -0.354 N 
ATOM     74  C   UNL A   1      32.926  29.151  23.687  1.00  0.00     0.247 C 
ATOM     75  H   UNL A   1      33.497  29.835  25.474  1.00  0.00     0.163 HD
ATOM     76  O   UNL A   1      33.937  29.588  23.118  1.00  0.00    -0.272 OA
BRANCH  74  77
ATOM     77  C   UNL A   1      32.094  27.991  23.002  1.00  0.00     0.202 C 
BRANCH  77  78
ATOM     78  C   UNL A   1      30.681  28.383  22.693  1.00  0.00    -0.004 A 
ATOM     79  C   UNL A   1      30.615  29.567  21.960  1.00  0.00     0.007 A 
ATOM     80  C   UNL A   1      29.517  27.799  23.259  1.00  0.00     0.061 A 
ATOM     81  C   UNL A   1      29.447  30.272  21.951  1.00  0.00     0.000 A 
ATOM     82  C   UNL A   1      28.312  28.496  23.127  1.00  0.00     0.013 A 
ATOM     83  C   UNL A   1      28.295  29.748  22.532  1.00  0.00     0.001 A 
BRANCH  80  84
ATOM     84  C   UNL A   1      29.455  26.532  24.092  1.00  0.00     0.416 C 
ATOM     85  F   UNL A   1      30.099  26.664  25.283  1.00  0.00    -0.166 F 
ATOM     86  F   UNL A   1      28.166  26.214  24.409  1.00  0.00    -0.166 F 
ATOM     87  F   UNL A   1      29.965  25.414  23.511  1.00  0.00    -0.166 F 
ENDBRANCH  80  84
ENDBRANCH  77  78
BRANCH  77  88
ATOM     88  N   UNL A   1      32.543  27.045  21.987  1.00  0.00    -0.340 N 
ATOM     89  C   UNL A   1      33.152  25.825  22.060  1.00  0.00     0.226 C 
ATOM     90  H   UNL A   1      32.373  27.346  21.066  1.00  0.00     0.164 HD
ATOM     91  O   UNL A   1      33.134  25.207  20.982  1.00  0.00    -0.275 OA
BRANCH  89  92
ATOM     92  C   UNL A   1      33.828  25.093  23.271  1.00  0.00     0.107 C 
ATOM     93  C   UNL A   1      33.245  25.137  24.673  1.00  0.00     0.115 C 
ATOM     94  C   UNL A   1      34.373  23.663  23.116  1.00  0.00     0.133 C 
ATOM     95  C   UNL A   1      33.568  23.786  25.309  1.00  0.00     0.223 C 
ATOM     96  N   UNL A   1      34.047  22.917  24.338  1.00  0.00    -0.342 N 
ATOM     97  O   UNL A   1      33.438  23.543  26.493  1.00  0.00    -0.275 OA
BRANCH  96  98
ATOM     98  C   UNL A   1      34.695  21.616  24.627  1.00  0.00     0.123 C 
BRANCH  98  99
ATOM     99  C   UNL A   1      33.930  20.289  24.620  1.00  0.00     0.008 C 
ATOM    100  C   UNL A   1      32.833  19.626  25.462  1.00  0.00     0.006 C 
ATOM    101  C   UNL A   1      32.447  20.369  24.236  1.00  0.00     0.006 C 
ENDBRANCH  98  99
ENDBRANCH  96  98
ENDBRANCH  89  92
ENDBRANCH  77  88
ENDBRANCH  74  77
ENDBRANCH   1  73
TORSDOF 16
ENDMDL
MODEL 3
REMARK VINA RESULT:     -12.8      0.551      7.189
REMARK SMILES O=C(NCCCNC(=O)[C@H](NC(=O)[C@H]1CC(=O)N(CC2CC2)C1)c1ccccc1C(F)(F)F)c1ccc(-c2c3nc(c(-c4c(F)c(F)c(F)c(F)c4F)c4ccc([nH]4)c(-c4c(F)c(F)c(F)c(F)c4F)c4nc(c(-c5c(F)c(F)c(F)c(F)c5F)c5ccc2[nH]5)C=C4)C=C3)cc1
REMARK SMILES IDX 6 1 5 2 4 3 3 4 1 5 2 6 34 8 35 9 96 10 36 11 95 12 37 13
REMARK SMILES IDX 38 14 39 15 89 16 40 17 94 18 88 19 90 20 41 21 93 22 87 23
REMARK SMILES IDX 86 24 42 26 74 27 54 28 73 29 55 30 58 31 72 32 91 33 56 34
REMARK SMILES IDX 57 35 71 37 92 38 59 39 43 40 44 41 52 42 45 43 46 44 50 45
REMARK SMILES IDX 53 46 47 47 48 48 51 49 49 50 75 51 76 52 84 53 77 54 78 55
REMARK SMILES IDX 82 56 85 57 79 58 80 59 83 60 81 61 60 62 61 63 69 64 62 65
REMARK SMILES IDX 63 66 67 67 70 68 64 69 65 70 68 71 66 72 7 73 8 74 9 76
REMARK SMILES IDX 10 77 24 78 25 79 29 80 26 81 28 82 27 83 30 84 31 85 32 86
REMARK SMILES IDX 33 87 11 88 12 89 13 91 14 92 15 93 23 94 16 95 18 96 17 97
REMARK SMILES IDX 19 98 20 99 21 100 22 101
REMARK H PARENT 3 7 90 25 58 36 7 75 11 90
REMARK Flexibility Score: inf
ROOT
ATOM      1  C   UNL A   1      31.436  29.991  25.589  1.00  0.00     0.117 C 
ENDROOT
BRANCH   1   2
ATOM      2  C   UNL A   1      31.310  31.468  25.955  1.00  0.00     0.042 C 
BRANCH   2   3
ATOM      3  C   UNL A   1      32.405  31.980  26.890  1.00  0.00     0.118 C 
BRANCH   3   4
ATOM      4  N   UNL A   1      32.259  33.396  27.221  1.00  0.00    -0.352 N 
ATOM      5  O   UNL A   1      32.491  35.322  28.352  1.00  0.00    -0.269 OA
ATOM      6  C   UNL A   1      32.910  34.192  28.138  1.00  0.00     0.251 C 
ATOM      7  H   UNL A   1      31.572  33.866  26.693  1.00  0.00     0.163 HD
BRANCH   6   8
ATOM      8  C   UNL A   1      34.110  33.710  28.864  1.00  0.00     0.039 A 
ATOM      9  C   UNL A   1      34.009  32.729  29.846  1.00  0.00     0.014 A 
ATOM     10  C   UNL A   1      35.376  34.190  28.499  1.00  0.00     0.014 A 
ATOM     11  C   UNL A   1      35.133  32.338  30.562  1.00  0.00     0.010 A 
ATOM     12  C   UNL A   1      36.525  33.704  29.135  1.00  0.00     0.010 A 
ATOM     13  C   UNL A   1      36.410  32.778  30.182  1.00  0.00    -0.014 A 
BRANCH  13  14
ATOM     14  C   UNL A   1      37.595  32.145  30.817  1.00  0.00     0.031 A 
ATOM     15  C   UNL A   1      38.410  31.106  30.104  1.00  0.00     0.074 A 
ATOM     16  C   UNL A   1      37.948  32.564  32.049  1.00  0.00     0.049 A 
ATOM     17  N   UNL A   1      39.486  30.481  30.515  1.00  0.00    -0.248 NA
ATOM     18  C   UNL A   1      37.961  30.705  28.763  1.00  0.00     0.031 C 
ATOM     19  C   UNL A   1      37.213  33.557  32.839  1.00  0.00     0.029 A 
ATOM     20  N   UNL A   1      39.018  32.242  32.843  1.00  0.00    -0.354 N 
ATOM     21  C   UNL A   1      39.833  29.606  29.494  1.00  0.00     0.074 A 
ATOM     22  C   UNL A   1      38.838  29.759  28.454  1.00  0.00     0.031 C 
ATOM     23  C   UNL A   1      37.886  33.813  33.968  1.00  0.00     0.029 A 
ATOM     24  C   UNL A   1      39.047  32.937  34.029  1.00  0.00     0.049 A 
ATOM     25  H   UNL A   1      39.697  31.576  32.591  1.00  0.00     0.167 HD
ATOM     26  C   UNL A   1      40.890  28.760  29.438  1.00  0.00     0.037 A 
ATOM     27  C   UNL A   1      39.900  32.860  35.066  1.00  0.00     0.037 A 
ATOM     28  C   UNL A   1      41.875  28.626  30.482  1.00  0.00     0.049 A 
ATOM     29  C   UNL A   1      41.039  31.886  34.984  1.00  0.00     0.074 A 
ATOM     30  C   UNL A   1      42.997  27.816  30.513  1.00  0.00     0.029 A 
ATOM     31  N   UNL A   1      41.851  29.316  31.687  1.00  0.00    -0.354 N 
ATOM     32  N   UNL A   1      41.372  31.085  34.001  1.00  0.00    -0.248 NA
ATOM     33  C   UNL A   1      41.914  31.798  36.158  1.00  0.00     0.031 C 
ATOM     34  C   UNL A   1      43.618  27.972  31.757  1.00  0.00     0.029 A 
ATOM     35  C   UNL A   1      42.922  28.929  32.477  1.00  0.00     0.049 A 
ATOM     36  H   UNL A   1      41.172  29.982  31.942  1.00  0.00     0.167 HD
ATOM     37  C   UNL A   1      42.504  30.410  34.428  1.00  0.00     0.074 A 
ATOM     38  C   UNL A   1      42.817  30.918  35.748  1.00  0.00     0.031 C 
ATOM     39  C   UNL A   1      43.216  29.448  33.791  1.00  0.00     0.037 A 
BRANCH  26  40
ATOM     40  C   UNL A   1      41.030  27.892  28.217  1.00  0.00     0.064 A 
ATOM     41  C   UNL A   1      41.774  28.298  27.099  1.00  0.00     0.173 A 
ATOM     42  C   UNL A   1      40.456  26.610  28.188  1.00  0.00     0.173 A 
ATOM     43  F   UNL A   1      42.336  29.516  27.068  1.00  0.00    -0.203 F 
ATOM     44  C   UNL A   1      41.919  27.465  25.991  1.00  0.00     0.198 A 
ATOM     45  C   UNL A   1      40.629  25.769  27.092  1.00  0.00     0.198 A 
ATOM     46  F   UNL A   1      39.740  26.166  29.232  1.00  0.00    -0.203 F 
ATOM     47  F   UNL A   1      42.599  27.893  24.919  1.00  0.00    -0.200 F 
ATOM     48  C   UNL A   1      41.354  26.199  25.992  1.00  0.00     0.200 A 
ATOM     49  F   UNL A   1      40.094  24.540  27.102  1.00  0.00    -0.200 F 
ATOM     50  F   UNL A   1      41.505  25.395  24.930  1.00  0.00    -0.200 F 
ENDBRANCH  26  40
BRANCH  27  51
ATOM     51  C   UNL A   1      39.687  33.705  36.271  1.00  0.00     0.064 A 
ATOM     52  C   UNL A   1      40.278  34.971  36.384  1.00  0.00     0.173 A 
ATOM     53  C   UNL A   1      38.886  33.263  37.336  1.00  0.00     0.173 A 
ATOM     54  F   UNL A   1      41.064  35.433  35.402  1.00  0.00    -0.203 F 
ATOM     55  C   UNL A   1      40.096  35.750  37.526  1.00  0.00     0.198 A 
ATOM     56  C   UNL A   1      38.673  34.059  38.459  1.00  0.00     0.198 A 
ATOM     57  F   UNL A   1      38.290  32.064  37.277  1.00  0.00    -0.203 F 
ATOM     58  F   UNL A   1      40.715  36.933  37.630  1.00  0.00    -0.200 F 
ATOM     59  C   UNL A   1      39.288  35.298  38.558  1.00  0.00     0.200 A 
ATOM     60  F   UNL A   1      37.873  33.626  39.442  1.00  0.00    -0.200 F 
ATOM     61  F   UNL A   1      39.108  36.050  39.651  1.00  0.00    -0.200 F 
ENDBRANCH  27  51
BRANCH  39  62
ATOM     62  C   UNL A   1      44.423  28.914  34.506  1.00  0.00     0.064 A 
ATOM     63  C   UNL A   1      45.678  29.529  34.393  1.00  0.00     0.173 A 
ATOM     64  C   UNL A   1      44.317  27.778  35.324  1.00  0.00     0.173 A 
ATOM     65  F   UNL A   1      45.835  30.605  33.608  1.00  0.00    -0.203 F 
ATOM     66  C   UNL A   1      46.792  29.005  35.045  1.00  0.00     0.198 A 
ATOM     67  C   UNL A   1      45.424  27.280  36.002  1.00  0.00     0.198 A 
ATOM     68  F   UNL A   1      43.138  27.156  35.469  1.00  0.00    -0.203 F 
ATOM     69  F   UNL A   1      47.994  29.571  34.872  1.00  0.00    -0.200 F 
ATOM     70  C   UNL A   1      46.662  27.887  35.854  1.00  0.00     0.200 A 
ATOM     71  F   UNL A   1      45.294  26.208  36.796  1.00  0.00    -0.200 F 
ATOM     72  F   UNL A   1      47.734  27.385  36.482  1.00  0.00    -0.200 F 
ENDBRANCH  39  62
ENDBRANCH  13  14
ENDBRANCH   6   8
ENDBRANCH   3   4
ENDBRANCH   2   3
ENDBRANCH   1   2
BRANCH   1  73
ATOM     73  N   UNL A   1      32.667  29.618  24.908  1.00  0.00    -0.354 N 
ATOM     74  C   UNL A   1      32.873  29.084  23.658  1.00  0.00     0.247 C 
ATOM     75  H   UNL A   1      33.488  29.774  25.428  1.00  0.00     0.163 HD
ATOM     76  O   UNL A   1      33.881  29.498  23.068  1.00  0.00    -0.272 OA
BRANCH  74  77
ATOM     77  C   UNL A   1      32.009  27.934  22.999  1.00  0.00     0.202 C 
BRANCH  77  78
ATOM     78  C   UNL A   1      30.602  28.352  22.697  1.00  0.00    -0.004 A 
ATOM     79  C   UNL A   1      30.554  29.550  21.985  1.00  0.00     0.007 A 
ATOM     80  C   UNL A   1      29.429  27.776  23.253  1.00  0.00     0.061 A 
ATOM     81  C   UNL A   1      29.397  30.273  21.990  1.00  0.00     0.000 A 
ATOM     82  C   UNL A   1      28.235  28.494  23.134  1.00  0.00     0.013 A 
ATOM     83  C   UNL A   1      28.237  29.757  22.562  1.00  0.00     0.001 A 
BRANCH  80  84
ATOM     84  C   UNL A   1      29.348  26.496  24.063  1.00  0.00     0.416 C 
ATOM     85  F   UNL A   1      29.997  26.595  25.255  1.00  0.00    -0.166 F 
ATOM     86  F   UNL A   1      28.054  26.195  24.378  1.00  0.00    -0.166 F 
ATOM     87  F   UNL A   1      29.836  25.380  23.460  1.00  0.00    -0.166 F 
ENDBRANCH  80  84
ENDBRANCH  77  78
BRANCH  77  88
ATOM     88  N   UNL A   1      32.427  26.963  21.994  1.00  0.00    -0.340 N 
ATOM     89  C   UNL A   1      33.052  25.751  22.077  1.00  0.00     0.226 C 
ATOM     90  H   UNL A   1      32.215  27.234  21.072  1.00  0.00     0.164 HD
ATOM     91  O   UNL A   1      32.996  25.102  21.019  1.00  0.00    -0.275 OA
BRANCH  89  92
ATOM     92  C   UNL A   1      33.785  25.062  23.280  1.00  0.00     0.107 C 
ATOM     93  C   UNL A   1      33.303  25.207  24.714  1.00  0.00     0.115 C 
ATOM     94  C   UNL A   1      34.268  23.605  23.172  1.00  0.00     0.133 C 
ATOM     95  C   UNL A   1      33.623  23.882  25.404  1.00  0.00     0.223 C 
ATOM     96  N   UNL A   1      34.002  22.942  24.455  1.00  0.00    -0.342 N 
ATOM     97  O   UNL A   1      33.568  23.710  26.606  1.00  0.00    -0.275 OA
BRANCH  96  98
ATOM     98  C   UNL A   1      34.622  21.635  24.774  1.00  0.00     0.123 C 
BRANCH  98  99
ATOM     99  C   UNL A   1      33.889  20.303  24.593  1.00  0.00     0.008 C 
ATOM    100  C   UNL A   1      32.770  19.536  25.309  1.00  0.00     0.006 C 
ATOM    101  C   UNL A   1      32.423  20.396  24.150  1.00  0.00     0.006 C 
ENDBRANCH  98  99
ENDBRANCH  96  98
ENDBRANCH  89  92
ENDBRANCH  77  88
ENDBRANCH  74  77
ENDBRANCH   1  73
TORSDOF 16
ENDMDL
