MODEL 1
REMARK VINA RESULT:     -11.2      0.000      0.000
REMARK SMILES CC(C)(C)c1ccc(CSc2ccnc(C(=O)NCCCNC(=O)c3ccc(-c4c5nc(c(-c6c(F)c(F)c(F)c(F)c6F)c6ccc([nH]6)c(-c6c(F)c(F)c(F)c(F)c6F)c6nc(c(-c7c(F)c(F)c(F)c(F)c7F)c7ccc4[nH]7)C=C6)C=C5)cc3)c2)cc1
REMARK SMILES IDX 19 1 18 2 16 3 17 4 15 6 11 7 12 8 88 9 13 10 14 11 10 12
REMARK SMILES IDX 9 13 8 14 5 15 6 16 90 17 7 18 89 19 2 20 1 21 3 22 4 23
REMARK SMILES IDX 20 24 21 25 22 26 23 27 24 29 25 30 26 31 87 32 27 33 86 34
REMARK SMILES IDX 28 35 29 36 30 37 80 38 31 39 85 40 79 41 81 42 32 43 84 44
REMARK SMILES IDX 78 45 77 46 33 48 65 49 45 50 64 51 46 52 49 53 63 54 82 55
REMARK SMILES IDX 47 56 48 57 62 59 83 60 50 61 34 62 35 63 43 64 36 65 37 66
REMARK SMILES IDX 41 67 44 68 38 69 39 70 42 71 40 72 66 73 67 74 75 75 68 76
REMARK SMILES IDX 69 77 73 78 76 79 70 80 71 81 74 82 72 83 51 84 52 85 60 86
REMARK SMILES IDX 53 87 54 88 58 89 61 90 55 91 56 92 59 93 57 94
REMARK H PARENT 18 5 22 28 81 47 49 58
REMARK Flexibility Score: inf
ROOT
ATOM      1  C   UNL A   1      35.153  34.902  28.376  1.00  0.00     0.118 C 
ENDROOT
BRANCH   1   2
ATOM      2  N   UNL A   1      33.824  35.475  28.266  1.00  0.00    -0.351 N 
ATOM      3  C   UNL A   1      32.975  36.048  29.186  1.00  0.00     0.269 C 
ATOM      4  O   UNL A   1      31.895  36.453  28.752  1.00  0.00    -0.268 OA
ATOM      5  H   UNL A   1      33.457  35.448  27.353  1.00  0.00     0.163 HD
BRANCH   3   6
ATOM      6  C   UNL A   1      33.323  36.234  30.636  1.00  0.00     0.129 A 
ATOM      7  C   UNL A   1      34.332  35.574  32.723  1.00  0.00     0.011 A 
ATOM      8  C   UNL A   1      34.001  36.828  33.222  1.00  0.00     0.035 A 
ATOM      9  C   UNL A   1      33.953  35.271  31.412  1.00  0.00     0.049 A 
ATOM     10  C   UNL A   1      33.305  37.709  32.414  1.00  0.00     0.113 A 
ATOM     11  N   UNL A   1      32.971  37.444  31.140  1.00  0.00    -0.251 NA
BRANCH   7  12
ATOM     12  S   UNL A   1      35.355  34.356  33.551  1.00  0.00    -0.121 SA
BRANCH  12  13
ATOM     13  C   UNL A   1      36.097  33.336  32.221  1.00  0.00     0.110 C 
BRANCH  13  14
ATOM     14  C   UNL A   1      37.456  33.788  31.752  1.00  0.00    -0.038 A 
ATOM     15  C   UNL A   1      40.105  34.287  30.853  1.00  0.00    -0.043 A 
ATOM     16  C   UNL A   1      39.739  34.480  32.198  1.00  0.00     0.004 A 
ATOM     17  C   UNL A   1      39.086  33.941  29.953  1.00  0.00     0.004 A 
ATOM     18  C   UNL A   1      38.434  34.244  32.641  1.00  0.00     0.005 A 
ATOM     19  C   UNL A   1      37.779  33.708  30.393  1.00  0.00     0.005 A 
BRANCH  15  20
ATOM     20  C   UNL A   1      41.579  34.404  30.429  1.00  0.00    -0.013 C 
ATOM     21  C   UNL A   1      42.180  33.003  30.195  1.00  0.00     0.016 C 
ATOM     22  C   UNL A   1      42.471  35.122  31.467  1.00  0.00     0.016 C 
ATOM     23  C   UNL A   1      41.662  35.220  29.120  1.00  0.00     0.016 C 
ENDBRANCH  15  20
ENDBRANCH  13  14
ENDBRANCH  12  13
ENDBRANCH   7  12
ENDBRANCH   3   6
ENDBRANCH   1   2
BRANCH   1  24
ATOM     24  C   UNL A   1      35.171  33.461  27.867  1.00  0.00     0.042 C 
BRANCH  24  25
ATOM     25  C   UNL A   1      34.271  32.519  28.663  1.00  0.00     0.118 C 
BRANCH  25  26
ATOM     26  N   UNL A   1      33.783  31.417  27.849  1.00  0.00    -0.352 N 
ATOM     27  C   UNL A   1      34.417  30.284  27.412  1.00  0.00     0.251 C 
ATOM     28  H   UNL A   1      32.845  31.498  27.566  1.00  0.00     0.163 HD
ATOM     29  O   UNL A   1      33.883  29.598  26.545  1.00  0.00    -0.269 OA
BRANCH  27  30
ATOM     30  C   UNL A   1      35.731  29.872  27.958  1.00  0.00     0.039 A 
ATOM     31  C   UNL A   1      35.769  29.329  29.247  1.00  0.00     0.014 A 
ATOM     32  C   UNL A   1      36.925  30.085  27.262  1.00  0.00     0.014 A 
ATOM     33  C   UNL A   1      36.990  28.973  29.821  1.00  0.00     0.010 A 
ATOM     34  C   UNL A   1      38.140  29.669  27.810  1.00  0.00     0.010 A 
ATOM     35  C   UNL A   1      38.185  29.121  29.100  1.00  0.00    -0.014 A 
BRANCH  35  36
ATOM     36  C   UNL A   1      39.479  28.702  29.696  1.00  0.00     0.031 A 
ATOM     37  C   UNL A   1      40.038  29.409  30.899  1.00  0.00     0.074 A 
ATOM     38  C   UNL A   1      40.166  27.690  29.131  1.00  0.00     0.049 A 
ATOM     39  N   UNL A   1      41.142  29.169  31.562  1.00  0.00    -0.248 NA
ATOM     40  C   UNL A   1      39.268  30.553  31.412  1.00  0.00     0.031 C 
ATOM     41  C   UNL A   1      39.758  26.964  27.927  1.00  0.00     0.029 A 
ATOM     42  N   UNL A   1      41.349  27.098  29.492  1.00  0.00    -0.354 N 
ATOM     43  C   UNL A   1      41.203  30.134  32.559  1.00  0.00     0.074 A 
ATOM     44  C   UNL A   1      40.052  30.994  32.385  1.00  0.00     0.031 C 
ATOM     45  C   UNL A   1      40.658  26.003  27.668  1.00  0.00     0.029 A 
ATOM     46  C   UNL A   1      41.718  26.061  28.671  1.00  0.00     0.049 A 
ATOM     47  H   UNL A   1      41.883  27.387  30.268  1.00  0.00     0.167 HD
ATOM     48  C   UNL A   1      42.124  30.276  33.542  1.00  0.00     0.037 A 
ATOM     49  C   UNL A   1      42.786  25.244  28.726  1.00  0.00     0.037 A 
ATOM     50  C   UNL A   1      43.255  29.404  33.729  1.00  0.00     0.049 A 
ATOM     51  C   UNL A   1      43.776  25.403  29.846  1.00  0.00     0.074 A 
ATOM     52  C   UNL A   1      44.208  29.425  34.733  1.00  0.00     0.029 A 
ATOM     53  N   UNL A   1      43.586  28.351  32.887  1.00  0.00    -0.354 N 
ATOM     54  N   UNL A   1      43.782  26.272  30.827  1.00  0.00    -0.248 NA
ATOM     55  C   UNL A   1      44.901  24.458  29.871  1.00  0.00     0.031 C 
ATOM     56  C   UNL A   1      45.137  28.408  34.478  1.00  0.00     0.029 A 
ATOM     57  C   UNL A   1      44.739  27.728  33.338  1.00  0.00     0.049 A 
ATOM     58  H   UNL A   1      43.078  28.087  32.087  1.00  0.00     0.167 HD
ATOM     59  C   UNL A   1      44.898  25.970  31.596  1.00  0.00     0.074 A 
ATOM     60  C   UNL A   1      45.530  24.822  30.979  1.00  0.00     0.031 C 
ATOM     61  C   UNL A   1      45.360  26.591  32.708  1.00  0.00     0.037 A 
BRANCH  48  62
ATOM     62  C   UNL A   1      41.944  31.418  34.501  1.00  0.00     0.064 A 
ATOM     63  C   UNL A   1      42.621  32.636  34.329  1.00  0.00     0.173 A 
ATOM     64  C   UNL A   1      41.058  31.308  35.584  1.00  0.00     0.173 A 
ATOM     65  F   UNL A   1      43.486  32.789  33.316  1.00  0.00    -0.203 F 
ATOM     66  C   UNL A   1      42.440  33.689  35.221  1.00  0.00     0.198 A 
ATOM     67  C   UNL A   1      40.859  32.373  36.458  1.00  0.00     0.198 A 
ATOM     68  F   UNL A   1      40.380  30.169  35.790  1.00  0.00    -0.203 F 
ATOM     69  F   UNL A   1      43.133  34.825  35.063  1.00  0.00    -0.200 F 
ATOM     70  C   UNL A   1      41.555  33.560  36.281  1.00  0.00     0.200 A 
ATOM     71  F   UNL A   1      39.995  32.252  37.475  1.00  0.00    -0.200 F 
ATOM     72  F   UNL A   1      41.379  34.576  37.136  1.00  0.00    -0.200 F 
ENDBRANCH  48  62
BRANCH  49  73
ATOM     73  C   UNL A   1      42.948  24.174  27.709  1.00  0.00     0.064 A 
ATOM     74  C   UNL A   1      42.482  22.875  27.955  1.00  0.00     0.173 A 
ATOM     75  C   UNL A   1      43.558  24.428  26.473  1.00  0.00     0.173 A 
ATOM     76  F   UNL A   1      41.909  22.581  29.131  1.00  0.00    -0.203 F 
ATOM     77  C   UNL A   1      42.637  21.864  27.008  1.00  0.00     0.198 A 
ATOM     78  C   UNL A   1      43.689  23.423  25.517  1.00  0.00     0.198 A 
ATOM     79  F   UNL A   1      44.013  25.656  26.189  1.00  0.00    -0.203 F 
ATOM     80  F   UNL A   1      42.218  20.622  27.284  1.00  0.00    -0.200 F 
ATOM     81  C   UNL A   1      43.235  22.141  25.788  1.00  0.00     0.200 A 
ATOM     82  F   UNL A   1      44.255  23.697  24.333  1.00  0.00    -0.200 F 
ATOM     83  F   UNL A   1      43.378  21.171  24.875  1.00  0.00    -0.200 F 
ENDBRANCH  49  73
BRANCH  61  84
ATOM     84  C   UNL A   1      46.604  26.029  33.332  1.00  0.00     0.064 A 
ATOM     85  C   UNL A   1      46.545  25.000  34.284  1.00  0.00     0.173 A 
ATOM     86  C   UNL A   1      47.867  26.519  32.967  1.00  0.00     0.173 A 
ATOM     87  F   UNL A   1      45.360  24.512  34.677  1.00  0.00    -0.203 F 
ATOM     88  C   UNL A   1      47.705  24.505  34.872  1.00  0.00     0.198 A 
ATOM     89  C   UNL A   1      49.026  26.000  33.537  1.00  0.00     0.198 A 
ATOM     90  F   UNL A   1      47.976  27.499  32.058  1.00  0.00    -0.203 F 
ATOM     91  F   UNL A   1      47.622  23.560  35.819  1.00  0.00    -0.200 F 
ATOM     92  C   UNL A   1      48.944  25.001  34.495  1.00  0.00     0.200 A 
ATOM     93  F   UNL A   1      50.223  26.475  33.166  1.00  0.00    -0.200 F 
ATOM     94  F   UNL A   1      50.060  24.524  35.064  1.00  0.00    -0.200 F 
ENDBRANCH  61  84
ENDBRANCH  35  36
ENDBRANCH  27  30
ENDBRANCH  25  26
ENDBRANCH  24  25
ENDBRANCH   1  24
TORSDOF 14
ENDMDL
MODEL 2
REMARK VINA RESULT:     -10.8      3.655      7.003
REMARK SMILES CC(C)(C)c1ccc(CSc2ccnc(C(=O)NCCCNC(=O)c3ccc(-c4c5nc(c(-c6c(F)c(F)c(F)c(F)c6F)c6ccc([nH]6)c(-c6c(F)c(F)c(F)c(F)c6F)c6nc(c(-c7c(F)c(F)c(F)c(F)c7F)c7ccc4[nH]7)C=C6)C=C5)cc3)c2)cc1
REMARK SMILES IDX 19 1 18 2 16 3 17 4 15 6 11 7 12 8 88 9 13 10 14 11 10 12
REMARK SMILES IDX 9 13 8 14 5 15 6 16 90 17 7 18 89 19 2 20 1 21 3 22 4 23
REMARK SMILES IDX 20 24 21 25 22 26 23 27 24 29 25 30 26 31 87 32 27 33 86 34
REMARK SMILES IDX 28 35 29 36 30 37 80 38 31 39 85 40 79 41 81 42 32 43 84 44
REMARK SMILES IDX 78 45 77 46 33 48 65 49 45 50 64 51 46 52 49 53 63 54 82 55
REMARK SMILES IDX 47 56 48 57 62 59 83 60 50 61 34 62 35 63 43 64 36 65 37 66
REMARK SMILES IDX 41 67 44 68 38 69 39 70 42 71 40 72 66 73 67 74 75 75 68 76
REMARK SMILES IDX 69 77 73 78 76 79 70 80 71 81 74 82 72 83 51 84 52 85 60 86
REMARK SMILES IDX 53 87 54 88 58 89 61 90 55 91 56 92 59 93 57 94
REMARK H PARENT 18 5 22 28 81 47 49 58
REMARK Flexibility Score: inf
ROOT
ATOM      1  C   UNL A   1      31.584  30.847  26.445  1.00  0.00     0.118 C 
ENDROOT
BRANCH   1   2
ATOM      2  N   UNL A   1      32.841  30.352  26.976  1.00  0.00    -0.351 N 
ATOM      3  C   UNL A   1      33.577  29.215  26.729  1.00  0.00     0.269 C 
ATOM      4  O   UNL A   1      34.630  29.099  27.357  1.00  0.00    -0.268 OA
ATOM      5  H   UNL A   1      33.248  30.948  27.647  1.00  0.00     0.163 HD
BRANCH   3   6
ATOM      6  C   UNL A   1      33.180  28.170  25.723  1.00  0.00     0.129 A 
ATOM      7  C   UNL A   1      31.784  26.395  24.880  1.00  0.00     0.011 A 
ATOM      8  C   UNL A   1      32.520  26.443  23.703  1.00  0.00     0.035 A 
ATOM      9  C   UNL A   1      32.149  27.260  25.916  1.00  0.00     0.049 A 
ATOM     10  C   UNL A   1      33.582  27.324  23.612  1.00  0.00     0.113 A 
ATOM     11  N   UNL A   1      33.918  28.188  24.585  1.00  0.00    -0.251 NA
BRANCH   7  12
ATOM     12  S   UNL A   1      30.290  25.439  25.141  1.00  0.00    -0.121 SA
BRANCH  12  13
ATOM     13  C   UNL A   1      30.807  23.940  26.060  1.00  0.00     0.110 C 
BRANCH  13  14
ATOM     14  C   UNL A   1      32.196  23.447  25.749  1.00  0.00    -0.038 A 
ATOM     15  C   UNL A   1      34.897  22.864  25.084  1.00  0.00    -0.043 A 
ATOM     16  C   UNL A   1      33.845  22.569  24.198  1.00  0.00     0.004 A 
ATOM     17  C   UNL A   1      34.551  23.360  26.350  1.00  0.00     0.004 A 
ATOM     18  C   UNL A   1      32.514  22.846  24.526  1.00  0.00     0.005 A 
ATOM     19  C   UNL A   1      33.221  23.635  26.683  1.00  0.00     0.005 A 
BRANCH  15  20
ATOM     20  C   UNL A   1      36.358  22.692  24.633  1.00  0.00    -0.013 C 
ATOM     21  C   UNL A   1      37.273  23.661  25.409  1.00  0.00     0.016 C 
ATOM     22  C   UNL A   1      36.579  22.953  23.126  1.00  0.00     0.016 C 
ATOM     23  C   UNL A   1      36.801  21.239  24.911  1.00  0.00     0.016 C 
ENDBRANCH  15  20
ENDBRANCH  13  14
ENDBRANCH  12  13
ENDBRANCH   7  12
ENDBRANCH   3   6
ENDBRANCH   1   2
BRANCH   1  24
ATOM     24  C   UNL A   1      31.393  32.325  26.784  1.00  0.00     0.042 C 
BRANCH  24  25
ATOM     25  C   UNL A   1      32.704  33.097  26.919  1.00  0.00     0.118 C 
BRANCH  25  26
ATOM     26  N   UNL A   1      32.524  34.355  27.626  1.00  0.00    -0.352 N 
ATOM     27  C   UNL A   1      33.079  34.807  28.794  1.00  0.00     0.251 C 
ATOM     28  H   UNL A   1      31.901  34.983  27.197  1.00  0.00     0.163 HD
ATOM     29  O   UNL A   1      32.612  35.809  29.329  1.00  0.00    -0.269 OA
BRANCH  27  30
ATOM     30  C   UNL A   1      34.226  34.114  29.426  1.00  0.00     0.039 A 
ATOM     31  C   UNL A   1      35.517  34.485  29.037  1.00  0.00     0.014 A 
ATOM     32  C   UNL A   1      34.052  33.057  30.326  1.00  0.00     0.014 A 
ATOM     33  C   UNL A   1      36.626  33.826  29.569  1.00  0.00     0.010 A 
ATOM     34  C   UNL A   1      35.161  32.440  30.907  1.00  0.00     0.010 A 
ATOM     35  C   UNL A   1      36.459  32.810  30.524  1.00  0.00    -0.014 A 
BRANCH  35  36
ATOM     36  C   UNL A   1      37.640  32.139  31.121  1.00  0.00     0.031 A 
ATOM     37  C   UNL A   1      38.107  32.490  32.506  1.00  0.00     0.074 A 
ATOM     38  C   UNL A   1      38.312  31.222  30.398  1.00  0.00     0.049 A 
ATOM     39  N   UNL A   1      39.107  31.995  33.194  1.00  0.00    -0.248 NA
ATOM     40  C   UNL A   1      37.370  33.555  33.204  1.00  0.00     0.031 C 
ATOM     41  C   UNL A   1      37.993  30.838  29.022  1.00  0.00     0.029 A 
ATOM     42  N   UNL A   1      39.398  30.448  30.717  1.00  0.00    -0.354 N 
ATOM     43  C   UNL A   1      39.124  32.693  34.395  1.00  0.00     0.074 A 
ATOM     44  C   UNL A   1      38.067  33.679  34.324  1.00  0.00     0.031 C 
ATOM     45  C   UNL A   1      38.844  29.879  28.626  1.00  0.00     0.029 A 
ATOM     46  C   UNL A   1      39.781  29.598  29.709  1.00  0.00     0.049 A 
ATOM     47  H   UNL A   1      39.859  30.496  31.586  1.00  0.00     0.167 HD
ATOM     48  C   UNL A   1      39.933  32.511  35.466  1.00  0.00     0.037 A 
ATOM     49  C   UNL A   1      40.773  28.688  29.667  1.00  0.00     0.037 A 
ATOM     50  C   UNL A   1      40.967  31.512  35.544  1.00  0.00     0.049 A 
ATOM     51  C   UNL A   1      41.636  28.485  30.881  1.00  0.00     0.074 A 
ATOM     52  C   UNL A   1      41.796  31.206  36.609  1.00  0.00     0.029 A 
ATOM     53  N   UNL A   1      41.314  30.655  34.510  1.00  0.00    -0.354 N 
ATOM     54  N   UNL A   1      41.592  29.099  32.038  1.00  0.00    -0.248 NA
ATOM     55  C   UNL A   1      42.677  27.453  30.785  1.00  0.00     0.031 C 
ATOM     56  C   UNL A   1      42.671  30.189  36.207  1.00  0.00     0.029 A 
ATOM     57  C   UNL A   1      42.358  29.833  34.905  1.00  0.00     0.049 A 
ATOM     58  H   UNL A   1      40.883  30.634  33.625  1.00  0.00     0.167 HD
ATOM     59  C   UNL A   1      42.587  28.519  32.814  1.00  0.00     0.074 A 
ATOM     60  C   UNL A   1      43.199  27.487  32.003  1.00  0.00     0.031 C 
ATOM     61  C   UNL A   1      42.962  28.816  34.082  1.00  0.00     0.037 A 
BRANCH  48  62
ATOM     62  C   UNL A   1      39.727  33.413  36.649  1.00  0.00     0.064 A 
ATOM     63  C   UNL A   1      40.390  34.646  36.757  1.00  0.00     0.173 A 
ATOM     64  C   UNL A   1      38.832  33.059  37.671  1.00  0.00     0.173 A 
ATOM     65  F   UNL A   1      41.264  35.027  35.814  1.00  0.00    -0.203 F 
ATOM     66  C   UNL A   1      40.187  35.476  37.857  1.00  0.00     0.198 A 
ATOM     67  C   UNL A   1      38.610  33.904  38.755  1.00  0.00     0.198 A 
ATOM     68  F   UNL A   1      38.167  31.896  37.613  1.00  0.00    -0.203 F 
ATOM     69  F   UNL A   1      40.867  36.626  37.961  1.00  0.00    -0.200 F 
ATOM     70  C   UNL A   1      39.292  35.108  38.851  1.00  0.00     0.200 A 
ATOM     71  F   UNL A   1      37.737  33.554  39.709  1.00  0.00    -0.200 F 
ATOM     72  F   UNL A   1      39.094  35.910  39.906  1.00  0.00    -0.200 F 
ENDBRANCH  48  62
BRANCH  49  73
ATOM     73  C   UNL A   1      40.972  27.871  28.443  1.00  0.00     0.064 A 
ATOM     74  C   UNL A   1      40.322  26.638  28.290  1.00  0.00     0.173 A 
ATOM     75  C   UNL A   1      41.801  28.308  27.401  1.00  0.00     0.173 A 
ATOM     76  F   UNL A   1      39.534  26.172  29.269  1.00  0.00    -0.203 F 
ATOM     77  C   UNL A   1      40.510  25.864  27.147  1.00  0.00     0.198 A 
ATOM     78  C   UNL A   1      41.968  27.544  26.247  1.00  0.00     0.198 A 
ATOM     79  F   UNL A   1      42.438  29.484  27.497  1.00  0.00    -0.203 F 
ATOM     80  F   UNL A   1      39.908  24.671  27.044  1.00  0.00    -0.200 F 
ATOM     81  C   UNL A   1      41.328  26.321  26.125  1.00  0.00     0.200 A 
ATOM     82  F   UNL A   1      42.748  27.994  25.255  1.00  0.00    -0.200 F 
ATOM     83  F   UNL A   1      41.503  25.578  25.023  1.00  0.00    -0.200 F 
ENDBRANCH  49  73
BRANCH  61  84
ATOM     84  C   UNL A   1      44.080  28.006  34.667  1.00  0.00     0.064 A 
ATOM     85  C   UNL A   1      43.836  26.798  35.338  1.00  0.00     0.173 A 
ATOM     86  C   UNL A   1      45.411  28.436  34.548  1.00  0.00     0.173 A 
ATOM     87  F   UNL A   1      42.580  26.354  35.492  1.00  0.00    -0.203 F 
ATOM     88  C   UNL A   1      44.881  26.068  35.897  1.00  0.00     0.198 A 
ATOM     89  C   UNL A   1      46.455  27.688  35.084  1.00  0.00     0.198 A 
ATOM     90  F   UNL A   1      45.696  29.582  33.912  1.00  0.00    -0.203 F 
ATOM     91  F   UNL A   1      44.619  24.945  36.581  1.00  0.00    -0.200 F 
ATOM     92  C   UNL A   1      46.189  26.510  35.765  1.00  0.00     0.200 A 
ATOM     93  F   UNL A   1      47.719  28.111  34.948  1.00  0.00    -0.200 F 
ATOM     94  F   UNL A   1      47.192  25.806  36.307  1.00  0.00    -0.200 F 
ENDBRANCH  61  84
ENDBRANCH  35  36
ENDBRANCH  27  30
ENDBRANCH  25  26
ENDBRANCH  24  25
ENDBRANCH   1  24
TORSDOF 14
ENDMDL
MODEL 3
REMARK VINA RESULT:     -10.8      4.321      7.939
REMARK SMILES CC(C)(C)c1ccc(CSc2ccnc(C(=O)NCCCNC(=O)c3ccc(-c4c5nc(c(-c6c(F)c(F)c(F)c(F)c6F)c6ccc([nH]6)c(-c6c(F)c(F)c(F)c(F)c6F)c6nc(c(-c7c(F)c(F)c(F)c(F)c7F)c7ccc4[nH]7)C=C6)C=C5)cc3)c2)cc1
REMARK SMILES IDX 19 1 18 2 16 3 17 4 15 6 11 7 12 8 88 9 13 10 14 11 10 12
REMARK SMILES IDX 9 13 8 14 5 15 6 16 90 17 7 18 89 19 2 20 1 21 3 22 4 23
REMARK SMILES IDX 20 24 21 25 22 26 23 27 24 29 25 30 26 31 87 32 27 33 86 34
REMARK SMILES IDX 28 35 29 36 30 37 80 38 31 39 85 40 79 41 81 42 32 43 84 44
REMARK SMILES IDX 78 45 77 46 33 48 65 49 45 50 64 51 46 52 49 53 63 54 82 55
REMARK SMILES IDX 47 56 48 57 62 59 83 60 50 61 34 62 35 63 43 64 36 65 37 66
REMARK SMILES IDX 41 67 44 68 38 69 39 70 42 71 40 72 66 73 67 74 75 75 68 76
REMARK SMILES IDX 69 77 73 78 76 79 70 80 71 81 74 82 72 83 51 84 52 85 60 86
REMARK SMILES IDX 53 87 54 88 58 89 61 90 55 91 56 92 59 93 57 94
REMARK H PARENT 18 5 22 28 81 47 49 58
REMARK Flexibility Score: inf
ROOT
ATOM      1  C   UNL A   1      31.673  30.832  26.618  1.00  0.00     0.118 C 
ENDROOT
BRANCH   1   2
ATOM      2  N   UNL A   1      32.971  30.446  27.142  1.00  0.00    -0.351 N 
ATOM      3  C   UNL A   1      33.646  29.247  27.176  1.00  0.00     0.269 C 
ATOM      4  O   UNL A   1      34.762  29.264  27.698  1.00  0.00    -0.268 OA
ATOM      5  H   UNL A   1      33.467  31.191  27.555  1.00  0.00     0.163 HD
BRANCH   3   6
ATOM      6  C   UNL A   1      33.111  27.975  26.581  1.00  0.00     0.129 A 
ATOM      7  C   UNL A   1      33.294  25.929  25.319  1.00  0.00     0.011 A 
ATOM      8  C   UNL A   1      32.001  25.623  25.723  1.00  0.00     0.035 A 
ATOM      9  C   UNL A   1      33.839  27.147  25.737  1.00  0.00     0.049 A 
ATOM     10  C   UNL A   1      31.308  26.532  26.502  1.00  0.00     0.113 A 
ATOM     11  N   UNL A   1      31.835  27.687  26.943  1.00  0.00    -0.251 NA
BRANCH   7  12
ATOM     12  S   UNL A   1      34.403  24.828  24.441  1.00  0.00    -0.121 SA
BRANCH  12  13
ATOM     13  C   UNL A   1      33.336  23.772  23.390  1.00  0.00     0.110 C 
BRANCH  13  14
ATOM     14  C   UNL A   1      33.298  22.316  23.777  1.00  0.00    -0.038 A 
ATOM     15  C   UNL A   1      33.492  19.522  24.260  1.00  0.00    -0.043 A 
ATOM     16  C   UNL A   1      32.435  20.063  23.504  1.00  0.00     0.004 A 
ATOM     17  C   UNL A   1      34.386  20.425  24.853  1.00  0.00     0.004 A 
ATOM     18  C   UNL A   1      32.333  21.439  23.272  1.00  0.00     0.005 A 
ATOM     19  C   UNL A   1      34.284  21.801  24.627  1.00  0.00     0.005 A 
BRANCH  15  20
ATOM     20  C   UNL A   1      33.663  17.997  24.365  1.00  0.00    -0.013 C 
ATOM     21  C   UNL A   1      33.218  17.318  23.054  1.00  0.00     0.016 C 
ATOM     22  C   UNL A   1      32.854  17.357  25.516  1.00  0.00     0.016 C 
ATOM     23  C   UNL A   1      35.152  17.676  24.626  1.00  0.00     0.016 C 
ENDBRANCH  15  20
ENDBRANCH  13  14
ENDBRANCH  12  13
ENDBRANCH   7  12
ENDBRANCH   3   6
ENDBRANCH   1   2
BRANCH   1  24
ATOM     24  C   UNL A   1      31.423  32.326  26.824  1.00  0.00     0.042 C 
BRANCH  24  25
ATOM     25  C   UNL A   1      32.702  33.157  26.896  1.00  0.00     0.118 C 
BRANCH  25  26
ATOM     26  N   UNL A   1      32.503  34.399  27.626  1.00  0.00    -0.352 N 
ATOM     27  C   UNL A   1      33.044  34.833  28.807  1.00  0.00     0.251 C 
ATOM     28  H   UNL A   1      31.878  35.029  27.203  1.00  0.00     0.163 HD
ATOM     29  O   UNL A   1      32.561  35.820  29.357  1.00  0.00    -0.269 OA
BRANCH  27  30
ATOM     30  C   UNL A   1      34.191  34.140  29.436  1.00  0.00     0.039 A 
ATOM     31  C   UNL A   1      35.478  34.449  28.982  1.00  0.00     0.014 A 
ATOM     32  C   UNL A   1      34.019  33.139  30.397  1.00  0.00     0.014 A 
ATOM     33  C   UNL A   1      36.586  33.785  29.511  1.00  0.00     0.010 A 
ATOM     34  C   UNL A   1      35.131  32.519  30.972  1.00  0.00     0.010 A 
ATOM     35  C   UNL A   1      36.424  32.828  30.525  1.00  0.00    -0.014 A 
BRANCH  35  36
ATOM     36  C   UNL A   1      37.606  32.153  31.117  1.00  0.00     0.031 A 
ATOM     37  C   UNL A   1      38.081  32.503  32.500  1.00  0.00     0.074 A 
ATOM     38  C   UNL A   1      38.271  31.234  30.390  1.00  0.00     0.049 A 
ATOM     39  N   UNL A   1      39.082  32.005  33.183  1.00  0.00    -0.248 NA
ATOM     40  C   UNL A   1      37.350  33.570  33.200  1.00  0.00     0.031 C 
ATOM     41  C   UNL A   1      37.944  30.850  29.016  1.00  0.00     0.029 A 
ATOM     42  N   UNL A   1      39.356  30.456  30.704  1.00  0.00    -0.354 N 
ATOM     43  C   UNL A   1      39.107  32.702  34.383  1.00  0.00     0.074 A 
ATOM     44  C   UNL A   1      38.053  33.692  34.317  1.00  0.00     0.031 C 
ATOM     45  C   UNL A   1      38.790  29.888  28.616  1.00  0.00     0.029 A 
ATOM     46  C   UNL A   1      39.732  29.604  29.694  1.00  0.00     0.049 A 
ATOM     47  H   UNL A   1      39.821  30.502  31.571  1.00  0.00     0.167 HD
ATOM     48  C   UNL A   1      39.920  32.518  35.451  1.00  0.00     0.037 A 
ATOM     49  C   UNL A   1      40.720  28.692  29.648  1.00  0.00     0.037 A 
ATOM     50  C   UNL A   1      40.951  31.516  35.524  1.00  0.00     0.049 A 
ATOM     51  C   UNL A   1      41.588  28.486  30.858  1.00  0.00     0.074 A 
ATOM     52  C   UNL A   1      41.785  31.207  36.585  1.00  0.00     0.029 A 
ATOM     53  N   UNL A   1      41.291  30.658  34.488  1.00  0.00    -0.354 N 
ATOM     54  N   UNL A   1      41.553  29.100  32.016  1.00  0.00    -0.248 NA
ATOM     55  C   UNL A   1      42.626  27.451  30.758  1.00  0.00     0.031 C 
ATOM     56  C   UNL A   1      42.654  30.187  36.179  1.00  0.00     0.029 A 
ATOM     57  C   UNL A   1      42.334  29.833  34.878  1.00  0.00     0.049 A 
ATOM     58  H   UNL A   1      40.856  30.638  33.605  1.00  0.00     0.167 HD
ATOM     59  C   UNL A   1      42.549  28.517  32.786  1.00  0.00     0.074 A 
ATOM     60  C   UNL A   1      43.154  27.483  31.972  1.00  0.00     0.031 C 
ATOM     61  C   UNL A   1      42.931  28.814  34.052  1.00  0.00     0.037 A 
BRANCH  48  62
ATOM     62  C   UNL A   1      39.724  33.421  36.635  1.00  0.00     0.064 A 
ATOM     63  C   UNL A   1      40.395  34.650  36.742  1.00  0.00     0.173 A 
ATOM     64  C   UNL A   1      38.828  33.073  37.658  1.00  0.00     0.173 A 
ATOM     65  F   UNL A   1      41.269  35.026  35.796  1.00  0.00    -0.203 F 
ATOM     66  C   UNL A   1      40.199  35.481  37.842  1.00  0.00     0.198 A 
ATOM     67  C   UNL A   1      38.614  33.919  38.743  1.00  0.00     0.198 A 
ATOM     68  F   UNL A   1      38.156  31.914  37.602  1.00  0.00    -0.203 F 
ATOM     69  F   UNL A   1      40.887  36.627  37.945  1.00  0.00    -0.200 F 
ATOM     70  C   UNL A   1      39.305  35.118  38.838  1.00  0.00     0.200 A 
ATOM     71  F   UNL A   1      37.741  33.573  39.699  1.00  0.00    -0.200 F 
ATOM     72  F   UNL A   1      39.114  35.921  39.893  1.00  0.00    -0.200 F 
ENDBRANCH  48  62
BRANCH  49  73
ATOM     73  C   UNL A   1      40.911  27.874  28.423  1.00  0.00     0.064 A 
ATOM     74  C   UNL A   1      40.262  26.640  28.277  1.00  0.00     0.173 A 
ATOM     75  C   UNL A   1      41.731  28.311  27.374  1.00  0.00     0.173 A 
ATOM     76  F   UNL A   1      39.483  26.173  29.263  1.00  0.00    -0.203 F 
ATOM     77  C   UNL A   1      40.442  25.865  27.133  1.00  0.00     0.198 A 
ATOM     78  C   UNL A   1      41.890  27.547  26.220  1.00  0.00     0.198 A 
ATOM     79  F   UNL A   1      42.367  29.488  27.464  1.00  0.00    -0.203 F 
ATOM     80  F   UNL A   1      39.841  24.671  27.036  1.00  0.00    -0.200 F 
ATOM     81  C   UNL A   1      41.250  26.321  26.104  1.00  0.00     0.200 A 
ATOM     82  F   UNL A   1      42.661  27.997  25.221  1.00  0.00    -0.200 F 
ATOM     83  F   UNL A   1      41.418  25.579  25.001  1.00  0.00    -0.200 F 
ENDBRANCH  49  73
BRANCH  61  84
ATOM     84  C   UNL A   1      44.049  28.000  34.632  1.00  0.00     0.064 A 
ATOM     85  C   UNL A   1      45.386  28.414  34.530  1.00  0.00     0.173 A 
ATOM     86  C   UNL A   1      43.782  26.797  35.304  1.00  0.00     0.173 A 
ATOM     87  F   UNL A   1      45.693  29.547  33.881  1.00  0.00    -0.203 F 
ATOM     88  C   UNL A   1      46.417  27.638  35.051  1.00  0.00     0.198 A 
ATOM     89  C   UNL A   1      44.814  26.038  35.850  1.00  0.00     0.198 A 
ATOM     90  F   UNL A   1      42.521  26.360  35.433  1.00  0.00    -0.203 F 
ATOM     91  F   UNL A   1      47.690  28.026  34.895  1.00  0.00    -0.200 F 
ATOM     92  C   UNL A   1      46.130  26.454  35.715  1.00  0.00     0.200 A 
ATOM     93  F   UNL A   1      44.535  24.899  36.498  1.00  0.00    -0.200 F 
ATOM     94  F   UNL A   1      47.124  25.707  36.214  1.00  0.00    -0.200 F 
ENDBRANCH  61  84
ENDBRANCH  35  36
ENDBRANCH  27  30
ENDBRANCH  25  26
ENDBRANCH  24  25
ENDBRANCH   1  24
TORSDOF 14
ENDMDL
