MODEL 1
REMARK VINA RESULT:     -13.8      0.000      0.000
REMARK SMILES COc1cccc(-c2c(C(=O)NCCCNC(=O)c3ccc(-c4c5nc(c(-c6c(F)c(F)c(F)c(F)c6F)c6ccc([nH]6)c(-c6c(F)c(F)c(F)c(F)c6F)c6nc(c(-c7c(F)c(F)c(F)c(F)c7F)c7ccc4[nH]7)C=C6)C=C5)cc3)nnn2Cc2ccc(OC(F)(F)F)cc2)c1
REMARK SMILES IDX 13 1 12 2 10 3 11 4 9 6 8 7 84 8 82 9 83 10 7 11 3 12 4 13
REMARK SMILES IDX 97 14 5 15 6 16 2 17 1 18 85 19 86 20 87 21 96 22 88 23
REMARK SMILES IDX 95 24 89 25 90 26 91 27 92 28 93 29 94 30 14 31 15 32 16 33
REMARK SMILES IDX 17 34 18 36 19 37 20 38 81 39 21 40 80 41 22 42 23 43 24 44
REMARK SMILES IDX 74 45 25 46 79 47 73 48 75 49 26 50 78 51 72 52 71 53 27 55
REMARK SMILES IDX 59 56 39 57 58 58 40 59 43 60 57 61 76 62 41 63 42 64 56 66
REMARK SMILES IDX 77 67 44 68 28 69 29 70 37 71 30 72 31 73 35 74 38 75 32 76
REMARK SMILES IDX 33 77 36 78 34 79 60 80 61 81 69 82 62 83 63 84 67 85 70 86
REMARK SMILES IDX 64 87 65 88 68 89 66 90 45 91 46 92 54 93 47 94 48 95 52 96
REMARK SMILES IDX 55 97 49 98 50 99 53 100 51 101
REMARK H PARENT 12 5 16 35 75 54 43 65
REMARK Flexibility Score: inf
ROOT
ATOM      1  C   UNL A   1      36.208  23.189  25.784  1.00  0.00     0.118 C 
ENDROOT
BRANCH   1   2
ATOM      2  N   UNL A   1      34.857  22.740  25.585  1.00  0.00    -0.351 N 
ATOM      3  C   UNL A   1      33.826  23.183  24.803  1.00  0.00     0.274 C 
ATOM      4  O   UNL A   1      32.858  22.413  24.805  1.00  0.00    -0.267 OA
ATOM      5  H   UNL A   1      34.626  21.950  26.124  1.00  0.00     0.163 HD
BRANCH   3   6
ATOM      6  C   UNL A   1      33.776  24.434  24.029  1.00  0.00     0.178 A 
ATOM      7  C   UNL A   1      33.501  25.794  24.244  1.00  0.00     0.102 A 
ATOM      8  N   UNL A   1      33.632  26.346  22.978  1.00  0.00    -0.239 N 
ATOM      9  N   UNL A   1      34.013  24.266  22.671  1.00  0.00    -0.124 NA
ATOM     10  N   UNL A   1      33.865  25.412  22.049  1.00  0.00    -0.066 NA
BRANCH   7  11
ATOM     11  C   UNL A   1      33.111  26.636  25.372  1.00  0.00     0.006 A 
ATOM     12  C   UNL A   1      33.679  28.371  26.990  1.00  0.00     0.119 A 
ATOM     13  C   UNL A   1      32.386  28.290  27.512  1.00  0.00     0.046 A 
ATOM     14  C   UNL A   1      34.040  27.546  25.919  1.00  0.00     0.056 A 
ATOM     15  C   UNL A   1      31.471  27.369  27.002  1.00  0.00     0.005 A 
ATOM     16  C   UNL A   1      31.847  26.515  25.963  1.00  0.00     0.011 A 
BRANCH  12  17
ATOM     17  O   UNL A   1      34.489  29.283  27.604  1.00  0.00    -0.497 OA
ATOM     18  C   UNL A   1      34.106  30.651  27.510  1.00  0.00     0.278 C 
ENDBRANCH  12  17
ENDBRANCH   7  11
BRANCH   8  19
ATOM     19  C   UNL A   1      33.414  27.717  22.538  1.00  0.00     0.182 C 
BRANCH  19  20
ATOM     20  C   UNL A   1      32.026  28.221  22.848  1.00  0.00    -0.026 A 
ATOM     21  C   UNL A   1      30.904  27.644  22.244  1.00  0.00     0.009 A 
ATOM     22  C   UNL A   1      31.836  29.315  23.705  1.00  0.00     0.009 A 
ATOM     23  C   UNL A   1      29.630  28.166  22.482  1.00  0.00     0.047 A 
ATOM     24  C   UNL A   1      30.560  29.825  23.953  1.00  0.00     0.047 A 
ATOM     25  C   UNL A   1      29.448  29.262  23.332  1.00  0.00     0.129 A 
BRANCH  25  26
ATOM     26  O   UNL A   1      28.155  29.682  23.456  1.00  0.00    -0.406 OA
BRANCH  26  27
ATOM     27  C   UNL A   1      27.857  31.007  23.047  1.00  0.00     0.573 C 
ATOM     28  F   UNL A   1      27.299  31.021  21.817  1.00  0.00    -0.132 F 
ATOM     29  F   UNL A   1      27.033  31.620  23.925  1.00  0.00    -0.132 F 
ATOM     30  F   UNL A   1      29.008  31.713  22.993  1.00  0.00    -0.132 F 
ENDBRANCH  26  27
ENDBRANCH  25  26
ENDBRANCH  19  20
ENDBRANCH   8  19
ENDBRANCH   3   6
ENDBRANCH   1   2
BRANCH   1  31
ATOM     31  C   UNL A   1      37.216  22.043  25.763  1.00  0.00     0.042 C 
BRANCH  31  32
ATOM     32  C   UNL A   1      38.644  22.536  25.745  1.00  0.00     0.118 C 
BRANCH  32  33
ATOM     33  N   UNL A   1      39.427  21.997  26.872  1.00  0.00    -0.352 N 
ATOM     34  C   UNL A   1      40.428  22.616  27.613  1.00  0.00     0.251 C 
ATOM     35  H   UNL A   1      39.211  21.073  27.136  1.00  0.00     0.163 HD
ATOM     36  O   UNL A   1      41.197  21.998  28.309  1.00  0.00    -0.269 OA
BRANCH  34  37
ATOM     37  C   UNL A   1      40.501  24.083  27.505  1.00  0.00     0.039 A 
ATOM     38  C   UNL A   1      39.398  24.863  27.157  1.00  0.00     0.014 A 
ATOM     39  C   UNL A   1      41.657  24.646  28.011  1.00  0.00     0.014 A 
ATOM     40  C   UNL A   1      39.438  26.225  27.453  1.00  0.00     0.010 A 
ATOM     41  C   UNL A   1      41.550  25.881  28.576  1.00  0.00     0.010 A 
ATOM     42  C   UNL A   1      40.509  26.722  28.211  1.00  0.00    -0.014 A 
BRANCH  42  43
ATOM     43  C   UNL A   1      40.575  28.100  28.683  1.00  0.00     0.031 A 
ATOM     44  C   UNL A   1      41.698  28.928  28.157  1.00  0.00     0.074 A 
ATOM     45  C   UNL A   1      39.579  28.655  29.414  1.00  0.00     0.049 A 
ATOM     46  N   UNL A   1      42.691  29.421  28.821  1.00  0.00    -0.248 NA
ATOM     47  C   UNL A   1      41.786  29.157  26.706  1.00  0.00     0.031 C 
ATOM     48  C   UNL A   1      38.262  28.109  29.786  1.00  0.00     0.029 A 
ATOM     49  N   UNL A   1      39.521  29.908  29.928  1.00  0.00    -0.354 N 
ATOM     50  C   UNL A   1      43.456  30.151  27.913  1.00  0.00     0.074 A 
ATOM     51  C   UNL A   1      42.924  29.849  26.608  1.00  0.00     0.031 C 
ATOM     52  C   UNL A   1      37.461  29.097  30.237  1.00  0.00     0.029 A 
ATOM     53  C   UNL A   1      38.273  30.281  30.404  1.00  0.00     0.049 A 
ATOM     54  H   UNL A   1      40.302  30.507  29.961  1.00  0.00     0.167 HD
ATOM     55  C   UNL A   1      44.358  31.083  28.334  1.00  0.00     0.037 A 
ATOM     56  C   UNL A   1      37.931  31.481  30.921  1.00  0.00     0.037 A 
ATOM     57  C   UNL A   1      44.654  30.920  29.735  1.00  0.00     0.049 A 
ATOM     58  C   UNL A   1      39.190  32.138  31.348  1.00  0.00     0.074 A 
ATOM     59  C   UNL A   1      45.245  29.921  30.484  1.00  0.00     0.029 A 
ATOM     60  N   UNL A   1      43.977  31.704  30.637  1.00  0.00    -0.354 N 
ATOM     61  N   UNL A   1      39.939  31.694  32.320  1.00  0.00    -0.248 NA
ATOM     62  C   UNL A   1      39.859  32.991  30.378  1.00  0.00     0.031 C 
ATOM     63  C   UNL A   1      44.476  29.862  31.684  1.00  0.00     0.029 A 
ATOM     64  C   UNL A   1      43.515  30.873  31.628  1.00  0.00     0.049 A 
ATOM     65  H   UNL A   1      43.847  32.678  30.583  1.00  0.00     0.167 HD
ATOM     66  C   UNL A   1      41.242  31.862  31.871  1.00  0.00     0.074 A 
ATOM     67  C   UNL A   1      41.130  32.733  30.702  1.00  0.00     0.031 C 
ATOM     68  C   UNL A   1      42.255  31.058  32.311  1.00  0.00     0.037 A 
BRANCH  55  69
ATOM     69  C   UNL A   1      44.754  32.327  27.576  1.00  0.00     0.064 A 
ATOM     70  C   UNL A   1      46.005  32.373  26.924  1.00  0.00     0.173 A 
ATOM     71  C   UNL A   1      44.092  33.565  27.705  1.00  0.00     0.173 A 
ATOM     72  F   UNL A   1      46.730  31.257  26.751  1.00  0.00    -0.203 F 
ATOM     73  C   UNL A   1      46.578  33.578  26.507  1.00  0.00     0.198 A 
ATOM     74  C   UNL A   1      44.645  34.760  27.243  1.00  0.00     0.198 A 
ATOM     75  F   UNL A   1      42.941  33.686  28.377  1.00  0.00    -0.203 F 
ATOM     76  F   UNL A   1      47.820  33.586  26.002  1.00  0.00    -0.200 F 
ATOM     77  C   UNL A   1      45.902  34.771  26.674  1.00  0.00     0.200 A 
ATOM     78  F   UNL A   1      43.979  35.908  27.427  1.00  0.00    -0.200 F 
ATOM     79  F   UNL A   1      46.473  35.933  26.334  1.00  0.00    -0.200 F 
ENDBRANCH  55  69
BRANCH  56  80
ATOM     80  C   UNL A   1      36.651  32.198  30.741  1.00  0.00     0.064 A 
ATOM     81  C   UNL A   1      35.806  32.454  31.828  1.00  0.00     0.173 A 
ATOM     82  C   UNL A   1      36.370  32.889  29.544  1.00  0.00     0.173 A 
ATOM     83  F   UNL A   1      36.034  31.864  33.010  1.00  0.00    -0.203 F 
ATOM     84  C   UNL A   1      34.756  33.373  31.735  1.00  0.00     0.198 A 
ATOM     85  C   UNL A   1      35.321  33.804  29.452  1.00  0.00     0.198 A 
ATOM     86  F   UNL A   1      37.168  32.760  28.474  1.00  0.00    -0.203 F 
ATOM     87  F   UNL A   1      34.005  33.639  32.813  1.00  0.00    -0.200 F 
ATOM     88  C   UNL A   1      34.523  34.057  30.552  1.00  0.00     0.200 A 
ATOM     89  F   UNL A   1      35.132  34.486  28.314  1.00  0.00    -0.200 F 
ATOM     90  F   UNL A   1      33.560  34.987  30.484  1.00  0.00    -0.200 F 
ENDBRANCH  56  80
BRANCH  68  91
ATOM     91  C   UNL A   1      41.965  30.121  33.455  1.00  0.00     0.064 A 
ATOM     92  C   UNL A   1      41.572  28.780  33.293  1.00  0.00     0.173 A 
ATOM     93  C   UNL A   1      42.261  30.545  34.757  1.00  0.00     0.173 A 
ATOM     94  F   UNL A   1      41.365  28.265  32.078  1.00  0.00    -0.203 F 
ATOM     95  C   UNL A   1      41.448  27.919  34.385  1.00  0.00     0.198 A 
ATOM     96  C   UNL A   1      42.171  29.675  35.842  1.00  0.00     0.198 A 
ATOM     97  F   UNL A   1      42.698  31.796  34.972  1.00  0.00    -0.203 F 
ATOM     98  F   UNL A   1      41.069  26.646  34.197  1.00  0.00    -0.200 F 
ATOM     99  C   UNL A   1      41.756  28.366  35.656  1.00  0.00     0.200 A 
ATOM    100  F   UNL A   1      42.519  30.098  37.065  1.00  0.00    -0.200 F 
ATOM    101  F   UNL A   1      41.683  27.528  36.701  1.00  0.00    -0.200 F 
ENDBRANCH  68  91
ENDBRANCH  42  43
ENDBRANCH  34  37
ENDBRANCH  32  33
ENDBRANCH  31  32
ENDBRANCH   1  31
TORSDOF 16
ENDMDL
MODEL 2
REMARK VINA RESULT:     -13.7      1.940      3.492
REMARK SMILES COc1cccc(-c2c(C(=O)NCCCNC(=O)c3ccc(-c4c5nc(c(-c6c(F)c(F)c(F)c(F)c6F)c6ccc([nH]6)c(-c6c(F)c(F)c(F)c(F)c6F)c6nc(c(-c7c(F)c(F)c(F)c(F)c7F)c7ccc4[nH]7)C=C6)C=C5)cc3)nnn2Cc2ccc(OC(F)(F)F)cc2)c1
REMARK SMILES IDX 13 1 12 2 10 3 11 4 9 6 8 7 84 8 82 9 83 10 7 11 3 12 4 13
REMARK SMILES IDX 97 14 5 15 6 16 2 17 1 18 85 19 86 20 87 21 96 22 88 23
REMARK SMILES IDX 95 24 89 25 90 26 91 27 92 28 93 29 94 30 14 31 15 32 16 33
REMARK SMILES IDX 17 34 18 36 19 37 20 38 81 39 21 40 80 41 22 42 23 43 24 44
REMARK SMILES IDX 74 45 25 46 79 47 73 48 75 49 26 50 78 51 72 52 71 53 27 55
REMARK SMILES IDX 59 56 39 57 58 58 40 59 43 60 57 61 76 62 41 63 42 64 56 66
REMARK SMILES IDX 77 67 44 68 28 69 29 70 37 71 30 72 31 73 35 74 38 75 32 76
REMARK SMILES IDX 33 77 36 78 34 79 60 80 61 81 69 82 62 83 63 84 67 85 70 86
REMARK SMILES IDX 64 87 65 88 68 89 66 90 45 91 46 92 54 93 47 94 48 95 52 96
REMARK SMILES IDX 55 97 49 98 50 99 53 100 51 101
REMARK H PARENT 12 5 16 35 75 54 43 65
REMARK Flexibility Score: inf
ROOT
ATOM      1  C   UNL A   1      38.230  22.261  25.956  1.00  0.00     0.118 C 
ENDROOT
BRANCH   1   2
ATOM      2  N   UNL A   1      37.823  22.463  24.593  1.00  0.00    -0.351 N 
ATOM      3  C   UNL A   1      36.647  22.851  24.012  1.00  0.00     0.274 C 
ATOM      4  O   UNL A   1      36.758  23.055  22.797  1.00  0.00    -0.267 OA
ATOM      5  H   UNL A   1      38.539  22.284  23.942  1.00  0.00     0.163 HD
BRANCH   3   6
ATOM      6  C   UNL A   1      35.343  23.012  24.675  1.00  0.00     0.178 A 
ATOM      7  C   UNL A   1      34.120  22.329  24.770  1.00  0.00     0.102 A 
ATOM      8  N   UNL A   1      33.356  23.162  25.575  1.00  0.00    -0.239 N 
ATOM      9  N   UNL A   1      35.214  24.199  25.385  1.00  0.00    -0.124 NA
ATOM     10  N   UNL A   1      33.999  24.298  25.869  1.00  0.00    -0.066 NA
BRANCH   7  11
ATOM     11  C   UNL A   1      33.542  21.101  24.232  1.00  0.00     0.006 A 
ATOM     12  C   UNL A   1      33.337  18.671  24.303  1.00  0.00     0.119 A 
ATOM     13  C   UNL A   1      32.425  18.729  23.247  1.00  0.00     0.046 A 
ATOM     14  C   UNL A   1      33.893  19.856  24.796  1.00  0.00     0.056 A 
ATOM     15  C   UNL A   1      32.098  19.951  22.658  1.00  0.00     0.005 A 
ATOM     16  C   UNL A   1      32.688  21.129  23.122  1.00  0.00     0.011 A 
BRANCH  12  17
ATOM     17  O   UNL A   1      33.602  17.412  24.762  1.00  0.00    -0.497 OA
ATOM     18  C   UNL A   1      33.898  16.421  23.785  1.00  0.00     0.278 C 
ENDBRANCH  12  17
ENDBRANCH   7  11
BRANCH   8  19
ATOM     19  C   UNL A   1      31.967  23.027  25.994  1.00  0.00     0.182 C 
BRANCH  19  20
ATOM     20  C   UNL A   1      31.063  24.064  25.372  1.00  0.00    -0.026 A 
ATOM     21  C   UNL A   1      30.967  24.188  23.982  1.00  0.00     0.009 A 
ATOM     22  C   UNL A   1      30.345  24.962  26.176  1.00  0.00     0.009 A 
ATOM     23  C   UNL A   1      30.184  25.200  23.419  1.00  0.00     0.047 A 
ATOM     24  C   UNL A   1      29.551  25.961  25.611  1.00  0.00     0.047 A 
ATOM     25  C   UNL A   1      29.476  26.096  24.226  1.00  0.00     0.129 A 
BRANCH  25  26
ATOM     26  O   UNL A   1      28.771  27.047  23.546  1.00  0.00    -0.406 OA
BRANCH  26  27
ATOM     27  C   UNL A   1      29.436  28.263  23.245  1.00  0.00     0.573 C 
ATOM     28  F   UNL A   1      29.983  28.225  22.011  1.00  0.00    -0.132 F 
ATOM     29  F   UNL A   1      28.597  29.318  23.336  1.00  0.00    -0.132 F 
ATOM     30  F   UNL A   1      30.432  28.444  24.141  1.00  0.00    -0.132 F 
ENDBRANCH  26  27
ENDBRANCH  25  26
ENDBRANCH  19  20
ENDBRANCH   8  19
ENDBRANCH   3   6
ENDBRANCH   1   2
BRANCH   1  31
ATOM     31  C   UNL A   1      39.389  21.276  26.084  1.00  0.00     0.042 C 
BRANCH  31  32
ATOM     32  C   UNL A   1      40.487  21.794  26.983  1.00  0.00     0.118 C 
BRANCH  32  33
ATOM     33  N   UNL A   1      41.694  22.163  26.221  1.00  0.00    -0.352 N 
ATOM     34  C   UNL A   1      42.249  23.423  26.024  1.00  0.00     0.251 C 
ATOM     35  H   UNL A   1      42.171  21.416  25.792  1.00  0.00     0.163 HD
ATOM     36  O   UNL A   1      43.056  23.649  25.155  1.00  0.00    -0.269 OA
BRANCH  34  37
ATOM     37  C   UNL A   1      41.799  24.481  26.945  1.00  0.00     0.039 A 
ATOM     38  C   UNL A   1      42.405  24.704  28.182  1.00  0.00     0.014 A 
ATOM     39  C   UNL A   1      40.909  25.386  26.400  1.00  0.00     0.014 A 
ATOM     40  C   UNL A   1      42.192  25.933  28.804  1.00  0.00     0.010 A 
ATOM     41  C   UNL A   1      40.974  26.670  26.852  1.00  0.00     0.010 A 
ATOM     42  C   UNL A   1      41.506  26.937  28.105  1.00  0.00    -0.014 A 
BRANCH  42  43
ATOM     43  C   UNL A   1      41.347  28.294  28.614  1.00  0.00     0.031 A 
ATOM     44  C   UNL A   1      42.394  29.278  28.218  1.00  0.00     0.074 A 
ATOM     45  C   UNL A   1      40.224  28.689  29.260  1.00  0.00     0.049 A 
ATOM     46  N   UNL A   1      43.248  29.871  28.984  1.00  0.00    -0.248 NA
ATOM     47  C   UNL A   1      42.582  29.570  26.788  1.00  0.00     0.031 C 
ATOM     48  C   UNL A   1      38.962  27.964  29.493  1.00  0.00     0.029 A 
ATOM     49  N   UNL A   1      39.955  29.904  29.797  1.00  0.00    -0.354 N 
ATOM     50  C   UNL A   1      43.990  30.726  28.171  1.00  0.00     0.074 A 
ATOM     51  C   UNL A   1      43.624  30.406  26.815  1.00  0.00     0.031 C 
ATOM     52  C   UNL A   1      38.000  28.824  29.889  1.00  0.00     0.029 A 
ATOM     53  C   UNL A   1      38.630  30.095  30.161  1.00  0.00     0.049 A 
ATOM     54  H   UNL A   1      40.644  30.597  29.919  1.00  0.00     0.167 HD
ATOM     55  C   UNL A   1      44.720  31.750  28.699  1.00  0.00     0.037 A 
ATOM     56  C   UNL A   1      38.087  31.222  30.673  1.00  0.00     0.037 A 
ATOM     57  C   UNL A   1      44.905  31.575  30.117  1.00  0.00     0.049 A 
ATOM     58  C   UNL A   1      39.205  32.020  31.233  1.00  0.00     0.074 A 
ATOM     59  C   UNL A   1      45.552  30.634  30.894  1.00  0.00     0.029 A 
ATOM     60  N   UNL A   1      44.052  32.232  30.970  1.00  0.00    -0.354 N 
ATOM     61  N   UNL A   1      39.915  31.640  32.261  1.00  0.00    -0.248 NA
ATOM     62  C   UNL A   1      39.842  32.987  30.353  1.00  0.00     0.031 C 
ATOM     63  C   UNL A   1      44.692  30.433  32.014  1.00  0.00     0.029 A 
ATOM     64  C   UNL A   1      43.615  31.313  31.892  1.00  0.00     0.049 A 
ATOM     65  H   UNL A   1      43.800  33.183  30.928  1.00  0.00     0.167 HD
ATOM     66  C   UNL A   1      41.220  31.991  31.942  1.00  0.00     0.074 A 
ATOM     67  C   UNL A   1      41.101  32.883  30.789  1.00  0.00     0.031 C 
ATOM     68  C   UNL A   1      42.285  31.309  32.457  1.00  0.00     0.037 A 
BRANCH  55  69
ATOM     69  C   UNL A   1      45.016  33.062  28.013  1.00  0.00     0.064 A 
ATOM     70  C   UNL A   1      46.342  33.364  27.638  1.00  0.00     0.173 A 
ATOM     71  C   UNL A   1      44.112  34.143  27.970  1.00  0.00     0.173 A 
ATOM     72  F   UNL A   1      47.292  32.417  27.648  1.00  0.00    -0.203 F 
ATOM     73  C   UNL A   1      46.744  34.666  27.324  1.00  0.00     0.198 A 
ATOM     74  C   UNL A   1      44.506  35.431  27.607  1.00  0.00     0.198 A 
ATOM     75  F   UNL A   1      42.844  34.024  28.381  1.00  0.00    -0.203 F 
ATOM     76  F   UNL A   1      48.038  34.927  27.092  1.00  0.00    -0.200 F 
ATOM     77  C   UNL A   1      45.827  35.700  27.316  1.00  0.00     0.200 A 
ATOM     78  F   UNL A   1      43.604  36.423  27.620  1.00  0.00    -0.200 F 
ATOM     79  F   UNL A   1      46.219  36.958  27.077  1.00  0.00    -0.200 F 
ENDBRANCH  55  69
BRANCH  56  80
ATOM     80  C   UNL A   1      36.746  31.774  30.389  1.00  0.00     0.064 A 
ATOM     81  C   UNL A   1      35.870  32.116  31.428  1.00  0.00     0.173 A 
ATOM     82  C   UNL A   1      36.411  32.236  29.100  1.00  0.00     0.173 A 
ATOM     83  F   UNL A   1      36.144  31.745  32.687  1.00  0.00    -0.203 F 
ATOM     84  C   UNL A   1      34.737  32.902  31.197  1.00  0.00     0.198 A 
ATOM     85  C   UNL A   1      35.279  33.019  28.871  1.00  0.00     0.198 A 
ATOM     86  F   UNL A   1      37.227  32.017  28.059  1.00  0.00    -0.203 F 
ATOM     87  F   UNL A   1      33.954  33.262  32.224  1.00  0.00    -0.200 F 
ATOM     88  C   UNL A   1      34.450  33.364  29.922  1.00  0.00     0.200 A 
ATOM     89  F   UNL A   1      35.035  33.492  27.640  1.00  0.00    -0.200 F 
ATOM     90  F   UNL A   1      33.403  34.174  29.714  1.00  0.00    -0.200 F 
ENDBRANCH  56  80
BRANCH  68  91
ATOM     91  C   UNL A   1      42.019  30.301  33.545  1.00  0.00     0.064 A 
ATOM     92  C   UNL A   1      41.764  28.938  33.309  1.00  0.00     0.173 A 
ATOM     93  C   UNL A   1      42.196  30.695  34.877  1.00  0.00     0.173 A 
ATOM     94  F   UNL A   1      41.678  28.458  32.065  1.00  0.00    -0.203 F 
ATOM     95  C   UNL A   1      41.658  28.023  34.358  1.00  0.00     0.198 A 
ATOM     96  C   UNL A   1      42.125  29.774  35.921  1.00  0.00     0.198 A 
ATOM     97  F   UNL A   1      42.500  31.969  35.165  1.00  0.00    -0.203 F 
ATOM     98  F   UNL A   1      41.412  26.729  34.100  1.00  0.00    -0.200 F 
ATOM     99  C   UNL A   1      41.847  28.441  35.662  1.00  0.00     0.200 A 
ATOM    100  F   UNL A   1      42.359  30.175  37.178  1.00  0.00    -0.200 F 
ATOM    101  F   UNL A   1      41.793  27.557  36.668  1.00  0.00    -0.200 F 
ENDBRANCH  68  91
ENDBRANCH  42  43
ENDBRANCH  34  37
ENDBRANCH  32  33
ENDBRANCH  31  32
ENDBRANCH   1  31
TORSDOF 16
ENDMDL
MODEL 3
REMARK VINA RESULT:     -13.5      1.446      2.050
REMARK SMILES COc1cccc(-c2c(C(=O)NCCCNC(=O)c3ccc(-c4c5nc(c(-c6c(F)c(F)c(F)c(F)c6F)c6ccc([nH]6)c(-c6c(F)c(F)c(F)c(F)c6F)c6nc(c(-c7c(F)c(F)c(F)c(F)c7F)c7ccc4[nH]7)C=C6)C=C5)cc3)nnn2Cc2ccc(OC(F)(F)F)cc2)c1
REMARK SMILES IDX 13 1 12 2 10 3 11 4 9 6 8 7 84 8 82 9 83 10 7 11 3 12 4 13
REMARK SMILES IDX 97 14 5 15 6 16 2 17 1 18 85 19 86 20 87 21 96 22 88 23
REMARK SMILES IDX 95 24 89 25 90 26 91 27 92 28 93 29 94 30 14 31 15 32 16 33
REMARK SMILES IDX 17 34 18 36 19 37 20 38 81 39 21 40 80 41 22 42 23 43 24 44
REMARK SMILES IDX 74 45 25 46 79 47 73 48 75 49 26 50 78 51 72 52 71 53 27 55
REMARK SMILES IDX 59 56 39 57 58 58 40 59 43 60 57 61 76 62 41 63 42 64 56 66
REMARK SMILES IDX 77 67 44 68 28 69 29 70 37 71 30 72 31 73 35 74 38 75 32 76
REMARK SMILES IDX 33 77 36 78 34 79 60 80 61 81 69 82 62 83 63 84 67 85 70 86
REMARK SMILES IDX 64 87 65 88 68 89 66 90 45 91 46 92 54 93 47 94 48 95 52 96
REMARK SMILES IDX 55 97 49 98 50 99 53 100 51 101
REMARK H PARENT 12 5 16 35 75 54 43 65
REMARK Flexibility Score: inf
ROOT
ATOM      1  C   UNL A   1      37.923  22.537  25.704  1.00  0.00     0.118 C 
ENDROOT
BRANCH   1   2
ATOM      2  N   UNL A   1      37.476  22.683  24.346  1.00  0.00    -0.351 N 
ATOM      3  C   UNL A   1      36.258  22.945  23.781  1.00  0.00     0.274 C 
ATOM      4  O   UNL A   1      36.330  23.146  22.562  1.00  0.00    -0.267 OA
ATOM      5  H   UNL A   1      38.197  22.570  23.685  1.00  0.00     0.163 HD
BRANCH   3   6
ATOM      6  C   UNL A   1      34.956  22.981  24.463  1.00  0.00     0.178 A 
ATOM      7  C   UNL A   1      34.023  23.936  24.899  1.00  0.00     0.102 A 
ATOM      8  N   UNL A   1      33.040  23.165  25.503  1.00  0.00    -0.239 N 
ATOM      9  N   UNL A   1      34.491  21.734  24.859  1.00  0.00    -0.124 NA
ATOM     10  N   UNL A   1      33.372  21.869  25.531  1.00  0.00    -0.066 NA
BRANCH   7  11
ATOM     11  C   UNL A   1      33.906  25.392  24.891  1.00  0.00     0.006 A 
ATOM     12  C   UNL A   1      33.902  27.503  26.113  1.00  0.00     0.119 A 
ATOM     13  C   UNL A   1      33.721  28.187  24.908  1.00  0.00     0.046 A 
ATOM     14  C   UNL A   1      33.996  26.108  26.103  1.00  0.00     0.056 A 
ATOM     15  C   UNL A   1      33.595  27.486  23.707  1.00  0.00     0.005 A 
ATOM     16  C   UNL A   1      33.645  26.090  23.705  1.00  0.00     0.011 A 
BRANCH  12  17
ATOM     17  O   UNL A   1      33.969  28.302  27.219  1.00  0.00    -0.497 OA
ATOM     18  C   UNL A   1      35.051  29.225  27.282  1.00  0.00     0.278 C 
ENDBRANCH  12  17
ENDBRANCH   7  11
BRANCH   8  19
ATOM     19  C   UNL A   1      31.831  23.582  26.198  1.00  0.00     0.182 C 
BRANCH  19  20
ATOM     20  C   UNL A   1      31.014  24.577  25.410  1.00  0.00    -0.026 A 
ATOM     21  C   UNL A   1      30.677  24.327  24.075  1.00  0.00     0.009 A 
ATOM     22  C   UNL A   1      30.625  25.797  25.981  1.00  0.00     0.009 A 
ATOM     23  C   UNL A   1      29.984  25.288  23.333  1.00  0.00     0.047 A 
ATOM     24  C   UNL A   1      29.919  26.749  25.242  1.00  0.00     0.047 A 
ATOM     25  C   UNL A   1      29.605  26.505  23.907  1.00  0.00     0.129 A 
BRANCH  25  26
ATOM     26  O   UNL A   1      28.955  27.359  23.063  1.00  0.00    -0.406 OA
BRANCH  26  27
ATOM     27  C   UNL A   1      29.643  28.534  22.664  1.00  0.00     0.573 C 
ATOM     28  F   UNL A   1      29.986  29.282  23.735  1.00  0.00    -0.132 F 
ATOM     29  F   UNL A   1      30.747  28.237  21.946  1.00  0.00    -0.132 F 
ATOM     30  F   UNL A   1      28.822  29.271  21.883  1.00  0.00    -0.132 F 
ENDBRANCH  26  27
ENDBRANCH  25  26
ENDBRANCH  19  20
ENDBRANCH   8  19
ENDBRANCH   3   6
ENDBRANCH   1   2
BRANCH   1  31
ATOM     31  C   UNL A   1      39.017  21.484  25.853  1.00  0.00     0.042 C 
BRANCH  31  32
ATOM     32  C   UNL A   1      40.092  21.906  26.827  1.00  0.00     0.118 C 
BRANCH  32  33
ATOM     33  N   UNL A   1      41.363  22.211  26.146  1.00  0.00    -0.352 N 
ATOM     34  C   UNL A   1      42.007  23.436  26.009  1.00  0.00     0.251 C 
ATOM     35  H   UNL A   1      41.818  21.442  25.731  1.00  0.00     0.163 HD
ATOM     36  O   UNL A   1      42.877  23.624  25.194  1.00  0.00    -0.269 OA
BRANCH  34  37
ATOM     37  C   UNL A   1      41.569  24.504  26.924  1.00  0.00     0.039 A 
ATOM     38  C   UNL A   1      42.153  24.703  28.175  1.00  0.00     0.014 A 
ATOM     39  C   UNL A   1      40.722  25.439  26.361  1.00  0.00     0.014 A 
ATOM     40  C   UNL A   1      41.964  25.936  28.798  1.00  0.00     0.010 A 
ATOM     41  C   UNL A   1      40.817  26.719  26.820  1.00  0.00     0.010 A 
ATOM     42  C   UNL A   1      41.328  26.965  28.086  1.00  0.00    -0.014 A 
BRANCH  42  43
ATOM     43  C   UNL A   1      41.200  28.324  28.598  1.00  0.00     0.031 A 
ATOM     44  C   UNL A   1      42.258  29.289  28.185  1.00  0.00     0.074 A 
ATOM     45  C   UNL A   1      40.095  28.738  29.261  1.00  0.00     0.049 A 
ATOM     46  N   UNL A   1      43.135  29.867  28.938  1.00  0.00    -0.248 NA
ATOM     47  C   UNL A   1      42.429  29.578  26.752  1.00  0.00     0.031 C 
ATOM     48  C   UNL A   1      38.824  28.035  29.514  1.00  0.00     0.029 A 
ATOM     49  N   UNL A   1      39.855  29.958  29.802  1.00  0.00    -0.354 N 
ATOM     50  C   UNL A   1      43.878  30.710  28.114  1.00  0.00     0.074 A 
ATOM     51  C   UNL A   1      43.486  30.395  26.763  1.00  0.00     0.031 C 
ATOM     52  C   UNL A   1      37.883  28.911  29.925  1.00  0.00     0.029 A 
ATOM     53  C   UNL A   1      38.540  30.172  30.187  1.00  0.00     0.049 A 
ATOM     54  H   UNL A   1      40.558  30.638  29.913  1.00  0.00     0.167 HD
ATOM     55  C   UNL A   1      44.634  31.721  28.630  1.00  0.00     0.037 A 
ATOM     56  C   UNL A   1      38.024  31.308  30.706  1.00  0.00     0.037 A 
ATOM     57  C   UNL A   1      44.838  31.543  30.045  1.00  0.00     0.049 A 
ATOM     58  C   UNL A   1      39.164  32.086  31.249  1.00  0.00     0.074 A 
ATOM     59  C   UNL A   1      45.481  30.590  30.812  1.00  0.00     0.029 A 
ATOM     60  N   UNL A   1      44.010  32.214  30.910  1.00  0.00    -0.354 N 
ATOM     61  N   UNL A   1      39.883  31.694  32.266  1.00  0.00    -0.248 NA
ATOM     62  C   UNL A   1      39.804  33.042  30.359  1.00  0.00     0.031 C 
ATOM     63  C   UNL A   1      44.635  30.404  31.945  1.00  0.00     0.029 A 
ATOM     64  C   UNL A   1      43.571  31.303  31.839  1.00  0.00     0.049 A 
ATOM     65  H   UNL A   1      43.774  33.169  30.872  1.00  0.00     0.167 HD
ATOM     66  C   UNL A   1      41.189  32.023  31.927  1.00  0.00     0.074 A 
ATOM     67  C   UNL A   1      41.068  32.916  30.775  1.00  0.00     0.031 C 
ATOM     68  C   UNL A   1      42.250  31.322  32.425  1.00  0.00     0.037 A 
BRANCH  55  69
ATOM     69  C   UNL A   1      44.942  33.027  27.939  1.00  0.00     0.064 A 
ATOM     70  C   UNL A   1      46.258  33.285  27.498  1.00  0.00     0.173 A 
ATOM     71  C   UNL A   1      44.077  34.140  27.951  1.00  0.00     0.173 A 
ATOM     72  F   UNL A   1      47.171  32.303  27.452  1.00  0.00    -0.203 F 
ATOM     73  C   UNL A   1      46.690  34.574  27.173  1.00  0.00     0.198 A 
ATOM     74  C   UNL A   1      44.499  35.417  27.577  1.00  0.00     0.198 A 
ATOM     75  F   UNL A   1      42.829  34.064  28.426  1.00  0.00    -0.203 F 
ATOM     76  F   UNL A   1      47.980  34.790  26.876  1.00  0.00    -0.200 F 
ATOM     77  C   UNL A   1      45.813  35.641  27.220  1.00  0.00     0.200 A 
ATOM     78  F   UNL A   1      43.636  36.441  27.644  1.00  0.00    -0.200 F 
ATOM     79  F   UNL A   1      46.237  36.885  26.971  1.00  0.00    -0.200 F 
ENDBRANCH  55  69
BRANCH  56  80
ATOM     80  C   UNL A   1      36.689  31.883  30.444  1.00  0.00     0.064 A 
ATOM     81  C   UNL A   1      35.853  32.280  31.495  1.00  0.00     0.173 A 
ATOM     82  C   UNL A   1      36.327  32.312  29.150  1.00  0.00     0.173 A 
ATOM     83  F   UNL A   1      36.155  31.943  32.757  1.00  0.00    -0.203 F 
ATOM     84  C   UNL A   1      34.732  33.086  31.271  1.00  0.00     0.198 A 
ATOM     85  C   UNL A   1      35.207  33.114  28.928  1.00  0.00     0.198 A 
ATOM     86  F   UNL A   1      37.106  32.039  28.094  1.00  0.00    -0.203 F 
ATOM     87  F   UNL A   1      33.989  33.498  32.308  1.00  0.00    -0.200 F 
ATOM     88  C   UNL A   1      34.419  33.514  29.990  1.00  0.00     0.200 A 
ATOM     89  F   UNL A   1      34.939  33.553  27.690  1.00  0.00    -0.200 F 
ATOM     90  F   UNL A   1      33.385  34.342  29.786  1.00  0.00    -0.200 F 
ENDBRANCH  56  80
BRANCH  68  91
ATOM     91  C   UNL A   1      41.983  30.319  33.517  1.00  0.00     0.064 A 
ATOM     92  C   UNL A   1      41.720  28.956  33.287  1.00  0.00     0.173 A 
ATOM     93  C   UNL A   1      42.169  30.715  34.848  1.00  0.00     0.173 A 
ATOM     94  F   UNL A   1      41.627  28.473  32.044  1.00  0.00    -0.203 F 
ATOM     95  C   UNL A   1      41.614  28.045  34.339  1.00  0.00     0.198 A 
ATOM     96  C   UNL A   1      42.097  29.798  35.895  1.00  0.00     0.198 A 
ATOM     97  F   UNL A   1      42.480  31.989  35.130  1.00  0.00    -0.203 F 
ATOM     98  F   UNL A   1      41.360  26.752  34.086  1.00  0.00    -0.200 F 
ATOM     99  C   UNL A   1      41.811  28.466  35.641  1.00  0.00     0.200 A 
ATOM    100  F   UNL A   1      42.339  30.202  37.150  1.00  0.00    -0.200 F 
ATOM    101  F   UNL A   1      41.756  27.585  36.650  1.00  0.00    -0.200 F 
ENDBRANCH  68  91
ENDBRANCH  42  43
ENDBRANCH  34  37
ENDBRANCH  32  33
ENDBRANCH  31  32
ENDBRANCH   1  31
TORSDOF 16
ENDMDL
