MODEL 1
REMARK VINA RESULT:      -9.8      0.000      0.000
REMARK SMILES O=C(NCCCNC(=O)c1ccc(-c2c3nc(c(-c4c(F)c(F)c(F)c(F)c4F)c4ccc([nH]4)c(-c4c(F)c(F)c(F)c(F)c4F)c4nc(c(-c5c(F)c(F)c(F)c(F)c5F)c5ccc2[nH]5)C=C4)C=C3)cc1)c1ccc(/C=C2\SC(=S)N(NC(=O)c3ccc(Cl)cc3)C2=O)cc1
REMARK SMILES IDX 4 1 3 2 1 3 2 4 73 6 74 7 96 8 75 9 95 10 76 11 77 12 78 13
REMARK SMILES IDX 79 14 93 15 80 16 82 17 94 18 81 19 83 20 84 21 85 23 86 24
REMARK SMILES IDX 87 25 92 26 88 27 91 28 89 29 90 30 5 31 6 32 7 33 8 34 9 36
REMARK SMILES IDX 10 37 11 38 72 39 12 40 71 41 13 42 14 43 15 44 65 45 16 46
REMARK SMILES IDX 70 47 64 48 66 49 17 50 69 51 63 52 62 53 18 55 50 56 30 57
REMARK SMILES IDX 49 58 31 59 34 60 48 61 67 62 32 63 33 64 47 66 68 67 35 68
REMARK SMILES IDX 19 69 20 70 28 71 21 72 22 73 26 74 29 75 23 76 24 77 27 78
REMARK SMILES IDX 25 79 51 80 52 81 60 82 53 83 54 84 58 85 61 86 55 87 56 88
REMARK SMILES IDX 59 89 57 90 36 91 37 92 45 93 38 94 39 95 43 96 46 97 40 98
REMARK SMILES IDX 41 99 44 100 42 101
REMARK H PARENT 3 5 83 22 7 35 66 54 34 65
REMARK Flexibility Score: inf
ROOT
ATOM      1  C   UNL A   1      42.651  24.116  25.383  1.00  0.00     0.118 C 
ENDROOT
BRANCH   1   2
ATOM      2  N   UNL A   1      41.622  23.193  25.845  1.00  0.00    -0.352 N 
ATOM      3  O   UNL A   1      40.035  22.368  27.228  1.00  0.00    -0.269 OA
ATOM      4  C   UNL A   1      40.736  23.315  26.890  1.00  0.00     0.251 C 
ATOM      5  H   UNL A   1      41.551  22.355  25.333  1.00  0.00     0.163 HD
BRANCH   4   6
ATOM      6  C   UNL A   1      40.672  24.586  27.638  1.00  0.00     0.039 A 
ATOM      7  C   UNL A   1      39.521  25.373  27.611  1.00  0.00     0.014 A 
ATOM      8  C   UNL A   1      41.803  25.021  28.325  1.00  0.00     0.014 A 
ATOM      9  C   UNL A   1      39.572  26.678  28.097  1.00  0.00     0.009 A 
ATOM     10  C   UNL A   1      41.833  26.313  28.852  1.00  0.00     0.009 A 
ATOM     11  C   UNL A   1      40.755  27.187  28.654  1.00  0.00    -0.024 A 
BRANCH  11  12
ATOM     12  C   UNL A   1      40.781  28.626  28.962  1.00  0.00     0.029 C 
ATOM     13  C   UNL A   1      40.575  29.239  30.137  1.00  0.00     0.082 C 
ATOM     14  S   UNL A   1      40.068  28.588  31.646  1.00  0.00    -0.052 SA
ATOM     15  C   UNL A   1      40.751  30.711  30.267  1.00  0.00     0.285 C 
ATOM     16  C   UNL A   1      39.676  30.172  32.298  1.00  0.00     0.168 C 
ATOM     17  N   UNL A   1      40.057  31.139  31.386  1.00  0.00    -0.198 N 
ATOM     18  O   UNL A   1      41.442  31.378  29.506  1.00  0.00    -0.266 OA
ATOM     19  S   UNL A   1      38.979  30.402  33.793  1.00  0.00    -0.050 S 
BRANCH  17  20
ATOM     20  N   UNL A   1      39.897  32.498  31.692  1.00  0.00    -0.255 N 
ATOM     21  C   UNL A   1      38.801  33.289  31.417  1.00  0.00     0.270 C 
ATOM     22  H   UNL A   1      40.650  32.934  32.153  1.00  0.00     0.192 HD
ATOM     23  O   UNL A   1      38.750  34.437  31.854  1.00  0.00    -0.267 OA
BRANCH  21  24
ATOM     24  C   UNL A   1      37.714  32.821  30.534  1.00  0.00     0.041 A 
ATOM     25  C   UNL A   1      36.569  32.304  31.156  1.00  0.00     0.015 A 
ATOM     26  C   UNL A   1      37.780  32.912  29.139  1.00  0.00     0.015 A 
ATOM     27  C   UNL A   1      35.462  31.940  30.390  1.00  0.00     0.021 A 
ATOM     28  C   UNL A   1      36.665  32.551  28.375  1.00  0.00     0.021 A 
ATOM     29  C   UNL A   1      35.509  32.080  29.005  1.00  0.00     0.041 A 
ATOM     30  Cl  UNL A   1      34.128  31.675  28.061  1.00  0.00    -0.084 Cl
ENDBRANCH  21  24
ENDBRANCH  17  20
ENDBRANCH  11  12
ENDBRANCH   4   6
ENDBRANCH   1   2
BRANCH   1  31
ATOM     31  C   UNL A   1      43.981  23.430  25.095  1.00  0.00     0.042 C 
BRANCH  31  32
ATOM     32  C   UNL A   1      45.169  24.038  25.827  1.00  0.00     0.118 C 
BRANCH  32  33
ATOM     33  N   UNL A   1      46.118  24.684  24.929  1.00  0.00    -0.352 N 
ATOM     34  C   UNL A   1      46.525  25.992  24.837  1.00  0.00     0.251 C 
ATOM     35  H   UNL A   1      46.541  24.078  24.278  1.00  0.00     0.163 HD
ATOM     36  O   UNL A   1      47.212  26.345  23.882  1.00  0.00    -0.269 OA
BRANCH  34  37
ATOM     37  C   UNL A   1      46.123  26.987  25.855  1.00  0.00     0.039 A 
ATOM     38  C   UNL A   1      44.771  27.328  25.967  1.00  0.00     0.014 A 
ATOM     39  C   UNL A   1      47.066  27.605  26.678  1.00  0.00     0.014 A 
ATOM     40  C   UNL A   1      44.358  28.218  26.962  1.00  0.00     0.010 A 
ATOM     41  C   UNL A   1      46.645  28.428  27.719  1.00  0.00     0.010 A 
ATOM     42  C   UNL A   1      45.286  28.737  27.877  1.00  0.00    -0.014 A 
BRANCH  42  43
ATOM     43  C   UNL A   1      44.867  29.592  29.016  1.00  0.00     0.031 A 
ATOM     44  C   UNL A   1      44.543  28.971  30.345  1.00  0.00     0.074 A 
ATOM     45  C   UNL A   1      44.690  30.914  28.828  1.00  0.00     0.049 A 
ATOM     46  N   UNL A   1      44.017  29.521  31.411  1.00  0.00    -0.248 NA
ATOM     47  C   UNL A   1      44.824  27.534  30.488  1.00  0.00     0.031 C 
ATOM     48  C   UNL A   1      44.943  31.633  27.578  1.00  0.00     0.029 A 
ATOM     49  N   UNL A   1      44.239  31.887  29.684  1.00  0.00    -0.354 N 
ATOM     50  C   UNL A   1      43.886  28.497  32.338  1.00  0.00     0.074 A 
ATOM     51  C   UNL A   1      44.347  27.283  31.699  1.00  0.00     0.031 C 
ATOM     52  C   UNL A   1      44.657  32.934  27.752  1.00  0.00     0.029 A 
ATOM     53  C   UNL A   1      44.158  33.132  29.109  1.00  0.00     0.049 A 
ATOM     54  H   UNL A   1      43.995  31.710  30.621  1.00  0.00     0.167 HD
ATOM     55  C   UNL A   1      43.438  28.566  33.614  1.00  0.00     0.037 A 
ATOM     56  C   UNL A   1      43.712  34.298  29.613  1.00  0.00     0.037 A 
ATOM     57  C   UNL A   1      43.010  29.778  34.261  1.00  0.00     0.049 A 
ATOM     58  C   UNL A   1      43.197  34.342  31.026  1.00  0.00     0.074 A 
ATOM     59  C   UNL A   1      42.591  29.958  35.567  1.00  0.00     0.029 A 
ATOM     60  N   UNL A   1      42.952  31.020  33.647  1.00  0.00    -0.354 N 
ATOM     61  N   UNL A   1      43.113  33.374  31.905  1.00  0.00    -0.248 NA
ATOM     62  C   UNL A   1      42.710  35.640  31.513  1.00  0.00     0.031 C 
ATOM     63  C   UNL A   1      42.249  31.304  35.735  1.00  0.00     0.029 A 
ATOM     64  C   UNL A   1      42.488  31.968  34.544  1.00  0.00     0.049 A 
ATOM     65  H   UNL A   1      43.202  31.201  32.712  1.00  0.00     0.167 HD
ATOM     66  C   UNL A   1      42.587  33.948  33.053  1.00  0.00     0.074 A 
ATOM     67  C   UNL A   1      42.381  35.352  32.765  1.00  0.00     0.031 C 
ATOM     68  C   UNL A   1      42.299  33.363  34.241  1.00  0.00     0.037 A 
BRANCH  55  69
ATOM     69  C   UNL A   1      43.399  27.292  34.405  1.00  0.00     0.064 A 
ATOM     70  C   UNL A   1      42.203  26.585  34.594  1.00  0.00     0.173 A 
ATOM     71  C   UNL A   1      44.576  26.750  34.942  1.00  0.00     0.173 A 
ATOM     72  F   UNL A   1      41.049  27.070  34.110  1.00  0.00    -0.203 F 
ATOM     73  C   UNL A   1      42.182  25.393  35.312  1.00  0.00     0.198 A 
ATOM     74  C   UNL A   1      44.556  25.545  35.638  1.00  0.00     0.198 A 
ATOM     75  F   UNL A   1      45.748  27.385  34.784  1.00  0.00    -0.203 F 
ATOM     76  F   UNL A   1      41.021  24.755  35.516  1.00  0.00    -0.200 F 
ATOM     77  C   UNL A   1      43.359  24.869  35.827  1.00  0.00     0.200 A 
ATOM     78  F   UNL A   1      45.695  25.034  36.126  1.00  0.00    -0.200 F 
ATOM     79  F   UNL A   1      43.338  23.719  36.513  1.00  0.00    -0.200 F 
ENDBRANCH  55  69
BRANCH  56  80
ATOM     80  C   UNL A   1      43.740  35.528  28.781  1.00  0.00     0.064 A 
ATOM     81  C   UNL A   1      44.921  36.272  28.646  1.00  0.00     0.173 A 
ATOM     82  C   UNL A   1      42.597  35.989  28.114  1.00  0.00     0.173 A 
ATOM     83  F   UNL A   1      46.034  35.881  29.283  1.00  0.00    -0.203 F 
ATOM     84  C   UNL A   1      44.951  37.441  27.888  1.00  0.00     0.198 A 
ATOM     85  C   UNL A   1      42.633  37.144  27.337  1.00  0.00     0.198 A 
ATOM     86  F   UNL A   1      41.445  35.310  28.211  1.00  0.00    -0.203 F 
ATOM     87  F   UNL A   1      46.082  38.156  27.809  1.00  0.00    -0.200 F 
ATOM     88  C   UNL A   1      43.809  37.874  27.231  1.00  0.00     0.200 A 
ATOM     89  F   UNL A   1      41.532  37.553  26.694  1.00  0.00    -0.200 F 
ATOM     90  F   UNL A   1      43.838  38.997  26.502  1.00  0.00    -0.200 F 
ENDBRANCH  56  80
BRANCH  68  91
ATOM     91  C   UNL A   1      41.759  34.243  35.326  1.00  0.00     0.064 A 
ATOM     92  C   UNL A   1      42.605  35.043  36.108  1.00  0.00     0.173 A 
ATOM     93  C   UNL A   1      40.377  34.324  35.554  1.00  0.00     0.173 A 
ATOM     94  F   UNL A   1      43.935  34.985  35.938  1.00  0.00    -0.203 F 
ATOM     95  C   UNL A   1      42.087  35.883  37.090  1.00  0.00     0.198 A 
ATOM     96  C   UNL A   1      39.861  35.182  36.520  1.00  0.00     0.198 A 
ATOM     97  F   UNL A   1      39.528  33.581  34.829  1.00  0.00    -0.203 F 
ATOM     98  F   UNL A   1      42.915  36.613  37.850  1.00  0.00    -0.200 F 
ATOM     99  C   UNL A   1      40.716  35.957  37.289  1.00  0.00     0.200 A 
ATOM    100  F   UNL A   1      38.536  35.260  36.707  1.00  0.00    -0.200 F 
ATOM    101  F   UNL A   1      40.219  36.773  38.230  1.00  0.00    -0.200 F 
ENDBRANCH  68  91
ENDBRANCH  42  43
ENDBRANCH  34  37
ENDBRANCH  32  33
ENDBRANCH  31  32
ENDBRANCH   1  31
TORSDOF 13
ENDMDL
MODEL 2
REMARK VINA RESULT:      -9.8      4.132      6.620
REMARK SMILES O=C(NCCCNC(=O)c1ccc(-c2c3nc(c(-c4c(F)c(F)c(F)c(F)c4F)c4ccc([nH]4)c(-c4c(F)c(F)c(F)c(F)c4F)c4nc(c(-c5c(F)c(F)c(F)c(F)c5F)c5ccc2[nH]5)C=C4)C=C3)cc1)c1ccc(/C=C2\SC(=S)N(NC(=O)c3ccc(Cl)cc3)C2=O)cc1
REMARK SMILES IDX 4 1 3 2 1 3 2 4 73 6 74 7 96 8 75 9 95 10 76 11 77 12 78 13
REMARK SMILES IDX 79 14 93 15 80 16 82 17 94 18 81 19 83 20 84 21 85 23 86 24
REMARK SMILES IDX 87 25 92 26 88 27 91 28 89 29 90 30 5 31 6 32 7 33 8 34 9 36
REMARK SMILES IDX 10 37 11 38 72 39 12 40 71 41 13 42 14 43 15 44 65 45 16 46
REMARK SMILES IDX 70 47 64 48 66 49 17 50 69 51 63 52 62 53 18 55 50 56 30 57
REMARK SMILES IDX 49 58 31 59 34 60 48 61 67 62 32 63 33 64 47 66 68 67 35 68
REMARK SMILES IDX 19 69 20 70 28 71 21 72 22 73 26 74 29 75 23 76 24 77 27 78
REMARK SMILES IDX 25 79 51 80 52 81 60 82 53 83 54 84 58 85 61 86 55 87 56 88
REMARK SMILES IDX 59 89 57 90 36 91 37 92 45 93 38 94 39 95 43 96 46 97 40 98
REMARK SMILES IDX 41 99 44 100 42 101
REMARK H PARENT 3 5 83 22 7 35 66 54 34 65
REMARK Flexibility Score: inf
ROOT
ATOM      1  C   UNL A   1      42.888  21.207  25.935  1.00  0.00     0.118 C 
ENDROOT
BRANCH   1   2
ATOM      2  N   UNL A   1      42.987  21.743  27.287  1.00  0.00    -0.352 N 
ATOM      3  O   UNL A   1      42.369  22.943  29.100  1.00  0.00    -0.269 OA
ATOM      4  C   UNL A   1      42.059  22.436  28.028  1.00  0.00     0.251 C 
ATOM      5  H   UNL A   1      43.849  21.586  27.737  1.00  0.00     0.163 HD
BRANCH   4   6
ATOM      6  C   UNL A   1      40.694  22.609  27.496  1.00  0.00     0.039 A 
ATOM      7  C   UNL A   1      40.035  21.555  26.862  1.00  0.00     0.014 A 
ATOM      8  C   UNL A   1      40.090  23.862  27.583  1.00  0.00     0.014 A 
ATOM      9  C   UNL A   1      38.871  21.810  26.141  1.00  0.00     0.009 A 
ATOM     10  C   UNL A   1      38.897  24.099  26.897  1.00  0.00     0.009 A 
ATOM     11  C   UNL A   1      38.332  23.104  26.088  1.00  0.00    -0.024 A 
BRANCH  11  12
ATOM     12  C   UNL A   1      37.218  23.324  25.152  1.00  0.00     0.029 C 
ATOM     13  C   UNL A   1      35.903  23.392  25.408  1.00  0.00     0.082 C 
ATOM     14  S   UNL A   1      35.049  23.101  26.873  1.00  0.00    -0.052 SA
ATOM     15  C   UNL A   1      34.935  23.730  24.330  1.00  0.00     0.285 C 
ATOM     16  C   UNL A   1      33.501  22.988  26.051  1.00  0.00     0.168 C 
ATOM     17  N   UNL A   1      33.679  23.292  24.714  1.00  0.00    -0.198 N 
ATOM     18  O   UNL A   1      35.245  24.336  23.310  1.00  0.00    -0.266 OA
ATOM     19  S   UNL A   1      32.078  22.594  26.824  1.00  0.00    -0.050 S 
BRANCH  17  20
ATOM     20  N   UNL A   1      32.579  23.322  23.845  1.00  0.00    -0.255 N 
ATOM     21  C   UNL A   1      31.739  24.389  23.605  1.00  0.00     0.270 C 
ATOM     22  H   UNL A   1      32.386  22.492  23.353  1.00  0.00     0.192 HD
ATOM     23  O   UNL A   1      30.886  24.311  22.724  1.00  0.00    -0.267 OA
BRANCH  21  24
ATOM     24  C   UNL A   1      31.778  25.605  24.443  1.00  0.00     0.041 A 
ATOM     25  C   UNL A   1      32.608  26.648  24.009  1.00  0.00     0.015 A 
ATOM     26  C   UNL A   1      31.004  25.753  25.600  1.00  0.00     0.015 A 
ATOM     27  C   UNL A   1      32.617  27.864  24.691  1.00  0.00     0.021 A 
ATOM     28  C   UNL A   1      31.012  26.977  26.277  1.00  0.00     0.021 A 
ATOM     29  C   UNL A   1      31.807  28.029  25.813  1.00  0.00     0.041 A 
ATOM     30  Cl  UNL A   1      31.781  29.544  26.629  1.00  0.00    -0.084 Cl
ENDBRANCH  21  24
ENDBRANCH  17  20
ENDBRANCH  11  12
ENDBRANCH   4   6
ENDBRANCH   1   2
BRANCH   1  31
ATOM     31  C   UNL A   1      43.859  21.863  24.961  1.00  0.00     0.042 C 
BRANCH  31  32
ATOM     32  C   UNL A   1      43.724  23.376  24.867  1.00  0.00     0.118 C 
BRANCH  32  33
ATOM     33  N   UNL A   1      44.997  24.045  24.629  1.00  0.00    -0.352 N 
ATOM     34  C   UNL A   1      45.473  25.257  25.064  1.00  0.00     0.251 C 
ATOM     35  H   UNL A   1      45.623  23.541  24.060  1.00  0.00     0.163 HD
ATOM     36  O   UNL A   1      46.517  25.700  24.594  1.00  0.00    -0.269 OA
BRANCH  34  37
ATOM     37  C   UNL A   1      44.731  26.049  26.069  1.00  0.00     0.039 A 
ATOM     38  C   UNL A   1      43.950  25.376  27.015  1.00  0.00     0.014 A 
ATOM     39  C   UNL A   1      44.777  27.445  26.073  1.00  0.00     0.014 A 
ATOM     40  C   UNL A   1      43.290  26.097  28.014  1.00  0.00     0.010 A 
ATOM     41  C   UNL A   1      44.186  28.156  27.114  1.00  0.00     0.010 A 
ATOM     42  C   UNL A   1      43.444  27.489  28.100  1.00  0.00    -0.014 A 
BRANCH  42  43
ATOM     43  C   UNL A   1      42.854  28.273  29.214  1.00  0.00     0.031 A 
ATOM     44  C   UNL A   1      43.568  28.364  30.533  1.00  0.00     0.074 A 
ATOM     45  C   UNL A   1      41.634  28.827  29.067  1.00  0.00     0.049 A 
ATOM     46  N   UNL A   1      43.152  28.868  31.668  1.00  0.00    -0.248 NA
ATOM     47  C   UNL A   1      44.921  27.790  30.591  1.00  0.00     0.031 C 
ATOM     48  C   UNL A   1      40.826  28.785  27.847  1.00  0.00     0.029 A 
ATOM     49  N   UNL A   1      40.853  29.518  29.959  1.00  0.00    -0.354 N 
ATOM     50  C   UNL A   1      44.179  28.652  32.575  1.00  0.00     0.074 A 
ATOM     51  C   UNL A   1      45.223  27.936  31.873  1.00  0.00     0.031 C 
ATOM     52  C   UNL A   1      39.671  29.435  28.062  1.00  0.00     0.029 A 
ATOM     53  C   UNL A   1      39.636  29.897  29.445  1.00  0.00     0.049 A 
ATOM     54  H   UNL A   1      41.136  29.722  30.879  1.00  0.00     0.167 HD
ATOM     55  C   UNL A   1      44.253  29.033  33.872  1.00  0.00     0.037 A 
ATOM     56  C   UNL A   1      38.601  30.529  30.030  1.00  0.00     0.037 A 
ATOM     57  C   UNL A   1      43.230  29.773  34.561  1.00  0.00     0.049 A 
ATOM     58  C   UNL A   1      38.700  30.920  31.480  1.00  0.00     0.074 A 
ATOM     59  C   UNL A   1      43.237  30.252  35.860  1.00  0.00     0.029 A 
ATOM     60  N   UNL A   1      42.016  30.146  34.003  1.00  0.00    -0.354 N 
ATOM     61  N   UNL A   1      39.692  30.744  32.317  1.00  0.00    -0.248 NA
ATOM     62  C   UNL A   1      37.532  31.592  32.066  1.00  0.00     0.031 C 
ATOM     63  C   UNL A   1      42.014  30.888  36.098  1.00  0.00     0.029 A 
ATOM     64  C   UNL A   1      41.260  30.835  34.937  1.00  0.00     0.049 A 
ATOM     65  H   UNL A   1      41.735  29.950  33.081  1.00  0.00     0.167 HD
ATOM     66  C   UNL A   1      39.280  31.301  33.518  1.00  0.00     0.074 A 
ATOM     67  C   UNL A   1      37.951  31.832  33.301  1.00  0.00     0.031 C 
ATOM     68  C   UNL A   1      39.943  31.365  34.698  1.00  0.00     0.037 A 
BRANCH  55  69
ATOM     69  C   UNL A   1      45.493  28.666  34.633  1.00  0.00     0.064 A 
ATOM     70  C   UNL A   1      46.592  29.534  34.703  1.00  0.00     0.173 A 
ATOM     71  C   UNL A   1      45.567  27.453  35.334  1.00  0.00     0.173 A 
ATOM     72  F   UNL A   1      46.574  30.700  34.039  1.00  0.00    -0.203 F 
ATOM     73  C   UNL A   1      47.729  29.191  35.428  1.00  0.00     0.198 A 
ATOM     74  C   UNL A   1      46.695  27.125  36.079  1.00  0.00     0.198 A 
ATOM     75  F   UNL A   1      44.540  26.589  35.303  1.00  0.00    -0.203 F 
ATOM     76  F   UNL A   1      48.783  30.018  35.448  1.00  0.00    -0.200 F 
ATOM     77  C   UNL A   1      47.778  27.991  36.122  1.00  0.00     0.200 A 
ATOM     78  F   UNL A   1      46.738  25.970  36.757  1.00  0.00    -0.200 F 
ATOM     79  F   UNL A   1      48.871  27.666  36.825  1.00  0.00    -0.200 F 
ENDBRANCH  55  69
BRANCH  56  80
ATOM     80  C   UNL A   1      37.381  30.843  29.245  1.00  0.00     0.064 A 
ATOM     81  C   UNL A   1      36.447  29.841  28.945  1.00  0.00     0.173 A 
ATOM     82  C   UNL A   1      37.124  32.138  28.774  1.00  0.00     0.173 A 
ATOM     83  F   UNL A   1      36.662  28.583  29.357  1.00  0.00    -0.203 F 
ATOM     84  C   UNL A   1      35.312  30.120  28.187  1.00  0.00     0.198 A 
ATOM     85  C   UNL A   1      35.977  32.421  28.037  1.00  0.00     0.198 A 
ATOM     86  F   UNL A   1      37.986  33.131  29.038  1.00  0.00    -0.203 F 
ATOM     87  F   UNL A   1      34.457  29.135  27.879  1.00  0.00    -0.200 F 
ATOM     88  C   UNL A   1      35.075  31.409  27.738  1.00  0.00     0.200 A 
ATOM     89  F   UNL A   1      35.745  33.671  27.614  1.00  0.00    -0.200 F 
ATOM     90  F   UNL A   1      33.983  31.678  27.010  1.00  0.00    -0.200 F 
ENDBRANCH  56  80
BRANCH  68  91
ATOM     91  C   UNL A   1      39.256  32.059  35.835  1.00  0.00     0.064 A 
ATOM     92  C   UNL A   1      38.387  31.370  36.693  1.00  0.00     0.173 A 
ATOM     93  C   UNL A   1      39.506  33.414  36.096  1.00  0.00     0.173 A 
ATOM     94  F   UNL A   1      38.104  30.077  36.472  1.00  0.00    -0.203 F 
ATOM     95  C   UNL A   1      37.782  32.018  37.767  1.00  0.00     0.198 A 
ATOM     96  C   UNL A   1      38.919  34.053  37.183  1.00  0.00     0.198 A 
ATOM     97  F   UNL A   1      40.333  34.113  35.305  1.00  0.00    -0.203 F 
ATOM     98  F   UNL A   1      36.928  31.351  38.555  1.00  0.00    -0.200 F 
ATOM     99  C   UNL A   1      38.054  33.356  38.015  1.00  0.00     0.200 A 
ATOM    100  F   UNL A   1      39.188  35.343  37.428  1.00  0.00    -0.200 F 
ATOM    101  F   UNL A   1      37.477  33.976  39.054  1.00  0.00    -0.200 F 
ENDBRANCH  68  91
ENDBRANCH  42  43
ENDBRANCH  34  37
ENDBRANCH  32  33
ENDBRANCH  31  32
ENDBRANCH   1  31
TORSDOF 13
ENDMDL
MODEL 3
REMARK VINA RESULT:      -9.8      4.159      8.235
REMARK SMILES O=C(NCCCNC(=O)c1ccc(-c2c3nc(c(-c4c(F)c(F)c(F)c(F)c4F)c4ccc([nH]4)c(-c4c(F)c(F)c(F)c(F)c4F)c4nc(c(-c5c(F)c(F)c(F)c(F)c5F)c5ccc2[nH]5)C=C4)C=C3)cc1)c1ccc(/C=C2\SC(=S)N(NC(=O)c3ccc(Cl)cc3)C2=O)cc1
REMARK SMILES IDX 4 1 3 2 1 3 2 4 73 6 74 7 96 8 75 9 95 10 76 11 77 12 78 13
REMARK SMILES IDX 79 14 93 15 80 16 82 17 94 18 81 19 83 20 84 21 85 23 86 24
REMARK SMILES IDX 87 25 92 26 88 27 91 28 89 29 90 30 5 31 6 32 7 33 8 34 9 36
REMARK SMILES IDX 10 37 11 38 72 39 12 40 71 41 13 42 14 43 15 44 65 45 16 46
REMARK SMILES IDX 70 47 64 48 66 49 17 50 69 51 63 52 62 53 18 55 50 56 30 57
REMARK SMILES IDX 49 58 31 59 34 60 48 61 67 62 32 63 33 64 47 66 68 67 35 68
REMARK SMILES IDX 19 69 20 70 28 71 21 72 22 73 26 74 29 75 23 76 24 77 27 78
REMARK SMILES IDX 25 79 51 80 52 81 60 82 53 83 54 84 58 85 61 86 55 87 56 88
REMARK SMILES IDX 59 89 57 90 36 91 37 92 45 93 38 94 39 95 43 96 46 97 40 98
REMARK SMILES IDX 41 99 44 100 42 101
REMARK H PARENT 3 5 83 22 7 35 66 54 34 65
REMARK Flexibility Score: inf
ROOT
ATOM      1  C   UNL A   1      42.912  21.522  25.767  1.00  0.00     0.118 C 
ENDROOT
BRANCH   1   2
ATOM      2  N   UNL A   1      42.969  21.944  27.162  1.00  0.00    -0.352 N 
ATOM      3  O   UNL A   1      42.266  22.939  29.066  1.00  0.00    -0.269 OA
ATOM      4  C   UNL A   1      41.994  22.509  27.951  1.00  0.00     0.251 C 
ATOM      5  H   UNL A   1      43.837  21.804  27.606  1.00  0.00     0.163 HD
BRANCH   4   6
ATOM      6  C   UNL A   1      40.623  22.639  27.421  1.00  0.00     0.039 A 
ATOM      7  C   UNL A   1      39.986  21.556  26.814  1.00  0.00     0.014 A 
ATOM      8  C   UNL A   1      39.993  23.880  27.481  1.00  0.00     0.014 A 
ATOM      9  C   UNL A   1      38.813  21.768  26.092  1.00  0.00     0.009 A 
ATOM     10  C   UNL A   1      38.792  24.075  26.795  1.00  0.00     0.009 A 
ATOM     11  C   UNL A   1      38.245  23.049  26.012  1.00  0.00    -0.024 A 
BRANCH  11  12
ATOM     12  C   UNL A   1      37.123  23.222  25.077  1.00  0.00     0.029 C 
ATOM     13  C   UNL A   1      35.816  23.360  25.345  1.00  0.00     0.082 C 
ATOM     14  S   UNL A   1      34.979  23.233  26.842  1.00  0.00    -0.052 SA
ATOM     15  C   UNL A   1      34.841  23.633  24.254  1.00  0.00     0.285 C 
ATOM     16  C   UNL A   1      33.414  23.101  26.056  1.00  0.00     0.168 C 
ATOM     17  N   UNL A   1      33.578  23.275  24.694  1.00  0.00    -0.198 N 
ATOM     18  O   UNL A   1      35.153  24.133  23.179  1.00  0.00    -0.266 OA
ATOM     19  S   UNL A   1      31.992  22.829  26.882  1.00  0.00    -0.050 S 
BRANCH  17  20
ATOM     20  N   UNL A   1      32.465  23.266  23.842  1.00  0.00    -0.255 N 
ATOM     21  C   UNL A   1      31.658  24.336  23.517  1.00  0.00     0.270 C 
ATOM     22  H   UNL A   1      32.234  22.401  23.432  1.00  0.00     0.192 HD
ATOM     23  O   UNL A   1      30.788  24.208  22.658  1.00  0.00    -0.267 OA
BRANCH  21  24
ATOM     24  C   UNL A   1      31.755  25.622  24.237  1.00  0.00     0.041 A 
ATOM     25  C   UNL A   1      32.627  26.583  23.705  1.00  0.00     0.015 A 
ATOM     26  C   UNL A   1      30.997  25.911  25.377  1.00  0.00     0.015 A 
ATOM     27  C   UNL A   1      32.692  27.856  24.270  1.00  0.00     0.021 A 
ATOM     28  C   UNL A   1      31.061  27.191  25.937  1.00  0.00     0.021 A 
ATOM     29  C   UNL A   1      31.897  28.159  25.375  1.00  0.00     0.041 A 
ATOM     30  Cl  UNL A   1      31.942  29.744  26.046  1.00  0.00    -0.084 Cl
ENDBRANCH  21  24
ENDBRANCH  17  20
ENDBRANCH  11  12
ENDBRANCH   4   6
ENDBRANCH   1   2
BRANCH   1  31
ATOM     31  C   UNL A   1      43.809  22.351  24.857  1.00  0.00     0.042 C 
BRANCH  31  32
ATOM     32  C   UNL A   1      43.539  23.849  24.908  1.00  0.00     0.118 C 
BRANCH  32  33
ATOM     33  N   UNL A   1      44.739  24.648  24.695  1.00  0.00    -0.352 N 
ATOM     34  C   UNL A   1      45.123  25.855  25.225  1.00  0.00     0.251 C 
ATOM     35  H   UNL A   1      45.385  24.256  24.063  1.00  0.00     0.163 HD
ATOM     36  O   UNL A   1      46.106  26.431  24.767  1.00  0.00    -0.269 OA
BRANCH  34  37
ATOM     37  C   UNL A   1      44.354  26.484  26.321  1.00  0.00     0.039 A 
ATOM     38  C   UNL A   1      43.591  25.668  27.164  1.00  0.00     0.014 A 
ATOM     39  C   UNL A   1      44.356  27.867  26.509  1.00  0.00     0.014 A 
ATOM     40  C   UNL A   1      42.907  26.230  28.245  1.00  0.00     0.010 A 
ATOM     41  C   UNL A   1      43.740  28.416  27.631  1.00  0.00     0.010 A 
ATOM     42  C   UNL A   1      43.016  27.603  28.515  1.00  0.00    -0.014 A 
BRANCH  42  43
ATOM     43  C   UNL A   1      42.398  28.214  29.718  1.00  0.00     0.031 A 
ATOM     44  C   UNL A   1      41.065  28.899  29.615  1.00  0.00     0.074 A 
ATOM     45  C   UNL A   1      43.078  28.232  30.881  1.00  0.00     0.049 A 
ATOM     46  N   UNL A   1      40.432  29.621  30.506  1.00  0.00    -0.248 NA
ATOM     47  C   UNL A   1      40.360  28.779  28.330  1.00  0.00     0.031 C 
ATOM     48  C   UNL A   1      44.393  27.627  31.104  1.00  0.00     0.029 A 
ATOM     49  N   UNL A   1      42.764  28.797  32.092  1.00  0.00    -0.354 N 
ATOM     50  C   UNL A   1      39.271  30.055  29.884  1.00  0.00     0.074 A 
ATOM     51  C   UNL A   1      39.302  29.552  28.527  1.00  0.00     0.031 C 
ATOM     52  C   UNL A   1      44.766  27.840  32.376  1.00  0.00     0.029 A 
ATOM     53  C   UNL A   1      43.741  28.635  33.045  1.00  0.00     0.049 A 
ATOM     54  H   UNL A   1      41.920  29.273  32.262  1.00  0.00     0.167 HD
ATOM     55  C   UNL A   1      38.260  30.791  30.404  1.00  0.00     0.037 A 
ATOM     56  C   UNL A   1      43.811  29.093  34.309  1.00  0.00     0.037 A 
ATOM     57  C   UNL A   1      38.213  31.263  31.762  1.00  0.00     0.049 A 
ATOM     58  C   UNL A   1      42.684  29.929  34.853  1.00  0.00     0.074 A 
ATOM     59  C   UNL A   1      37.206  31.970  32.397  1.00  0.00     0.029 A 
ATOM     60  N   UNL A   1      39.218  31.070  32.698  1.00  0.00    -0.354 N 
ATOM     61  N   UNL A   1      41.574  30.302  34.267  1.00  0.00    -0.248 NA
ATOM     62  C   UNL A   1      42.827  30.413  36.234  1.00  0.00     0.031 C 
ATOM     63  C   UNL A   1      37.616  32.232  33.708  1.00  0.00     0.029 A 
ATOM     64  C   UNL A   1      38.862  31.659  33.900  1.00  0.00     0.049 A 
ATOM     65  H   UNL A   1      40.059  30.587  32.532  1.00  0.00     0.167 HD
ATOM     66  C   UNL A   1      40.875  31.041  35.210  1.00  0.00     0.074 A 
ATOM     67  C   UNL A   1      41.682  31.058  36.413  1.00  0.00     0.031 C 
ATOM     68  C   UNL A   1      39.673  31.655  35.089  1.00  0.00     0.037 A 
BRANCH  55  69
ATOM     69  C   UNL A   1      37.110  31.123  29.501  1.00  0.00     0.064 A 
ATOM     70  C   UNL A   1      36.989  32.387  28.905  1.00  0.00     0.173 A 
ATOM     71  C   UNL A   1      36.141  30.155  29.193  1.00  0.00     0.173 A 
ATOM     72  F   UNL A   1      37.882  33.350  29.178  1.00  0.00    -0.203 F 
ATOM     73  C   UNL A   1      35.928  32.678  28.052  1.00  0.00     0.198 A 
ATOM     74  C   UNL A   1      35.096  30.442  28.320  1.00  0.00     0.198 A 
ATOM     75  F   UNL A   1      36.215  28.929  29.733  1.00  0.00    -0.203 F 
ATOM     76  F   UNL A   1      35.810  33.905  27.526  1.00  0.00    -0.200 F 
ATOM     77  C   UNL A   1      34.986  31.704  27.754  1.00  0.00     0.200 A 
ATOM     78  F   UNL A   1      34.193  29.497  28.024  1.00  0.00    -0.200 F 
ATOM     79  F   UNL A   1      33.969  31.983  26.928  1.00  0.00    -0.200 F 
ENDBRANCH  55  69
BRANCH  56  80
ATOM     80  C   UNL A   1      44.986  28.765  35.156  1.00  0.00     0.064 A 
ATOM     81  C   UNL A   1      44.976  27.633  35.984  1.00  0.00     0.173 A 
ATOM     82  C   UNL A   1      46.132  29.571  35.163  1.00  0.00     0.173 A 
ATOM     83  F   UNL A   1      43.891  26.846  36.026  1.00  0.00    -0.203 F 
ATOM     84  C   UNL A   1      46.062  27.332  36.801  1.00  0.00     0.198 A 
ATOM     85  C   UNL A   1      47.229  29.255  35.962  1.00  0.00     0.198 A 
ATOM     86  F   UNL A   1      46.191  30.662  34.386  1.00  0.00    -0.203 F 
ATOM     87  F   UNL A   1      46.011  26.268  37.615  1.00  0.00    -0.200 F 
ATOM     88  C   UNL A   1      47.189  28.139  36.786  1.00  0.00     0.200 A 
ATOM     89  F   UNL A   1      48.320  30.030  35.937  1.00  0.00    -0.200 F 
ATOM     90  F   UNL A   1      48.236  27.848  37.572  1.00  0.00    -0.200 F 
ENDBRANCH  56  80
BRANCH  68  91
ATOM     91  C   UNL A   1      39.143  32.369  36.296  1.00  0.00     0.064 A 
ATOM     92  C   UNL A   1      38.267  31.739  37.191  1.00  0.00     0.173 A 
ATOM     93  C   UNL A   1      39.554  33.678  36.584  1.00  0.00     0.173 A 
ATOM     94  F   UNL A   1      37.832  30.492  36.946  1.00  0.00    -0.203 F 
ATOM     95  C   UNL A   1      37.809  32.401  38.327  1.00  0.00     0.198 A 
ATOM     96  C   UNL A   1      39.114  34.329  37.732  1.00  0.00     0.198 A 
ATOM     97  F   UNL A   1      40.394  34.320  35.759  1.00  0.00    -0.203 F 
ATOM     98  F   UNL A   1      36.945  31.794  39.152  1.00  0.00    -0.200 F 
ATOM     99  C   UNL A   1      38.239  33.692  38.600  1.00  0.00     0.200 A 
ATOM    100  F   UNL A   1      39.535  35.572  38.000  1.00  0.00    -0.200 F 
ATOM    101  F   UNL A   1      37.803  34.325  39.698  1.00  0.00    -0.200 F 
ENDBRANCH  68  91
ENDBRANCH  42  43
ENDBRANCH  34  37
ENDBRANCH  32  33
ENDBRANCH  31  32
ENDBRANCH   1  31
TORSDOF 13
ENDMDL
