MODEL 1
REMARK VINA RESULT:     -12.8      0.000      0.000
REMARK SMILES Cc1nsc(NCc2ccncc2)c1C(=O)NCCCNC(=O)c1ccc(-c2c3nc(c(-c4c(F)c(F)c(F)c(F)c4F)c4ccc([nH]4)c(-c4c(F)c(F)c(F)c(F)c4F)c4nc(c(-c5c(F)c(F)c(F)c(F)c5F)c5ccc2[nH]5)C=C4)C=C3)cc1
REMARK SMILES IDX 18 1 17 2 15 3 16 4 14 6 1 7 2 8 3 9 4 10 5 11 6 12 7 14
REMARK SMILES IDX 8 15 9 16 13 17 10 18 12 19 11 20 19 21 20 22 21 23 22 24
REMARK SMILES IDX 23 26 24 27 25 28 86 29 26 30 85 31 27 32 28 33 29 34 79 35
REMARK SMILES IDX 30 36 84 37 78 38 80 39 31 40 83 41 77 42 76 43 32 45 64 46
REMARK SMILES IDX 44 47 63 48 45 49 48 50 62 51 81 52 46 53 47 54 61 56 82 57
REMARK SMILES IDX 49 58 33 59 34 60 42 61 35 62 36 63 40 64 43 65 37 66 38 67
REMARK SMILES IDX 41 68 39 69 65 70 66 71 74 72 67 73 68 74 72 75 75 76 69 77
REMARK SMILES IDX 70 78 73 79 71 80 50 81 51 82 59 83 52 84 53 85 57 86 60 87
REMARK SMILES IDX 54 88 55 89 58 90 56 91
REMARK H PARENT 17 5 6 13 21 25 80 44 48 55
REMARK Flexibility Score: inf
ROOT
ATOM      1  C   UNL A   1      37.242  22.418  25.265  1.00  0.00     0.118 C 
ENDROOT
BRANCH   1   2
ATOM      2  N   UNL A   1      36.256  22.149  26.282  1.00  0.00    -0.352 N 
ATOM      3  C   UNL A   1      34.898  22.267  26.381  1.00  0.00     0.256 C 
ATOM      4  O   UNL A   1      34.475  21.802  27.452  1.00  0.00    -0.269 OA
ATOM      5  H   UNL A   1      36.660  21.794  27.107  1.00  0.00     0.163 HD
BRANCH   3   6
ATOM      6  C   UNL A   1      33.967  22.835  25.378  1.00  0.00     0.097 A 
ATOM      7  C   UNL A   1      33.793  25.510  25.664  1.00  0.00     0.069 C 
ATOM      8  C   UNL A   1      33.504  24.187  25.051  1.00  0.00     0.066 A 
ATOM      9  N   UNL A   1      32.634  24.286  24.045  1.00  0.00    -0.195 NA
ATOM     10  S   UNL A   1      32.282  22.811  23.459  1.00  0.00    -0.018 S 
ATOM     11  C   UNL A   1      33.283  21.931  24.532  1.00  0.00     0.122 A 
BRANCH  11  12
ATOM     12  N   UNL A   1      33.384  20.572  24.544  1.00  0.00    -0.371 N 
ATOM     13  H   UNL A   1      34.278  20.197  24.717  1.00  0.00     0.161 HD
BRANCH  12  14
ATOM     14  C   UNL A   1      32.315  19.624  24.329  1.00  0.00     0.149 C 
BRANCH  14  15
ATOM     15  C   UNL A   1      32.841  18.217  24.437  1.00  0.00    -0.026 A 
ATOM     16  C   UNL A   1      32.573  17.437  25.568  1.00  0.00     0.025 A 
ATOM     17  C   UNL A   1      33.604  17.655  23.410  1.00  0.00     0.025 A 
ATOM     18  C   UNL A   1      33.064  16.143  25.616  1.00  0.00     0.111 A 
ATOM     19  C   UNL A   1      34.047  16.348  23.551  1.00  0.00     0.111 A 
ATOM     20  N   UNL A   1      33.790  15.578  24.630  1.00  0.00    -0.265 NA
ENDBRANCH  14  15
ENDBRANCH  12  14
ENDBRANCH  11  12
ENDBRANCH   3   6
ENDBRANCH   1   2
BRANCH   1  21
ATOM     21  C   UNL A   1      38.447  21.478  25.377  1.00  0.00     0.042 C 
BRANCH  21  22
ATOM     22  C   UNL A   1      39.414  21.899  26.469  1.00  0.00     0.118 C 
BRANCH  22  23
ATOM     23  N   UNL A   1      40.805  21.907  26.000  1.00  0.00    -0.352 N 
ATOM     24  C   UNL A   1      41.706  22.950  26.006  1.00  0.00     0.251 C 
ATOM     25  H   UNL A   1      41.138  21.056  25.634  1.00  0.00     0.163 HD
ATOM     26  O   UNL A   1      42.708  22.928  25.291  1.00  0.00    -0.269 OA
BRANCH  24  27
ATOM     27  C   UNL A   1      41.438  24.099  26.877  1.00  0.00     0.039 A 
ATOM     28  C   UNL A   1      42.187  24.342  28.029  1.00  0.00     0.014 A 
ATOM     29  C   UNL A   1      40.477  25.006  26.443  1.00  0.00     0.014 A 
ATOM     30  C   UNL A   1      42.033  25.567  28.671  1.00  0.00     0.010 A 
ATOM     31  C   UNL A   1      40.496  26.281  26.938  1.00  0.00     0.010 A 
ATOM     32  C   UNL A   1      41.216  26.556  28.091  1.00  0.00    -0.014 A 
BRANCH  32  33
ATOM     33  C   UNL A   1      41.178  27.911  28.628  1.00  0.00     0.031 A 
ATOM     34  C   UNL A   1      42.300  28.784  28.190  1.00  0.00     0.074 A 
ATOM     35  C   UNL A   1      40.150  28.415  29.346  1.00  0.00     0.049 A 
ATOM     36  N   UNL A   1      43.281  29.203  28.918  1.00  0.00    -0.248 NA
ATOM     37  C   UNL A   1      42.434  29.114  26.763  1.00  0.00     0.031 C 
ATOM     38  C   UNL A   1      38.841  27.824  29.649  1.00  0.00     0.029 A 
ATOM     39  N   UNL A   1      40.052  29.645  29.919  1.00  0.00    -0.354 N 
ATOM     40  C   UNL A   1      44.068  30.000  28.096  1.00  0.00     0.074 A 
ATOM     41  C   UNL A   1      43.590  29.785  26.753  1.00  0.00     0.031 C 
ATOM     42  C   UNL A   1      38.012  28.772  30.141  1.00  0.00     0.029 A 
ATOM     43  C   UNL A   1      38.781  29.978  30.370  1.00  0.00     0.049 A 
ATOM     44  H   UNL A   1      40.822  30.251  30.006  1.00  0.00     0.167 HD
ATOM     45  C   UNL A   1      44.900  30.935  28.632  1.00  0.00     0.037 A 
ATOM     46  C   UNL A   1      38.397  31.163  30.905  1.00  0.00     0.037 A 
ATOM     47  C   UNL A   1      45.131  30.676  30.035  1.00  0.00     0.049 A 
ATOM     48  C   UNL A   1      39.626  31.832  31.400  1.00  0.00     0.074 A 
ATOM     49  C   UNL A   1      45.656  29.613  30.746  1.00  0.00     0.029 A 
ATOM     50  N   UNL A   1      44.432  31.418  30.956  1.00  0.00    -0.354 N 
ATOM     51  N   UNL A   1      40.320  31.400  32.416  1.00  0.00    -0.248 NA
ATOM     52  C   UNL A   1      40.341  32.697  30.473  1.00  0.00     0.031 C 
ATOM     53  C   UNL A   1      44.825  29.497  31.901  1.00  0.00     0.029 A 
ATOM     54  C   UNL A   1      43.898  30.538  31.865  1.00  0.00     0.049 A 
ATOM     55  H   UNL A   1      44.332  32.397  30.963  1.00  0.00     0.167 HD
ATOM     56  C   UNL A   1      41.641  31.557  32.027  1.00  0.00     0.074 A 
ATOM     57  C   UNL A   1      41.593  32.436  30.858  1.00  0.00     0.031 C 
ATOM     58  C   UNL A   1      42.621  30.736  32.506  1.00  0.00     0.037 A 
BRANCH  45  59
ATOM     59  C   UNL A   1      45.198  32.277  28.006  1.00  0.00     0.064 A 
ATOM     60  C   UNL A   1      44.132  33.169  27.765  1.00  0.00     0.173 A 
ATOM     61  C   UNL A   1      46.409  32.591  27.353  1.00  0.00     0.173 A 
ATOM     62  F   UNL A   1      42.932  32.969  28.331  1.00  0.00    -0.203 F 
ATOM     63  C   UNL A   1      44.243  34.227  26.860  1.00  0.00     0.198 A 
ATOM     64  C   UNL A   1      46.531  33.678  26.490  1.00  0.00     0.198 A 
ATOM     65  F   UNL A   1      47.487  31.802  27.426  1.00  0.00    -0.203 F 
ATOM     66  F   UNL A   1      43.163  34.961  26.559  1.00  0.00    -0.200 F 
ATOM     67  C   UNL A   1      45.439  34.473  26.214  1.00  0.00     0.200 A 
ATOM     68  F   UNL A   1      47.696  33.891  25.861  1.00  0.00    -0.200 F 
ATOM     69  F   UNL A   1      45.530  35.441  25.291  1.00  0.00    -0.200 F 
ENDBRANCH  45  59
BRANCH  46  70
ATOM     70  C   UNL A   1      37.110  31.882  30.759  1.00  0.00     0.064 A 
ATOM     71  C   UNL A   1      36.200  31.943  31.827  1.00  0.00     0.173 A 
ATOM     72  C   UNL A   1      36.889  32.777  29.695  1.00  0.00     0.173 A 
ATOM     73  F   UNL A   1      36.356  31.146  32.895  1.00  0.00    -0.203 F 
ATOM     74  C   UNL A   1      35.162  32.881  31.855  1.00  0.00     0.198 A 
ATOM     75  C   UNL A   1      35.851  33.709  29.722  1.00  0.00     0.198 A 
ATOM     76  F   UNL A   1      37.736  32.835  28.657  1.00  0.00    -0.203 F 
ATOM     77  F   UNL A   1      34.363  32.961  32.928  1.00  0.00    -0.200 F 
ATOM     78  C   UNL A   1      35.000  33.775  30.811  1.00  0.00     0.200 A 
ATOM     79  F   UNL A   1      35.724  34.592  28.722  1.00  0.00    -0.200 F 
ATOM     80  F   UNL A   1      34.055  34.724  30.872  1.00  0.00    -0.200 F 
ENDBRANCH  46  70
BRANCH  58  81
ATOM     81  C   UNL A   1      42.270  29.816  33.644  1.00  0.00     0.064 A 
ATOM     82  C   UNL A   1      41.783  28.505  33.485  1.00  0.00     0.173 A 
ATOM     83  C   UNL A   1      42.553  30.236  34.951  1.00  0.00     0.173 A 
ATOM     84  F   UNL A   1      41.584  27.985  32.269  1.00  0.00    -0.203 F 
ATOM     85  C   UNL A   1      41.538  27.682  34.584  1.00  0.00     0.198 A 
ATOM     86  C   UNL A   1      42.344  29.400  36.043  1.00  0.00     0.198 A 
ATOM     87  F   UNL A   1      43.073  31.456  35.164  1.00  0.00    -0.203 F 
ATOM     88  F   UNL A   1      41.052  26.445  34.402  1.00  0.00    -0.200 F 
ATOM     89  C   UNL A   1      41.823  28.129  35.862  1.00  0.00     0.200 A 
ATOM     90  F   UNL A   1      42.668  29.820  37.274  1.00  0.00    -0.200 F 
ATOM     91  F   UNL A   1      41.619  27.328  36.918  1.00  0.00    -0.200 F 
ENDBRANCH  58  81
ENDBRANCH  32  33
ENDBRANCH  24  27
ENDBRANCH  22  23
ENDBRANCH  21  22
ENDBRANCH   1  21
TORSDOF 13
ENDMDL
MODEL 2
REMARK VINA RESULT:     -12.6      4.294      9.854
REMARK SMILES Cc1nsc(NCc2ccncc2)c1C(=O)NCCCNC(=O)c1ccc(-c2c3nc(c(-c4c(F)c(F)c(F)c(F)c4F)c4ccc([nH]4)c(-c4c(F)c(F)c(F)c(F)c4F)c4nc(c(-c5c(F)c(F)c(F)c(F)c5F)c5ccc2[nH]5)C=C4)C=C3)cc1
REMARK SMILES IDX 18 1 17 2 15 3 16 4 14 6 1 7 2 8 3 9 4 10 5 11 6 12 7 14
REMARK SMILES IDX 8 15 9 16 13 17 10 18 12 19 11 20 19 21 20 22 21 23 22 24
REMARK SMILES IDX 23 26 24 27 25 28 86 29 26 30 85 31 27 32 28 33 29 34 79 35
REMARK SMILES IDX 30 36 84 37 78 38 80 39 31 40 83 41 77 42 76 43 32 45 64 46
REMARK SMILES IDX 44 47 63 48 45 49 48 50 62 51 81 52 46 53 47 54 61 56 82 57
REMARK SMILES IDX 49 58 33 59 34 60 42 61 35 62 36 63 40 64 43 65 37 66 38 67
REMARK SMILES IDX 41 68 39 69 65 70 66 71 74 72 67 73 68 74 72 75 75 76 69 77
REMARK SMILES IDX 70 78 73 79 71 80 50 81 51 82 59 83 52 84 53 85 57 86 60 87
REMARK SMILES IDX 54 88 55 89 58 90 56 91
REMARK H PARENT 17 5 6 13 21 25 80 44 48 55
REMARK Flexibility Score: inf
ROOT
ATOM      1  C   UNL A   1      32.737  29.792  26.688  1.00  0.00     0.118 C 
ENDROOT
BRANCH   1   2
ATOM      2  N   UNL A   1      33.202  29.724  25.324  1.00  0.00    -0.352 N 
ATOM      3  C   UNL A   1      32.993  28.888  24.263  1.00  0.00     0.256 C 
ATOM      4  O   UNL A   1      33.552  29.306  23.236  1.00  0.00    -0.269 OA
ATOM      5  H   UNL A   1      33.820  30.457  25.105  1.00  0.00     0.163 HD
BRANCH   3   6
ATOM      6  C   UNL A   1      32.195  27.641  24.240  1.00  0.00     0.097 A 
ATOM      7  C   UNL A   1      33.645  25.578  25.196  1.00  0.00     0.069 C 
ATOM      8  C   UNL A   1      32.441  26.252  24.640  1.00  0.00     0.066 A 
ATOM      9  N   UNL A   1      31.435  25.396  24.453  1.00  0.00    -0.195 NA
ATOM     10  S   UNL A   1      30.172  26.155  23.767  1.00  0.00    -0.018 S 
ATOM     11  C   UNL A   1      30.901  27.700  23.672  1.00  0.00     0.122 A 
BRANCH  11  12
ATOM     12  N   UNL A   1      30.303  28.797  23.127  1.00  0.00    -0.371 N 
ATOM     13  H   UNL A   1      30.886  29.566  22.932  1.00  0.00     0.161 HD
BRANCH  12  14
ATOM     14  C   UNL A   1      28.903  28.947  22.806  1.00  0.00     0.149 C 
BRANCH  14  15
ATOM     15  C   UNL A   1      28.598  30.386  22.481  1.00  0.00    -0.026 A 
ATOM     16  C   UNL A   1      28.670  31.374  23.469  1.00  0.00     0.025 A 
ATOM     17  C   UNL A   1      28.242  30.770  21.185  1.00  0.00     0.025 A 
ATOM     18  C   UNL A   1      28.396  32.686  23.121  1.00  0.00     0.111 A 
ATOM     19  C   UNL A   1      27.991  32.111  20.936  1.00  0.00     0.111 A 
ATOM     20  N   UNL A   1      28.065  33.079  21.873  1.00  0.00    -0.265 NA
ENDBRANCH  14  15
ENDBRANCH  12  14
ENDBRANCH  11  12
ENDBRANCH   3   6
ENDBRANCH   1   2
BRANCH   1  21
ATOM     21  C   UNL A   1      32.869  31.206  27.263  1.00  0.00     0.042 C 
BRANCH  21  22
ATOM     22  C   UNL A   1      34.301  31.558  27.620  1.00  0.00     0.118 C 
BRANCH  22  23
ATOM     23  N   UNL A   1      34.399  32.204  28.934  1.00  0.00    -0.352 N 
ATOM     24  C   UNL A   1      35.288  31.941  29.956  1.00  0.00     0.251 C 
ATOM     25  H   UNL A   1      33.746  32.920  29.110  1.00  0.00     0.163 HD
ATOM     26  O   UNL A   1      35.057  32.306  31.108  1.00  0.00    -0.269 OA
BRANCH  24  27
ATOM     27  C   UNL A   1      36.513  31.200  29.640  1.00  0.00     0.039 A 
ATOM     28  C   UNL A   1      37.756  31.829  29.564  1.00  0.00     0.014 A 
ATOM     29  C   UNL A   1      36.403  29.818  29.535  1.00  0.00     0.014 A 
ATOM     30  C   UNL A   1      38.896  31.034  29.495  1.00  0.00     0.010 A 
ATOM     31  C   UNL A   1      37.522  29.048  29.697  1.00  0.00     0.010 A 
ATOM     32  C   UNL A   1      38.775  29.636  29.610  1.00  0.00    -0.014 A 
BRANCH  32  33
ATOM     33  C   UNL A   1      39.952  28.785  29.734  1.00  0.00     0.031 A 
ATOM     34  C   UNL A   1      40.404  28.551  31.132  1.00  0.00     0.074 A 
ATOM     35  C   UNL A   1      40.525  28.127  28.702  1.00  0.00     0.049 A 
ATOM     36  N   UNL A   1      41.470  29.024  31.687  1.00  0.00    -0.248 NA
ATOM     37  C   UNL A   1      39.515  27.836  32.060  1.00  0.00     0.031 C 
ATOM     38  C   UNL A   1      40.078  27.997  27.310  1.00  0.00     0.029 A 
ATOM     39  N   UNL A   1      41.644  27.353  28.720  1.00  0.00    -0.354 N 
ATOM     40  C   UNL A   1      41.490  28.525  32.984  1.00  0.00     0.074 A 
ATOM     41  C   UNL A   1      40.195  27.934  33.206  1.00  0.00     0.031 C 
ATOM     42  C   UNL A   1      40.780  27.021  26.691  1.00  0.00     0.029 A 
ATOM     43  C   UNL A   1      41.848  26.596  27.574  1.00  0.00     0.049 A 
ATOM     44  H   UNL A   1      42.260  27.332  29.487  1.00  0.00     0.167 HD
ATOM     45  C   UNL A   1      42.660  28.455  33.678  1.00  0.00     0.037 A 
ATOM     46  C   UNL A   1      42.836  25.691  27.367  1.00  0.00     0.037 A 
ATOM     47  C   UNL A   1      43.666  29.300  33.078  1.00  0.00     0.049 A 
ATOM     48  C   UNL A   1      43.927  26.018  28.318  1.00  0.00     0.074 A 
ATOM     49  C   UNL A   1      43.757  30.654  32.811  1.00  0.00     0.029 A 
ATOM     50  N   UNL A   1      44.620  28.711  32.284  1.00  0.00    -0.354 N 
ATOM     51  N   UNL A   1      44.658  27.095  28.231  1.00  0.00    -0.248 NA
ATOM     52  C   UNL A   1      43.886  25.391  29.630  1.00  0.00     0.031 C 
ATOM     53  C   UNL A   1      44.370  30.735  31.525  1.00  0.00     0.029 A 
ATOM     54  C   UNL A   1      44.688  29.438  31.122  1.00  0.00     0.049 A 
ATOM     55  H   UNL A   1      45.155  27.915  32.507  1.00  0.00     0.167 HD
ATOM     56  C   UNL A   1      44.794  27.529  29.541  1.00  0.00     0.074 A 
ATOM     57  C   UNL A   1      44.370  26.396  30.364  1.00  0.00     0.031 C 
ATOM     58  C   UNL A   1      44.961  28.852  29.832  1.00  0.00     0.037 A 
BRANCH  45  59
ATOM     59  C   UNL A   1      43.013  27.356  34.653  1.00  0.00     0.064 A 
ATOM     60  C   UNL A   1      43.196  27.684  36.013  1.00  0.00     0.173 A 
ATOM     61  C   UNL A   1      43.487  26.084  34.268  1.00  0.00     0.173 A 
ATOM     62  F   UNL A   1      42.788  28.869  36.491  1.00  0.00    -0.203 F 
ATOM     63  C   UNL A   1      43.890  26.845  36.888  1.00  0.00     0.198 A 
ATOM     64  C   UNL A   1      44.134  25.229  35.157  1.00  0.00     0.198 A 
ATOM     65  F   UNL A   1      43.451  25.661  32.999  1.00  0.00    -0.203 F 
ATOM     66  F   UNL A   1      44.159  27.261  38.133  1.00  0.00    -0.200 F 
ATOM     67  C   UNL A   1      44.369  25.624  36.456  1.00  0.00     0.200 A 
ATOM     68  F   UNL A   1      44.605  24.053  34.714  1.00  0.00    -0.200 F 
ATOM     69  F   UNL A   1      45.098  24.849  37.271  1.00  0.00    -0.200 F 
ENDBRANCH  45  59
BRANCH  46  70
ATOM     70  C   UNL A   1      42.789  24.408  26.628  1.00  0.00     0.064 A 
ATOM     71  C   UNL A   1      43.487  24.254  25.418  1.00  0.00     0.173 A 
ATOM     72  C   UNL A   1      42.327  23.228  27.240  1.00  0.00     0.173 A 
ATOM     73  F   UNL A   1      43.987  25.325  24.785  1.00  0.00    -0.203 F 
ATOM     74  C   UNL A   1      43.754  22.989  24.882  1.00  0.00     0.198 A 
ATOM     75  C   UNL A   1      42.591  21.968  26.702  1.00  0.00     0.198 A 
ATOM     76  F   UNL A   1      41.701  23.267  28.425  1.00  0.00    -0.203 F 
ATOM     77  F   UNL A   1      44.492  22.879  23.768  1.00  0.00    -0.200 F 
ATOM     78  C   UNL A   1      43.322  21.848  25.533  1.00  0.00     0.200 A 
ATOM     79  F   UNL A   1      42.198  20.868  27.359  1.00  0.00    -0.200 F 
ATOM     80  F   UNL A   1      43.645  20.635  25.062  1.00  0.00    -0.200 F 
ENDBRANCH  46  70
BRANCH  58  81
ATOM     81  C   UNL A   1      45.232  29.793  28.690  1.00  0.00     0.064 A 
ATOM     82  C   UNL A   1      44.233  30.432  27.933  1.00  0.00     0.173 A 
ATOM     83  C   UNL A   1      46.560  30.156  28.428  1.00  0.00     0.173 A 
ATOM     84  F   UNL A   1      42.936  30.225  28.185  1.00  0.00    -0.203 F 
ATOM     85  C   UNL A   1      44.554  31.344  26.927  1.00  0.00     0.198 A 
ATOM     86  C   UNL A   1      46.876  31.094  27.450  1.00  0.00     0.198 A 
ATOM     87  F   UNL A   1      47.556  29.623  29.154  1.00  0.00    -0.203 F 
ATOM     88  F   UNL A   1      43.580  31.921  26.207  1.00  0.00    -0.200 F 
ATOM     89  C   UNL A   1      45.876  31.677  26.690  1.00  0.00     0.200 A 
ATOM     90  F   UNL A   1      48.154  31.449  27.258  1.00  0.00    -0.200 F 
ATOM     91  F   UNL A   1      46.185  32.578  25.746  1.00  0.00    -0.200 F 
ENDBRANCH  58  81
ENDBRANCH  32  33
ENDBRANCH  24  27
ENDBRANCH  22  23
ENDBRANCH  21  22
ENDBRANCH   1  21
TORSDOF 13
ENDMDL
MODEL 3
REMARK VINA RESULT:     -12.4      5.592     11.594
REMARK SMILES Cc1nsc(NCc2ccncc2)c1C(=O)NCCCNC(=O)c1ccc(-c2c3nc(c(-c4c(F)c(F)c(F)c(F)c4F)c4ccc([nH]4)c(-c4c(F)c(F)c(F)c(F)c4F)c4nc(c(-c5c(F)c(F)c(F)c(F)c5F)c5ccc2[nH]5)C=C4)C=C3)cc1
REMARK SMILES IDX 18 1 17 2 15 3 16 4 14 6 1 7 2 8 3 9 4 10 5 11 6 12 7 14
REMARK SMILES IDX 8 15 9 16 13 17 10 18 12 19 11 20 19 21 20 22 21 23 22 24
REMARK SMILES IDX 23 26 24 27 25 28 86 29 26 30 85 31 27 32 28 33 29 34 79 35
REMARK SMILES IDX 30 36 84 37 78 38 80 39 31 40 83 41 77 42 76 43 32 45 64 46
REMARK SMILES IDX 44 47 63 48 45 49 48 50 62 51 81 52 46 53 47 54 61 56 82 57
REMARK SMILES IDX 49 58 33 59 34 60 42 61 35 62 36 63 40 64 43 65 37 66 38 67
REMARK SMILES IDX 41 68 39 69 65 70 66 71 74 72 67 73 68 74 72 75 75 76 69 77
REMARK SMILES IDX 70 78 73 79 71 80 50 81 51 82 59 83 52 84 53 85 57 86 60 87
REMARK SMILES IDX 54 88 55 89 58 90 56 91
REMARK H PARENT 17 5 6 13 21 25 80 44 48 55
REMARK Flexibility Score: inf
ROOT
ATOM      1  C   UNL A   1      35.305  33.646  33.436  1.00  0.00     0.118 C 
ENDROOT
BRANCH   1   2
ATOM      2  N   UNL A   1      36.427  34.412  33.920  1.00  0.00    -0.352 N 
ATOM      3  C   UNL A   1      37.522  34.154  34.697  1.00  0.00     0.256 C 
ATOM      4  O   UNL A   1      38.281  35.135  34.757  1.00  0.00    -0.269 OA
ATOM      5  H   UNL A   1      36.397  35.348  33.618  1.00  0.00     0.163 HD
BRANCH   3   6
ATOM      6  C   UNL A   1      37.858  32.889  35.392  1.00  0.00     0.097 A 
ATOM      7  C   UNL A   1      37.281  33.077  38.019  1.00  0.00     0.069 C 
ATOM      8  C   UNL A   1      37.749  32.413  36.774  1.00  0.00     0.066 A 
ATOM      9  N   UNL A   1      38.174  31.169  37.005  1.00  0.00    -0.195 NA
ATOM     10  S   UNL A   1      38.755  30.511  35.637  1.00  0.00    -0.018 S 
ATOM     11  C   UNL A   1      38.476  31.868  34.633  1.00  0.00     0.122 A 
BRANCH  11  12
ATOM     12  N   UNL A   1      38.808  31.925  33.313  1.00  0.00    -0.371 N 
ATOM     13  H   UNL A   1      38.075  31.807  32.667  1.00  0.00     0.161 HD
BRANCH  12  14
ATOM     14  C   UNL A   1      40.127  32.140  32.763  1.00  0.00     0.149 C 
BRANCH  14  15
ATOM     15  C   UNL A   1      40.060  33.132  31.631  1.00  0.00    -0.026 A 
ATOM     16  C   UNL A   1      41.135  33.282  30.747  1.00  0.00     0.025 A 
ATOM     17  C   UNL A   1      38.924  33.922  31.434  1.00  0.00     0.025 A 
ATOM     18  C   UNL A   1      41.022  34.195  29.712  1.00  0.00     0.111 A 
ATOM     19  C   UNL A   1      38.907  34.804  30.365  1.00  0.00     0.111 A 
ATOM     20  N   UNL A   1      39.929  34.956  29.495  1.00  0.00    -0.265 NA
ENDBRANCH  14  15
ENDBRANCH  12  14
ENDBRANCH  11  12
ENDBRANCH   3   6
ENDBRANCH   1   2
BRANCH   1  21
ATOM     21  C   UNL A   1      35.225  33.659  31.906  1.00  0.00     0.042 C 
BRANCH  21  22
ATOM     22  C   UNL A   1      35.460  32.289  31.299  1.00  0.00     0.118 C 
BRANCH  22  23
ATOM     23  N   UNL A   1      34.642  32.069  30.101  1.00  0.00    -0.352 N 
ATOM     24  C   UNL A   1      35.051  31.678  28.843  1.00  0.00     0.251 C 
ATOM     25  H   UNL A   1      33.675  32.220  30.208  1.00  0.00     0.163 HD
ATOM     26  O   UNL A   1      34.334  31.854  27.858  1.00  0.00    -0.269 OA
BRANCH  24  27
ATOM     27  C   UNL A   1      36.372  31.056  28.701  1.00  0.00     0.039 A 
ATOM     28  C   UNL A   1      37.547  31.747  28.997  1.00  0.00     0.014 A 
ATOM     29  C   UNL A   1      36.399  29.705  28.371  1.00  0.00     0.014 A 
ATOM     30  C   UNL A   1      38.737  31.028  29.067  1.00  0.00     0.010 A 
ATOM     31  C   UNL A   1      37.517  28.973  28.663  1.00  0.00     0.010 A 
ATOM     32  C   UNL A   1      38.708  29.626  28.944  1.00  0.00    -0.014 A 
BRANCH  32  33
ATOM     33  C   UNL A   1      39.898  28.823  29.199  1.00  0.00     0.031 A 
ATOM     34  C   UNL A   1      40.193  28.592  30.639  1.00  0.00     0.074 A 
ATOM     35  C   UNL A   1      40.614  28.200  28.237  1.00  0.00     0.049 A 
ATOM     36  N   UNL A   1      41.167  29.102  31.317  1.00  0.00    -0.248 NA
ATOM     37  C   UNL A   1      39.233  27.832  31.453  1.00  0.00     0.031 C 
ATOM     38  C   UNL A   1      40.338  28.066  26.802  1.00  0.00     0.029 A 
ATOM     39  N   UNL A   1      41.754  27.472  28.381  1.00  0.00    -0.354 N 
ATOM     40  C   UNL A   1      41.057  28.591  32.605  1.00  0.00     0.074 A 
ATOM     41  C   UNL A   1      39.770  27.945  32.671  1.00  0.00     0.031 C 
ATOM     42  C   UNL A   1      41.147  27.127  26.264  1.00  0.00     0.029 A 
ATOM     43  C   UNL A   1      42.122  26.736  27.262  1.00  0.00     0.049 A 
ATOM     44  H   UNL A   1      42.278  27.468  29.215  1.00  0.00     0.167 HD
ATOM     45  C   UNL A   1      42.140  28.562  33.431  1.00  0.00     0.037 A 
ATOM     46  C   UNL A   1      43.164  25.874  27.167  1.00  0.00     0.037 A 
ATOM     47  C   UNL A   1      43.173  29.453  32.957  1.00  0.00     0.049 A 
ATOM     48  C   UNL A   1      44.122  26.236  28.240  1.00  0.00     0.074 A 
ATOM     49  C   UNL A   1      43.237  30.812  32.710  1.00  0.00     0.029 A 
ATOM     50  N   UNL A   1      44.237  28.912  32.276  1.00  0.00    -0.354 N 
ATOM     51  N   UNL A   1      44.813  27.343  28.246  1.00  0.00    -0.248 NA
ATOM     52  C   UNL A   1      43.955  25.593  29.535  1.00  0.00     0.031 C 
ATOM     53  C   UNL A   1      43.992  30.932  31.504  1.00  0.00     0.029 A 
ATOM     54  C   UNL A   1      44.408  29.654  31.134  1.00  0.00     0.049 A 
ATOM     55  H   UNL A   1      44.775  28.136  32.555  1.00  0.00     0.167 HD
ATOM     56  C   UNL A   1      44.778  27.767  29.565  1.00  0.00     0.074 A 
ATOM     57  C   UNL A   1      44.308  26.610  30.326  1.00  0.00     0.031 C 
ATOM     58  C   UNL A   1      44.854  29.093  29.882  1.00  0.00     0.037 A 
BRANCH  45  59
ATOM     59  C   UNL A   1      42.423  27.468  34.433  1.00  0.00     0.064 A 
ATOM     60  C   UNL A   1      42.959  26.245  33.976  1.00  0.00     0.173 A 
ATOM     61  C   UNL A   1      41.905  27.448  35.746  1.00  0.00     0.173 A 
ATOM     62  F   UNL A   1      43.477  26.145  32.743  1.00  0.00    -0.203 F 
ATOM     63  C   UNL A   1      42.884  25.076  34.736  1.00  0.00     0.198 A 
ATOM     64  C   UNL A   1      41.878  26.290  36.520  1.00  0.00     0.198 A 
ATOM     65  F   UNL A   1      41.299  28.509  36.292  1.00  0.00    -0.203 F 
ATOM     66  F   UNL A   1      43.280  23.911  34.203  1.00  0.00    -0.200 F 
ATOM     67  C   UNL A   1      42.333  25.097  36.002  1.00  0.00     0.200 A 
ATOM     68  F   UNL A   1      41.325  26.328  37.741  1.00  0.00    -0.200 F 
ATOM     69  F   UNL A   1      42.193  23.964  36.704  1.00  0.00    -0.200 F 
ENDBRANCH  45  59
BRANCH  46  70
ATOM     70  C   UNL A   1      43.257  24.599  26.420  1.00  0.00     0.064 A 
ATOM     71  C   UNL A   1      44.179  24.450  25.370  1.00  0.00     0.173 A 
ATOM     72  C   UNL A   1      42.677  23.416  26.917  1.00  0.00     0.173 A 
ATOM     73  F   UNL A   1      44.800  25.523  24.859  1.00  0.00    -0.203 F 
ATOM     74  C   UNL A   1      44.540  23.189  24.884  1.00  0.00     0.198 A 
ATOM     75  C   UNL A   1      43.035  22.159  26.428  1.00  0.00     0.198 A 
ATOM     76  F   UNL A   1      41.829  23.449  27.956  1.00  0.00    -0.203 F 
ATOM     77  F   UNL A   1      45.483  23.083  23.937  1.00  0.00    -0.200 F 
ATOM     78  C   UNL A   1      43.982  22.044  25.426  1.00  0.00     0.200 A 
ATOM     79  F   UNL A   1      42.514  21.056  26.983  1.00  0.00    -0.200 F 
ATOM     80  F   UNL A   1      44.385  20.834  25.015  1.00  0.00    -0.200 F 
ENDBRANCH  46  70
BRANCH  58  81
ATOM     81  C   UNL A   1      45.216  30.057  28.784  1.00  0.00     0.064 A 
ATOM     82  C   UNL A   1      44.287  30.657  27.914  1.00  0.00     0.173 A 
ATOM     83  C   UNL A   1      46.548  30.483  28.686  1.00  0.00     0.173 A 
ATOM     84  F   UNL A   1      42.980  30.388  28.007  1.00  0.00    -0.203 F 
ATOM     85  C   UNL A   1      44.684  31.591  26.958  1.00  0.00     0.198 A 
ATOM     86  C   UNL A   1      46.935  31.444  27.757  1.00  0.00     0.198 A 
ATOM     87  F   UNL A   1      47.473  29.990  29.525  1.00  0.00    -0.203 F 
ATOM     88  F   UNL A   1      43.778  32.130  26.128  1.00  0.00    -0.200 F 
ATOM     89  C   UNL A   1      46.007  31.988  26.884  1.00  0.00     0.200 A 
ATOM     90  F   UNL A   1      48.209  31.859  27.723  1.00  0.00    -0.200 F 
ATOM     91  F   UNL A   1      46.386  32.910  25.988  1.00  0.00    -0.200 F 
ENDBRANCH  58  81
ENDBRANCH  32  33
ENDBRANCH  24  27
ENDBRANCH  22  23
ENDBRANCH  21  22
ENDBRANCH   1  21
TORSDOF 13
ENDMDL
