MODEL 1
REMARK VINA RESULT:     -12.2      0.000      0.000
REMARK SMILES C[C@@H](C(=O)NCCCNC(=O)c1ccc(-c2c3nc(c(-c4c(F)c(F)c(F)c(F)c4F)c4ccc([nH]4)c(-c4c(F)c(F)c(F)c(F)c4F)c4nc(c(-c5c(F)c(F)c(F)c(F)c5F)c5ccc2[nH]5)C=C4)C=C3)cc1)c1ccc(Cc2ccco2)cc1F
REMARK SMILES IDX 6 1 5 2 3 3 4 4 2 6 1 7 75 8 76 9 86 10 77 11 85 12 87 13
REMARK SMILES IDX 78 14 79 15 80 16 81 17 84 18 82 19 83 20 7 21 8 22 9 23
REMARK SMILES IDX 10 24 11 26 12 27 13 28 74 29 14 30 73 31 15 32 16 33 17 34
REMARK SMILES IDX 67 35 18 36 72 37 66 38 68 39 19 40 71 41 65 42 64 43 20 45
REMARK SMILES IDX 52 46 32 47 51 48 33 49 36 50 50 51 69 52 34 53 35 54 49 56
REMARK SMILES IDX 70 57 37 58 21 59 22 60 30 61 23 62 24 63 28 64 31 65 25 66
REMARK SMILES IDX 26 67 29 68 27 69 53 70 54 71 62 72 55 73 56 74 60 75 63 76
REMARK SMILES IDX 57 77 58 78 61 79 59 80 38 81 39 82 47 83 40 84 41 85 45 86
REMARK SMILES IDX 48 87 42 88 43 89 46 90 44 91
REMARK H PARENT 5 5 9 25 68 44 36 55
REMARK Flexibility Score: inf
ROOT
ATOM      1  C   UNL A   1      31.942  30.062  26.380  1.00  0.00     0.117 C 
ENDROOT
BRANCH   1   2
ATOM      2  N   UNL A   1      31.340  29.541  25.167  1.00  0.00    -0.356 N 
ATOM      3  C   UNL A   1      31.913  28.982  24.059  1.00  0.00     0.227 C 
ATOM      4  O   UNL A   1      31.185  28.865  23.071  1.00  0.00    -0.274 OA
ATOM      5  H   UNL A   1      30.358  29.600  25.136  1.00  0.00     0.163 HD
BRANCH   3   6
ATOM      6  C   UNL A   1      33.383  28.515  24.093  1.00  0.00     0.108 C 
ATOM      7  C   UNL A   1      34.053  28.952  22.785  1.00  0.00     0.023 C 
BRANCH   6   8
ATOM      8  C   UNL A   1      33.546  27.022  24.410  1.00  0.00    -0.000 A 
ATOM      9  C   UNL A   1      33.643  26.082  23.368  1.00  0.00     0.008 A 
ATOM     10  C   UNL A   1      33.557  26.510  25.715  1.00  0.00     0.127 A 
ATOM     11  C   UNL A   1      33.836  24.719  23.627  1.00  0.00     0.005 A 
ATOM     12  C   UNL A   1      33.717  25.148  25.980  1.00  0.00     0.043 A 
ATOM     13  F   UNL A   1      33.413  27.314  26.777  1.00  0.00    -0.207 F 
ATOM     14  C   UNL A   1      33.873  24.232  24.937  1.00  0.00    -0.038 A 
BRANCH  14  15
ATOM     15  C   UNL A   1      34.115  22.768  25.228  1.00  0.00     0.111 C 
BRANCH  15  16
ATOM     16  C   UNL A   1      35.551  22.371  25.223  1.00  0.00     0.108 A 
ATOM     17  C   UNL A   1      36.731  23.036  25.499  1.00  0.00     0.046 A 
ATOM     18  O   UNL A   1      35.819  21.063  24.936  1.00  0.00    -0.469 OA
ATOM     19  C   UNL A   1      37.772  22.088  25.356  1.00  0.00     0.042 A 
ATOM     20  C   UNL A   1      37.165  20.903  25.020  1.00  0.00     0.195 A 
ENDBRANCH  15  16
ENDBRANCH  14  15
ENDBRANCH   6   8
ENDBRANCH   3   6
ENDBRANCH   1   2
BRANCH   1  21
ATOM     21  C   UNL A   1      31.722  31.571  26.506  1.00  0.00     0.042 C 
BRANCH  21  22
ATOM     22  C   UNL A   1      32.853  32.318  27.206  1.00  0.00     0.118 C 
BRANCH  22  23
ATOM     23  N   UNL A   1      32.529  33.711  27.468  1.00  0.00    -0.352 N 
ATOM     24  C   UNL A   1      33.045  34.576  28.401  1.00  0.00     0.251 C 
ATOM     25  H   UNL A   1      31.832  34.094  26.887  1.00  0.00     0.163 HD
ATOM     26  O   UNL A   1      32.500  35.662  28.593  1.00  0.00    -0.269 OA
BRANCH  24  27
ATOM     27  C   UNL A   1      34.231  34.202  29.201  1.00  0.00     0.039 A 
ATOM     28  C   UNL A   1      34.038  33.565  30.431  1.00  0.00     0.014 A 
ATOM     29  C   UNL A   1      35.526  34.478  28.756  1.00  0.00     0.014 A 
ATOM     30  C   UNL A   1      35.140  33.120  31.166  1.00  0.00     0.010 A 
ATOM     31  C   UNL A   1      36.623  33.977  29.455  1.00  0.00     0.010 A 
ATOM     32  C   UNL A   1      36.440  33.274  30.657  1.00  0.00    -0.014 A 
BRANCH  32  33
ATOM     33  C   UNL A   1      37.610  32.645  31.326  1.00  0.00     0.031 A 
ATOM     34  C   UNL A   1      38.303  31.464  30.708  1.00  0.00     0.074 A 
ATOM     35  C   UNL A   1      37.985  33.088  32.543  1.00  0.00     0.049 A 
ATOM     36  N   UNL A   1      39.262  30.720  31.200  1.00  0.00    -0.248 NA
ATOM     37  C   UNL A   1      37.850  31.049  29.371  1.00  0.00     0.031 C 
ATOM     38  C   UNL A   1      37.364  34.200  33.266  1.00  0.00     0.029 A 
ATOM     39  N   UNL A   1      38.961  32.643  33.402  1.00  0.00    -0.354 N 
ATOM     40  C   UNL A   1      39.512  29.742  30.245  1.00  0.00     0.074 A 
ATOM     41  C   UNL A   1      38.587  29.968  29.156  1.00  0.00     0.031 C 
ATOM     42  C   UNL A   1      37.972  34.353  34.453  1.00  0.00     0.029 A 
ATOM     43  C   UNL A   1      38.991  33.318  34.600  1.00  0.00     0.049 A 
ATOM     44  H   UNL A   1      39.580  31.910  33.181  1.00  0.00     0.167 HD
ATOM     45  C   UNL A   1      40.438  28.755  30.278  1.00  0.00     0.037 A 
ATOM     46  C   UNL A   1      39.729  33.108  35.707  1.00  0.00     0.037 A 
ATOM     47  C   UNL A   1      41.378  28.556  31.350  1.00  0.00     0.049 A 
ATOM     48  C   UNL A   1      40.727  31.979  35.719  1.00  0.00     0.074 A 
ATOM     49  C   UNL A   1      42.420  27.647  31.422  1.00  0.00     0.029 A 
ATOM     50  N   UNL A   1      41.381  29.263  32.542  1.00  0.00    -0.354 N 
ATOM     51  N   UNL A   1      41.025  31.129  34.767  1.00  0.00    -0.248 NA
ATOM     52  C   UNL A   1      41.490  31.778  36.960  1.00  0.00     0.031 C 
ATOM     53  C   UNL A   1      43.009  27.756  32.684  1.00  0.00     0.029 A 
ATOM     54  C   UNL A   1      42.375  28.774  33.376  1.00  0.00     0.049 A 
ATOM     55  H   UNL A   1      40.770  30.003  32.762  1.00  0.00     0.167 HD
ATOM     56  C   UNL A   1      42.019  30.309  35.286  1.00  0.00     0.074 A 
ATOM     57  C   UNL A   1      42.294  30.779  36.625  1.00  0.00     0.031 C 
ATOM     58  C   UNL A   1      42.641  29.255  34.706  1.00  0.00     0.037 A 
BRANCH  45  59
ATOM     59  C   UNL A   1      40.496  27.795  29.126  1.00  0.00     0.064 A 
ATOM     60  C   UNL A   1      39.683  26.654  29.073  1.00  0.00     0.173 A 
ATOM     61  C   UNL A   1      41.295  28.083  28.007  1.00  0.00     0.173 A 
ATOM     62  F   UNL A   1      38.904  26.331  30.117  1.00  0.00    -0.203 F 
ATOM     63  C   UNL A   1      39.671  25.834  27.948  1.00  0.00     0.198 A 
ATOM     64  C   UNL A   1      41.261  27.277  26.874  1.00  0.00     0.198 A 
ATOM     65  F   UNL A   1      42.084  29.168  28.003  1.00  0.00    -0.203 F 
ATOM     66  F   UNL A   1      38.902  24.737  27.927  1.00  0.00    -0.200 F 
ATOM     67  C   UNL A   1      40.451  26.152  26.845  1.00  0.00     0.200 A 
ATOM     68  F   UNL A   1      42.001  27.596  25.803  1.00  0.00    -0.200 F 
ATOM     69  F   UNL A   1      40.419  25.375  25.753  1.00  0.00    -0.200 F 
ENDBRANCH  45  59
BRANCH  46  70
ATOM     70  C   UNL A   1      39.539  33.957  36.915  1.00  0.00     0.064 A 
ATOM     71  C   UNL A   1      40.219  35.174  37.059  1.00  0.00     0.173 A 
ATOM     72  C   UNL A   1      38.714  33.544  37.973  1.00  0.00     0.173 A 
ATOM     73  F   UNL A   1      41.036  35.603  36.086  1.00  0.00    -0.203 F 
ATOM     74  C   UNL A   1      40.112  35.927  38.227  1.00  0.00     0.198 A 
ATOM     75  C   UNL A   1      38.580  34.314  39.125  1.00  0.00     0.198 A 
ATOM     76  F   UNL A   1      38.038  32.389  37.888  1.00  0.00    -0.203 F 
ATOM     77  F   UNL A   1      40.829  37.050  38.365  1.00  0.00    -0.200 F 
ATOM     78  C   UNL A   1      39.290  35.497  39.258  1.00  0.00     0.200 A 
ATOM     79  F   UNL A   1      37.771  33.904  40.113  1.00  0.00    -0.200 F 
ATOM     80  F   UNL A   1      39.194  36.217  40.385  1.00  0.00    -0.200 F 
ENDBRANCH  46  70
BRANCH  58  81
ATOM     81  C   UNL A   1      43.693  28.545  35.508  1.00  0.00     0.064 A 
ATOM     82  C   UNL A   1      45.048  28.894  35.408  1.00  0.00     0.173 A 
ATOM     83  C   UNL A   1      43.338  27.544  36.425  1.00  0.00     0.173 A 
ATOM     84  F   UNL A   1      45.441  29.832  34.532  1.00  0.00    -0.203 F 
ATOM     85  C   UNL A   1      46.011  28.256  36.186  1.00  0.00     0.198 A 
ATOM     86  C   UNL A   1      44.300  26.931  37.224  1.00  0.00     0.198 A 
ATOM     87  F   UNL A   1      42.055  27.177  36.563  1.00  0.00    -0.203 F 
ATOM     88  F   UNL A   1      47.304  28.576  36.043  1.00  0.00    -0.200 F 
ATOM     89  C   UNL A   1      45.634  27.283  37.100  1.00  0.00     0.200 A 
ATOM     90  F   UNL A   1      43.931  26.004  38.118  1.00  0.00    -0.200 F 
ATOM     91  F   UNL A   1      46.560  26.681  37.859  1.00  0.00    -0.200 F 
ENDBRANCH  58  81
ENDBRANCH  32  33
ENDBRANCH  24  27
ENDBRANCH  22  23
ENDBRANCH  21  22
ENDBRANCH   1  21
TORSDOF 13
ENDMDL
MODEL 2
REMARK VINA RESULT:     -12.2      1.140      2.473
REMARK SMILES C[C@@H](C(=O)NCCCNC(=O)c1ccc(-c2c3nc(c(-c4c(F)c(F)c(F)c(F)c4F)c4ccc([nH]4)c(-c4c(F)c(F)c(F)c(F)c4F)c4nc(c(-c5c(F)c(F)c(F)c(F)c5F)c5ccc2[nH]5)C=C4)C=C3)cc1)c1ccc(Cc2ccco2)cc1F
REMARK SMILES IDX 6 1 5 2 3 3 4 4 2 6 1 7 75 8 76 9 86 10 77 11 85 12 87 13
REMARK SMILES IDX 78 14 79 15 80 16 81 17 84 18 82 19 83 20 7 21 8 22 9 23
REMARK SMILES IDX 10 24 11 26 12 27 13 28 74 29 14 30 73 31 15 32 16 33 17 34
REMARK SMILES IDX 67 35 18 36 72 37 66 38 68 39 19 40 71 41 65 42 64 43 20 45
REMARK SMILES IDX 52 46 32 47 51 48 33 49 36 50 50 51 69 52 34 53 35 54 49 56
REMARK SMILES IDX 70 57 37 58 21 59 22 60 30 61 23 62 24 63 28 64 31 65 25 66
REMARK SMILES IDX 26 67 29 68 27 69 53 70 54 71 62 72 55 73 56 74 60 75 63 76
REMARK SMILES IDX 57 77 58 78 61 79 59 80 38 81 39 82 47 83 40 84 41 85 45 86
REMARK SMILES IDX 48 87 42 88 43 89 46 90 44 91
REMARK H PARENT 5 5 9 25 68 44 36 55
REMARK Flexibility Score: inf
ROOT
ATOM      1  C   UNL A   1      31.733  30.759  25.811  1.00  0.00     0.117 C 
ENDROOT
BRANCH   1   2
ATOM      2  N   UNL A   1      33.007  30.138  26.125  1.00  0.00    -0.356 N 
ATOM      3  C   UNL A   1      33.333  28.825  26.316  1.00  0.00     0.227 C 
ATOM      4  O   UNL A   1      34.435  28.607  26.826  1.00  0.00    -0.274 OA
ATOM      5  H   UNL A   1      33.760  30.766  26.217  1.00  0.00     0.163 HD
BRANCH   3   6
ATOM      6  C   UNL A   1      32.360  27.709  25.882  1.00  0.00     0.108 C 
ATOM      7  C   UNL A   1      31.402  27.432  27.046  1.00  0.00     0.023 C 
BRANCH   6   8
ATOM      8  C   UNL A   1      33.065  26.458  25.341  1.00  0.00    -0.000 A 
ATOM      9  C   UNL A   1      33.280  25.347  26.176  1.00  0.00     0.008 A 
ATOM     10  C   UNL A   1      33.568  26.362  24.035  1.00  0.00     0.127 A 
ATOM     11  C   UNL A   1      33.880  24.175  25.698  1.00  0.00     0.005 A 
ATOM     12  C   UNL A   1      34.196  25.208  23.560  1.00  0.00     0.043 A 
ATOM     13  F   UNL A   1      33.465  27.385  23.176  1.00  0.00    -0.207 F 
ATOM     14  C   UNL A   1      34.350  24.091  24.384  1.00  0.00    -0.038 A 
BRANCH  14  15
ATOM     15  C   UNL A   1      34.968  22.819  23.847  1.00  0.00     0.111 C 
BRANCH  15  16
ATOM     16  C   UNL A   1      34.223  21.578  24.200  1.00  0.00     0.108 A 
ATOM     17  C   UNL A   1      34.521  20.466  24.963  1.00  0.00     0.046 A 
ATOM     18  O   UNL A   1      32.942  21.484  23.734  1.00  0.00    -0.469 OA
ATOM     19  C   UNL A   1      33.369  19.644  24.948  1.00  0.00     0.042 A 
ATOM     20  C   UNL A   1      32.435  20.311  24.193  1.00  0.00     0.195 A 
ENDBRANCH  15  16
ENDBRANCH  14  15
ENDBRANCH   6   8
ENDBRANCH   3   6
ENDBRANCH   1   2
BRANCH   1  21
ATOM     21  C   UNL A   1      31.414  31.897  26.784  1.00  0.00     0.042 C 
BRANCH  21  22
ATOM     22  C   UNL A   1      32.638  32.645  27.302  1.00  0.00     0.118 C 
BRANCH  22  23
ATOM     23  N   UNL A   1      32.357  34.039  27.606  1.00  0.00    -0.352 N 
ATOM     24  C   UNL A   1      32.939  34.875  28.526  1.00  0.00     0.251 C 
ATOM     25  H   UNL A   1      31.639  34.447  27.070  1.00  0.00     0.163 HD
ATOM     26  O   UNL A   1      32.427  35.968  28.767  1.00  0.00    -0.269 OA
BRANCH  24  27
ATOM     27  C   UNL A   1      34.157  34.463  29.256  1.00  0.00     0.039 A 
ATOM     28  C   UNL A   1      34.018  33.879  30.520  1.00  0.00     0.014 A 
ATOM     29  C   UNL A   1      35.430  34.651  28.713  1.00  0.00     0.014 A 
ATOM     30  C   UNL A   1      35.145  33.398  31.193  1.00  0.00     0.010 A 
ATOM     31  C   UNL A   1      36.546  34.113  29.352  1.00  0.00     0.010 A 
ATOM     32  C   UNL A   1      36.411  33.462  30.589  1.00  0.00    -0.014 A 
BRANCH  32  33
ATOM     33  C   UNL A   1      37.590  32.792  31.199  1.00  0.00     0.031 A 
ATOM     34  C   UNL A   1      38.230  31.608  30.529  1.00  0.00     0.074 A 
ATOM     35  C   UNL A   1      38.023  33.198  32.410  1.00  0.00     0.049 A 
ATOM     36  N   UNL A   1      39.190  30.831  30.968  1.00  0.00    -0.248 NA
ATOM     37  C   UNL A   1      37.716  31.233  29.203  1.00  0.00     0.031 C 
ATOM     38  C   UNL A   1      37.457  34.309  33.179  1.00  0.00     0.029 A 
ATOM     39  N   UNL A   1      39.019  32.712  33.221  1.00  0.00    -0.354 N 
ATOM     40  C   UNL A   1      39.379  29.869  29.984  1.00  0.00     0.074 A 
ATOM     41  C   UNL A   1      38.418  30.140  28.937  1.00  0.00     0.031 C 
ATOM     42  C   UNL A   1      38.113  34.421  34.344  1.00  0.00     0.029 A 
ATOM     43  C   UNL A   1      39.112  33.359  34.431  1.00  0.00     0.049 A 
ATOM     44  H   UNL A   1      39.612  31.970  32.960  1.00  0.00     0.167 HD
ATOM     45  C   UNL A   1      40.281  28.860  29.959  1.00  0.00     0.037 A 
ATOM     46  C   UNL A   1      39.887  33.108  35.502  1.00  0.00     0.037 A 
ATOM     47  C   UNL A   1      41.257  28.615  30.990  1.00  0.00     0.049 A 
ATOM     48  C   UNL A   1      40.857  31.956  35.452  1.00  0.00     0.074 A 
ATOM     49  C   UNL A   1      42.278  27.681  31.002  1.00  0.00     0.029 A 
ATOM     50  N   UNL A   1      41.323  29.296  32.196  1.00  0.00    -0.354 N 
ATOM     51  N   UNL A   1      41.098  31.120  34.472  1.00  0.00    -0.248 NA
ATOM     52  C   UNL A   1      41.662  31.710  36.658  1.00  0.00     0.031 C 
ATOM     53  C   UNL A   1      42.918  27.748  32.242  1.00  0.00     0.029 A 
ATOM     54  C   UNL A   1      42.335  28.766  32.980  1.00  0.00     0.049 A 
ATOM     55  H   UNL A   1      40.739  30.045  32.455  1.00  0.00     0.167 HD
ATOM     56  C   UNL A   1      42.090  30.267  34.934  1.00  0.00     0.074 A 
ATOM     57  C   UNL A   1      42.428  30.700  36.272  1.00  0.00     0.031 C 
ATOM     58  C   UNL A   1      42.664  29.211  34.309  1.00  0.00     0.037 A 
BRANCH  45  59
ATOM     59  C   UNL A   1      40.271  27.924  28.786  1.00  0.00     0.064 A 
ATOM     60  C   UNL A   1      41.014  28.186  27.626  1.00  0.00     0.173 A 
ATOM     61  C   UNL A   1      39.598  26.694  28.872  1.00  0.00     0.173 A 
ATOM     62  F   UNL A   1      41.672  29.348  27.493  1.00  0.00    -0.203 F 
ATOM     63  C   UNL A   1      41.079  27.255  26.593  1.00  0.00     0.198 A 
ATOM     64  C   UNL A   1      39.687  25.755  27.848  1.00  0.00     0.198 A 
ATOM     65  F   UNL A   1      38.881  26.391  29.964  1.00  0.00    -0.203 F 
ATOM     66  F   UNL A   1      41.778  27.534  25.484  1.00  0.00    -0.200 F 
ATOM     67  C   UNL A   1      40.425  26.037  26.709  1.00  0.00     0.200 A 
ATOM     68  F   UNL A   1      39.070  24.572  27.971  1.00  0.00    -0.200 F 
ATOM     69  F   UNL A   1      40.511  25.131  25.724  1.00  0.00    -0.200 F 
ENDBRANCH  45  59
BRANCH  46  70
ATOM     70  C   UNL A   1      39.763  33.934  36.735  1.00  0.00     0.064 A 
ATOM     71  C   UNL A   1      38.922  33.544  37.787  1.00  0.00     0.173 A 
ATOM     72  C   UNL A   1      40.442  35.156  36.865  1.00  0.00     0.173 A 
ATOM     73  F   UNL A   1      38.234  32.396  37.703  1.00  0.00    -0.203 F 
ATOM     74  C   UNL A   1      38.736  34.359  38.901  1.00  0.00     0.198 A 
ATOM     75  C   UNL A   1      40.282  35.953  37.995  1.00  0.00     0.198 A 
ATOM     76  F   UNL A   1      41.262  35.577  35.890  1.00  0.00    -0.203 F 
ATOM     77  F   UNL A   1      37.871  33.994  39.858  1.00  0.00    -0.200 F 
ATOM     78  C   UNL A   1      39.418  35.562  39.006  1.00  0.00     0.200 A 
ATOM     79  F   UNL A   1      40.957  37.107  38.100  1.00  0.00    -0.200 F 
ATOM     80  F   UNL A   1      39.231  36.350  40.074  1.00  0.00    -0.200 F 
ENDBRANCH  46  70
BRANCH  58  81
ATOM     81  C   UNL A   1      43.729  28.459  35.053  1.00  0.00     0.064 A 
ATOM     82  C   UNL A   1      43.413  27.369  35.878  1.00  0.00     0.173 A 
ATOM     83  C   UNL A   1      45.082  28.796  34.899  1.00  0.00     0.173 A 
ATOM     84  F   UNL A   1      42.133  27.018  36.074  1.00  0.00    -0.203 F 
ATOM     85  C   UNL A   1      44.413  26.654  36.533  1.00  0.00     0.198 A 
ATOM     86  C   UNL A   1      46.081  28.058  35.528  1.00  0.00     0.198 A 
ATOM     87  F   UNL A   1      45.437  29.826  34.116  1.00  0.00    -0.203 F 
ATOM     88  F   UNL A   1      44.085  25.643  37.349  1.00  0.00    -0.200 F 
ATOM     89  C   UNL A   1      45.745  26.993  36.349  1.00  0.00     0.200 A 
ATOM     90  F   UNL A   1      47.368  28.377  35.336  1.00  0.00    -0.200 F 
ATOM     91  F   UNL A   1      46.707  26.294  36.968  1.00  0.00    -0.200 F 
ENDBRANCH  58  81
ENDBRANCH  32  33
ENDBRANCH  24  27
ENDBRANCH  22  23
ENDBRANCH  21  22
ENDBRANCH   1  21
TORSDOF 13
ENDMDL
MODEL 3
REMARK VINA RESULT:     -12.1      5.566     10.966
REMARK SMILES C[C@@H](C(=O)NCCCNC(=O)c1ccc(-c2c3nc(c(-c4c(F)c(F)c(F)c(F)c4F)c4ccc([nH]4)c(-c4c(F)c(F)c(F)c(F)c4F)c4nc(c(-c5c(F)c(F)c(F)c(F)c5F)c5ccc2[nH]5)C=C4)C=C3)cc1)c1ccc(Cc2ccco2)cc1F
REMARK SMILES IDX 6 1 5 2 3 3 4 4 2 6 1 7 75 8 76 9 86 10 77 11 85 12 87 13
REMARK SMILES IDX 78 14 79 15 80 16 81 17 84 18 82 19 83 20 7 21 8 22 9 23
REMARK SMILES IDX 10 24 11 26 12 27 13 28 74 29 14 30 73 31 15 32 16 33 17 34
REMARK SMILES IDX 67 35 18 36 72 37 66 38 68 39 19 40 71 41 65 42 64 43 20 45
REMARK SMILES IDX 52 46 32 47 51 48 33 49 36 50 50 51 69 52 34 53 35 54 49 56
REMARK SMILES IDX 70 57 37 58 21 59 22 60 30 61 23 62 24 63 28 64 31 65 25 66
REMARK SMILES IDX 26 67 29 68 27 69 53 70 54 71 62 72 55 73 56 74 60 75 63 76
REMARK SMILES IDX 57 77 58 78 61 79 59 80 38 81 39 82 47 83 40 84 41 85 45 86
REMARK SMILES IDX 48 87 42 88 43 89 46 90 44 91
REMARK H PARENT 5 5 9 25 68 44 36 55
REMARK Flexibility Score: inf
ROOT
ATOM      1  C   UNL A   1      36.877  21.186  24.710  1.00  0.00     0.117 C 
ENDROOT
BRANCH   1   2
ATOM      2  N   UNL A   1      35.478  20.798  24.708  1.00  0.00    -0.356 N 
ATOM      3  C   UNL A   1      34.463  21.128  25.560  1.00  0.00     0.227 C 
ATOM      4  O   UNL A   1      33.436  20.449  25.471  1.00  0.00    -0.274 OA
ATOM      5  H   UNL A   1      35.219  20.197  23.972  1.00  0.00     0.163 HD
BRANCH   3   6
ATOM      6  C   UNL A   1      34.622  22.305  26.545  1.00  0.00     0.108 C 
ATOM      7  C   UNL A   1      34.021  21.884  27.891  1.00  0.00     0.023 C 
BRANCH   6   8
ATOM      8  C   UNL A   1      34.079  23.634  26.006  1.00  0.00    -0.000 A 
ATOM      9  C   UNL A   1      32.790  24.071  26.360  1.00  0.00     0.008 A 
ATOM     10  C   UNL A   1      34.789  24.450  25.112  1.00  0.00     0.127 A 
ATOM     11  C   UNL A   1      32.285  25.300  25.919  1.00  0.00     0.005 A 
ATOM     12  C   UNL A   1      34.279  25.662  24.643  1.00  0.00     0.043 A 
ATOM     13  F   UNL A   1      36.003  24.097  24.667  1.00  0.00    -0.207 F 
ATOM     14  C   UNL A   1      33.021  26.112  25.051  1.00  0.00    -0.038 A 
BRANCH  14  15
ATOM     15  C   UNL A   1      32.501  27.457  24.596  1.00  0.00     0.111 C 
BRANCH  15  16
ATOM     16  C   UNL A   1      32.643  28.544  25.605  1.00  0.00     0.108 A 
ATOM     17  C   UNL A   1      33.591  28.842  26.565  1.00  0.00     0.046 A 
ATOM     18  O   UNL A   1      31.681  29.513  25.596  1.00  0.00    -0.469 OA
ATOM     19  C   UNL A   1      33.176  30.046  27.183  1.00  0.00     0.042 A 
ATOM     20  C   UNL A   1      32.013  30.416  26.554  1.00  0.00     0.195 A 
ENDBRANCH  15  16
ENDBRANCH  14  15
ENDBRANCH   6   8
ENDBRANCH   3   6
ENDBRANCH   1   2
BRANCH   1  21
ATOM     21  C   UNL A   1      37.785  19.992  25.010  1.00  0.00     0.042 C 
BRANCH  21  22
ATOM     22  C   UNL A   1      39.033  20.336  25.819  1.00  0.00     0.118 C 
BRANCH  22  23
ATOM     23  N   UNL A   1      40.006  19.255  25.837  1.00  0.00    -0.352 N 
ATOM     24  C   UNL A   1      41.359  19.292  26.062  1.00  0.00     0.251 C 
ATOM     25  H   UNL A   1      39.638  18.359  25.661  1.00  0.00     0.163 HD
ATOM     26  O   UNL A   1      42.041  18.292  25.842  1.00  0.00    -0.269 OA
BRANCH  24  27
ATOM     27  C   UNL A   1      42.012  20.531  26.536  1.00  0.00     0.039 A 
ATOM     28  C   UNL A   1      42.614  21.375  25.597  1.00  0.00     0.014 A 
ATOM     29  C   UNL A   1      42.042  20.865  27.892  1.00  0.00     0.014 A 
ATOM     30  C   UNL A   1      43.159  22.595  26.006  1.00  0.00     0.010 A 
ATOM     31  C   UNL A   1      42.526  22.110  28.291  1.00  0.00     0.010 A 
ATOM     32  C   UNL A   1      43.070  22.997  27.349  1.00  0.00    -0.014 A 
BRANCH  32  33
ATOM     33  C   UNL A   1      43.470  24.365  27.772  1.00  0.00     0.031 A 
ATOM     34  C   UNL A   1      42.432  25.399  28.107  1.00  0.00     0.074 A 
ATOM     35  C   UNL A   1      44.777  24.698  27.762  1.00  0.00     0.049 A 
ATOM     36  N   UNL A   1      42.593  26.669  28.385  1.00  0.00    -0.248 NA
ATOM     37  C   UNL A   1      41.029  24.957  28.114  1.00  0.00     0.031 C 
ATOM     38  C   UNL A   1      45.876  23.795  27.414  1.00  0.00     0.029 A 
ATOM     39  N   UNL A   1      45.404  25.892  28.025  1.00  0.00    -0.354 N 
ATOM     40  C   UNL A   1      41.315  27.179  28.579  1.00  0.00     0.074 A 
ATOM     41  C   UNL A   1      40.387  26.091  28.361  1.00  0.00     0.031 C 
ATOM     42  C   UNL A   1      47.039  24.462  27.488  1.00  0.00     0.029 A 
ATOM     43  C   UNL A   1      46.766  25.853  27.835  1.00  0.00     0.049 A 
ATOM     44  H   UNL A   1      44.925  26.699  28.321  1.00  0.00     0.167 HD
ATOM     45  C   UNL A   1      40.958  28.440  28.917  1.00  0.00     0.037 A 
ATOM     46  C   UNL A   1      47.689  26.832  27.900  1.00  0.00     0.037 A 
ATOM     47  C   UNL A   1      41.888  29.511  29.165  1.00  0.00     0.049 A 
ATOM     48  C   UNL A   1      47.250  28.231  28.248  1.00  0.00     0.074 A 
ATOM     49  C   UNL A   1      41.623  30.794  29.614  1.00  0.00     0.029 A 
ATOM     50  N   UNL A   1      43.258  29.431  28.969  1.00  0.00    -0.354 N 
ATOM     51  N   UNL A   1      46.050  28.675  28.532  1.00  0.00    -0.248 NA
ATOM     52  C   UNL A   1      48.293  29.267  28.281  1.00  0.00     0.031 C 
ATOM     53  C   UNL A   1      42.822  31.510  29.623  1.00  0.00     0.029 A 
ATOM     54  C   UNL A   1      43.844  30.658  29.239  1.00  0.00     0.049 A 
ATOM     55  H   UNL A   1      43.742  28.623  28.683  1.00  0.00     0.167 HD
ATOM     56  C   UNL A   1      46.198  30.030  28.796  1.00  0.00     0.074 A 
ATOM     57  C   UNL A   1      47.606  30.332  28.665  1.00  0.00     0.031 C 
ATOM     58  C   UNL A   1      45.249  30.944  29.109  1.00  0.00     0.037 A 
BRANCH  45  59
ATOM     59  C   UNL A   1      39.496  28.757  29.043  1.00  0.00     0.064 A 
ATOM     60  C   UNL A   1      38.825  28.672  30.270  1.00  0.00     0.173 A 
ATOM     61  C   UNL A   1      38.787  29.262  27.940  1.00  0.00     0.173 A 
ATOM     62  F   UNL A   1      39.455  28.193  31.354  1.00  0.00    -0.203 F 
ATOM     63  C   UNL A   1      37.496  29.073  30.389  1.00  0.00     0.198 A 
ATOM     64  C   UNL A   1      37.469  29.687  28.068  1.00  0.00     0.198 A 
ATOM     65  F   UNL A   1      39.387  29.372  26.745  1.00  0.00    -0.203 F 
ATOM     66  F   UNL A   1      36.867  28.964  31.567  1.00  0.00    -0.200 F 
ATOM     67  C   UNL A   1      36.823  29.591  29.291  1.00  0.00     0.200 A 
ATOM     68  F   UNL A   1      36.827  30.203  27.011  1.00  0.00    -0.200 F 
ATOM     69  F   UNL A   1      35.553  30.002  29.414  1.00  0.00    -0.200 F 
ENDBRANCH  45  59
BRANCH  46  70
ATOM     70  C   UNL A   1      49.118  26.545  27.598  1.00  0.00     0.064 A 
ATOM     71  C   UNL A   1      50.039  26.291  28.624  1.00  0.00     0.173 A 
ATOM     72  C   UNL A   1      49.604  26.569  26.281  1.00  0.00     0.173 A 
ATOM     73  F   UNL A   1      49.629  26.279  29.902  1.00  0.00    -0.203 F 
ATOM     74  C   UNL A   1      51.393  26.111  28.351  1.00  0.00     0.198 A 
ATOM     75  C   UNL A   1      50.952  26.353  26.006  1.00  0.00     0.198 A 
ATOM     76  F   UNL A   1      48.767  26.804  25.260  1.00  0.00    -0.203 F 
ATOM     77  F   UNL A   1      52.261  25.942  29.358  1.00  0.00    -0.200 F 
ATOM     78  C   UNL A   1      51.848  26.140  27.041  1.00  0.00     0.200 A 
ATOM     79  F   UNL A   1      51.385  26.365  24.737  1.00  0.00    -0.200 F 
ATOM     80  F   UNL A   1      53.152  25.975  26.779  1.00  0.00    -0.200 F 
ENDBRANCH  46  70
BRANCH  58  81
ATOM     81  C   UNL A   1      45.699  32.356  29.349  1.00  0.00     0.064 A 
ATOM     82  C   UNL A   1      46.138  32.778  30.613  1.00  0.00     0.173 A 
ATOM     83  C   UNL A   1      45.745  33.280  28.295  1.00  0.00     0.173 A 
ATOM     84  F   UNL A   1      46.096  31.938  31.658  1.00  0.00    -0.203 F 
ATOM     85  C   UNL A   1      46.591  34.079  30.815  1.00  0.00     0.198 A 
ATOM     86  C   UNL A   1      46.230  34.570  28.494  1.00  0.00     0.198 A 
ATOM     87  F   UNL A   1      45.342  32.925  27.065  1.00  0.00    -0.203 F 
ATOM     88  F   UNL A   1      46.965  34.473  32.040  1.00  0.00    -0.200 F 
ATOM     89  C   UNL A   1      46.646  34.970  29.754  1.00  0.00     0.200 A 
ATOM     90  F   UNL A   1      46.298  35.424  27.463  1.00  0.00    -0.200 F 
ATOM     91  F   UNL A   1      47.097  36.217  29.947  1.00  0.00    -0.200 F 
ENDBRANCH  58  81
ENDBRANCH  32  33
ENDBRANCH  24  27
ENDBRANCH  22  23
ENDBRANCH  21  22
ENDBRANCH   1  21
TORSDOF 13
ENDMDL
