MODEL 1
REMARK VINA RESULT:     -13.3      0.000      0.000
REMARK SMILES O=C(NCCCNC(=O)[C@H](CO)NC(=O)[C@H](Cc1c[nH]c2ccccc12)NC(=O)c1ccc(F)cc1)c1ccc(-c2c3nc(c(-c4c(F)c(F)c(F)c(F)c4F)c4ccc([nH]4)c(-c4c(F)c(F)c(F)c(F)c4F)c4nc(c(-c5c(F)c(F)c(F)c(F)c5F)c5ccc2[nH]5)C=C4)C=C3)cc1
REMARK SMILES IDX 6 1 5 2 4 3 3 4 1 5 2 6 37 8 38 9 99 10 39 11 98 12 40 13
REMARK SMILES IDX 41 14 42 15 92 16 43 17 97 18 91 19 93 20 44 21 96 22 90 23
REMARK SMILES IDX 89 24 45 26 77 27 57 28 76 29 58 30 61 31 75 32 94 33 59 34
REMARK SMILES IDX 60 35 74 37 95 38 62 39 46 40 47 41 55 42 48 43 49 44 53 45
REMARK SMILES IDX 56 46 50 47 51 48 54 49 52 50 78 51 79 52 87 53 80 54 81 55
REMARK SMILES IDX 85 56 88 57 82 58 83 59 86 60 84 61 63 62 64 63 72 64 65 65
REMARK SMILES IDX 66 66 70 67 73 68 67 69 68 70 71 71 69 72 7 73 8 74 9 76
REMARK SMILES IDX 10 77 13 78 14 79 15 81 16 82 27 83 28 84 29 86 30 87 31 88
REMARK SMILES IDX 36 89 32 90 35 91 33 92 34 93 17 94 18 95 19 96 26 97 20 98
REMARK SMILES IDX 21 99 25 100 22 102 24 103 23 104 11 105 12 106
REMARK H PARENT 3 7 93 25 61 36 7 75 13 80 27 85 20 101 12 107
REMARK Flexibility Score: inf
ROOT
ATOM      1  C   UNL A   1      31.590  30.963  26.057  1.00  0.00     0.117 C 
ENDROOT
BRANCH   1   2
ATOM      2  C   UNL A   1      31.367  32.400  26.518  1.00  0.00     0.042 C 
BRANCH   2   3
ATOM      3  C   UNL A   1      32.563  32.968  27.279  1.00  0.00     0.118 C 
BRANCH   3   4
ATOM      4  N   UNL A   1      32.345  34.336  27.722  1.00  0.00    -0.352 N 
ATOM      5  O   UNL A   1      32.584  36.126  29.071  1.00  0.00    -0.269 OA
ATOM      6  C   UNL A   1      32.994  35.031  28.706  1.00  0.00     0.251 C 
ATOM      7  H   UNL A   1      31.634  34.828  27.252  1.00  0.00     0.163 HD
BRANCH   6   8
ATOM      8  C   UNL A   1      34.174  34.421  29.338  1.00  0.00     0.039 A 
ATOM      9  C   UNL A   1      35.446  34.614  28.790  1.00  0.00     0.014 A 
ATOM     10  C   UNL A   1      33.992  33.623  30.468  1.00  0.00     0.014 A 
ATOM     11  C   UNL A   1      36.525  33.909  29.304  1.00  0.00     0.010 A 
ATOM     12  C   UNL A   1      35.092  32.985  31.034  1.00  0.00     0.010 A 
ATOM     13  C   UNL A   1      36.360  33.106  30.442  1.00  0.00    -0.014 A 
BRANCH  13  14
ATOM     14  C   UNL A   1      37.534  32.444  31.054  1.00  0.00     0.031 A 
ATOM     15  C   UNL A   1      38.261  31.350  30.333  1.00  0.00     0.074 A 
ATOM     16  C   UNL A   1      37.921  32.831  32.284  1.00  0.00     0.049 A 
ATOM     17  N   UNL A   1      39.254  30.607  30.751  1.00  0.00    -0.248 NA
ATOM     18  C   UNL A   1      37.812  31.040  28.967  1.00  0.00     0.031 C 
ATOM     19  C   UNL A   1      37.285  33.890  33.069  1.00  0.00     0.029 A 
ATOM     20  N   UNL A   1      38.935  32.384  33.088  1.00  0.00    -0.354 N 
ATOM     21  C   UNL A   1      39.536  29.732  29.712  1.00  0.00     0.074 A 
ATOM     22  C   UNL A   1      38.591  30.013  28.653  1.00  0.00     0.031 C 
ATOM     23  C   UNL A   1      37.940  34.032  34.228  1.00  0.00     0.029 A 
ATOM     24  C   UNL A   1      38.995  33.027  34.298  1.00  0.00     0.049 A 
ATOM     25  H   UNL A   1      39.560  31.670  32.824  1.00  0.00     0.167 HD
ATOM     26  C   UNL A   1      40.503  28.786  29.654  1.00  0.00     0.037 A 
ATOM     27  C   UNL A   1      39.791  32.814  35.361  1.00  0.00     0.037 A 
ATOM     28  C   UNL A   1      41.443  28.530  30.715  1.00  0.00     0.049 A 
ATOM     29  C   UNL A   1      40.821  31.725  35.291  1.00  0.00     0.074 A 
ATOM     30  C   UNL A   1      42.482  27.615  30.741  1.00  0.00     0.029 A 
ATOM     31  N   UNL A   1      41.455  29.184  31.939  1.00  0.00    -0.354 N 
ATOM     32  N   UNL A   1      41.091  30.911  34.300  1.00  0.00    -0.248 NA
ATOM     33  C   UNL A   1      41.655  31.521  36.483  1.00  0.00     0.031 C 
ATOM     34  C   UNL A   1      43.081  27.673  32.002  1.00  0.00     0.029 A 
ATOM     35  C   UNL A   1      42.465  28.672  32.738  1.00  0.00     0.049 A 
ATOM     36  H   UNL A   1      40.837  29.905  32.201  1.00  0.00     0.167 HD
ATOM     37  C   UNL A   1      42.141  30.115  34.734  1.00  0.00     0.074 A 
ATOM     38  C   UNL A   1      42.461  30.547  36.080  1.00  0.00     0.031 C 
ATOM     39  C   UNL A   1      42.778  29.119  34.074  1.00  0.00     0.037 A 
BRANCH  26  40
ATOM     40  C   UNL A   1      40.591  27.942  28.414  1.00  0.00     0.064 A 
ATOM     41  C   UNL A   1      39.962  26.688  28.364  1.00  0.00     0.173 A 
ATOM     42  C   UNL A   1      41.348  28.338  27.301  1.00  0.00     0.173 A 
ATOM     43  F   UNL A   1      39.230  26.257  29.402  1.00  0.00    -0.203 F 
ATOM     44  C   UNL A   1      40.099  25.859  27.254  1.00  0.00     0.198 A 
ATOM     45  C   UNL A   1      41.457  27.520  26.180  1.00  0.00     0.198 A 
ATOM     46  F   UNL A   1      41.962  29.532  27.293  1.00  0.00    -0.203 F 
ATOM     47  F   UNL A   1      39.517  24.652  27.245  1.00  0.00    -0.200 F 
ATOM     48  C   UNL A   1      40.842  26.278  26.161  1.00  0.00     0.200 A 
ATOM     49  F   UNL A   1      42.153  27.937  25.113  1.00  0.00    -0.200 F 
ATOM     50  F   UNL A   1      40.961  25.485  25.088  1.00  0.00    -0.200 F 
ENDBRANCH  26  40
BRANCH  27  51
ATOM     51  C   UNL A   1      39.631  33.669  36.564  1.00  0.00     0.064 A 
ATOM     52  C   UNL A   1      38.806  33.279  37.631  1.00  0.00     0.173 A 
ATOM     53  C   UNL A   1      40.237  34.930  36.633  1.00  0.00     0.173 A 
ATOM     54  F   UNL A   1      38.195  32.086  37.607  1.00  0.00    -0.203 F 
ATOM     55  C   UNL A   1      38.568  34.133  38.704  1.00  0.00     0.198 A 
ATOM     56  C   UNL A   1      40.020  35.771  37.721  1.00  0.00     0.198 A 
ATOM     57  F   UNL A   1      41.044  35.339  35.643  1.00  0.00    -0.203 F 
ATOM     58  F   UNL A   1      37.734  33.758  39.684  1.00  0.00    -0.200 F 
ATOM     59  C   UNL A   1      39.176  35.378  38.750  1.00  0.00     0.200 A 
ATOM     60  F   UNL A   1      40.625  36.967  37.772  1.00  0.00    -0.200 F 
ATOM     61  F   UNL A   1      38.948  36.200  39.783  1.00  0.00    -0.200 F 
ENDBRANCH  27  51
BRANCH  39  62
ATOM     62  C   UNL A   1      43.919  28.437  34.770  1.00  0.00     0.064 A 
ATOM     63  C   UNL A   1      43.691  27.283  35.535  1.00  0.00     0.173 A 
ATOM     64  C   UNL A   1      45.212  28.981  34.767  1.00  0.00     0.173 A 
ATOM     65  F   UNL A   1      42.469  26.730  35.575  1.00  0.00    -0.203 F 
ATOM     66  C   UNL A   1      44.709  26.714  36.293  1.00  0.00     0.198 A 
ATOM     67  C   UNL A   1      46.235  28.390  35.505  1.00  0.00     0.198 A 
ATOM     68  F   UNL A   1      45.484  30.074  34.040  1.00  0.00    -0.203 F 
ATOM     69  F   UNL A   1      44.454  25.640  37.054  1.00  0.00    -0.200 F 
ATOM     70  C   UNL A   1      45.980  27.266  36.276  1.00  0.00     0.200 A 
ATOM     71  F   UNL A   1      47.470  28.910  35.469  1.00  0.00    -0.200 F 
ATOM     72  F   UNL A   1      46.959  26.718  37.008  1.00  0.00    -0.200 F 
ENDBRANCH  39  62
ENDBRANCH  13  14
ENDBRANCH   6   8
ENDBRANCH   3   4
ENDBRANCH   2   3
ENDBRANCH   1   2
BRANCH   1  73
ATOM     73  N   UNL A   1      31.987  30.132  27.173  1.00  0.00    -0.354 N 
ATOM     74  C   UNL A   1      32.628  28.925  27.159  1.00  0.00     0.244 C 
ATOM     75  H   UNL A   1      31.766  30.484  28.065  1.00  0.00     0.163 HD
ATOM     76  O   UNL A   1      32.311  28.136  28.055  1.00  0.00    -0.273 OA
BRANCH  74  77
ATOM     77  C   UNL A   1      33.881  28.686  26.300  1.00  0.00     0.197 C 
BRANCH  77  78
ATOM     78  N   UNL A   1      33.881  29.194  24.920  1.00  0.00    -0.340 N 
ATOM     79  C   UNL A   1      33.537  28.595  23.742  1.00  0.00     0.243 C 
ATOM     80  H   UNL A   1      34.181  30.127  24.830  1.00  0.00     0.164 HD
ATOM     81  O   UNL A   1      33.592  29.307  22.732  1.00  0.00    -0.273 OA
BRANCH  79  82
ATOM     82  C   UNL A   1      33.090  27.121  23.675  1.00  0.00     0.176 C 
BRANCH  82  83
ATOM     83  N   UNL A   1      33.127  26.724  22.245  1.00  0.00    -0.340 N 
ATOM     84  C   UNL A   1      32.968  25.511  21.631  1.00  0.00     0.251 C 
ATOM     85  H   UNL A   1      33.296  27.469  21.625  1.00  0.00     0.164 HD
ATOM     86  O   UNL A   1      33.122  25.410  20.418  1.00  0.00    -0.269 OA
BRANCH  84  87
ATOM     87  C   UNL A   1      32.628  24.307  22.410  1.00  0.00     0.040 A 
ATOM     88  C   UNL A   1      31.350  24.137  22.950  1.00  0.00     0.017 A 
ATOM     89  C   UNL A   1      33.577  23.283  22.514  1.00  0.00     0.017 A 
ATOM     90  C   UNL A   1      31.055  22.987  23.685  1.00  0.00     0.040 A 
ATOM     91  C   UNL A   1      33.270  22.124  23.228  1.00  0.00     0.040 A 
ATOM     92  C   UNL A   1      32.020  21.996  23.823  1.00  0.00     0.123 A 
ATOM     93  F   UNL A   1      31.727  20.890  24.519  1.00  0.00    -0.207 F 
ENDBRANCH  84  87
ENDBRANCH  82  83
BRANCH  82  94
ATOM     94  C   UNL A   1      34.023  26.183  24.491  1.00  0.00     0.072 C 
BRANCH  94  95
ATOM     95  C   UNL A   1      33.368  25.330  25.540  1.00  0.00    -0.020 A 
ATOM     96  C   UNL A   1      32.119  25.559  26.092  1.00  0.00     0.087 A 
ATOM     97  C   UNL A   1      33.870  24.137  26.159  1.00  0.00     0.003 A 
ATOM     98  N   UNL A   1      31.800  24.509  26.904  1.00  0.00    -0.361 N 
ATOM     99  C   UNL A   1      32.828  23.598  26.921  1.00  0.00     0.046 A 
ATOM    100  C   UNL A   1      35.078  23.413  26.078  1.00  0.00     0.010 A 
ATOM    101  H   UNL A   1      30.957  24.418  27.403  1.00  0.00     0.166 HD
ATOM    102  C   UNL A   1      32.894  22.328  27.510  1.00  0.00     0.026 A 
ATOM    103  C   UNL A   1      35.170  22.154  26.688  1.00  0.00     0.001 A 
ATOM    104  C   UNL A   1      34.082  21.609  27.365  1.00  0.00     0.002 A 
ENDBRANCH  94  95
ENDBRANCH  82  94
ENDBRANCH  79  82
ENDBRANCH  77  78
BRANCH  77 105
ATOM    105  C   UNL A   1      34.998  29.309  27.144  1.00  0.00     0.191 C 
BRANCH 105 106
ATOM    106  O   UNL A   1      34.452  29.788  28.368  1.00  0.00    -0.394 OA
ATOM    107  H   UNL A   1      33.906  29.095  28.770  1.00  0.00     0.210 HD
ENDBRANCH 105 106
ENDBRANCH  77 105
ENDBRANCH  74  77
ENDBRANCH   1  73
TORSDOF 18
ENDMDL
MODEL 2
REMARK VINA RESULT:     -13.1      0.995      1.848
REMARK SMILES O=C(NCCCNC(=O)[C@H](CO)NC(=O)[C@H](Cc1c[nH]c2ccccc12)NC(=O)c1ccc(F)cc1)c1ccc(-c2c3nc(c(-c4c(F)c(F)c(F)c(F)c4F)c4ccc([nH]4)c(-c4c(F)c(F)c(F)c(F)c4F)c4nc(c(-c5c(F)c(F)c(F)c(F)c5F)c5ccc2[nH]5)C=C4)C=C3)cc1
REMARK SMILES IDX 6 1 5 2 4 3 3 4 1 5 2 6 37 8 38 9 99 10 39 11 98 12 40 13
REMARK SMILES IDX 41 14 42 15 92 16 43 17 97 18 91 19 93 20 44 21 96 22 90 23
REMARK SMILES IDX 89 24 45 26 77 27 57 28 76 29 58 30 61 31 75 32 94 33 59 34
REMARK SMILES IDX 60 35 74 37 95 38 62 39 46 40 47 41 55 42 48 43 49 44 53 45
REMARK SMILES IDX 56 46 50 47 51 48 54 49 52 50 78 51 79 52 87 53 80 54 81 55
REMARK SMILES IDX 85 56 88 57 82 58 83 59 86 60 84 61 63 62 64 63 72 64 65 65
REMARK SMILES IDX 66 66 70 67 73 68 67 69 68 70 71 71 69 72 7 73 8 74 9 76
REMARK SMILES IDX 10 77 13 78 14 79 15 81 16 82 27 83 28 84 29 86 30 87 31 88
REMARK SMILES IDX 36 89 32 90 35 91 33 92 34 93 17 94 18 95 19 96 26 97 20 98
REMARK SMILES IDX 21 99 25 100 22 102 24 103 23 104 11 105 12 106
REMARK H PARENT 3 7 93 25 61 36 7 75 13 80 27 85 20 101 12 107
REMARK Flexibility Score: inf
ROOT
ATOM      1  C   UNL A   1      31.569  30.935  26.035  1.00  0.00     0.117 C 
ENDROOT
BRANCH   1   2
ATOM      2  C   UNL A   1      31.332  32.354  26.542  1.00  0.00     0.042 C 
BRANCH   2   3
ATOM      3  C   UNL A   1      32.536  32.920  27.294  1.00  0.00     0.118 C 
BRANCH   3   4
ATOM      4  N   UNL A   1      32.337  34.301  27.706  1.00  0.00    -0.352 N 
ATOM      5  O   UNL A   1      32.611  36.119  29.011  1.00  0.00    -0.269 OA
ATOM      6  C   UNL A   1      33.005  35.010  28.668  1.00  0.00     0.251 C 
ATOM      7  H   UNL A   1      31.628  34.790  27.232  1.00  0.00     0.163 HD
BRANCH   6   8
ATOM      8  C   UNL A   1      34.183  34.402  29.302  1.00  0.00     0.039 A 
ATOM      9  C   UNL A   1      35.460  34.620  28.774  1.00  0.00     0.014 A 
ATOM     10  C   UNL A   1      33.997  33.580  30.414  1.00  0.00     0.014 A 
ATOM     11  C   UNL A   1      36.541  33.918  29.287  1.00  0.00     0.010 A 
ATOM     12  C   UNL A   1      35.098  32.943  30.980  1.00  0.00     0.010 A 
ATOM     13  C   UNL A   1      36.371  33.090  30.407  1.00  0.00    -0.014 A 
BRANCH  13  14
ATOM     14  C   UNL A   1      37.546  32.430  31.021  1.00  0.00     0.031 A 
ATOM     15  C   UNL A   1      38.275  31.337  30.300  1.00  0.00     0.074 A 
ATOM     16  C   UNL A   1      37.930  32.816  32.251  1.00  0.00     0.049 A 
ATOM     17  N   UNL A   1      39.268  30.595  30.720  1.00  0.00    -0.248 NA
ATOM     18  C   UNL A   1      37.828  31.026  28.934  1.00  0.00     0.031 C 
ATOM     19  C   UNL A   1      37.291  33.875  33.036  1.00  0.00     0.029 A 
ATOM     20  N   UNL A   1      38.944  32.371  33.057  1.00  0.00    -0.354 N 
ATOM     21  C   UNL A   1      39.552  29.720  29.681  1.00  0.00     0.074 A 
ATOM     22  C   UNL A   1      38.609  30.001  28.621  1.00  0.00     0.031 C 
ATOM     23  C   UNL A   1      37.945  34.017  34.196  1.00  0.00     0.029 A 
ATOM     24  C   UNL A   1      39.001  33.013  34.267  1.00  0.00     0.049 A 
ATOM     25  H   UNL A   1      39.570  31.658  32.793  1.00  0.00     0.167 HD
ATOM     26  C   UNL A   1      40.521  28.776  29.624  1.00  0.00     0.037 A 
ATOM     27  C   UNL A   1      39.796  32.801  35.332  1.00  0.00     0.037 A 
ATOM     28  C   UNL A   1      41.460  28.521  30.686  1.00  0.00     0.049 A 
ATOM     29  C   UNL A   1      40.827  31.714  35.262  1.00  0.00     0.074 A 
ATOM     30  C   UNL A   1      42.500  27.608  30.713  1.00  0.00     0.029 A 
ATOM     31  N   UNL A   1      41.470  29.175  31.911  1.00  0.00    -0.354 N 
ATOM     32  N   UNL A   1      41.100  30.901  34.271  1.00  0.00    -0.248 NA
ATOM     33  C   UNL A   1      41.660  31.510  36.455  1.00  0.00     0.031 C 
ATOM     34  C   UNL A   1      43.098  27.666  31.975  1.00  0.00     0.029 A 
ATOM     35  C   UNL A   1      42.478  28.664  32.711  1.00  0.00     0.049 A 
ATOM     36  H   UNL A   1      40.850  29.895  32.172  1.00  0.00     0.167 HD
ATOM     37  C   UNL A   1      42.150  30.106  34.707  1.00  0.00     0.074 A 
ATOM     38  C   UNL A   1      42.468  30.538  36.053  1.00  0.00     0.031 C 
ATOM     39  C   UNL A   1      42.789  29.111  34.047  1.00  0.00     0.037 A 
BRANCH  26  40
ATOM     40  C   UNL A   1      40.612  27.932  28.383  1.00  0.00     0.064 A 
ATOM     41  C   UNL A   1      39.972  26.685  28.327  1.00  0.00     0.173 A 
ATOM     42  C   UNL A   1      41.382  28.323  27.278  1.00  0.00     0.173 A 
ATOM     43  F   UNL A   1      39.228  26.259  29.359  1.00  0.00    -0.203 F 
ATOM     44  C   UNL A   1      40.111  25.855  27.218  1.00  0.00     0.198 A 
ATOM     45  C   UNL A   1      41.493  27.505  26.157  1.00  0.00     0.198 A 
ATOM     46  F   UNL A   1      42.006  29.511  27.276  1.00  0.00    -0.203 F 
ATOM     47  F   UNL A   1      39.518  24.654  27.203  1.00  0.00    -0.200 F 
ATOM     48  C   UNL A   1      40.867  26.268  26.131  1.00  0.00     0.200 A 
ATOM     49  F   UNL A   1      42.202  27.917  25.096  1.00  0.00    -0.200 F 
ATOM     50  F   UNL A   1      40.988  25.475  25.058  1.00  0.00    -0.200 F 
ENDBRANCH  26  40
BRANCH  27  51
ATOM     51  C   UNL A   1      39.633  33.656  36.535  1.00  0.00     0.064 A 
ATOM     52  C   UNL A   1      38.809  33.264  37.600  1.00  0.00     0.173 A 
ATOM     53  C   UNL A   1      40.235  34.918  36.604  1.00  0.00     0.173 A 
ATOM     54  F   UNL A   1      38.200  32.069  37.576  1.00  0.00    -0.203 F 
ATOM     55  C   UNL A   1      38.567  34.117  38.674  1.00  0.00     0.198 A 
ATOM     56  C   UNL A   1      40.016  35.759  37.692  1.00  0.00     0.198 A 
ATOM     57  F   UNL A   1      41.042  35.330  35.614  1.00  0.00    -0.203 F 
ATOM     58  F   UNL A   1      37.734  33.739  39.653  1.00  0.00    -0.200 F 
ATOM     59  C   UNL A   1      39.172  35.363  38.720  1.00  0.00     0.200 A 
ATOM     60  F   UNL A   1      40.617  36.956  37.743  1.00  0.00    -0.200 F 
ATOM     61  F   UNL A   1      38.941  36.184  39.753  1.00  0.00    -0.200 F 
ENDBRANCH  27  51
BRANCH  39  62
ATOM     62  C   UNL A   1      43.931  28.431  34.745  1.00  0.00     0.064 A 
ATOM     63  C   UNL A   1      45.238  28.919  34.600  1.00  0.00     0.173 A 
ATOM     64  C   UNL A   1      43.747  27.243  35.467  1.00  0.00     0.173 A 
ATOM     65  F   UNL A   1      45.465  30.049  33.913  1.00  0.00    -0.203 F 
ATOM     66  C   UNL A   1      46.324  28.228  35.128  1.00  0.00     0.198 A 
ATOM     67  C   UNL A   1      44.835  26.570  36.019  1.00  0.00     0.198 A 
ATOM     68  F   UNL A   1      42.516  26.744  35.646  1.00  0.00    -0.203 F 
ATOM     69  F   UNL A   1      47.568  28.689  34.934  1.00  0.00    -0.200 F 
ATOM     70  C   UNL A   1      46.121  27.056  35.839  1.00  0.00     0.200 A 
ATOM     71  F   UNL A   1      44.636  25.449  36.726  1.00  0.00    -0.200 F 
ATOM     72  F   UNL A   1      47.167  26.389  36.347  1.00  0.00    -0.200 F 
ENDBRANCH  39  62
ENDBRANCH  13  14
ENDBRANCH   6   8
ENDBRANCH   3   4
ENDBRANCH   2   3
ENDBRANCH   1   2
BRANCH   1  73
ATOM     73  N   UNL A   1      31.978  30.073  27.123  1.00  0.00    -0.354 N 
ATOM     74  C   UNL A   1      32.720  28.926  27.076  1.00  0.00     0.244 C 
ATOM     75  H   UNL A   1      31.682  30.351  28.019  1.00  0.00     0.163 HD
ATOM     76  O   UNL A   1      32.425  28.061  27.906  1.00  0.00    -0.273 OA
BRANCH  74  77
ATOM     77  C   UNL A   1      34.030  28.844  26.276  1.00  0.00     0.197 C 
BRANCH  77  78
ATOM     78  N   UNL A   1      33.994  29.195  24.849  1.00  0.00    -0.340 N 
ATOM     79  C   UNL A   1      33.601  28.475  23.757  1.00  0.00     0.243 C 
ATOM     80  H   UNL A   1      34.306  30.106  24.645  1.00  0.00     0.164 HD
ATOM     81  O   UNL A   1      33.634  29.069  22.672  1.00  0.00    -0.273 OA
BRANCH  79  82
ATOM     82  C   UNL A   1      33.127  27.012  23.870  1.00  0.00     0.176 C 
BRANCH  82  83
ATOM     83  N   UNL A   1      31.644  27.033  23.806  1.00  0.00    -0.340 N 
ATOM     84  C   UNL A   1      30.697  26.180  24.306  1.00  0.00     0.251 C 
ATOM     85  H   UNL A   1      31.274  27.801  23.315  1.00  0.00     0.164 HD
ATOM     86  O   UNL A   1      29.510  26.362  24.056  1.00  0.00    -0.269 OA
BRANCH  84  87
ATOM     87  C   UNL A   1      31.083  25.024  25.136  1.00  0.00     0.040 A 
ATOM     88  C   UNL A   1      30.797  23.718  24.728  1.00  0.00     0.017 A 
ATOM     89  C   UNL A   1      31.838  25.250  26.293  1.00  0.00     0.017 A 
ATOM     90  C   UNL A   1      31.173  22.642  25.533  1.00  0.00     0.040 A 
ATOM     91  C   UNL A   1      32.234  24.170  27.083  1.00  0.00     0.040 A 
ATOM     92  C   UNL A   1      31.881  22.878  26.706  1.00  0.00     0.123 A 
ATOM     93  F   UNL A   1      32.250  21.841  27.469  1.00  0.00    -0.207 F 
ENDBRANCH  84  87
ENDBRANCH  82  83
BRANCH  82  94
ATOM     94  C   UNL A   1      33.676  26.123  22.719  1.00  0.00     0.072 C 
BRANCH  94  95
ATOM     95  C   UNL A   1      33.796  24.653  23.004  1.00  0.00    -0.020 A 
ATOM     96  C   UNL A   1      33.222  23.643  22.252  1.00  0.00     0.087 A 
ATOM     97  C   UNL A   1      34.512  24.008  24.067  1.00  0.00     0.003 A 
ATOM     98  N   UNL A   1      33.658  22.440  22.728  1.00  0.00    -0.361 N 
ATOM     99  C   UNL A   1      34.492  22.634  23.804  1.00  0.00     0.046 A 
ATOM    100  C   UNL A   1      35.252  24.460  25.179  1.00  0.00     0.010 A 
ATOM    101  H   UNL A   1      33.412  21.562  22.357  1.00  0.00     0.166 HD
ATOM    102  C   UNL A   1      35.258  21.709  24.525  1.00  0.00     0.026 A 
ATOM    103  C   UNL A   1      36.000  23.543  25.930  1.00  0.00     0.001 A 
ATOM    104  C   UNL A   1      36.027  22.194  25.586  1.00  0.00     0.002 A 
ENDBRANCH  94  95
ENDBRANCH  82  94
ENDBRANCH  79  82
ENDBRANCH  77  78
BRANCH  77 105
ATOM    105  C   UNL A   1      34.972  29.756  27.071  1.00  0.00     0.191 C 
BRANCH 105 106
ATOM    106  O   UNL A   1      34.515  29.848  28.415  1.00  0.00    -0.394 OA
ATOM    107  H   UNL A   1      33.558  29.698  28.442  1.00  0.00     0.210 HD
ENDBRANCH 105 106
ENDBRANCH  77 105
ENDBRANCH  74  77
ENDBRANCH   1  73
TORSDOF 18
ENDMDL
MODEL 3
REMARK VINA RESULT:     -13.1      5.382     10.395
REMARK SMILES O=C(NCCCNC(=O)[C@H](CO)NC(=O)[C@H](Cc1c[nH]c2ccccc12)NC(=O)c1ccc(F)cc1)c1ccc(-c2c3nc(c(-c4c(F)c(F)c(F)c(F)c4F)c4ccc([nH]4)c(-c4c(F)c(F)c(F)c(F)c4F)c4nc(c(-c5c(F)c(F)c(F)c(F)c5F)c5ccc2[nH]5)C=C4)C=C3)cc1
REMARK SMILES IDX 6 1 5 2 4 3 3 4 1 5 2 6 37 8 38 9 99 10 39 11 98 12 40 13
REMARK SMILES IDX 41 14 42 15 92 16 43 17 97 18 91 19 93 20 44 21 96 22 90 23
REMARK SMILES IDX 89 24 45 26 77 27 57 28 76 29 58 30 61 31 75 32 94 33 59 34
REMARK SMILES IDX 60 35 74 37 95 38 62 39 46 40 47 41 55 42 48 43 49 44 53 45
REMARK SMILES IDX 56 46 50 47 51 48 54 49 52 50 78 51 79 52 87 53 80 54 81 55
REMARK SMILES IDX 85 56 88 57 82 58 83 59 86 60 84 61 63 62 64 63 72 64 65 65
REMARK SMILES IDX 66 66 70 67 73 68 67 69 68 70 71 71 69 72 7 73 8 74 9 76
REMARK SMILES IDX 10 77 13 78 14 79 15 81 16 82 27 83 28 84 29 86 30 87 31 88
REMARK SMILES IDX 36 89 32 90 35 91 33 92 34 93 17 94 18 95 19 96 26 97 20 98
REMARK SMILES IDX 21 99 25 100 22 102 24 103 23 104 11 105 12 106
REMARK H PARENT 3 7 93 25 61 36 7 75 13 80 27 85 20 101 12 107
REMARK Flexibility Score: inf
ROOT
ATOM      1  C   UNL A   1      37.142  20.180  25.011  1.00  0.00     0.117 C 
ENDROOT
BRANCH   1   2
ATOM      2  C   UNL A   1      38.320  19.212  25.079  1.00  0.00     0.042 C 
BRANCH   2   3
ATOM      3  C   UNL A   1      39.496  19.769  25.880  1.00  0.00     0.118 C 
BRANCH   3   4
ATOM      4  N   UNL A   1      40.645  18.877  25.876  1.00  0.00    -0.352 N 
ATOM      5  O   UNL A   1      42.835  18.341  25.843  1.00  0.00    -0.269 OA
ATOM      6  C   UNL A   1      41.969  19.187  26.033  1.00  0.00     0.251 C 
ATOM      7  H   UNL A   1      40.444  17.923  25.742  1.00  0.00     0.163 HD
BRANCH   6   8
ATOM      8  C   UNL A   1      42.331  20.564  26.401  1.00  0.00     0.039 A 
ATOM      9  C   UNL A   1      42.765  21.465  25.423  1.00  0.00     0.014 A 
ATOM     10  C   UNL A   1      42.265  20.939  27.743  1.00  0.00     0.014 A 
ATOM     11  C   UNL A   1      43.250  22.707  25.806  1.00  0.00     0.010 A 
ATOM     12  C   UNL A   1      42.671  22.217  28.114  1.00  0.00     0.010 A 
ATOM     13  C   UNL A   1      43.187  23.101  27.151  1.00  0.00    -0.014 A 
BRANCH  13  14
ATOM     14  C   UNL A   1      43.600  24.468  27.540  1.00  0.00     0.031 A 
ATOM     15  C   UNL A   1      42.579  25.506  27.895  1.00  0.00     0.074 A 
ATOM     16  C   UNL A   1      44.912  24.765  27.544  1.00  0.00     0.049 A 
ATOM     17  N   UNL A   1      42.757  26.772  28.178  1.00  0.00    -0.248 NA
ATOM     18  C   UNL A   1      41.174  25.074  27.929  1.00  0.00     0.031 C 
ATOM     19  C   UNL A   1      45.987  23.825  27.220  1.00  0.00     0.029 A 
ATOM     20  N   UNL A   1      45.567  25.934  27.830  1.00  0.00    -0.354 N 
ATOM     21  C   UNL A   1      41.490  27.290  28.404  1.00  0.00     0.074 A 
ATOM     22  C   UNL A   1      40.548  26.212  28.197  1.00  0.00     0.031 C 
ATOM     23  C   UNL A   1      47.167  24.444  27.353  1.00  0.00     0.029 A 
ATOM     24  C   UNL A   1      46.930  25.841  27.701  1.00  0.00     0.049 A 
ATOM     25  H   UNL A   1      45.105  26.760  28.101  1.00  0.00     0.167 HD
ATOM     26  C   UNL A   1      41.154  28.553  28.759  1.00  0.00     0.037 A 
ATOM     27  C   UNL A   1      47.884  26.782  27.819  1.00  0.00     0.037 A 
ATOM     28  C   UNL A   1      42.109  29.610  28.974  1.00  0.00     0.049 A 
ATOM     29  C   UNL A   1      47.481  28.185  28.163  1.00  0.00     0.074 A 
ATOM     30  C   UNL A   1      41.873  30.916  29.367  1.00  0.00     0.029 A 
ATOM     31  N   UNL A   1      43.482  29.485  28.806  1.00  0.00    -0.354 N 
ATOM     32  N   UNL A   1      46.283  28.665  28.390  1.00  0.00    -0.248 NA
ATOM     33  C   UNL A   1      48.557  29.180  28.265  1.00  0.00     0.031 C 
ATOM     34  C   UNL A   1      43.094  31.596  29.377  1.00  0.00     0.029 A 
ATOM     35  C   UNL A   1      44.101  30.698  29.059  1.00  0.00     0.049 A 
ATOM     36  H   UNL A   1      43.947  28.656  28.545  1.00  0.00     0.167 HD
ATOM     37  C   UNL A   1      46.458  30.009  28.687  1.00  0.00     0.074 A 
ATOM     38  C   UNL A   1      47.883  30.267  28.614  1.00  0.00     0.031 C 
ATOM     39  C   UNL A   1      45.523  30.938  28.992  1.00  0.00     0.037 A 
BRANCH  26  40
ATOM     40  C   UNL A   1      39.696  28.875  28.925  1.00  0.00     0.064 A 
ATOM     41  C   UNL A   1      39.072  28.711  30.172  1.00  0.00     0.173 A 
ATOM     42  C   UNL A   1      38.900  29.282  27.844  1.00  0.00     0.173 A 
ATOM     43  F   UNL A   1      39.784  28.318  31.239  1.00  0.00    -0.203 F 
ATOM     44  C   UNL A   1      37.706  28.929  30.325  1.00  0.00     0.198 A 
ATOM     45  C   UNL A   1      37.540  29.530  28.008  1.00  0.00     0.198 A 
ATOM     46  F   UNL A   1      39.449  29.465  26.633  1.00  0.00    -0.203 F 
ATOM     47  F   UNL A   1      37.127  28.732  31.518  1.00  0.00    -0.200 F 
ATOM     48  C   UNL A   1      36.942  29.344  29.245  1.00  0.00     0.200 A 
ATOM     49  F   UNL A   1      36.808  29.956  26.970  1.00  0.00    -0.200 F 
ATOM     50  F   UNL A   1      35.630  29.567  29.398  1.00  0.00    -0.200 F 
ENDBRANCH  26  40
BRANCH  27  51
ATOM     51  C   UNL A   1      49.304  26.398  27.616  1.00  0.00     0.064 A 
ATOM     52  C   UNL A   1      50.178  26.242  28.702  1.00  0.00     0.173 A 
ATOM     53  C   UNL A   1      49.831  26.260  26.326  1.00  0.00     0.173 A 
ATOM     54  F   UNL A   1      49.723  26.376  29.956  1.00  0.00    -0.203 F 
ATOM     55  C   UNL A   1      51.534  25.996  28.503  1.00  0.00     0.198 A 
ATOM     56  C   UNL A   1      51.182  25.985  26.130  1.00  0.00     0.198 A 
ATOM     57  F   UNL A   1      49.030  26.387  25.258  1.00  0.00    -0.203 F 
ATOM     58  F   UNL A   1      52.358  25.904  29.556  1.00  0.00    -0.200 F 
ATOM     59  C   UNL A   1      52.035  25.866  27.217  1.00  0.00     0.200 A 
ATOM     60  F   UNL A   1      51.660  25.841  24.885  1.00  0.00    -0.200 F 
ATOM     61  F   UNL A   1      53.339  25.628  27.026  1.00  0.00    -0.200 F 
ENDBRANCH  27  51
BRANCH  39  62
ATOM     62  C   UNL A   1      45.994  32.326  29.313  1.00  0.00     0.064 A 
ATOM     63  C   UNL A   1      46.262  32.692  30.641  1.00  0.00     0.173 A 
ATOM     64  C   UNL A   1      46.081  33.319  28.326  1.00  0.00     0.173 A 
ATOM     65  F   UNL A   1      46.185  31.779  31.621  1.00  0.00    -0.203 F 
ATOM     66  C   UNL A   1      46.571  34.007  30.973  1.00  0.00     0.198 A 
ATOM     67  C   UNL A   1      46.421  34.628  28.660  1.00  0.00     0.198 A 
ATOM     68  F   UNL A   1      45.850  33.016  27.040  1.00  0.00    -0.203 F 
ATOM     69  F   UNL A   1      46.774  34.341  32.255  1.00  0.00    -0.200 F 
ATOM     70  C   UNL A   1      46.652  34.973  29.983  1.00  0.00     0.200 A 
ATOM     71  F   UNL A   1      46.522  35.556  27.699  1.00  0.00    -0.200 F 
ATOM     72  F   UNL A   1      46.949  36.239  30.304  1.00  0.00    -0.200 F 
ENDBRANCH  39  62
ENDBRANCH  13  14
ENDBRANCH   6   8
ENDBRANCH   3   4
ENDBRANCH   2   3
ENDBRANCH   1   2
BRANCH   1  73
ATOM     73  N   UNL A   1      37.516  21.378  24.289  1.00  0.00    -0.354 N 
ATOM     74  C   UNL A   1      36.923  22.608  24.304  1.00  0.00     0.244 C 
ATOM     75  H   UNL A   1      38.306  21.294  23.708  1.00  0.00     0.163 HD
ATOM     76  O   UNL A   1      36.955  23.234  23.240  1.00  0.00    -0.273 OA
BRANCH  74  77
ATOM     77  C   UNL A   1      36.538  23.303  25.621  1.00  0.00     0.197 C 
BRANCH  77  78
ATOM     78  N   UNL A   1      35.838  22.510  26.642  1.00  0.00    -0.340 N 
ATOM     79  C   UNL A   1      34.509  22.395  26.935  1.00  0.00     0.243 C 
ATOM     80  H   UNL A   1      36.429  21.969  27.214  1.00  0.00     0.164 HD
ATOM     81  O   UNL A   1      34.216  21.594  27.832  1.00  0.00    -0.273 OA
BRANCH  79  82
ATOM     82  C   UNL A   1      33.433  23.202  26.182  1.00  0.00     0.176 C 
BRANCH  82  83
ATOM     83  N   UNL A   1      32.147  22.969  26.886  1.00  0.00    -0.340 N 
ATOM     84  C   UNL A   1      30.901  23.508  26.711  1.00  0.00     0.251 C 
ATOM     85  H   UNL A   1      32.201  22.306  27.611  1.00  0.00     0.164 HD
ATOM     86  O   UNL A   1      29.990  23.215  27.479  1.00  0.00    -0.269 OA
BRANCH  84  87
ATOM     87  C   UNL A   1      30.633  24.457  25.615  1.00  0.00     0.040 A 
ATOM     88  C   UNL A   1      30.581  24.025  24.287  1.00  0.00     0.017 A 
ATOM     89  C   UNL A   1      30.326  25.784  25.936  1.00  0.00     0.017 A 
ATOM     90  C   UNL A   1      30.327  24.945  23.268  1.00  0.00     0.040 A 
ATOM     91  C   UNL A   1      30.048  26.696  24.917  1.00  0.00     0.040 A 
ATOM     92  C   UNL A   1      30.071  26.272  23.592  1.00  0.00     0.123 A 
ATOM     93  F   UNL A   1      29.816  27.148  22.611  1.00  0.00    -0.207 F 
ENDBRANCH  84  87
ENDBRANCH  82  83
BRANCH  82  94
ATOM     94  C   UNL A   1      33.740  24.727  26.167  1.00  0.00     0.072 C 
BRANCH  94  95
ATOM     95  C   UNL A   1      33.793  25.389  24.820  1.00  0.00    -0.020 A 
ATOM     96  C   UNL A   1      33.957  24.733  23.613  1.00  0.00     0.087 A 
ATOM     97  C   UNL A   1      33.678  26.785  24.509  1.00  0.00     0.003 A 
ATOM     98  N   UNL A   1      33.819  25.638  22.600  1.00  0.00    -0.361 N 
ATOM     99  C   UNL A   1      33.593  26.891  23.117  1.00  0.00     0.046 A 
ATOM    100  C   UNL A   1      33.548  27.962  25.275  1.00  0.00     0.010 A 
ATOM    101  H   UNL A   1      33.874  25.425  21.641  1.00  0.00     0.166 HD
ATOM    102  C   UNL A   1      33.276  28.089  22.463  1.00  0.00     0.026 A 
ATOM    103  C   UNL A   1      33.261  29.175  24.633  1.00  0.00     0.001 A 
ATOM    104  C   UNL A   1      33.096  29.228  23.251  1.00  0.00     0.002 A 
ENDBRANCH  94  95
ENDBRANCH  82  94
ENDBRANCH  79  82
ENDBRANCH  77  78
BRANCH  77 105
ATOM    105  C   UNL A   1      37.880  23.842  26.128  1.00  0.00     0.191 C 
BRANCH 105 106
ATOM    106  O   UNL A   1      38.563  22.814  26.836  1.00  0.00    -0.394 OA
ATOM    107  H   UNL A   1      39.439  22.679  26.442  1.00  0.00     0.210 HD
ENDBRANCH 105 106
ENDBRANCH  77 105
ENDBRANCH  74  77
ENDBRANCH   1  73
TORSDOF 18
ENDMDL
