MODEL 1
REMARK VINA RESULT:     -11.9      0.000      0.000
REMARK SMILES CC[C@@H]1SC[C@@H](C(=O)NCCCNC(=O)c2ccc(-c3c4nc(c(-c5c(F)c(F)c(F)c(F)c5F)c5ccc([nH]5)c(-c5c(F)c(F)c(F)c(F)c5F)c5nc(c(-c6c(F)c(F)c(F)c(F)c6F)c6ccc3[nH]6)C=C5)C=C4)cc2)N1C(=O)c1nc(C(C)(C)C)n[nH]1
REMARK SMILES IDX 10 1 9 2 7 3 8 4 6 6 3 7 4 8 79 9 5 10 2 11 1 12 80 13 81 14
REMARK SMILES IDX 82 15 83 16 90 17 84 18 89 19 85 21 86 22 87 23 88 24 11 25
REMARK SMILES IDX 12 26 13 27 14 28 15 30 16 31 17 32 78 33 18 34 77 35 19 36
REMARK SMILES IDX 20 37 21 38 71 39 22 40 76 41 70 42 72 43 23 44 75 45 69 46
REMARK SMILES IDX 68 47 24 49 56 50 36 51 55 52 37 53 40 54 54 55 73 56 38 57
REMARK SMILES IDX 39 58 53 60 74 61 41 62 25 63 26 64 34 65 27 66 28 67 32 68
REMARK SMILES IDX 35 69 29 70 30 71 33 72 31 73 57 74 58 75 66 76 59 77 60 78
REMARK SMILES IDX 64 79 67 80 61 81 62 82 65 83 63 84 42 85 43 86 51 87 44 88
REMARK SMILES IDX 45 89 49 90 52 91 46 92 47 93 50 94 48 95
REMARK H PARENT 9 5 90 20 13 29 72 48 40 59
REMARK Flexibility Score: inf
ROOT
ATOM      1  C   UNL A   1      31.474  30.788  26.243  1.00  0.00     0.117 C 
ENDROOT
BRANCH   1   2
ATOM      2  N   UNL A   1      32.739  30.209  26.646  1.00  0.00    -0.354 N 
ATOM      3  C   UNL A   1      33.338  29.029  26.332  1.00  0.00     0.243 C 
ATOM      4  O   UNL A   1      34.538  28.948  26.620  1.00  0.00    -0.273 OA
ATOM      5  H   UNL A   1      33.261  30.774  27.261  1.00  0.00     0.163 HD
BRANCH   3   6
ATOM      6  C   UNL A   1      32.638  27.861  25.588  1.00  0.00     0.186 C 
ATOM      7  C   UNL A   1      33.899  26.179  24.267  1.00  0.00     0.144 C 
ATOM      8  S   UNL A   1      33.325  25.267  25.752  1.00  0.00    -0.134 SA
ATOM      9  N   UNL A   1      33.240  27.481  24.299  1.00  0.00    -0.311 N 
ATOM     10  C   UNL A   1      32.416  26.652  26.479  1.00  0.00     0.107 C 
BRANCH   7  11
ATOM     11  C   UNL A   1      33.704  25.264  23.046  1.00  0.00     0.033 C 
ATOM     12  C   UNL A   1      32.361  24.555  22.943  1.00  0.00     0.007 C 
ENDBRANCH   7  11
BRANCH   9  13
ATOM     13  C   UNL A   1      33.081  28.393  23.254  1.00  0.00     0.292 C 
ATOM     14  O   UNL A   1      34.056  29.017  22.826  1.00  0.00    -0.265 OA
BRANCH  13  15
ATOM     15  C   UNL A   1      31.777  28.701  22.734  1.00  0.00     0.214 A 
ATOM     16  N   UNL A   1      31.107  29.836  22.830  1.00  0.00    -0.207 NA
ATOM     17  N   UNL A   1      30.957  27.742  22.219  1.00  0.00    -0.255 N 
ATOM     18  C   UNL A   1      29.838  29.481  22.403  1.00  0.00     0.156 A 
ATOM     19  N   UNL A   1      29.744  28.227  21.938  1.00  0.00    -0.158 NA
ATOM     20  H   UNL A   1      31.226  26.807  22.071  1.00  0.00     0.192 HD
BRANCH  18  21
ATOM     21  C   UNL A   1      28.609  30.345  22.573  1.00  0.00     0.024 C 
ATOM     22  C   UNL A   1      28.262  31.006  21.219  1.00  0.00     0.019 C 
ATOM     23  C   UNL A   1      27.392  29.519  23.026  1.00  0.00     0.019 C 
ATOM     24  C   UNL A   1      28.860  31.455  23.612  1.00  0.00     0.019 C 
ENDBRANCH  18  21
ENDBRANCH  13  15
ENDBRANCH   9  13
ENDBRANCH   3   6
ENDBRANCH   1   2
BRANCH   1  25
ATOM     25  C   UNL A   1      31.376  32.276  26.543  1.00  0.00     0.042 C 
BRANCH  25  26
ATOM     26  C   UNL A   1      32.670  32.877  27.081  1.00  0.00     0.118 C 
BRANCH  26  27
ATOM     27  N   UNL A   1      32.472  34.211  27.633  1.00  0.00    -0.352 N 
ATOM     28  C   UNL A   1      33.051  34.830  28.714  1.00  0.00     0.251 C 
ATOM     29  H   UNL A   1      31.814  34.761  27.150  1.00  0.00     0.163 HD
ATOM     30  O   UNL A   1      32.592  35.894  29.112  1.00  0.00    -0.269 OA
BRANCH  28  31
ATOM     31  C   UNL A   1      34.213  34.233  29.410  1.00  0.00     0.039 A 
ATOM     32  C   UNL A   1      35.499  34.554  28.961  1.00  0.00     0.014 A 
ATOM     33  C   UNL A   1      34.050  33.312  30.448  1.00  0.00     0.014 A 
ATOM     34  C   UNL A   1      36.618  33.997  29.587  1.00  0.00     0.010 A 
ATOM     35  C   UNL A   1      35.166  32.808  31.115  1.00  0.00     0.010 A 
ATOM     36  C   UNL A   1      36.459  33.139  30.685  1.00  0.00    -0.014 A 
BRANCH  36  37
ATOM     37  C   UNL A   1      37.629  32.550  31.382  1.00  0.00     0.031 A 
ATOM     38  C   UNL A   1      38.395  31.426  30.742  1.00  0.00     0.074 A 
ATOM     39  C   UNL A   1      37.959  32.976  32.615  1.00  0.00     0.049 A 
ATOM     40  N   UNL A   1      39.366  30.699  31.234  1.00  0.00    -0.248 NA
ATOM     41  C   UNL A   1      38.000  31.056  29.374  1.00  0.00     0.031 C 
ATOM     42  C   UNL A   1      37.275  34.037  33.356  1.00  0.00     0.029 A 
ATOM     43  N   UNL A   1      38.948  32.558  33.469  1.00  0.00    -0.354 N 
ATOM     44  C   UNL A   1      39.675  29.769  30.250  1.00  0.00     0.074 A 
ATOM     45  C   UNL A   1      38.772  30.004  29.144  1.00  0.00     0.031 C 
ATOM     46  C   UNL A   1      37.874  34.197  34.547  1.00  0.00     0.029 A 
ATOM     47  C   UNL A   1      38.961  33.229  34.667  1.00  0.00     0.049 A 
ATOM     48  H   UNL A   1      39.588  31.844  33.244  1.00  0.00     0.167 HD
ATOM     49  C   UNL A   1      40.637  28.815  30.263  1.00  0.00     0.037 A 
ATOM     50  C   UNL A   1      39.757  33.074  35.740  1.00  0.00     0.037 A 
ATOM     51  C   UNL A   1      41.562  28.607  31.344  1.00  0.00     0.049 A 
ATOM     52  C   UNL A   1      40.835  32.026  35.718  1.00  0.00     0.074 A 
ATOM     53  C   UNL A   1      42.599  27.695  31.432  1.00  0.00     0.029 A 
ATOM     54  N   UNL A   1      41.569  29.337  32.523  1.00  0.00    -0.354 N 
ATOM     55  N   UNL A   1      41.135  31.171  34.772  1.00  0.00    -0.248 NA
ATOM     56  C   UNL A   1      41.685  31.924  36.912  1.00  0.00     0.031 C 
ATOM     57  C   UNL A   1      43.223  27.860  32.673  1.00  0.00     0.029 A 
ATOM     58  C   UNL A   1      42.591  28.893  33.347  1.00  0.00     0.049 A 
ATOM     59  H   UNL A   1      40.940  30.062  32.743  1.00  0.00     0.167 HD
ATOM     60  C   UNL A   1      42.220  30.446  35.244  1.00  0.00     0.074 A 
ATOM     61  C   UNL A   1      42.532  30.967  36.558  1.00  0.00     0.031 C 
ATOM     62  C   UNL A   1      42.894  29.437  34.643  1.00  0.00     0.037 A 
BRANCH  49  63
ATOM     63  C   UNL A   1      40.739  27.924  29.062  1.00  0.00     0.064 A 
ATOM     64  C   UNL A   1      41.653  28.188  28.032  1.00  0.00     0.173 A 
ATOM     65  C   UNL A   1      39.939  26.777  28.956  1.00  0.00     0.173 A 
ATOM     66  F   UNL A   1      42.429  29.282  28.083  1.00  0.00    -0.203 F 
ATOM     67  C   UNL A   1      41.748  27.347  26.926  1.00  0.00     0.198 A 
ATOM     68  C   UNL A   1      40.052  25.927  27.858  1.00  0.00     0.198 A 
ATOM     69  F   UNL A   1      39.052  26.479  29.917  1.00  0.00    -0.203 F 
ATOM     70  F   UNL A   1      42.600  27.641  25.935  1.00  0.00    -0.200 F 
ATOM     71  C   UNL A   1      40.951  26.215  26.844  1.00  0.00     0.200 A 
ATOM     72  F   UNL A   1      39.288  24.828  27.783  1.00  0.00    -0.200 F 
ATOM     73  F   UNL A   1      41.046  25.404  25.780  1.00  0.00    -0.200 F 
ENDBRANCH  49  63
BRANCH  50  74
ATOM     74  C   UNL A   1      39.582  33.956  36.922  1.00  0.00     0.064 A 
ATOM     75  C   UNL A   1      38.807  33.541  38.013  1.00  0.00     0.173 A 
ATOM     76  C   UNL A   1      40.183  35.220  36.986  1.00  0.00     0.173 A 
ATOM     77  F   UNL A   1      38.197  32.347  37.984  1.00  0.00    -0.203 F 
ATOM     78  C   UNL A   1      38.627  34.365  39.121  1.00  0.00     0.198 A 
ATOM     79  C   UNL A   1      40.020  36.035  38.104  1.00  0.00     0.198 A 
ATOM     80  F   UNL A   1      40.938  35.658  35.967  1.00  0.00    -0.203 F 
ATOM     81  F   UNL A   1      37.852  33.959  40.136  1.00  0.00    -0.200 F 
ATOM     82  C   UNL A   1      39.237  35.610  39.167  1.00  0.00     0.200 A 
ATOM     83  F   UNL A   1      40.618  37.233  38.149  1.00  0.00    -0.200 F 
ATOM     84  F   UNL A   1      39.065  36.403  40.234  1.00  0.00    -0.200 F 
ENDBRANCH  50  74
BRANCH  62  85
ATOM     85  C   UNL A   1      44.056  28.855  35.388  1.00  0.00     0.064 A 
ATOM     86  C   UNL A   1      43.892  27.784  36.277  1.00  0.00     0.173 A 
ATOM     87  C   UNL A   1      45.351  29.348  35.177  1.00  0.00     0.173 A 
ATOM     88  F   UNL A   1      42.668  27.291  36.520  1.00  0.00    -0.203 F 
ATOM     89  C   UNL A   1      44.983  27.238  36.945  1.00  0.00     0.198 A 
ATOM     90  C   UNL A   1      46.444  28.787  35.833  1.00  0.00     0.198 A 
ATOM     91  F   UNL A   1      45.557  30.370  34.334  1.00  0.00    -0.203 F 
ATOM     92  F   UNL A   1      44.801  26.237  37.817  1.00  0.00    -0.200 F 
ATOM     93  C   UNL A   1      46.258  27.735  36.718  1.00  0.00     0.200 A 
ATOM     94  F   UNL A   1      47.675  29.265  35.609  1.00  0.00    -0.200 F 
ATOM     95  F   UNL A   1      47.309  27.206  37.360  1.00  0.00    -0.200 F 
ENDBRANCH  62  85
ENDBRANCH  36  37
ENDBRANCH  28  31
ENDBRANCH  26  27
ENDBRANCH  25  26
ENDBRANCH   1  25
TORSDOF 14
ENDMDL
MODEL 2
REMARK VINA RESULT:     -11.9      0.952      2.280
REMARK SMILES CC[C@@H]1SC[C@@H](C(=O)NCCCNC(=O)c2ccc(-c3c4nc(c(-c5c(F)c(F)c(F)c(F)c5F)c5ccc([nH]5)c(-c5c(F)c(F)c(F)c(F)c5F)c5nc(c(-c6c(F)c(F)c(F)c(F)c6F)c6ccc3[nH]6)C=C5)C=C4)cc2)N1C(=O)c1nc(C(C)(C)C)n[nH]1
REMARK SMILES IDX 10 1 9 2 7 3 8 4 6 6 3 7 4 8 79 9 5 10 2 11 1 12 80 13 81 14
REMARK SMILES IDX 82 15 83 16 90 17 84 18 89 19 85 21 86 22 87 23 88 24 11 25
REMARK SMILES IDX 12 26 13 27 14 28 15 30 16 31 17 32 78 33 18 34 77 35 19 36
REMARK SMILES IDX 20 37 21 38 71 39 22 40 76 41 70 42 72 43 23 44 75 45 69 46
REMARK SMILES IDX 68 47 24 49 56 50 36 51 55 52 37 53 40 54 54 55 73 56 38 57
REMARK SMILES IDX 39 58 53 60 74 61 41 62 25 63 26 64 34 65 27 66 28 67 32 68
REMARK SMILES IDX 35 69 29 70 30 71 33 72 31 73 57 74 58 75 66 76 59 77 60 78
REMARK SMILES IDX 64 79 67 80 61 81 62 82 65 83 63 84 42 85 43 86 51 87 44 88
REMARK SMILES IDX 45 89 49 90 52 91 46 92 47 93 50 94 48 95
REMARK H PARENT 9 5 90 20 13 29 72 48 40 59
REMARK Flexibility Score: inf
ROOT
ATOM      1  C   UNL A   1      31.590  30.354  26.278  1.00  0.00     0.117 C 
ENDROOT
BRANCH   1   2
ATOM      2  N   UNL A   1      32.597  30.109  25.267  1.00  0.00    -0.354 N 
ATOM      3  C   UNL A   1      32.970  28.974  24.615  1.00  0.00     0.243 C 
ATOM      4  O   UNL A   1      33.673  29.145  23.611  1.00  0.00    -0.273 OA
ATOM      5  H   UNL A   1      33.104  30.911  25.003  1.00  0.00     0.163 HD
BRANCH   3   6
ATOM      6  C   UNL A   1      32.510  27.546  25.007  1.00  0.00     0.186 C 
ATOM      7  C   UNL A   1      32.280  25.718  23.342  1.00  0.00     0.144 C 
ATOM      8  S   UNL A   1      33.755  25.261  24.331  1.00  0.00    -0.134 SA
ATOM      9  N   UNL A   1      31.666  26.859  24.015  1.00  0.00    -0.311 N 
ATOM     10  C   UNL A   1      33.660  26.667  25.465  1.00  0.00     0.107 C 
BRANCH   7  11
ATOM     11  C   UNL A   1      31.451  24.443  23.111  1.00  0.00     0.033 C 
ATOM     12  C   UNL A   1      31.149  23.603  24.344  1.00  0.00     0.007 C 
ENDBRANCH   7  11
BRANCH   9  13
ATOM     13  C   UNL A   1      30.371  27.358  23.860  1.00  0.00     0.292 C 
ATOM     14  O   UNL A   1      29.402  26.678  24.210  1.00  0.00    -0.265 OA
BRANCH  13  15
ATOM     15  C   UNL A   1      30.137  28.613  23.200  1.00  0.00     0.214 A 
ATOM     16  N   UNL A   1      29.580  29.705  23.696  1.00  0.00    -0.207 NA
ATOM     17  N   UNL A   1      30.295  28.765  21.855  1.00  0.00    -0.255 N 
ATOM     18  C   UNL A   1      29.365  30.480  22.569  1.00  0.00     0.156 A 
ATOM     19  N   UNL A   1      29.876  29.965  21.441  1.00  0.00    -0.158 NA
ATOM     20  H   UNL A   1      30.671  28.077  21.262  1.00  0.00     0.192 HD
BRANCH  18  21
ATOM     21  C   UNL A   1      28.504  31.722  22.540  1.00  0.00     0.024 C 
ATOM     22  C   UNL A   1      27.304  31.531  23.496  1.00  0.00     0.019 C 
ATOM     23  C   UNL A   1      29.285  32.966  22.996  1.00  0.00     0.019 C 
ATOM     24  C   UNL A   1      27.964  31.979  21.119  1.00  0.00     0.019 C 
ENDBRANCH  18  21
ENDBRANCH  13  15
ENDBRANCH   9  13
ENDBRANCH   3   6
ENDBRANCH   1   2
BRANCH   1  25
ATOM     25  C   UNL A   1      31.406  31.832  26.591  1.00  0.00     0.042 C 
BRANCH  25  26
ATOM     26  C   UNL A   1      32.708  32.555  26.911  1.00  0.00     0.118 C 
BRANCH  26  27
ATOM     27  N   UNL A   1      32.481  33.881  27.471  1.00  0.00    -0.352 N 
ATOM     28  C   UNL A   1      33.059  34.512  28.546  1.00  0.00     0.251 C 
ATOM     29  H   UNL A   1      31.800  34.414  27.001  1.00  0.00     0.163 HD
ATOM     30  O   UNL A   1      32.576  35.561  28.956  1.00  0.00    -0.269 OA
BRANCH  28  31
ATOM     31  C   UNL A   1      34.248  33.946  29.221  1.00  0.00     0.039 A 
ATOM     32  C   UNL A   1      35.518  34.349  28.790  1.00  0.00     0.014 A 
ATOM     33  C   UNL A   1      34.131  32.977  30.221  1.00  0.00     0.014 A 
ATOM     34  C   UNL A   1      36.662  33.824  29.397  1.00  0.00     0.010 A 
ATOM     35  C   UNL A   1      35.269  32.503  30.870  1.00  0.00     0.010 A 
ATOM     36  C   UNL A   1      36.545  32.915  30.458  1.00  0.00    -0.014 A 
BRANCH  36  37
ATOM     37  C   UNL A   1      37.741  32.357  31.135  1.00  0.00     0.031 A 
ATOM     38  C   UNL A   1      38.545  31.277  30.467  1.00  0.00     0.074 A 
ATOM     39  C   UNL A   1      38.065  32.770  32.375  1.00  0.00     0.049 A 
ATOM     40  N   UNL A   1      39.547  30.577  30.936  1.00  0.00    -0.248 NA
ATOM     41  C   UNL A   1      38.154  30.920  29.094  1.00  0.00     0.031 C 
ATOM     42  C   UNL A   1      37.346  33.788  33.142  1.00  0.00     0.029 A 
ATOM     43  N   UNL A   1      39.075  32.373  33.212  1.00  0.00    -0.354 N 
ATOM     44  C   UNL A   1      39.885  29.680  29.931  1.00  0.00     0.074 A 
ATOM     45  C   UNL A   1      38.964  29.903  28.837  1.00  0.00     0.031 C 
ATOM     46  C   UNL A   1      37.947  33.947  34.332  1.00  0.00     0.029 A 
ATOM     47  C   UNL A   1      39.072  33.020  34.424  1.00  0.00     0.049 A 
ATOM     48  H   UNL A   1      39.740  31.689  32.969  1.00  0.00     0.167 HD
ATOM     49  C   UNL A   1      40.882  28.765  29.918  1.00  0.00     0.037 A 
ATOM     50  C   UNL A   1      39.881  32.873  35.489  1.00  0.00     0.037 A 
ATOM     51  C   UNL A   1      41.823  28.571  30.989  1.00  0.00     0.049 A 
ATOM     52  C   UNL A   1      40.998  31.869  35.437  1.00  0.00     0.074 A 
ATOM     53  C   UNL A   1      42.895  27.697  31.050  1.00  0.00     0.029 A 
ATOM     54  N   UNL A   1      41.811  29.275  32.182  1.00  0.00    -0.354 N 
ATOM     55  N   UNL A   1      41.324  31.045  34.472  1.00  0.00    -0.248 NA
ATOM     56  C   UNL A   1      41.861  31.775  36.623  1.00  0.00     0.031 C 
ATOM     57  C   UNL A   1      43.521  27.861  32.290  1.00  0.00     0.029 A 
ATOM     58  C   UNL A   1      42.855  28.855  32.989  1.00  0.00     0.049 A 
ATOM     59  H   UNL A   1      41.156  29.971  32.422  1.00  0.00     0.167 HD
ATOM     60  C   UNL A   1      42.439  30.353  34.921  1.00  0.00     0.074 A 
ATOM     61  C   UNL A   1      42.741  30.859  36.244  1.00  0.00     0.031 C 
ATOM     62  C   UNL A   1      43.147  29.383  34.295  1.00  0.00     0.037 A 
BRANCH  49  63
ATOM     63  C   UNL A   1      41.009  27.903  28.699  1.00  0.00     0.064 A 
ATOM     64  C   UNL A   1      40.246  26.736  28.546  1.00  0.00     0.173 A 
ATOM     65  C   UNL A   1      41.880  28.262  27.659  1.00  0.00     0.173 A 
ATOM     66  F   UNL A   1      39.411  26.344  29.520  1.00  0.00    -0.203 F 
ATOM     67  C   UNL A   1      40.364  25.948  27.404  1.00  0.00     0.198 A 
ATOM     68  C   UNL A   1      41.979  27.483  26.509  1.00  0.00     0.198 A 
ATOM     69  F   UNL A   1      42.629  29.371  27.757  1.00  0.00    -0.203 F 
ATOM     70  F   UNL A   1      39.655  24.817  27.296  1.00  0.00    -0.200 F 
ATOM     71  C   UNL A   1      41.226  26.326  26.385  1.00  0.00     0.200 A 
ATOM     72  F   UNL A   1      42.806  27.853  25.521  1.00  0.00    -0.200 F 
ATOM     73  F   UNL A   1      41.337  25.568  25.285  1.00  0.00    -0.200 F 
ENDBRANCH  49  63
BRANCH  50  74
ATOM     74  C   UNL A   1      39.682  33.723  36.690  1.00  0.00     0.064 A 
ATOM     75  C   UNL A   1      40.301  34.977  36.787  1.00  0.00     0.173 A 
ATOM     76  C   UNL A   1      38.874  33.306  37.755  1.00  0.00     0.173 A 
ATOM     77  F   UNL A   1      41.099  35.407  35.798  1.00  0.00    -0.203 F 
ATOM     78  C   UNL A   1      40.130  35.777  37.914  1.00  0.00     0.198 A 
ATOM     79  C   UNL A   1      38.687  34.115  38.873  1.00  0.00     0.198 A 
ATOM     80  F   UNL A   1      38.258  32.115  37.705  1.00  0.00    -0.203 F 
ATOM     81  F   UNL A   1      40.761  36.956  37.997  1.00  0.00    -0.200 F 
ATOM     82  C   UNL A   1      39.320  35.347  38.955  1.00  0.00     0.200 A 
ATOM     83  F   UNL A   1      37.896  33.702  39.873  1.00  0.00    -0.200 F 
ATOM     84  F   UNL A   1      39.155  36.118  40.038  1.00  0.00    -0.200 F 
ENDBRANCH  50  74
BRANCH  62  85
ATOM     85  C   UNL A   1      44.336  28.831  35.020  1.00  0.00     0.064 A 
ATOM     86  C   UNL A   1      45.602  29.419  34.900  1.00  0.00     0.173 A 
ATOM     87  C   UNL A   1      44.196  27.728  35.874  1.00  0.00     0.173 A 
ATOM     88  F   UNL A   1      45.784  30.467  34.082  1.00  0.00    -0.203 F 
ATOM     89  C   UNL A   1      46.694  28.911  35.597  1.00  0.00     0.198 A 
ATOM     90  C   UNL A   1      45.287  27.234  36.584  1.00  0.00     0.198 A 
ATOM     91  F   UNL A   1      43.004  27.134  36.022  1.00  0.00    -0.203 F 
ATOM     92  F   UNL A   1      47.903  29.467  35.442  1.00  0.00    -0.200 F 
ATOM     93  C   UNL A   1      46.534  27.823  36.443  1.00  0.00     0.200 A 
ATOM     94  F   UNL A   1      45.130  26.186  37.405  1.00  0.00    -0.200 F 
ATOM     95  F   UNL A   1      47.586  27.336  37.116  1.00  0.00    -0.200 F 
ENDBRANCH  62  85
ENDBRANCH  36  37
ENDBRANCH  28  31
ENDBRANCH  26  27
ENDBRANCH  25  26
ENDBRANCH   1  25
TORSDOF 14
ENDMDL
MODEL 3
REMARK VINA RESULT:     -11.9      0.293      1.679
REMARK SMILES CC[C@@H]1SC[C@@H](C(=O)NCCCNC(=O)c2ccc(-c3c4nc(c(-c5c(F)c(F)c(F)c(F)c5F)c5ccc([nH]5)c(-c5c(F)c(F)c(F)c(F)c5F)c5nc(c(-c6c(F)c(F)c(F)c(F)c6F)c6ccc3[nH]6)C=C5)C=C4)cc2)N1C(=O)c1nc(C(C)(C)C)n[nH]1
REMARK SMILES IDX 10 1 9 2 7 3 8 4 6 6 3 7 4 8 79 9 5 10 2 11 1 12 80 13 81 14
REMARK SMILES IDX 82 15 83 16 90 17 84 18 89 19 85 21 86 22 87 23 88 24 11 25
REMARK SMILES IDX 12 26 13 27 14 28 15 30 16 31 17 32 78 33 18 34 77 35 19 36
REMARK SMILES IDX 20 37 21 38 71 39 22 40 76 41 70 42 72 43 23 44 75 45 69 46
REMARK SMILES IDX 68 47 24 49 56 50 36 51 55 52 37 53 40 54 54 55 73 56 38 57
REMARK SMILES IDX 39 58 53 60 74 61 41 62 25 63 26 64 34 65 27 66 28 67 32 68
REMARK SMILES IDX 35 69 29 70 30 71 33 72 31 73 57 74 58 75 66 76 59 77 60 78
REMARK SMILES IDX 64 79 67 80 61 81 62 82 65 83 63 84 42 85 43 86 51 87 44 88
REMARK SMILES IDX 45 89 49 90 52 91 46 92 47 93 50 94 48 95
REMARK H PARENT 9 5 90 20 13 29 72 48 40 59
REMARK Flexibility Score: inf
ROOT
ATOM      1  C   UNL A   1      31.445  30.809  26.235  1.00  0.00     0.117 C 
ENDROOT
BRANCH   1   2
ATOM      2  N   UNL A   1      32.685  30.223  26.699  1.00  0.00    -0.354 N 
ATOM      3  C   UNL A   1      33.285  29.033  26.423  1.00  0.00     0.243 C 
ATOM      4  O   UNL A   1      34.471  28.944  26.765  1.00  0.00    -0.273 OA
ATOM      5  H   UNL A   1      33.185  30.789  27.331  1.00  0.00     0.163 HD
BRANCH   3   6
ATOM      6  C   UNL A   1      32.607  27.865  25.661  1.00  0.00     0.186 C 
ATOM      7  C   UNL A   1      33.904  26.196  24.357  1.00  0.00     0.144 C 
ATOM      8  S   UNL A   1      33.308  25.275  25.827  1.00  0.00    -0.134 SA
ATOM      9  N   UNL A   1      33.237  27.494  24.382  1.00  0.00    -0.311 N 
ATOM     10  C   UNL A   1      32.377  26.650  26.542  1.00  0.00     0.107 C 
BRANCH   7  11
ATOM     11  C   UNL A   1      33.739  25.286  23.129  1.00  0.00     0.033 C 
ATOM     12  C   UNL A   1      34.295  23.875  23.256  1.00  0.00     0.007 C 
ENDBRANCH   7  11
BRANCH   9  13
ATOM     13  C   UNL A   1      33.092  28.410  23.339  1.00  0.00     0.292 C 
ATOM     14  O   UNL A   1      34.068  29.053  22.942  1.00  0.00    -0.265 OA
BRANCH  13  15
ATOM     15  C   UNL A   1      31.798  28.699  22.783  1.00  0.00     0.214 A 
ATOM     16  N   UNL A   1      31.106  29.822  22.865  1.00  0.00    -0.207 NA
ATOM     17  N   UNL A   1      31.009  27.729  22.241  1.00  0.00    -0.255 N 
ATOM     18  C   UNL A   1      29.856  29.449  22.401  1.00  0.00     0.156 A 
ATOM     19  N   UNL A   1      29.796  28.196  21.928  1.00  0.00    -0.158 NA
ATOM     20  H   UNL A   1      31.297  26.799  22.096  1.00  0.00     0.192 HD
BRANCH  18  21
ATOM     21  C   UNL A   1      28.608  30.291  22.541  1.00  0.00     0.024 C 
ATOM     22  C   UNL A   1      28.853  31.390  23.600  1.00  0.00     0.019 C 
ATOM     23  C   UNL A   1      28.236  30.979  21.216  1.00  0.00     0.019 C 
ATOM     24  C   UNL A   1      27.415  29.428  22.994  1.00  0.00     0.019 C 
ENDBRANCH  18  21
ENDBRANCH  13  15
ENDBRANCH   9  13
ENDBRANCH   3   6
ENDBRANCH   1   2
BRANCH   1  25
ATOM     25  C   UNL A   1      31.346  32.300  26.520  1.00  0.00     0.042 C 
BRANCH  25  26
ATOM     26  C   UNL A   1      32.645  32.911  27.033  1.00  0.00     0.118 C 
BRANCH  26  27
ATOM     27  N   UNL A   1      32.445  34.235  27.607  1.00  0.00    -0.352 N 
ATOM     28  C   UNL A   1      33.036  34.845  28.687  1.00  0.00     0.251 C 
ATOM     29  H   UNL A   1      31.774  34.786  27.142  1.00  0.00     0.163 HD
ATOM     30  O   UNL A   1      32.573  35.899  29.108  1.00  0.00    -0.269 OA
BRANCH  28  31
ATOM     31  C   UNL A   1      34.214  34.248  29.355  1.00  0.00     0.039 A 
ATOM     32  C   UNL A   1      35.488  34.555  28.865  1.00  0.00     0.014 A 
ATOM     33  C   UNL A   1      34.077  33.341  30.410  1.00  0.00     0.014 A 
ATOM     34  C   UNL A   1      36.622  33.999  29.464  1.00  0.00     0.010 A 
ATOM     35  C   UNL A   1      35.209  32.839  31.049  1.00  0.00     0.010 A 
ATOM     36  C   UNL A   1      36.491  33.155  30.576  1.00  0.00    -0.014 A 
BRANCH  36  37
ATOM     37  C   UNL A   1      37.677  32.567  31.245  1.00  0.00     0.031 A 
ATOM     38  C   UNL A   1      38.447  31.465  30.574  1.00  0.00     0.074 A 
ATOM     39  C   UNL A   1      38.021  32.975  32.481  1.00  0.00     0.049 A 
ATOM     40  N   UNL A   1      39.433  30.740  31.038  1.00  0.00    -0.248 NA
ATOM     41  C   UNL A   1      38.036  31.115  29.205  1.00  0.00     0.031 C 
ATOM     42  C   UNL A   1      37.335  34.013  33.252  1.00  0.00     0.029 A 
ATOM     43  N   UNL A   1      39.026  32.552  33.313  1.00  0.00    -0.354 N 
ATOM     44  C   UNL A   1      39.739  29.831  30.033  1.00  0.00     0.074 A 
ATOM     45  C   UNL A   1      38.816  30.076  28.945  1.00  0.00     0.031 C 
ATOM     46  C   UNL A   1      37.949  34.158  34.437  1.00  0.00     0.029 A 
ATOM     47  C   UNL A   1      39.049  33.202  34.523  1.00  0.00     0.049 A 
ATOM     48  H   UNL A   1      39.671  31.850  33.066  1.00  0.00     0.167 HD
ATOM     49  C   UNL A   1      40.711  28.890  30.014  1.00  0.00     0.037 A 
ATOM     50  C   UNL A   1      39.862  33.036  35.582  1.00  0.00     0.037 A 
ATOM     51  C   UNL A   1      41.655  28.673  31.078  1.00  0.00     0.049 A 
ATOM     52  C   UNL A   1      40.952  32.002  35.524  1.00  0.00     0.074 A 
ATOM     53  C   UNL A   1      42.703  27.771  31.134  1.00  0.00     0.029 A 
ATOM     54  N   UNL A   1      41.670  29.380  32.270  1.00  0.00    -0.354 N 
ATOM     55  N   UNL A   1      41.248  31.168  34.559  1.00  0.00    -0.248 NA
ATOM     56  C   UNL A   1      41.820  31.888  36.704  1.00  0.00     0.031 C 
ATOM     57  C   UNL A   1      43.343  27.921  32.369  1.00  0.00     0.029 A 
ATOM     58  C   UNL A   1      42.709  28.934  33.070  1.00  0.00     0.049 A 
ATOM     59  H   UNL A   1      41.036  30.094  32.513  1.00  0.00     0.167 HD
ATOM     60  C   UNL A   1      42.348  30.447  35.002  1.00  0.00     0.074 A 
ATOM     61  C   UNL A   1      42.673  30.948  36.320  1.00  0.00     0.031 C 
ATOM     62  C   UNL A   1      43.024  29.457  34.372  1.00  0.00     0.037 A 
BRANCH  49  63
ATOM     63  C   UNL A   1      40.806  28.021  28.796  1.00  0.00     0.064 A 
ATOM     64  C   UNL A   1      40.065  26.836  28.684  1.00  0.00     0.173 A 
ATOM     65  C   UNL A   1      41.621  28.394  27.717  1.00  0.00     0.173 A 
ATOM     66  F   UNL A   1      39.283  26.431  29.696  1.00  0.00    -0.203 F 
ATOM     67  C   UNL A   1      40.153  26.043  27.543  1.00  0.00     0.198 A 
ATOM     68  C   UNL A   1      41.690  27.609  26.569  1.00  0.00     0.198 A 
ATOM     69  F   UNL A   1      42.347  29.520  27.775  1.00  0.00    -0.203 F 
ATOM     70  F   UNL A   1      39.467  24.894  27.474  1.00  0.00    -0.200 F 
ATOM     71  C   UNL A   1      40.961  26.433  26.485  1.00  0.00     0.200 A 
ATOM     72  F   UNL A   1      42.464  27.990  25.543  1.00  0.00    -0.200 F 
ATOM     73  F   UNL A   1      41.042  25.669  25.386  1.00  0.00    -0.200 F 
ENDBRANCH  49  63
BRANCH  50  74
ATOM     74  C   UNL A   1      39.695  33.894  36.782  1.00  0.00     0.064 A 
ATOM     75  C   UNL A   1      40.324  35.144  36.859  1.00  0.00     0.173 A 
ATOM     76  C   UNL A   1      38.908  33.488  37.867  1.00  0.00     0.173 A 
ATOM     77  F   UNL A   1      41.103  35.563  35.850  1.00  0.00    -0.203 F 
ATOM     78  C   UNL A   1      40.183  35.951  37.984  1.00  0.00     0.198 A 
ATOM     79  C   UNL A   1      38.751  34.305  38.985  1.00  0.00     0.198 A 
ATOM     80  F   UNL A   1      38.283  32.301  37.837  1.00  0.00    -0.203 F 
ATOM     81  F   UNL A   1      40.824  37.126  38.048  1.00  0.00    -0.200 F 
ATOM     82  C   UNL A   1      39.393  35.532  39.045  1.00  0.00     0.200 A 
ATOM     83  F   UNL A   1      37.979  33.902  40.003  1.00  0.00    -0.200 F 
ATOM     84  F   UNL A   1      39.257  36.310  40.128  1.00  0.00    -0.200 F 
ENDBRANCH  50  74
BRANCH  62  85
ATOM     85  C   UNL A   1      44.204  28.875  35.090  1.00  0.00     0.064 A 
ATOM     86  C   UNL A   1      44.064  27.789  35.964  1.00  0.00     0.173 A 
ATOM     87  C   UNL A   1      45.491  29.385  34.866  1.00  0.00     0.173 A 
ATOM     88  F   UNL A   1      42.849  27.279  36.218  1.00  0.00    -0.203 F 
ATOM     89  C   UNL A   1      45.171  27.243  36.606  1.00  0.00     0.198 A 
ATOM     90  C   UNL A   1      46.599  28.824  35.496  1.00  0.00     0.198 A 
ATOM     91  F   UNL A   1      45.673  30.421  34.036  1.00  0.00    -0.203 F 
ATOM     92  F   UNL A   1      45.013  26.227  37.465  1.00  0.00    -0.200 F 
ATOM     93  C   UNL A   1      46.438  27.757  36.367  1.00  0.00     0.200 A 
ATOM     94  F   UNL A   1      47.822  29.318  35.260  1.00  0.00    -0.200 F 
ATOM     95  F   UNL A   1      47.504  27.228  36.984  1.00  0.00    -0.200 F 
ENDBRANCH  62  85
ENDBRANCH  36  37
ENDBRANCH  28  31
ENDBRANCH  26  27
ENDBRANCH  25  26
ENDBRANCH   1  25
TORSDOF 14
ENDMDL
