MODEL 1
REMARK VINA RESULT:     -13.2      0.000      0.000
REMARK SMILES O=C(NCCCNC(=O)[C@@H]1Cc2ccccc2CN1C(=O)COc1ccccc1)c1ccc(-c2c3nc(c(-c4c(F)c(F)c(F)c(F)c4F)c4ccc([nH]4)c(-c4c(F)c(F)c(F)c(F)c4F)c4nc(c(-c5c(F)c(F)c(F)c(F)c5F)c5ccc2[nH]5)C=C4)C=C3)cc1
REMARK SMILES IDX 6 1 5 2 4 3 3 4 1 5 2 6 30 8 31 9 92 10 32 11 91 12 33 13
REMARK SMILES IDX 34 14 35 15 85 16 36 17 90 18 84 19 86 20 37 21 89 22 83 23
REMARK SMILES IDX 82 24 38 26 70 27 50 28 69 29 51 30 54 31 68 32 87 33 52 34
REMARK SMILES IDX 53 35 67 37 88 38 55 39 39 40 40 41 48 42 41 43 42 44 46 45
REMARK SMILES IDX 49 46 43 47 44 48 47 49 45 50 71 51 72 52 80 53 73 54 74 55
REMARK SMILES IDX 78 56 81 57 75 58 76 59 79 60 77 61 56 62 57 63 65 64 58 65
REMARK SMILES IDX 59 66 63 67 66 68 60 69 61 70 64 71 62 72 7 73 8 74 9 76
REMARK SMILES IDX 10 77 11 78 19 79 12 80 18 81 13 82 17 83 14 84 16 85 15 86
REMARK SMILES IDX 20 87 21 88 22 89 23 90 24 91 25 92 29 93 26 94 28 95 27 96
REMARK H PARENT 3 7 86 25 54 36 7 75
REMARK Flexibility Score: inf
ROOT
ATOM      1  C   UNL A   1      32.379  27.360  26.827  1.00  0.00     0.117 C 
ENDROOT
BRANCH   1   2
ATOM      2  C   UNL A   1      31.864  28.683  26.286  1.00  0.00     0.042 C 
BRANCH   2   3
ATOM      3  C   UNL A   1      32.997  29.613  25.858  1.00  0.00     0.118 C 
BRANCH   3   4
ATOM      4  N   UNL A   1      32.741  31.006  26.226  1.00  0.00    -0.352 N 
ATOM      5  O   UNL A   1      32.750  32.839  27.529  1.00  0.00    -0.269 OA
ATOM      6  C   UNL A   1      33.304  31.799  27.193  1.00  0.00     0.251 C 
ATOM      7  H   UNL A   1      32.046  31.448  25.687  1.00  0.00     0.163 HD
BRANCH   6   8
ATOM      8  C   UNL A   1      34.576  31.403  27.827  1.00  0.00     0.039 A 
ATOM      9  C   UNL A   1      34.746  30.102  28.298  1.00  0.00     0.014 A 
ATOM     10  C   UNL A   1      35.623  32.324  27.918  1.00  0.00     0.014 A 
ATOM     11  C   UNL A   1      35.880  29.776  29.025  1.00  0.00     0.010 A 
ATOM     12  C   UNL A   1      36.815  31.957  28.550  1.00  0.00     0.010 A 
ATOM     13  C   UNL A   1      36.935  30.694  29.147  1.00  0.00    -0.014 A 
BRANCH  13  14
ATOM     14  C   UNL A   1      38.157  30.279  29.881  1.00  0.00     0.031 A 
ATOM     15  C   UNL A   1      38.386  30.705  31.303  1.00  0.00     0.074 A 
ATOM     16  C   UNL A   1      39.030  29.457  29.266  1.00  0.00     0.049 A 
ATOM     17  N   UNL A   1      39.366  30.387  32.111  1.00  0.00    -0.248 NA
ATOM     18  C   UNL A   1      37.395  31.614  31.897  1.00  0.00     0.031 C 
ATOM     19  C   UNL A   1      38.909  28.985  27.884  1.00  0.00     0.029 A 
ATOM     20  N   UNL A   1      40.168  28.848  29.725  1.00  0.00    -0.354 N 
ATOM     21  C   UNL A   1      39.125  31.073  33.293  1.00  0.00     0.074 A 
ATOM     22  C   UNL A   1      37.921  31.850  33.090  1.00  0.00     0.031 C 
ATOM     23  C   UNL A   1      39.892  28.110  27.630  1.00  0.00     0.029 A 
ATOM     24  C   UNL A   1      40.752  28.015  28.803  1.00  0.00     0.049 A 
ATOM     25  H   UNL A   1      40.531  28.993  30.630  1.00  0.00     0.167 HD
ATOM     26  C   UNL A   1      39.840  31.048  34.445  1.00  0.00     0.037 A 
ATOM     27  C   UNL A   1      41.865  27.265  28.888  1.00  0.00     0.037 A 
ATOM     28  C   UNL A   1      41.025  30.253  34.642  1.00  0.00     0.049 A 
ATOM     29  C   UNL A   1      42.646  27.273  30.171  1.00  0.00     0.074 A 
ATOM     30  C   UNL A   1      41.802  30.129  35.781  1.00  0.00     0.029 A 
ATOM     31  N   UNL A   1      41.609  29.449  33.672  1.00  0.00    -0.354 N 
ATOM     32  N   UNL A   1      42.389  27.899  31.294  1.00  0.00    -0.248 NA
ATOM     33  C   UNL A   1      43.874  26.469  30.198  1.00  0.00     0.031 C 
ATOM     34  C   UNL A   1      42.886  29.297  35.483  1.00  0.00     0.029 A 
ATOM     35  C   UNL A   1      42.750  28.846  34.180  1.00  0.00     0.049 A 
ATOM     36  H   UNL A   1      41.264  29.325  32.759  1.00  0.00     0.167 HD
ATOM     37  C   UNL A   1      43.402  27.541  32.171  1.00  0.00     0.074 A 
ATOM     38  C   UNL A   1      44.269  26.629  31.453  1.00  0.00     0.031 C 
ATOM     39  C   UNL A   1      43.596  27.932  33.455  1.00  0.00     0.037 A 
BRANCH  26  40
ATOM     40  C   UNL A   1      39.379  31.930  35.572  1.00  0.00     0.064 A 
ATOM     41  C   UNL A   1      38.465  31.485  36.540  1.00  0.00     0.173 A 
ATOM     42  C   UNL A   1      39.890  33.231  35.706  1.00  0.00     0.173 A 
ATOM     43  F   UNL A   1      37.935  30.256  36.455  1.00  0.00    -0.203 F 
ATOM     44  C   UNL A   1      38.057  32.319  37.579  1.00  0.00     0.198 A 
ATOM     45  C   UNL A   1      39.506  34.049  36.765  1.00  0.00     0.198 A 
ATOM     46  F   UNL A   1      40.772  33.706  34.815  1.00  0.00    -0.203 F 
ATOM     47  F   UNL A   1      37.143  31.890  38.460  1.00  0.00    -0.200 F 
ATOM     48  C   UNL A   1      38.584  33.596  37.696  1.00  0.00     0.200 A 
ATOM     49  F   UNL A   1      40.027  35.279  36.883  1.00  0.00    -0.200 F 
ATOM     50  F   UNL A   1      38.196  34.395  38.700  1.00  0.00    -0.200 F 
ENDBRANCH  26  40
BRANCH  27  51
ATOM     51  C   UNL A   1      42.299  26.444  27.727  1.00  0.00     0.064 A 
ATOM     52  C   UNL A   1      43.264  26.918  26.828  1.00  0.00     0.173 A 
ATOM     53  C   UNL A   1      41.761  25.170  27.494  1.00  0.00     0.173 A 
ATOM     54  F   UNL A   1      43.796  28.138  26.998  1.00  0.00    -0.203 F 
ATOM     55  C   UNL A   1      43.657  26.159  25.728  1.00  0.00     0.198 A 
ATOM     56  C   UNL A   1      42.180  24.397  26.415  1.00  0.00     0.198 A 
ATOM     57  F   UNL A   1      40.841  24.666  28.330  1.00  0.00    -0.203 F 
ATOM     58  F   UNL A   1      44.544  26.656  24.856  1.00  0.00    -0.200 F 
ATOM     59  C   UNL A   1      43.120  24.897  25.526  1.00  0.00     0.200 A 
ATOM     60  F   UNL A   1      41.673  23.169  26.236  1.00  0.00    -0.200 F 
ATOM     61  F   UNL A   1      43.503  24.164  24.471  1.00  0.00    -0.200 F 
ENDBRANCH  27  51
BRANCH  39  62
ATOM     62  C   UNL A   1      44.763  27.326  34.181  1.00  0.00     0.064 A 
ATOM     63  C   UNL A   1      46.022  27.943  34.209  1.00  0.00     0.173 A 
ATOM     64  C   UNL A   1      44.610  26.114  34.871  1.00  0.00     0.173 A 
ATOM     65  F   UNL A   1      46.224  29.095  33.553  1.00  0.00    -0.203 F 
ATOM     66  C   UNL A   1      47.095  27.348  34.868  1.00  0.00     0.198 A 
ATOM     67  C   UNL A   1      45.675  25.541  35.559  1.00  0.00     0.198 A 
ATOM     68  F   UNL A   1      43.424  25.486  34.883  1.00  0.00    -0.203 F 
ATOM     69  F   UNL A   1      48.305  27.923  34.827  1.00  0.00    -0.200 F 
ATOM     70  C   UNL A   1      46.919  26.152  35.547  1.00  0.00     0.200 A 
ATOM     71  F   UNL A   1      45.498  24.393  36.228  1.00  0.00    -0.200 F 
ATOM     72  F   UNL A   1      47.952  25.583  36.183  1.00  0.00    -0.200 F 
ENDBRANCH  39  62
ENDBRANCH  13  14
ENDBRANCH   6   8
ENDBRANCH   3   4
ENDBRANCH   2   3
ENDBRANCH   1   2
BRANCH   1  73
ATOM     73  N   UNL A   1      31.373  26.318  26.795  1.00  0.00    -0.354 N 
ATOM     74  C   UNL A   1      31.331  25.031  26.377  1.00  0.00     0.243 C 
ATOM     75  H   UNL A   1      30.511  26.619  27.166  1.00  0.00     0.163 HD
ATOM     76  O   UNL A   1      30.286  24.456  26.706  1.00  0.00    -0.273 OA
BRANCH  74  77
ATOM     77  C   UNL A   1      32.380  24.307  25.479  1.00  0.00     0.179 C 
ATOM     78  C   UNL A   1      33.689  24.081  26.251  1.00  0.00     0.071 C 
ATOM     79  N   UNL A   1      32.619  24.922  24.136  1.00  0.00    -0.323 N 
ATOM     80  C   UNL A   1      34.711  23.355  25.435  1.00  0.00    -0.040 A 
ATOM     81  C   UNL A   1      33.990  24.897  23.593  1.00  0.00     0.156 C 
ATOM     82  C   UNL A   1      35.589  22.427  26.001  1.00  0.00     0.004 A 
ATOM     83  C   UNL A   1      34.849  23.759  24.102  1.00  0.00    -0.025 A 
ATOM     84  C   UNL A   1      36.600  21.874  25.221  1.00  0.00     0.000 A 
ATOM     85  C   UNL A   1      35.862  23.187  23.325  1.00  0.00     0.006 A 
ATOM     86  C   UNL A   1      36.731  22.245  23.883  1.00  0.00     0.000 A 
BRANCH  79  87
ATOM     87  C   UNL A   1      31.646  25.265  23.203  1.00  0.00     0.261 C 
ATOM     88  O   UNL A   1      30.670  24.523  23.020  1.00  0.00    -0.271 OA
BRANCH  87  89
ATOM     89  C   UNL A   1      31.734  26.562  22.389  1.00  0.00     0.329 C 
BRANCH  89  90
ATOM     90  O   UNL A   1      31.468  27.793  23.033  1.00  0.00    -0.484 OA
BRANCH  90  91
ATOM     91  C   UNL A   1      30.272  28.388  22.761  1.00  0.00     0.120 A 
ATOM     92  C   UNL A   1      30.348  29.575  22.032  1.00  0.00     0.046 A 
ATOM     93  C   UNL A   1      29.037  27.948  23.237  1.00  0.00     0.046 A 
ATOM     94  C   UNL A   1      29.194  30.311  21.760  1.00  0.00     0.004 A 
ATOM     95  C   UNL A   1      27.884  28.691  22.976  1.00  0.00     0.004 A 
ATOM     96  C   UNL A   1      27.962  29.870  22.237  1.00  0.00     0.000 A 
ENDBRANCH  90  91
ENDBRANCH  89  90
ENDBRANCH  87  89
ENDBRANCH  79  87
ENDBRANCH  74  77
ENDBRANCH   1  73
TORSDOF 14
ENDMDL
MODEL 2
REMARK VINA RESULT:     -13.1      1.546      3.614
REMARK SMILES O=C(NCCCNC(=O)[C@@H]1Cc2ccccc2CN1C(=O)COc1ccccc1)c1ccc(-c2c3nc(c(-c4c(F)c(F)c(F)c(F)c4F)c4ccc([nH]4)c(-c4c(F)c(F)c(F)c(F)c4F)c4nc(c(-c5c(F)c(F)c(F)c(F)c5F)c5ccc2[nH]5)C=C4)C=C3)cc1
REMARK SMILES IDX 6 1 5 2 4 3 3 4 1 5 2 6 30 8 31 9 92 10 32 11 91 12 33 13
REMARK SMILES IDX 34 14 35 15 85 16 36 17 90 18 84 19 86 20 37 21 89 22 83 23
REMARK SMILES IDX 82 24 38 26 70 27 50 28 69 29 51 30 54 31 68 32 87 33 52 34
REMARK SMILES IDX 53 35 67 37 88 38 55 39 39 40 40 41 48 42 41 43 42 44 46 45
REMARK SMILES IDX 49 46 43 47 44 48 47 49 45 50 71 51 72 52 80 53 73 54 74 55
REMARK SMILES IDX 78 56 81 57 75 58 76 59 79 60 77 61 56 62 57 63 65 64 58 65
REMARK SMILES IDX 59 66 63 67 66 68 60 69 61 70 64 71 62 72 7 73 8 74 9 76
REMARK SMILES IDX 10 77 11 78 19 79 12 80 18 81 13 82 17 83 14 84 16 85 15 86
REMARK SMILES IDX 20 87 21 88 22 89 23 90 24 91 25 92 29 93 26 94 28 95 27 96
REMARK H PARENT 3 7 86 25 54 36 7 75
REMARK Flexibility Score: inf
ROOT
ATOM      1  C   UNL A   1      32.541  27.229  23.855  1.00  0.00     0.117 C 
ENDROOT
BRANCH   1   2
ATOM      2  C   UNL A   1      32.579  28.730  24.086  1.00  0.00     0.042 C 
BRANCH   2   3
ATOM      3  C   UNL A   1      33.169  29.091  25.448  1.00  0.00     0.118 C 
BRANCH   3   4
ATOM      4  N   UNL A   1      32.759  30.421  25.895  1.00  0.00    -0.352 N 
ATOM      5  O   UNL A   1      32.542  32.156  27.311  1.00  0.00    -0.269 OA
ATOM      6  C   UNL A   1      33.211  31.203  26.929  1.00  0.00     0.251 C 
ATOM      7  H   UNL A   1      32.035  30.825  25.364  1.00  0.00     0.163 HD
BRANCH   6   8
ATOM      8  C   UNL A   1      34.501  30.899  27.576  1.00  0.00     0.039 A 
ATOM      9  C   UNL A   1      34.779  29.602  28.006  1.00  0.00     0.014 A 
ATOM     10  C   UNL A   1      35.459  31.906  27.722  1.00  0.00     0.014 A 
ATOM     11  C   UNL A   1      35.924  29.353  28.746  1.00  0.00     0.010 A 
ATOM     12  C   UNL A   1      36.667  31.625  28.367  1.00  0.00     0.010 A 
ATOM     13  C   UNL A   1      36.889  30.356  28.923  1.00  0.00    -0.014 A 
BRANCH  13  14
ATOM     14  C   UNL A   1      38.129  30.026  29.668  1.00  0.00     0.031 A 
ATOM     15  C   UNL A   1      38.340  30.516  31.073  1.00  0.00     0.074 A 
ATOM     16  C   UNL A   1      39.038  29.222  29.084  1.00  0.00     0.049 A 
ATOM     17  N   UNL A   1      39.335  30.273  31.890  1.00  0.00    -0.248 NA
ATOM     18  C   UNL A   1      37.310  31.401  31.634  1.00  0.00     0.031 C 
ATOM     19  C   UNL A   1      38.938  28.691  27.721  1.00  0.00     0.029 A 
ATOM     20  N   UNL A   1      40.204  28.682  29.562  1.00  0.00    -0.354 N 
ATOM     21  C   UNL A   1      39.063  30.993  33.046  1.00  0.00     0.074 A 
ATOM     22  C   UNL A   1      37.825  31.706  32.817  1.00  0.00     0.031 C 
ATOM     23  C   UNL A   1      39.960  27.854  27.498  1.00  0.00     0.029 A 
ATOM     24  C   UNL A   1      40.824  27.842  28.671  1.00  0.00     0.049 A 
ATOM     25  H   UNL A   1      40.560  28.878  30.460  1.00  0.00     0.167 HD
ATOM     26  C   UNL A   1      39.779  31.045  34.196  1.00  0.00     0.037 A 
ATOM     27  C   UNL A   1      41.970  27.148  28.782  1.00  0.00     0.037 A 
ATOM     28  C   UNL A   1      41.000  30.313  34.420  1.00  0.00     0.049 A 
ATOM     29  C   UNL A   1      42.751  27.241  30.062  1.00  0.00     0.074 A 
ATOM     30  C   UNL A   1      41.783  30.267  35.561  1.00  0.00     0.029 A 
ATOM     31  N   UNL A   1      41.619  29.499  33.480  1.00  0.00    -0.354 N 
ATOM     32  N   UNL A   1      42.466  27.897  31.160  1.00  0.00    -0.248 NA
ATOM     33  C   UNL A   1      44.015  26.495  30.116  1.00  0.00     0.031 C 
ATOM     34  C   UNL A   1      42.904  29.475  35.291  1.00  0.00     0.029 A 
ATOM     35  C   UNL A   1      42.787  28.969  34.007  1.00  0.00     0.049 A 
ATOM     36  H   UNL A   1      41.279  29.325  32.573  1.00  0.00     0.167 HD
ATOM     37  C   UNL A   1      43.496  27.619  32.048  1.00  0.00     0.074 A 
ATOM     38  C   UNL A   1      44.402  26.720  31.363  1.00  0.00     0.031 C 
ATOM     39  C   UNL A   1      43.673  28.067  33.315  1.00  0.00     0.037 A 
BRANCH  26  40
ATOM     40  C   UNL A   1      39.280  31.947  35.290  1.00  0.00     0.064 A 
ATOM     41  C   UNL A   1      39.551  33.324  35.302  1.00  0.00     0.173 A 
ATOM     42  C   UNL A   1      38.487  31.428  36.327  1.00  0.00     0.173 A 
ATOM     43  F   UNL A   1      40.314  33.871  34.343  1.00  0.00    -0.203 F 
ATOM     44  C   UNL A   1      39.073  34.140  36.325  1.00  0.00     0.198 A 
ATOM     45  C   UNL A   1      37.984  32.253  37.329  1.00  0.00     0.198 A 
ATOM     46  F   UNL A   1      38.192  30.121  36.362  1.00  0.00    -0.203 F 
ATOM     47  F   UNL A   1      39.389  35.443  36.343  1.00  0.00    -0.200 F 
ATOM     48  C   UNL A   1      38.284  33.607  37.332  1.00  0.00     0.200 A 
ATOM     49  F   UNL A   1      37.209  31.738  38.293  1.00  0.00    -0.200 F 
ATOM     50  F   UNL A   1      37.819  34.395  38.311  1.00  0.00    -0.200 F 
ENDBRANCH  26  40
BRANCH  27  51
ATOM     51  C   UNL A   1      42.440  26.304  27.652  1.00  0.00     0.064 A 
ATOM     52  C   UNL A   1      41.921  25.017  27.448  1.00  0.00     0.173 A 
ATOM     53  C   UNL A   1      43.413  26.765  26.753  1.00  0.00     0.173 A 
ATOM     54  F   UNL A   1      41.001  24.524  28.290  1.00  0.00    -0.203 F 
ATOM     55  C   UNL A   1      42.375  24.217  26.401  1.00  0.00     0.198 A 
ATOM     56  C   UNL A   1      43.840  25.978  25.687  1.00  0.00     0.198 A 
ATOM     57  F   UNL A   1      43.935  27.992  26.899  1.00  0.00    -0.203 F 
ATOM     58  F   UNL A   1      41.899  22.973  26.258  1.00  0.00    -0.200 F 
ATOM     59  C   UNL A   1      43.328  24.700  25.518  1.00  0.00     0.200 A 
ATOM     60  F   UNL A   1      44.746  26.457  24.824  1.00  0.00    -0.200 F 
ATOM     61  F   UNL A   1      43.760  23.932  24.508  1.00  0.00    -0.200 F 
ENDBRANCH  27  51
BRANCH  39  62
ATOM     62  C   UNL A   1      44.867  27.544  34.061  1.00  0.00     0.064 A 
ATOM     63  C   UNL A   1      46.098  28.216  34.060  1.00  0.00     0.173 A 
ATOM     64  C   UNL A   1      44.769  26.354  34.799  1.00  0.00     0.173 A 
ATOM     65  F   UNL A   1      46.247  29.349  33.358  1.00  0.00    -0.203 F 
ATOM     66  C   UNL A   1      47.196  27.696  34.739  1.00  0.00     0.198 A 
ATOM     67  C   UNL A   1      45.860  25.856  35.506  1.00  0.00     0.198 A 
ATOM     68  F   UNL A   1      43.613  25.674  34.840  1.00  0.00    -0.203 F 
ATOM     69  F   UNL A   1      48.380  28.322  34.671  1.00  0.00    -0.200 F 
ATOM     70  C   UNL A   1      47.076  26.521  35.465  1.00  0.00     0.200 A 
ATOM     71  F   UNL A   1      45.735  24.730  36.221  1.00  0.00    -0.200 F 
ATOM     72  F   UNL A   1      48.134  26.025  36.120  1.00  0.00    -0.200 F 
ENDBRANCH  39  62
ENDBRANCH  13  14
ENDBRANCH   6   8
ENDBRANCH   3   4
ENDBRANCH   2   3
ENDBRANCH   1   2
BRANCH   1  73
ATOM     73  N   UNL A   1      31.885  26.519  24.934  1.00  0.00    -0.354 N 
ATOM     74  C   UNL A   1      32.157  25.412  25.665  1.00  0.00     0.243 C 
ATOM     75  H   UNL A   1      31.036  26.943  25.199  1.00  0.00     0.163 HD
ATOM     76  O   UNL A   1      31.381  25.267  26.618  1.00  0.00    -0.273 OA
BRANCH  74  77
ATOM     77  C   UNL A   1      33.228  24.325  25.348  1.00  0.00     0.179 C 
ATOM     78  C   UNL A   1      34.640  24.852  25.651  1.00  0.00     0.071 C 
ATOM     79  N   UNL A   1      33.141  23.703  23.990  1.00  0.00    -0.323 N 
ATOM     80  C   UNL A   1      35.696  23.825  25.395  1.00  0.00    -0.040 A 
ATOM     81  C   UNL A   1      34.397  23.354  23.301  1.00  0.00     0.156 C 
ATOM     82  C   UNL A   1      36.837  23.719  26.195  1.00  0.00     0.004 A 
ATOM     83  C   UNL A   1      35.564  23.070  24.224  1.00  0.00    -0.025 A 
ATOM     84  C   UNL A   1      37.846  22.829  25.839  1.00  0.00     0.000 A 
ATOM     85  C   UNL A   1      36.579  22.170  23.883  1.00  0.00     0.006 A 
ATOM     86  C   UNL A   1      37.714  22.049  24.690  1.00  0.00     0.000 A 
BRANCH  79  87
ATOM     87  C   UNL A   1      32.004  23.148  23.411  1.00  0.00     0.261 C 
ATOM     88  O   UNL A   1      31.050  23.872  23.094  1.00  0.00    -0.271 OA
BRANCH  87  89
ATOM     89  C   UNL A   1      31.895  21.643  23.135  1.00  0.00     0.329 C 
BRANCH  89  90
ATOM     90  O   UNL A   1      32.012  20.740  24.217  1.00  0.00    -0.484 OA
BRANCH  90  91
ATOM     91  C   UNL A   1      32.842  19.673  24.045  1.00  0.00     0.120 A 
ATOM     92  C   UNL A   1      32.348  18.656  23.227  1.00  0.00     0.046 A 
ATOM     93  C   UNL A   1      34.066  19.503  24.692  1.00  0.00     0.046 A 
ATOM     94  C   UNL A   1      33.078  17.482  23.040  1.00  0.00     0.004 A 
ATOM     95  C   UNL A   1      34.791  18.322  24.516  1.00  0.00     0.004 A 
ATOM     96  C   UNL A   1      34.300  17.314  23.689  1.00  0.00     0.000 A 
ENDBRANCH  90  91
ENDBRANCH  89  90
ENDBRANCH  87  89
ENDBRANCH  79  87
ENDBRANCH  74  77
ENDBRANCH   1  73
TORSDOF 14
ENDMDL
MODEL 3
REMARK VINA RESULT:     -13.0      3.995      8.582
REMARK SMILES O=C(NCCCNC(=O)[C@@H]1Cc2ccccc2CN1C(=O)COc1ccccc1)c1ccc(-c2c3nc(c(-c4c(F)c(F)c(F)c(F)c4F)c4ccc([nH]4)c(-c4c(F)c(F)c(F)c(F)c4F)c4nc(c(-c5c(F)c(F)c(F)c(F)c5F)c5ccc2[nH]5)C=C4)C=C3)cc1
REMARK SMILES IDX 6 1 5 2 4 3 3 4 1 5 2 6 30 8 31 9 92 10 32 11 91 12 33 13
REMARK SMILES IDX 34 14 35 15 85 16 36 17 90 18 84 19 86 20 37 21 89 22 83 23
REMARK SMILES IDX 82 24 38 26 70 27 50 28 69 29 51 30 54 31 68 32 87 33 52 34
REMARK SMILES IDX 53 35 67 37 88 38 55 39 39 40 40 41 48 42 41 43 42 44 46 45
REMARK SMILES IDX 49 46 43 47 44 48 47 49 45 50 71 51 72 52 80 53 73 54 74 55
REMARK SMILES IDX 78 56 81 57 75 58 76 59 79 60 77 61 56 62 57 63 65 64 58 65
REMARK SMILES IDX 59 66 63 67 66 68 60 69 61 70 64 71 62 72 7 73 8 74 9 76
REMARK SMILES IDX 10 77 11 78 19 79 12 80 18 81 13 82 17 83 14 84 16 85 15 86
REMARK SMILES IDX 20 87 21 88 22 89 23 90 24 91 25 92 29 93 26 94 28 95 27 96
REMARK H PARENT 3 7 86 25 54 36 7 75
REMARK Flexibility Score: inf
ROOT
ATOM      1  C   UNL A   1      33.922  23.663  26.018  1.00  0.00     0.117 C 
ENDROOT
BRANCH   1   2
ATOM      2  C   UNL A   1      35.166  22.905  26.450  1.00  0.00     0.042 C 
BRANCH   2   3
ATOM      3  C   UNL A   1      36.445  23.532  25.897  1.00  0.00     0.118 C 
BRANCH   3   4
ATOM      4  N   UNL A   1      37.600  22.644  26.031  1.00  0.00    -0.352 N 
ATOM      5  O   UNL A   1      39.774  22.071  26.119  1.00  0.00    -0.269 OA
ATOM      6  C   UNL A   1      38.910  22.912  26.341  1.00  0.00     0.251 C 
ATOM      7  H   UNL A   1      37.404  21.692  25.872  1.00  0.00     0.163 HD
BRANCH   6   8
ATOM      8  C   UNL A   1      39.278  24.208  26.942  1.00  0.00     0.039 A 
ATOM      9  C   UNL A   1      39.884  25.192  26.163  1.00  0.00     0.014 A 
ATOM     10  C   UNL A   1      38.981  24.460  28.284  1.00  0.00     0.014 A 
ATOM     11  C   UNL A   1      40.363  26.346  26.763  1.00  0.00     0.010 A 
ATOM     12  C   UNL A   1      39.361  25.675  28.861  1.00  0.00     0.010 A 
ATOM     13  C   UNL A   1      40.095  26.609  28.115  1.00  0.00    -0.014 A 
BRANCH  13  14
ATOM     14  C   UNL A   1      40.573  27.887  28.700  1.00  0.00     0.031 A 
ATOM     15  C   UNL A   1      42.036  28.125  28.944  1.00  0.00     0.074 A 
ATOM     16  C   UNL A   1      39.674  28.859  28.948  1.00  0.00     0.049 A 
ATOM     17  N   UNL A   1      42.633  29.201  29.392  1.00  0.00    -0.248 NA
ATOM     18  C   UNL A   1      42.952  27.009  28.663  1.00  0.00     0.031 C 
ATOM     19  C   UNL A   1      38.226  28.735  28.751  1.00  0.00     0.029 A 
ATOM     20  N   UNL A   1      39.838  30.148  29.384  1.00  0.00    -0.354 N 
ATOM     21  C   UNL A   1      43.983  28.886  29.469  1.00  0.00     0.074 A 
ATOM     22  C   UNL A   1      44.117  27.508  29.050  1.00  0.00     0.031 C 
ATOM     23  C   UNL A   1      37.645  29.916  29.002  1.00  0.00     0.029 A 
ATOM     24  C   UNL A   1      38.665  30.858  29.445  1.00  0.00     0.049 A 
ATOM     25  H   UNL A   1      40.714  30.527  29.630  1.00  0.00     0.167 HD
ATOM     26  C   UNL A   1      45.015  29.680  29.847  1.00  0.00     0.037 A 
ATOM     27  C   UNL A   1      38.434  32.127  29.827  1.00  0.00     0.037 A 
ATOM     28  C   UNL A   1      44.870  31.058  30.241  1.00  0.00     0.049 A 
ATOM     29  C   UNL A   1      39.596  32.975  30.258  1.00  0.00     0.074 A 
ATOM     30  C   UNL A   1      45.855  31.960  30.606  1.00  0.00     0.029 A 
ATOM     31  N   UNL A   1      43.661  31.735  30.326  1.00  0.00    -0.354 N 
ATOM     32  N   UNL A   1      40.872  32.676  30.293  1.00  0.00    -0.248 NA
ATOM     33  C   UNL A   1      39.284  34.339  30.702  1.00  0.00     0.031 C 
ATOM     34  C   UNL A   1      45.237  33.161  30.967  1.00  0.00     0.029 A 
ATOM     35  C   UNL A   1      43.873  33.034  30.762  1.00  0.00     0.049 A 
ATOM     36  H   UNL A   1      42.782  31.349  30.108  1.00  0.00     0.167 HD
ATOM     37  C   UNL A   1      41.519  33.822  30.731  1.00  0.00     0.074 A 
ATOM     38  C   UNL A   1      40.495  34.827  30.933  1.00  0.00     0.031 C 
ATOM     39  C   UNL A   1      42.843  34.024  30.947  1.00  0.00     0.037 A 
BRANCH  26  40
ATOM     40  C   UNL A   1      46.388  29.070  29.883  1.00  0.00     0.064 A 
ATOM     41  C   UNL A   1      46.897  28.449  31.034  1.00  0.00     0.173 A 
ATOM     42  C   UNL A   1      47.195  29.077  28.734  1.00  0.00     0.173 A 
ATOM     43  F   UNL A   1      46.175  28.424  32.164  1.00  0.00    -0.203 F 
ATOM     44  C   UNL A   1      48.172  27.886  31.042  1.00  0.00     0.198 A 
ATOM     45  C   UNL A   1      48.455  28.484  28.736  1.00  0.00     0.198 A 
ATOM     46  F   UNL A   1      46.757  29.651  27.604  1.00  0.00    -0.203 F 
ATOM     47  F   UNL A   1      48.657  27.346  32.169  1.00  0.00    -0.200 F 
ATOM     48  C   UNL A   1      48.946  27.897  29.892  1.00  0.00     0.200 A 
ATOM     49  F   UNL A   1      49.196  28.483  27.619  1.00  0.00    -0.200 F 
ATOM     50  F   UNL A   1      50.169  27.349  29.900  1.00  0.00    -0.200 F 
ENDBRANCH  26  40
BRANCH  27  51
ATOM     51  C   UNL A   1      37.049  32.667  29.812  1.00  0.00     0.064 A 
ATOM     52  C   UNL A   1      36.529  33.288  28.667  1.00  0.00     0.173 A 
ATOM     53  C   UNL A   1      36.217  32.571  30.937  1.00  0.00     0.173 A 
ATOM     54  F   UNL A   1      37.290  33.419  27.571  1.00  0.00    -0.203 F 
ATOM     55  C   UNL A   1      35.238  33.812  28.658  1.00  0.00     0.198 A 
ATOM     56  C   UNL A   1      34.915  33.064  30.915  1.00  0.00     0.198 A 
ATOM     57  F   UNL A   1      36.664  31.978  32.054  1.00  0.00    -0.203 F 
ATOM     58  F   UNL A   1      34.783  34.445  27.568  1.00  0.00    -0.200 F 
ATOM     59  C   UNL A   1      34.430  33.694  29.779  1.00  0.00     0.200 A 
ATOM     60  F   UNL A   1      34.131  32.929  31.994  1.00  0.00    -0.200 F 
ATOM     61  F   UNL A   1      33.186  34.193  29.767  1.00  0.00    -0.200 F 
ENDBRANCH  27  51
BRANCH  39  62
ATOM     62  C   UNL A   1      43.260  35.403  31.371  1.00  0.00     0.064 A 
ATOM     63  C   UNL A   1      43.297  35.787  32.720  1.00  0.00     0.173 A 
ATOM     64  C   UNL A   1      43.642  36.350  30.408  1.00  0.00     0.173 A 
ATOM     65  F   UNL A   1      42.926  34.924  33.677  1.00  0.00    -0.203 F 
ATOM     66  C   UNL A   1      43.662  37.079  33.085  1.00  0.00     0.198 A 
ATOM     67  C   UNL A   1      44.043  37.630  30.780  1.00  0.00     0.198 A 
ATOM     68  F   UNL A   1      43.633  36.033  29.105  1.00  0.00    -0.203 F 
ATOM     69  F   UNL A   1      43.628  37.443  34.375  1.00  0.00    -0.200 F 
ATOM     70  C   UNL A   1      44.041  37.997  32.118  1.00  0.00     0.200 A 
ATOM     71  F   UNL A   1      44.423  38.510  29.844  1.00  0.00    -0.200 F 
ATOM     72  F   UNL A   1      44.395  39.239  32.472  1.00  0.00    -0.200 F 
ENDBRANCH  39  62
ENDBRANCH  13  14
ENDBRANCH   6   8
ENDBRANCH   3   4
ENDBRANCH   2   3
ENDBRANCH   1   2
BRANCH   1  73
ATOM     73  N   UNL A   1      33.945  24.011  24.612  1.00  0.00    -0.354 N 
ATOM     74  C   UNL A   1      33.860  25.160  23.902  1.00  0.00     0.243 C 
ATOM     75  H   UNL A   1      34.048  23.221  24.032  1.00  0.00     0.163 HD
ATOM     76  O   UNL A   1      34.102  24.999  22.699  1.00  0.00    -0.273 OA
BRANCH  74  77
ATOM     77  C   UNL A   1      33.400  26.553  24.433  1.00  0.00     0.179 C 
ATOM     78  C   UNL A   1      34.178  26.931  25.703  1.00  0.00     0.071 C 
ATOM     79  N   UNL A   1      31.924  26.726  24.607  1.00  0.00    -0.323 N 
ATOM     80  C   UNL A   1      33.792  28.279  26.224  1.00  0.00    -0.040 A 
ATOM     81  C   UNL A   1      31.447  27.529  25.748  1.00  0.00     0.156 C 
ATOM     82  C   UNL A   1      34.722  29.141  26.812  1.00  0.00     0.004 A 
ATOM     83  C   UNL A   1      32.425  28.578  26.234  1.00  0.00    -0.025 A 
ATOM     84  C   UNL A   1      34.287  30.328  27.392  1.00  0.00     0.000 A 
ATOM     85  C   UNL A   1      32.001  29.781  26.808  1.00  0.00     0.006 A 
ATOM     86  C   UNL A   1      32.931  30.653  27.382  1.00  0.00     0.000 A 
BRANCH  79  87
ATOM     87  C   UNL A   1      30.946  26.456  23.655  1.00  0.00     0.261 C 
ATOM     88  O   UNL A   1      30.176  25.497  23.807  1.00  0.00    -0.271 OA
BRANCH  87  89
ATOM     89  C   UNL A   1      30.776  27.331  22.407  1.00  0.00     0.329 C 
BRANCH  89  90
ATOM     90  O   UNL A   1      30.905  28.734  22.533  1.00  0.00    -0.484 OA
BRANCH  90  91
ATOM     91  C   UNL A   1      29.769  29.437  22.803  1.00  0.00     0.120 A 
ATOM     92  C   UNL A   1      29.956  30.631  23.501  1.00  0.00     0.046 A 
ATOM     93  C   UNL A   1      28.475  28.999  22.521  1.00  0.00     0.046 A 
ATOM     94  C   UNL A   1      28.859  31.396  23.899  1.00  0.00     0.004 A 
ATOM     95  C   UNL A   1      27.377  29.758  22.931  1.00  0.00     0.004 A 
ATOM     96  C   UNL A   1      27.568  30.956  23.617  1.00  0.00     0.000 A 
ENDBRANCH  90  91
ENDBRANCH  89  90
ENDBRANCH  87  89
ENDBRANCH  79  87
ENDBRANCH  74  77
ENDBRANCH   1  73
TORSDOF 14
ENDMDL
