MODEL 1
REMARK VINA RESULT:     -14.1      0.000      0.000
REMARK SMILES COC(=O)c1ccc2c(c1)=N[C@H](c1cn(CCC(=O)NCCCNC(=O)c3ccc(-c4c5nc(c(-c6c(F)c(F)c(F)c(F)c6F)c6ccc([nH]6)c(-c6c(F)c(F)c(F)c(F)c6F)c6nc(c(-c7c(F)c(F)c(F)c(F)c7F)c7ccc4[nH]7)C=C6)C=C5)cc3)c3ccccc13)N=2
REMARK SMILES IDX 18 1 19 2 20 3 17 5 16 6 15 7 13 8 14 9 95 10 90 11 94 12
REMARK SMILES IDX 91 13 93 14 92 15 12 16 5 17 6 18 10 19 7 20 9 21 8 22 11 23
REMARK SMILES IDX 96 24 3 25 4 26 2 27 1 28 21 29 22 30 23 31 24 32 25 33
REMARK SMILES IDX 26 35 27 36 28 37 89 38 29 39 88 40 30 41 31 42 32 43 82 44
REMARK SMILES IDX 33 45 87 46 81 47 83 48 34 49 86 50 80 51 79 52 35 54 67 55
REMARK SMILES IDX 47 56 66 57 48 58 51 59 65 60 84 61 49 62 50 63 64 65 85 66
REMARK SMILES IDX 52 67 36 68 37 69 45 70 38 71 39 72 43 73 46 74 40 75 41 76
REMARK SMILES IDX 44 77 42 78 68 79 69 80 77 81 70 82 71 83 75 84 78 85 72 86
REMARK SMILES IDX 73 87 76 88 74 89 53 90 54 91 62 92 55 93 56 94 60 95 63 96
REMARK SMILES IDX 57 97 58 98 61 99 59 100
REMARK H PARENT 20 4 24 34 83 53 51 64
REMARK Flexibility Score: inf
ROOT
ATOM      1  C   UNL A   1      29.796  30.320  23.707  1.00  0.00     0.221 C 
ATOM      2  O   UNL A   1      28.816  31.053  23.539  1.00  0.00    -0.275 OA
ATOM      3  N   UNL A   1      30.678  30.691  24.683  1.00  0.00    -0.356 N 
ATOM      4  H   UNL A   1      30.477  31.575  25.065  1.00  0.00     0.163 HD
ENDROOT
BRANCH   1   5
ATOM      5  C   UNL A   1      29.929  29.048  22.890  1.00  0.00     0.122 C 
BRANCH   5   6
ATOM      6  C   UNL A   1      29.153  27.853  23.511  1.00  0.00     0.132 C 
BRANCH   6   7
ATOM      7  N   UNL A   1      29.856  26.561  23.441  1.00  0.00    -0.347 N 
ATOM      8  C   UNL A   1      30.532  25.305  25.120  1.00  0.00     0.024 A 
ATOM      9  C   UNL A   1      29.448  25.544  24.267  1.00  0.00     0.094 A 
ATOM     10  C   UNL A   1      31.476  26.369  24.814  1.00  0.00     0.007 A 
ATOM     11  C   UNL A   1      31.233  26.436  23.441  1.00  0.00     0.048 A 
ATOM     12  C   UNL A   1      32.780  26.761  25.151  1.00  0.00     0.011 A 
ATOM     13  C   UNL A   1      32.222  25.913  22.584  1.00  0.00     0.027 A 
ATOM     14  C   UNL A   1      33.833  26.487  24.288  1.00  0.00     0.001 A 
ATOM     15  C   UNL A   1      33.544  25.899  23.071  1.00  0.00     0.002 A 
BRANCH   8  16
ATOM     16  C   UNL A   1      30.568  24.039  25.919  1.00  0.00     0.255 C 
ATOM     17  C   UNL A   1      34.297  21.552  25.972  1.00  0.00     0.062 A 
ATOM     18  C   UNL A   1      34.047  21.671  27.400  1.00  0.00     0.018 A 
ATOM     19  C   UNL A   1      33.368  21.922  25.074  1.00  0.00     0.046 A 
ATOM     20  C   UNL A   1      33.046  22.394  27.917  1.00  0.00     0.031 A 
ATOM     21  C   UNL A   1      32.207  22.657  25.584  1.00  0.00     0.087 A 
ATOM     22  C   UNL A   1      32.185  23.110  26.983  1.00  0.00     0.086 A 
ATOM     23  N   UNL A   1      31.149  23.030  24.969  1.00  0.00    -0.252 NA
ATOM     24  N   UNL A   1      31.331  24.051  27.192  1.00  0.00    -0.252 NA
BRANCH  17  25
ATOM     25  C   UNL A   1      35.560  20.957  25.449  1.00  0.00     0.337 C 
ATOM     26  O   UNL A   1      35.612  19.901  24.815  1.00  0.00    -0.246 OA
BRANCH  25  27
ATOM     27  O   UNL A   1      36.614  21.758  25.731  1.00  0.00    -0.465 OA
ATOM     28  C   UNL A   1      37.255  22.369  24.606  1.00  0.00     0.282 C 
ENDBRANCH  25  27
ENDBRANCH  17  25
ENDBRANCH   8  16
ENDBRANCH   6   7
ENDBRANCH   5   6
ENDBRANCH   1   5
BRANCH   3  29
ATOM     29  C   UNL A   1      31.857  30.065  25.285  1.00  0.00     0.117 C 
BRANCH  29  30
ATOM     30  C   UNL A   1      31.995  30.124  26.832  1.00  0.00     0.042 C 
BRANCH  30  31
ATOM     31  C   UNL A   1      33.376  30.370  27.452  1.00  0.00     0.118 C 
BRANCH  31  32
ATOM     32  N   UNL A   1      33.819  31.737  27.602  1.00  0.00    -0.352 N 
ATOM     33  C   UNL A   1      35.060  32.291  27.802  1.00  0.00     0.251 C 
ATOM     34  H   UNL A   1      33.092  32.399  27.554  1.00  0.00     0.163 HD
ATOM     35  O   UNL A   1      35.194  33.486  27.529  1.00  0.00    -0.269 OA
BRANCH  33  36
ATOM     36  C   UNL A   1      36.198  31.600  28.458  1.00  0.00     0.039 A 
ATOM     37  C   UNL A   1      37.124  32.159  29.332  1.00  0.00     0.014 A 
ATOM     38  C   UNL A   1      36.289  30.225  28.179  1.00  0.00     0.014 A 
ATOM     39  C   UNL A   1      38.218  31.392  29.756  1.00  0.00     0.010 A 
ATOM     40  C   UNL A   1      37.378  29.470  28.601  1.00  0.00     0.010 A 
ATOM     41  C   UNL A   1      38.421  30.086  29.280  1.00  0.00    -0.014 A 
BRANCH  41  42
ATOM     42  C   UNL A   1      39.719  29.396  29.470  1.00  0.00     0.031 A 
ATOM     43  C   UNL A   1      40.164  29.169  30.876  1.00  0.00     0.074 A 
ATOM     44  C   UNL A   1      40.470  28.941  28.428  1.00  0.00     0.049 A 
ATOM     45  N   UNL A   1      41.344  29.396  31.360  1.00  0.00    -0.248 NA
ATOM     46  C   UNL A   1      39.196  28.695  31.878  1.00  0.00     0.031 C 
ATOM     47  C   UNL A   1      40.088  28.936  27.010  1.00  0.00     0.029 A 
ATOM     48  N   UNL A   1      41.687  28.295  28.393  1.00  0.00    -0.354 N 
ATOM     49  C   UNL A   1      41.319  28.963  32.683  1.00  0.00     0.074 A 
ATOM     50  C   UNL A   1      39.951  28.620  32.977  1.00  0.00     0.031 C 
ATOM     51  C   UNL A   1      40.875  28.080  26.325  1.00  0.00     0.029 A 
ATOM     52  C   UNL A   1      41.921  27.599  27.204  1.00  0.00     0.049 A 
ATOM     53  H   UNL A   1      42.332  28.321  29.137  1.00  0.00     0.167 HD
ATOM     54  C   UNL A   1      42.469  28.722  33.374  1.00  0.00     0.037 A 
ATOM     55  C   UNL A   1      42.876  26.668  26.951  1.00  0.00     0.037 A 
ATOM     56  C   UNL A   1      43.634  29.344  32.802  1.00  0.00     0.049 A 
ATOM     57  C   UNL A   1      43.999  26.888  27.878  1.00  0.00     0.074 A 
ATOM     58  C   UNL A   1      44.504  30.373  33.091  1.00  0.00     0.029 A 
ATOM     59  N   UNL A   1      43.946  28.925  31.543  1.00  0.00    -0.354 N 
ATOM     60  N   UNL A   1      44.791  27.921  27.818  1.00  0.00    -0.248 NA
ATOM     61  C   UNL A   1      44.093  26.075  29.088  1.00  0.00     0.031 C 
ATOM     62  C   UNL A   1      45.282  30.615  31.923  1.00  0.00     0.029 A 
ATOM     63  C   UNL A   1      44.979  29.635  30.998  1.00  0.00     0.049 A 
ATOM     64  H   UNL A   1      43.479  28.192  31.079  1.00  0.00     0.167 HD
ATOM     65  C   UNL A   1      45.163  28.115  29.124  1.00  0.00     0.074 A 
ATOM     66  C   UNL A   1      44.856  26.878  29.830  1.00  0.00     0.031 C 
ATOM     67  C   UNL A   1      45.326  29.364  29.633  1.00  0.00     0.037 A 
BRANCH  54  68
ATOM     68  C   UNL A   1      42.598  27.582  34.349  1.00  0.00     0.064 A 
ATOM     69  C   UNL A   1      43.122  26.339  33.951  1.00  0.00     0.173 A 
ATOM     70  C   UNL A   1      41.934  27.599  35.596  1.00  0.00     0.173 A 
ATOM     71  F   UNL A   1      43.735  26.205  32.766  1.00  0.00    -0.203 F 
ATOM     72  C   UNL A   1      42.977  25.194  34.742  1.00  0.00     0.198 A 
ATOM     73  C   UNL A   1      41.837  26.469  36.405  1.00  0.00     0.198 A 
ATOM     74  F   UNL A   1      41.273  28.686  36.020  1.00  0.00    -0.203 F 
ATOM     75  F   UNL A   1      43.418  24.012  34.291  1.00  0.00    -0.200 F 
ATOM     76  C   UNL A   1      42.341  25.262  35.970  1.00  0.00     0.200 A 
ATOM     77  F   UNL A   1      41.192  26.551  37.578  1.00  0.00    -0.200 F 
ATOM     78  F   UNL A   1      42.177  24.161  36.715  1.00  0.00    -0.200 F 
ENDBRANCH  54  68
BRANCH  55  79
ATOM     79  C   UNL A   1      42.782  25.406  26.163  1.00  0.00     0.064 A 
ATOM     80  C   UNL A   1      43.777  25.071  25.222  1.00  0.00     0.173 A 
ATOM     81  C   UNL A   1      41.925  24.363  26.557  1.00  0.00     0.173 A 
ATOM     82  F   UNL A   1      44.654  25.996  24.805  1.00  0.00    -0.203 F 
ATOM     83  C   UNL A   1      43.952  23.758  24.770  1.00  0.00     0.198 A 
ATOM     84  C   UNL A   1      42.095  23.056  26.096  1.00  0.00     0.198 A 
ATOM     85  F   UNL A   1      40.973  24.566  27.478  1.00  0.00    -0.203 F 
ATOM     86  F   UNL A   1      44.972  23.464  23.951  1.00  0.00    -0.200 F 
ATOM     87  C   UNL A   1      43.124  22.748  25.223  1.00  0.00     0.200 A 
ATOM     88  F   UNL A   1      41.305  22.079  26.566  1.00  0.00    -0.200 F 
ATOM     89  F   UNL A   1      43.342  21.477  24.860  1.00  0.00    -0.200 F 
ENDBRANCH  55  79
BRANCH  67  90
ATOM     90  C   UNL A   1      45.719  30.481  28.731  1.00  0.00     0.064 A 
ATOM     91  C   UNL A   1      47.032  30.760  28.326  1.00  0.00     0.173 A 
ATOM     92  C   UNL A   1      44.688  31.257  28.185  1.00  0.00     0.173 A 
ATOM     93  F   UNL A   1      48.061  30.017  28.760  1.00  0.00    -0.203 F 
ATOM     94  C   UNL A   1      47.294  31.786  27.417  1.00  0.00     0.198 A 
ATOM     95  C   UNL A   1      44.948  32.253  27.253  1.00  0.00     0.198 A 
ATOM     96  F   UNL A   1      43.412  31.020  28.531  1.00  0.00    -0.203 F 
ATOM     97  F   UNL A   1      48.555  32.046  27.041  1.00  0.00    -0.200 F 
ATOM     98  C   UNL A   1      46.251  32.522  26.873  1.00  0.00     0.200 A 
ATOM     99  F   UNL A   1      43.930  32.932  26.706  1.00  0.00    -0.200 F 
ATOM    100  F   UNL A   1      46.499  33.477  25.966  1.00  0.00    -0.200 F 
ENDBRANCH  67  90
ENDBRANCH  41  42
ENDBRANCH  33  36
ENDBRANCH  31  32
ENDBRANCH  30  31
ENDBRANCH  29  30
ENDBRANCH   3  29
TORSDOF 15
ENDMDL
MODEL 2
REMARK VINA RESULT:     -13.9      1.272      2.041
REMARK SMILES COC(=O)c1ccc2c(c1)=N[C@H](c1cn(CCC(=O)NCCCNC(=O)c3ccc(-c4c5nc(c(-c6c(F)c(F)c(F)c(F)c6F)c6ccc([nH]6)c(-c6c(F)c(F)c(F)c(F)c6F)c6nc(c(-c7c(F)c(F)c(F)c(F)c7F)c7ccc4[nH]7)C=C6)C=C5)cc3)c3ccccc13)N=2
REMARK SMILES IDX 18 1 19 2 20 3 17 5 16 6 15 7 13 8 14 9 95 10 90 11 94 12
REMARK SMILES IDX 91 13 93 14 92 15 12 16 5 17 6 18 10 19 7 20 9 21 8 22 11 23
REMARK SMILES IDX 96 24 3 25 4 26 2 27 1 28 21 29 22 30 23 31 24 32 25 33
REMARK SMILES IDX 26 35 27 36 28 37 89 38 29 39 88 40 30 41 31 42 32 43 82 44
REMARK SMILES IDX 33 45 87 46 81 47 83 48 34 49 86 50 80 51 79 52 35 54 67 55
REMARK SMILES IDX 47 56 66 57 48 58 51 59 65 60 84 61 49 62 50 63 64 65 85 66
REMARK SMILES IDX 52 67 36 68 37 69 45 70 38 71 39 72 43 73 46 74 40 75 41 76
REMARK SMILES IDX 44 77 42 78 68 79 69 80 77 81 70 82 71 83 75 84 78 85 72 86
REMARK SMILES IDX 73 87 76 88 74 89 53 90 54 91 62 92 55 93 56 94 60 95 63 96
REMARK SMILES IDX 57 97 58 98 61 99 59 100
REMARK H PARENT 20 4 24 34 83 53 51 64
REMARK Flexibility Score: inf
ROOT
ATOM      1  C   UNL A   1      31.214  30.284  25.371  1.00  0.00     0.221 C 
ATOM      2  O   UNL A   1      30.577  31.339  25.301  1.00  0.00    -0.275 OA
ATOM      3  N   UNL A   1      31.709  29.947  26.599  1.00  0.00    -0.356 N 
ATOM      4  H   UNL A   1      31.587  30.658  27.269  1.00  0.00     0.163 HD
ENDROOT
BRANCH   1   5
ATOM      5  C   UNL A   1      31.354  29.410  24.137  1.00  0.00     0.122 C 
BRANCH   5   6
ATOM      6  C   UNL A   1      30.019  28.720  23.738  1.00  0.00     0.132 C 
BRANCH   6   7
ATOM      7  N   UNL A   1      30.120  27.266  23.526  1.00  0.00    -0.347 N 
ATOM      8  C   UNL A   1      30.836  25.746  24.952  1.00  0.00     0.024 A 
ATOM      9  C   UNL A   1      29.690  26.425  24.522  1.00  0.00     0.094 A 
ATOM     10  C   UNL A   1      31.929  26.398  24.247  1.00  0.00     0.007 A 
ATOM     11  C   UNL A   1      31.254  26.637  23.048  1.00  0.00     0.048 A 
ATOM     12  C   UNL A   1      33.312  26.253  24.067  1.00  0.00     0.011 A 
ATOM     13  C   UNL A   1      31.602  25.837  21.941  1.00  0.00     0.027 A 
ATOM     14  C   UNL A   1      33.806  25.661  22.911  1.00  0.00     0.001 A 
ATOM     15  C   UNL A   1      32.905  25.301  21.927  1.00  0.00     0.002 A 
BRANCH   8  16
ATOM     16  C   UNL A   1      30.685  24.511  25.784  1.00  0.00     0.255 C 
ATOM     17  C   UNL A   1      33.977  21.470  25.864  1.00  0.00     0.062 A 
ATOM     18  C   UNL A   1      33.770  21.663  27.291  1.00  0.00     0.018 A 
ATOM     19  C   UNL A   1      33.104  21.958  24.966  1.00  0.00     0.046 A 
ATOM     20  C   UNL A   1      32.903  22.547  27.799  1.00  0.00     0.031 A 
ATOM     21  C   UNL A   1      32.081  22.880  25.468  1.00  0.00     0.087 A 
ATOM     22  C   UNL A   1      32.151  23.366  26.855  1.00  0.00     0.086 A 
ATOM     23  N   UNL A   1      31.085  23.399  24.855  1.00  0.00    -0.252 NA
ATOM     24  N   UNL A   1      31.459  24.434  27.047  1.00  0.00    -0.252 NA
BRANCH  17  25
ATOM     25  C   UNL A   1      35.122  20.670  25.344  1.00  0.00     0.337 C 
ATOM     26  O   UNL A   1      34.997  19.661  24.647  1.00  0.00    -0.246 OA
BRANCH  25  27
ATOM     27  O   UNL A   1      36.298  21.234  25.705  1.00  0.00    -0.465 OA
ATOM     28  C   UNL A   1      37.379  21.079  24.780  1.00  0.00     0.282 C 
ENDBRANCH  25  27
ENDBRANCH  17  25
ENDBRANCH   8  16
ENDBRANCH   6   7
ENDBRANCH   5   6
ENDBRANCH   1   5
BRANCH   3  29
ATOM     29  C   UNL A   1      32.381  28.764  27.140  1.00  0.00     0.117 C 
BRANCH  29  30
ATOM     30  C   UNL A   1      33.934  28.788  27.218  1.00  0.00     0.042 C 
BRANCH  30  31
ATOM     31  C   UNL A   1      34.661  30.137  27.252  1.00  0.00     0.118 C 
BRANCH  31  32
ATOM     32  N   UNL A   1      34.408  31.017  28.370  1.00  0.00    -0.352 N 
ATOM     33  C   UNL A   1      35.237  31.596  29.298  1.00  0.00     0.251 C 
ATOM     34  H   UNL A   1      33.458  31.246  28.489  1.00  0.00     0.163 HD
ATOM     35  O   UNL A   1      34.807  32.580  29.903  1.00  0.00    -0.269 OA
BRANCH  33  36
ATOM     36  C   UNL A   1      36.544  31.037  29.729  1.00  0.00     0.039 A 
ATOM     37  C   UNL A   1      37.761  31.707  29.785  1.00  0.00     0.014 A 
ATOM     38  C   UNL A   1      36.496  29.701  30.163  1.00  0.00     0.014 A 
ATOM     39  C   UNL A   1      38.926  30.990  30.090  1.00  0.00     0.010 A 
ATOM     40  C   UNL A   1      37.655  28.994  30.462  1.00  0.00     0.010 A 
ATOM     41  C   UNL A   1      38.894  29.600  30.294  1.00  0.00    -0.014 A 
BRANCH  41  42
ATOM     42  C   UNL A   1      40.141  28.799  30.300  1.00  0.00     0.031 A 
ATOM     43  C   UNL A   1      40.778  28.551  31.627  1.00  0.00     0.074 A 
ATOM     44  C   UNL A   1      40.679  28.266  29.167  1.00  0.00     0.049 A 
ATOM     45  N   UNL A   1      42.034  28.677  31.917  1.00  0.00    -0.248 NA
ATOM     46  C   UNL A   1      39.941  28.178  32.778  1.00  0.00     0.031 C 
ATOM     47  C   UNL A   1      40.082  28.277  27.825  1.00  0.00     0.029 A 
ATOM     48  N   UNL A   1      41.815  27.513  28.962  1.00  0.00    -0.354 N 
ATOM     49  C   UNL A   1      42.178  28.265  33.239  1.00  0.00     0.074 A 
ATOM     50  C   UNL A   1      40.847  28.049  33.749  1.00  0.00     0.031 C 
ATOM     51  C   UNL A   1      40.676  27.346  27.050  1.00  0.00     0.029 A 
ATOM     52  C   UNL A   1      41.801  26.784  27.771  1.00  0.00     0.049 A 
ATOM     53  H   UNL A   1      42.568  27.490  29.597  1.00  0.00     0.167 HD
ATOM     54  C   UNL A   1      43.396  27.931  33.751  1.00  0.00     0.037 A 
ATOM     55  C   UNL A   1      42.620  25.768  27.398  1.00  0.00     0.037 A 
ATOM     56  C   UNL A   1      44.507  28.439  32.990  1.00  0.00     0.049 A 
ATOM     57  C   UNL A   1      43.889  25.898  28.136  1.00  0.00     0.074 A 
ATOM     58  C   UNL A   1      45.497  29.390  33.115  1.00  0.00     0.029 A 
ATOM     59  N   UNL A   1      44.582  27.978  31.711  1.00  0.00    -0.354 N 
ATOM     60  N   UNL A   1      44.748  26.856  27.927  1.00  0.00    -0.248 NA
ATOM     61  C   UNL A   1      44.099  25.096  29.337  1.00  0.00     0.031 C 
ATOM     62  C   UNL A   1      46.102  29.547  31.836  1.00  0.00     0.029 A 
ATOM     63  C   UNL A   1      45.575  28.586  30.995  1.00  0.00     0.049 A 
ATOM     64  H   UNL A   1      43.988  27.284  31.343  1.00  0.00     0.167 HD
ATOM     65  C   UNL A   1      45.334  27.032  29.155  1.00  0.00     0.074 A 
ATOM     66  C   UNL A   1      45.035  25.836  29.932  1.00  0.00     0.031 C 
ATOM     67  C   UNL A   1      45.682  28.268  29.600  1.00  0.00     0.037 A 
BRANCH  54  68
ATOM     68  C   UNL A   1      43.576  26.797  34.724  1.00  0.00     0.064 A 
ATOM     69  C   UNL A   1      43.810  27.039  36.090  1.00  0.00     0.173 A 
ATOM     70  C   UNL A   1      43.824  25.478  34.283  1.00  0.00     0.173 A 
ATOM     71  F   UNL A   1      43.645  28.267  36.603  1.00  0.00    -0.203 F 
ATOM     72  C   UNL A   1      44.272  26.033  36.946  1.00  0.00     0.198 A 
ATOM     73  C   UNL A   1      44.234  24.465  35.148  1.00  0.00     0.198 A 
ATOM     74  F   UNL A   1      43.774  25.156  32.982  1.00  0.00    -0.203 F 
ATOM     75  F   UNL A   1      44.560  26.324  38.222  1.00  0.00    -0.200 F 
ATOM     76  C   UNL A   1      44.476  24.747  36.475  1.00  0.00     0.200 A 
ATOM     77  F   UNL A   1      44.453  23.234  34.666  1.00  0.00    -0.200 F 
ATOM     78  F   UNL A   1      44.945  23.790  37.288  1.00  0.00    -0.200 F 
ENDBRANCH  54  68
BRANCH  55  79
ATOM     79  C   UNL A   1      42.297  24.510  26.667  1.00  0.00     0.064 A 
ATOM     80  C   UNL A   1      43.092  24.082  25.586  1.00  0.00     0.173 A 
ATOM     81  C   UNL A   1      41.434  23.546  27.222  1.00  0.00     0.173 A 
ATOM     82  F   UNL A   1      43.960  24.927  25.008  1.00  0.00    -0.203 F 
ATOM     83  C   UNL A   1      43.084  22.755  25.143  1.00  0.00     0.198 A 
ATOM     84  C   UNL A   1      41.421  22.224  26.771  1.00  0.00     0.198 A 
ATOM     85  F   UNL A   1      40.668  23.838  28.280  1.00  0.00    -0.203 F 
ATOM     86  F   UNL A   1      43.928  22.367  24.176  1.00  0.00    -0.200 F 
ATOM     87  C   UNL A   1      42.263  21.822  25.751  1.00  0.00     0.200 A 
ATOM     88  F   UNL A   1      40.643  21.323  27.388  1.00  0.00    -0.200 F 
ATOM     89  F   UNL A   1      42.316  20.534  25.388  1.00  0.00    -0.200 F 
ENDBRANCH  55  79
BRANCH  67  90
ATOM     90  C   UNL A   1      46.024  29.333  28.619  1.00  0.00     0.064 A 
ATOM     91  C   UNL A   1      45.112  30.253  28.084  1.00  0.00     0.173 A 
ATOM     92  C   UNL A   1      47.374  29.475  28.271  1.00  0.00     0.173 A 
ATOM     93  F   UNL A   1      43.814  30.216  28.422  1.00  0.00    -0.203 F 
ATOM     94  C   UNL A   1      45.541  31.266  27.224  1.00  0.00     0.198 A 
ATOM     95  C   UNL A   1      47.805  30.505  27.446  1.00  0.00     0.198 A 
ATOM     96  F   UNL A   1      48.290  28.627  28.769  1.00  0.00    -0.203 F 
ATOM     97  F   UNL A   1      44.657  32.137  26.715  1.00  0.00    -0.200 F 
ATOM     98  C   UNL A   1      46.888  31.397  26.918  1.00  0.00     0.200 A 
ATOM     99  F   UNL A   1      49.112  30.646  27.186  1.00  0.00    -0.200 F 
ATOM    100  F   UNL A   1      47.307  32.397  26.129  1.00  0.00    -0.200 F 
ENDBRANCH  67  90
ENDBRANCH  41  42
ENDBRANCH  33  36
ENDBRANCH  31  32
ENDBRANCH  30  31
ENDBRANCH  29  30
ENDBRANCH   3  29
TORSDOF 15
ENDMDL
MODEL 3
REMARK VINA RESULT:     -13.5      1.810      2.814
REMARK SMILES COC(=O)c1ccc2c(c1)=N[C@H](c1cn(CCC(=O)NCCCNC(=O)c3ccc(-c4c5nc(c(-c6c(F)c(F)c(F)c(F)c6F)c6ccc([nH]6)c(-c6c(F)c(F)c(F)c(F)c6F)c6nc(c(-c7c(F)c(F)c(F)c(F)c7F)c7ccc4[nH]7)C=C6)C=C5)cc3)c3ccccc13)N=2
REMARK SMILES IDX 18 1 19 2 20 3 17 5 16 6 15 7 13 8 14 9 95 10 90 11 94 12
REMARK SMILES IDX 91 13 93 14 92 15 12 16 5 17 6 18 10 19 7 20 9 21 8 22 11 23
REMARK SMILES IDX 96 24 3 25 4 26 2 27 1 28 21 29 22 30 23 31 24 32 25 33
REMARK SMILES IDX 26 35 27 36 28 37 89 38 29 39 88 40 30 41 31 42 32 43 82 44
REMARK SMILES IDX 33 45 87 46 81 47 83 48 34 49 86 50 80 51 79 52 35 54 67 55
REMARK SMILES IDX 47 56 66 57 48 58 51 59 65 60 84 61 49 62 50 63 64 65 85 66
REMARK SMILES IDX 52 67 36 68 37 69 45 70 38 71 39 72 43 73 46 74 40 75 41 76
REMARK SMILES IDX 44 77 42 78 68 79 69 80 77 81 70 82 71 83 75 84 78 85 72 86
REMARK SMILES IDX 73 87 76 88 74 89 53 90 54 91 62 92 55 93 56 94 60 95 63 96
REMARK SMILES IDX 57 97 58 98 61 99 59 100
REMARK H PARENT 20 4 24 34 83 53 51 64
REMARK Flexibility Score: inf
ROOT
ATOM      1  C   UNL A   1      35.158  29.884  27.434  1.00  0.00     0.221 C 
ATOM      2  O   UNL A   1      36.346  29.560  27.332  1.00  0.00    -0.275 OA
ATOM      3  N   UNL A   1      34.901  31.203  27.684  1.00  0.00    -0.356 N 
ATOM      4  H   UNL A   1      35.717  31.724  27.864  1.00  0.00     0.163 HD
ENDROOT
BRANCH   1   5
ATOM      5  C   UNL A   1      34.076  28.841  27.217  1.00  0.00     0.122 C 
BRANCH   5   6
ATOM      6  C   UNL A   1      33.948  28.411  25.728  1.00  0.00     0.132 C 
BRANCH   6   7
ATOM      7  N   UNL A   1      32.991  27.319  25.485  1.00  0.00    -0.347 N 
ATOM      8  C   UNL A   1      33.033  25.832  23.859  1.00  0.00     0.024 A 
ATOM      9  C   UNL A   1      33.479  26.077  25.163  1.00  0.00     0.094 A 
ATOM     10  C   UNL A   1      32.426  27.088  23.442  1.00  0.00     0.007 A 
ATOM     11  C   UNL A   1      31.877  27.440  24.676  1.00  0.00     0.048 A 
ATOM     12  C   UNL A   1      31.702  27.608  22.360  1.00  0.00     0.011 A 
ATOM     13  C   UNL A   1      30.479  27.322  24.819  1.00  0.00     0.027 A 
ATOM     14  C   UNL A   1      30.321  27.740  22.446  1.00  0.00     0.001 A 
ATOM     15  C   UNL A   1      29.709  27.422  23.644  1.00  0.00     0.002 A 
BRANCH   8  16
ATOM     16  C   UNL A   1      33.087  24.438  23.318  1.00  0.00     0.255 C 
ATOM     17  C   UNL A   1      36.362  21.672  24.627  1.00  0.00     0.062 A 
ATOM     18  C   UNL A   1      35.201  20.829  24.872  1.00  0.00     0.018 A 
ATOM     19  C   UNL A   1      36.253  22.813  23.926  1.00  0.00     0.046 A 
ATOM     20  C   UNL A   1      33.940  21.239  24.688  1.00  0.00     0.031 A 
ATOM     21  C   UNL A   1      34.897  23.282  23.627  1.00  0.00     0.087 A 
ATOM     22  C   UNL A   1      33.740  22.612  24.239  1.00  0.00     0.086 A 
ATOM     23  N   UNL A   1      34.521  24.266  22.902  1.00  0.00    -0.252 NA
ATOM     24  N   UNL A   1      32.674  23.334  24.221  1.00  0.00    -0.252 NA
BRANCH  17  25
ATOM     25  C   UNL A   1      37.723  21.272  25.084  1.00  0.00     0.337 C 
ATOM     26  O   UNL A   1      38.469  21.999  25.743  1.00  0.00    -0.246 OA
BRANCH  25  27
ATOM     27  O   UNL A   1      37.993  19.999  24.714  1.00  0.00    -0.465 OA
ATOM     28  C   UNL A   1      39.074  19.360  25.403  1.00  0.00     0.282 C 
ENDBRANCH  25  27
ENDBRANCH  17  25
ENDBRANCH   8  16
ENDBRANCH   6   7
ENDBRANCH   5   6
ENDBRANCH   1   5
BRANCH   3  29
ATOM     29  C   UNL A   1      33.683  32.012  27.743  1.00  0.00     0.117 C 
BRANCH  29  30
ATOM     30  C   UNL A   1      33.817  33.483  28.229  1.00  0.00     0.042 C 
BRANCH  30  31
ATOM     31  C   UNL A   1      34.735  33.799  29.415  1.00  0.00     0.118 C 
BRANCH  31  32
ATOM     32  N   UNL A   1      34.453  33.162  30.681  1.00  0.00    -0.352 N 
ATOM     33  C   UNL A   1      35.202  32.348  31.495  1.00  0.00     0.251 C 
ATOM     34  H   UNL A   1      33.551  33.348  31.027  1.00  0.00     0.163 HD
ATOM     35  O   UNL A   1      34.851  32.253  32.673  1.00  0.00    -0.269 OA
BRANCH  33  36
ATOM     36  C   UNL A   1      36.301  31.467  31.028  1.00  0.00     0.039 A 
ATOM     37  C   UNL A   1      36.292  30.077  30.973  1.00  0.00     0.014 A 
ATOM     38  C   UNL A   1      37.437  32.146  30.555  1.00  0.00     0.014 A 
ATOM     39  C   UNL A   1      37.468  29.396  30.629  1.00  0.00     0.010 A 
ATOM     40  C   UNL A   1      38.601  31.465  30.217  1.00  0.00     0.010 A 
ATOM     41  C   UNL A   1      38.666  30.088  30.384  1.00  0.00    -0.014 A 
BRANCH  41  42
ATOM     42  C   UNL A   1      39.964  29.374  30.334  1.00  0.00     0.031 A 
ATOM     43  C   UNL A   1      40.687  29.195  31.627  1.00  0.00     0.074 A 
ATOM     44  C   UNL A   1      40.475  28.857  29.182  1.00  0.00     0.049 A 
ATOM     45  N   UNL A   1      41.946  29.413  31.846  1.00  0.00    -0.248 NA
ATOM     46  C   UNL A   1      39.941  28.789  32.829  1.00  0.00     0.031 C 
ATOM     47  C   UNL A   1      39.806  28.801  27.875  1.00  0.00     0.029 A 
ATOM     48  N   UNL A   1      41.647  28.179  28.926  1.00  0.00    -0.354 N 
ATOM     49  C   UNL A   1      42.189  29.036  33.164  1.00  0.00     0.074 A 
ATOM     50  C   UNL A   1      40.906  28.741  33.750  1.00  0.00     0.031 C 
ATOM     51  C   UNL A   1      40.421  27.897  27.083  1.00  0.00     0.029 A 
ATOM     52  C   UNL A   1      41.619  27.428  27.749  1.00  0.00     0.049 A 
ATOM     53  H   UNL A   1      42.433  28.220  29.519  1.00  0.00     0.167 HD
ATOM     54  C   UNL A   1      43.452  28.796  33.613  1.00  0.00     0.037 A 
ATOM     55  C   UNL A   1      42.484  26.462  27.347  1.00  0.00     0.037 A 
ATOM     56  C   UNL A   1      44.483  29.363  32.784  1.00  0.00     0.049 A 
ATOM     57  C   UNL A   1      43.779  26.693  28.012  1.00  0.00     0.074 A 
ATOM     58  C   UNL A   1      45.411  30.381  32.839  1.00  0.00     0.029 A 
ATOM     59  N   UNL A   1      44.521  28.884  31.509  1.00  0.00    -0.354 N 
ATOM     60  N   UNL A   1      44.558  27.702  27.740  1.00  0.00    -0.248 NA
ATOM     61  C   UNL A   1      44.109  25.930  29.212  1.00  0.00     0.031 C 
ATOM     62  C   UNL A   1      45.934  30.554  31.525  1.00  0.00     0.029 A 
ATOM     63  C   UNL A   1      45.430  29.543  30.730  1.00  0.00     0.049 A 
ATOM     64  H   UNL A   1      43.956  28.144  31.186  1.00  0.00     0.167 HD
ATOM     65  C   UNL A   1      45.196  27.941  28.931  1.00  0.00     0.074 A 
ATOM     66  C   UNL A   1      45.023  26.743  29.742  1.00  0.00     0.031 C 
ATOM     67  C   UNL A   1      45.482  29.206  29.337  1.00  0.00     0.037 A 
BRANCH  54  68
ATOM     68  C   UNL A   1      43.763  27.696  34.592  1.00  0.00     0.064 A 
ATOM     69  C   UNL A   1      43.626  26.342  34.235  1.00  0.00     0.173 A 
ATOM     70  C   UNL A   1      43.903  27.955  35.974  1.00  0.00     0.173 A 
ATOM     71  F   UNL A   1      43.446  25.990  32.953  1.00  0.00    -0.203 F 
ATOM     72  C   UNL A   1      43.618  25.326  35.196  1.00  0.00     0.198 A 
ATOM     73  C   UNL A   1      43.946  26.938  36.924  1.00  0.00     0.198 A 
ATOM     74  F   UNL A   1      43.901  29.208  36.453  1.00  0.00    -0.203 F 
ATOM     75  F   UNL A   1      43.404  24.057  34.823  1.00  0.00    -0.200 F 
ATOM     76  C   UNL A   1      43.785  25.624  36.538  1.00  0.00     0.200 A 
ATOM     77  F   UNL A   1      44.081  27.251  38.221  1.00  0.00    -0.200 F 
ATOM     78  F   UNL A   1      43.748  24.654  37.462  1.00  0.00    -0.200 F 
ENDBRANCH  54  68
BRANCH  55  79
ATOM     79  C   UNL A   1      42.209  25.171  26.655  1.00  0.00     0.064 A 
ATOM     80  C   UNL A   1      42.925  24.810  25.497  1.00  0.00     0.173 A 
ATOM     81  C   UNL A   1      41.506  24.135  27.298  1.00  0.00     0.173 A 
ATOM     82  F   UNL A   1      43.643  25.727  24.830  1.00  0.00    -0.203 F 
ATOM     83  C   UNL A   1      42.998  23.483  25.058  1.00  0.00     0.198 A 
ATOM     84  C   UNL A   1      41.573  22.814  26.852  1.00  0.00     0.198 A 
ATOM     85  F   UNL A   1      40.830  24.364  28.431  1.00  0.00    -0.203 F 
ATOM     86  F   UNL A   1      43.771  23.167  24.008  1.00  0.00    -0.200 F 
ATOM     87  C   UNL A   1      42.339  22.483  25.749  1.00  0.00     0.200 A 
ATOM     88  F   UNL A   1      40.954  21.848  27.548  1.00  0.00    -0.200 F 
ATOM     89  F   UNL A   1      42.477  21.202  25.384  1.00  0.00    -0.200 F 
ENDBRANCH  55  79
BRANCH  67  90
ATOM     90  C   UNL A   1      45.697  30.273  28.322  1.00  0.00     0.064 A 
ATOM     91  C   UNL A   1      44.677  31.023  27.719  1.00  0.00     0.173 A 
ATOM     92  C   UNL A   1      47.022  30.605  28.011  1.00  0.00     0.173 A 
ATOM     93  F   UNL A   1      43.388  30.802  28.018  1.00  0.00    -0.203 F 
ATOM     94  C   UNL A   1      44.981  32.056  26.830  1.00  0.00     0.198 A 
ATOM     95  C   UNL A   1      47.324  31.656  27.155  1.00  0.00     0.198 A 
ATOM     96  F   UNL A   1      48.035  29.925  28.573  1.00  0.00    -0.203 F 
ATOM     97  F   UNL A   1      43.996  32.762  26.256  1.00  0.00    -0.200 F 
ATOM     98  C   UNL A   1      46.304  32.378  26.560  1.00  0.00     0.200 A 
ATOM     99  F   UNL A   1      48.604  31.983  26.931  1.00  0.00    -0.200 F 
ATOM    100  F   UNL A   1      46.596  33.399  25.743  1.00  0.00    -0.200 F 
ENDBRANCH  67  90
ENDBRANCH  41  42
ENDBRANCH  33  36
ENDBRANCH  31  32
ENDBRANCH  30  31
ENDBRANCH  29  30
ENDBRANCH   3  29
TORSDOF 15
ENDMDL
