MODEL 1
REMARK VINA RESULT:     -13.0      0.000      0.000
REMARK SMILES O=C(C[C@]1(C(=O)NC2CCCCC2)CC(c2ccc([N+](=O)[O-])cc2)=NO1)NCCCNC(=O)c1ccc(-c2c3nc(c(-c4c(F)c(F)c(F)c(F)c4F)c4ccc([nH]4)c(-c4c(F)c(F)c(F)c(F)c4F)c4nc(c(-c5c(F)c(F)c(F)c(F)c5F)c5ccc2[nH]5)C=C4)C=C3)cc1
REMARK SMILES IDX 28 1 27 2 1 3 2 4 3 6 4 7 14 8 26 9 15 10 25 11 5 12 6 13
REMARK SMILES IDX 7 14 8 16 9 17 13 18 10 19 12 20 11 21 16 22 17 23 24 24
REMARK SMILES IDX 18 25 23 26 19 27 20 28 21 29 22 30 29 31 30 32 31 33 32 34
REMARK SMILES IDX 33 36 34 37 35 38 96 39 36 40 95 41 37 42 38 43 39 44 89 45
REMARK SMILES IDX 40 46 94 47 88 48 90 49 41 50 93 51 87 52 86 53 42 55 74 56
REMARK SMILES IDX 54 57 73 58 55 59 58 60 72 61 91 62 56 63 57 64 71 66 92 67
REMARK SMILES IDX 59 68 43 69 44 70 52 71 45 72 46 73 50 74 53 75 47 76 48 77
REMARK SMILES IDX 51 78 49 79 75 80 76 81 84 82 77 83 78 84 82 85 85 86 79 87
REMARK SMILES IDX 80 88 83 89 81 90 60 91 61 92 69 93 62 94 63 95 67 96 70 97
REMARK SMILES IDX 64 98 65 99 68 100 66 101
REMARK H PARENT 27 5 7 15 31 35 90 54 58 65
REMARK Flexibility Score: inf
ROOT
ATOM      1  C   UNL A   1      31.997  27.789  27.120  1.00  0.00     0.117 C 
ENDROOT
BRANCH   1   2
ATOM      2  N   UNL A   1      31.881  26.460  26.547  1.00  0.00    -0.356 N 
ATOM      3  O   UNL A   1      34.023  26.385  25.760  1.00  0.00    -0.275 OA
ATOM      4  C   UNL A   1      32.918  25.862  25.875  1.00  0.00     0.224 C 
ATOM      5  H   UNL A   1      31.031  25.972  26.644  1.00  0.00     0.163 HD
BRANCH   4   6
ATOM      6  C   UNL A   1      32.588  24.574  25.155  1.00  0.00     0.162 C 
BRANCH   6   7
ATOM      7  C   UNL A   1      32.559  24.544  23.628  1.00  0.00     0.229 C 
ATOM      8  C   UNL A   1      32.264  25.890  22.958  1.00  0.00     0.123 C 
ATOM      9  O   UNL A   1      31.340  23.809  23.283  1.00  0.00    -0.378 OA
ATOM     10  C   UNL A   1      30.791  25.909  23.130  1.00  0.00     0.092 C 
ATOM     11  N   UNL A   1      30.259  24.743  23.310  1.00  0.00    -0.089 NA
BRANCH   7  12
ATOM     12  C   UNL A   1      33.674  23.797  22.834  1.00  0.00     0.268 C 
ATOM     13  O   UNL A   1      33.628  23.791  21.591  1.00  0.00    -0.270 OA
ATOM     14  N   UNL A   1      34.732  23.091  23.304  1.00  0.00    -0.350 N 
ATOM     15  H   UNL A   1      35.154  22.575  22.580  1.00  0.00     0.163 HD
BRANCH  14  16
ATOM     16  C   UNL A   1      35.436  22.867  24.576  1.00  0.00     0.082 C 
ATOM     17  C   UNL A   1      36.054  21.463  24.627  1.00  0.00     0.025 C 
ATOM     18  C   UNL A   1      36.291  24.058  25.013  1.00  0.00     0.025 C 
ATOM     19  C   UNL A   1      37.232  21.258  25.571  1.00  0.00     0.002 C 
ATOM     20  C   UNL A   1      37.286  23.703  26.112  1.00  0.00     0.002 C 
ATOM     21  C   UNL A   1      38.117  22.482  25.751  1.00  0.00     0.000 C 
ENDBRANCH  14  16
ENDBRANCH   7  12
BRANCH  10  22
ATOM     22  C   UNL A   1      30.058  27.184  23.120  1.00  0.00    -0.000 A 
ATOM     23  C   UNL A   1      30.699  28.342  22.670  1.00  0.00     0.017 A 
ATOM     24  C   UNL A   1      28.710  27.218  23.501  1.00  0.00     0.017 A 
ATOM     25  C   UNL A   1      29.985  29.542  22.583  1.00  0.00     0.086 A 
ATOM     26  C   UNL A   1      27.997  28.417  23.430  1.00  0.00     0.086 A 
ATOM     27  C   UNL A   1      28.636  29.575  22.965  1.00  0.00     0.269 A 
BRANCH  27  28
ATOM     28  N   UNL A   1      27.880  30.831  22.872  1.00  0.00     0.062 N 
ATOM     29  O   UNL A   1      27.176  31.153  23.838  1.00  0.00    -0.258 OA
ATOM     30  O   UNL A   1      27.995  31.496  21.833  1.00  0.00    -0.258 OA
ENDBRANCH  27  28
ENDBRANCH  10  22
ENDBRANCH   6   7
ENDBRANCH   4   6
ENDBRANCH   1   2
BRANCH   1  31
ATOM     31  C   UNL A   1      31.714  28.884  26.096  1.00  0.00     0.042 C 
BRANCH  31  32
ATOM     32  C   UNL A   1      32.892  29.806  25.792  1.00  0.00     0.118 C 
BRANCH  32  33
ATOM     33  N   UNL A   1      32.669  31.174  26.228  1.00  0.00    -0.352 N 
ATOM     34  C   UNL A   1      33.283  31.909  27.206  1.00  0.00     0.251 C 
ATOM     35  H   UNL A   1      31.960  31.651  25.739  1.00  0.00     0.163 HD
ATOM     36  O   UNL A   1      32.810  33.009  27.507  1.00  0.00    -0.269 OA
BRANCH  34  37
ATOM     37  C   UNL A   1      34.477  31.412  27.921  1.00  0.00     0.039 A 
ATOM     38  C   UNL A   1      35.558  32.284  28.086  1.00  0.00     0.014 A 
ATOM     39  C   UNL A   1      34.577  30.094  28.374  1.00  0.00     0.014 A 
ATOM     40  C   UNL A   1      36.715  31.849  28.737  1.00  0.00     0.010 A 
ATOM     41  C   UNL A   1      35.703  29.683  29.091  1.00  0.00     0.010 A 
ATOM     42  C   UNL A   1      36.790  30.552  29.269  1.00  0.00    -0.014 A 
BRANCH  42  43
ATOM     43  C   UNL A   1      38.009  30.101  29.993  1.00  0.00     0.031 A 
ATOM     44  C   UNL A   1      38.291  30.583  31.391  1.00  0.00     0.074 A 
ATOM     45  C   UNL A   1      38.876  29.271  29.384  1.00  0.00     0.049 A 
ATOM     46  N   UNL A   1      39.301  30.298  32.177  1.00  0.00    -0.248 NA
ATOM     47  C   UNL A   1      37.327  31.526  31.976  1.00  0.00     0.031 C 
ATOM     48  C   UNL A   1      38.744  28.766  28.017  1.00  0.00     0.029 A 
ATOM     49  N   UNL A   1      40.042  28.704  29.836  1.00  0.00    -0.354 N 
ATOM     50  C   UNL A   1      39.096  31.031  33.339  1.00  0.00     0.074 A 
ATOM     51  C   UNL A   1      37.899  31.817  33.135  1.00  0.00     0.031 C 
ATOM     52  C   UNL A   1      39.769  27.941  27.751  1.00  0.00     0.029 A 
ATOM     53  C   UNL A   1      40.649  27.883  28.915  1.00  0.00     0.049 A 
ATOM     54  H   UNL A   1      40.410  28.869  30.734  1.00  0.00     0.167 HD
ATOM     55  C   UNL A   1      39.824  31.029  34.483  1.00  0.00     0.037 A 
ATOM     56  C   UNL A   1      41.785  27.165  29.000  1.00  0.00     0.037 A 
ATOM     57  C   UNL A   1      41.005  30.232  34.695  1.00  0.00     0.049 A 
ATOM     58  C   UNL A   1      42.572  27.178  30.282  1.00  0.00     0.074 A 
ATOM     59  C   UNL A   1      41.784  30.128  35.834  1.00  0.00     0.029 A 
ATOM     60  N   UNL A   1      41.579  29.402  33.743  1.00  0.00    -0.354 N 
ATOM     61  N   UNL A   1      42.331  27.824  31.397  1.00  0.00    -0.248 NA
ATOM     62  C   UNL A   1      43.784  26.349  30.320  1.00  0.00     0.031 C 
ATOM     63  C   UNL A   1      42.856  29.271  35.558  1.00  0.00     0.029 A 
ATOM     64  C   UNL A   1      42.713  28.796  34.265  1.00  0.00     0.049 A 
ATOM     65  H   UNL A   1      41.234  29.263  32.832  1.00  0.00     0.167 HD
ATOM     66  C   UNL A   1      43.337  27.453  32.278  1.00  0.00     0.074 A 
ATOM     67  C   UNL A   1      44.183  26.513  31.572  1.00  0.00     0.031 C 
ATOM     68  C   UNL A   1      43.543  27.854  33.557  1.00  0.00     0.037 A 
BRANCH  55  69
ATOM     69  C   UNL A   1      39.361  31.921  35.601  1.00  0.00     0.064 A 
ATOM     70  C   UNL A   1      38.454  31.472  36.573  1.00  0.00     0.173 A 
ATOM     71  C   UNL A   1      39.859  33.227  35.724  1.00  0.00     0.173 A 
ATOM     72  F   UNL A   1      37.940  30.235  36.496  1.00  0.00    -0.203 F 
ATOM     73  C   UNL A   1      38.038  32.307  37.607  1.00  0.00     0.198 A 
ATOM     74  C   UNL A   1      39.465  34.048  36.777  1.00  0.00     0.198 A 
ATOM     75  F   UNL A   1      40.733  33.706  34.826  1.00  0.00    -0.203 F 
ATOM     76  F   UNL A   1      37.130  31.874  38.493  1.00  0.00    -0.200 F 
ATOM     77  C   UNL A   1      38.549  33.591  37.712  1.00  0.00     0.200 A 
ATOM     78  F   UNL A   1      39.971  35.285  36.886  1.00  0.00    -0.200 F 
ATOM     79  F   UNL A   1      38.153  34.392  38.712  1.00  0.00    -0.200 F 
ENDBRANCH  55  69
BRANCH  56  80
ATOM     80  C   UNL A   1      42.229  26.340  27.845  1.00  0.00     0.064 A 
ATOM     81  C   UNL A   1      43.210  26.811  26.959  1.00  0.00     0.173 A 
ATOM     82  C   UNL A   1      41.677  25.076  27.596  1.00  0.00     0.173 A 
ATOM     83  F   UNL A   1      43.754  28.023  27.144  1.00  0.00    -0.203 F 
ATOM     84  C   UNL A   1      43.600  26.059  25.853  1.00  0.00     0.198 A 
ATOM     85  C   UNL A   1      42.090  24.312  26.507  1.00  0.00     0.198 A 
ATOM     86  F   UNL A   1      40.741  24.579  28.417  1.00  0.00    -0.203 F 
ATOM     87  F   UNL A   1      44.499  26.555  24.993  1.00  0.00    -0.200 F 
ATOM     88  C   UNL A   1      43.044  24.808  25.631  1.00  0.00     0.200 A 
ATOM     89  F   UNL A   1      41.561  23.098  26.305  1.00  0.00    -0.200 F 
ATOM     90  F   UNL A   1      43.421  24.084  24.568  1.00  0.00    -0.200 F 
ENDBRANCH  56  80
BRANCH  68  91
ATOM     91  C   UNL A   1      44.703  27.241  34.292  1.00  0.00     0.064 A 
ATOM     92  C   UNL A   1      44.580  26.035  34.994  1.00  0.00     0.173 A 
ATOM     93  C   UNL A   1      45.958  27.868  34.281  1.00  0.00     0.173 A 
ATOM     94  F   UNL A   1      43.398  25.401  35.048  1.00  0.00    -0.203 F 
ATOM     95  C   UNL A   1      45.659  25.499  35.694  1.00  0.00     0.198 A 
ATOM     96  C   UNL A   1      47.044  27.313  34.951  1.00  0.00     0.198 A 
ATOM     97  F   UNL A   1      46.134  29.020  33.616  1.00  0.00    -0.203 F 
ATOM     98  F   UNL A   1      45.501  24.378  36.410  1.00  0.00    -0.200 F 
ATOM     99  C   UNL A   1      46.891  26.135  35.667  1.00  0.00     0.200 A 
ATOM    100  F   UNL A   1      48.238  27.922  34.912  1.00  0.00    -0.200 F 
ATOM    101  F   UNL A   1      47.928  25.619  36.340  1.00  0.00    -0.200 F 
ENDBRANCH  68  91
ENDBRANCH  42  43
ENDBRANCH  34  37
ENDBRANCH  32  33
ENDBRANCH  31  32
ENDBRANCH   1  31
TORSDOF 15
ENDMDL
MODEL 2
REMARK VINA RESULT:     -12.9      0.226      1.917
REMARK SMILES O=C(C[C@]1(C(=O)NC2CCCCC2)CC(c2ccc([N+](=O)[O-])cc2)=NO1)NCCCNC(=O)c1ccc(-c2c3nc(c(-c4c(F)c(F)c(F)c(F)c4F)c4ccc([nH]4)c(-c4c(F)c(F)c(F)c(F)c4F)c4nc(c(-c5c(F)c(F)c(F)c(F)c5F)c5ccc2[nH]5)C=C4)C=C3)cc1
REMARK SMILES IDX 28 1 27 2 1 3 2 4 3 6 4 7 14 8 26 9 15 10 25 11 5 12 6 13
REMARK SMILES IDX 7 14 8 16 9 17 13 18 10 19 12 20 11 21 16 22 17 23 24 24
REMARK SMILES IDX 18 25 23 26 19 27 20 28 21 29 22 30 29 31 30 32 31 33 32 34
REMARK SMILES IDX 33 36 34 37 35 38 96 39 36 40 95 41 37 42 38 43 39 44 89 45
REMARK SMILES IDX 40 46 94 47 88 48 90 49 41 50 93 51 87 52 86 53 42 55 74 56
REMARK SMILES IDX 54 57 73 58 55 59 58 60 72 61 91 62 56 63 57 64 71 66 92 67
REMARK SMILES IDX 59 68 43 69 44 70 52 71 45 72 46 73 50 74 53 75 47 76 48 77
REMARK SMILES IDX 51 78 49 79 75 80 76 81 84 82 77 83 78 84 82 85 85 86 79 87
REMARK SMILES IDX 80 88 83 89 81 90 60 91 61 92 69 93 62 94 63 95 67 96 70 97
REMARK SMILES IDX 64 98 65 99 68 100 66 101
REMARK H PARENT 27 5 7 15 31 35 90 54 58 65
REMARK Flexibility Score: inf
ROOT
ATOM      1  C   UNL A   1      32.199  27.714  27.099  1.00  0.00     0.117 C 
ENDROOT
BRANCH   1   2
ATOM      2  N   UNL A   1      32.018  26.389  26.533  1.00  0.00    -0.356 N 
ATOM      3  O   UNL A   1      34.133  26.234  25.687  1.00  0.00    -0.275 OA
ATOM      4  C   UNL A   1      33.014  25.752  25.834  1.00  0.00     0.224 C 
ATOM      5  H   UNL A   1      31.154  25.933  26.654  1.00  0.00     0.163 HD
BRANCH   4   6
ATOM      6  C   UNL A   1      32.617  24.477  25.126  1.00  0.00     0.162 C 
BRANCH   6   7
ATOM      7  C   UNL A   1      32.570  24.438  23.600  1.00  0.00     0.229 C 
ATOM      8  C   UNL A   1      32.246  25.776  22.927  1.00  0.00     0.123 C 
ATOM      9  O   UNL A   1      31.358  23.682  23.274  1.00  0.00    -0.378 OA
ATOM     10  C   UNL A   1      30.774  25.772  23.118  1.00  0.00     0.092 C 
ATOM     11  N   UNL A   1      30.263  24.600  23.309  1.00  0.00    -0.089 NA
BRANCH   7  12
ATOM     12  C   UNL A   1      33.686  23.704  22.796  1.00  0.00     0.268 C 
ATOM     13  O   UNL A   1      33.633  23.703  21.554  1.00  0.00    -0.270 OA
ATOM     14  N   UNL A   1      34.754  23.005  23.257  1.00  0.00    -0.350 N 
ATOM     15  H   UNL A   1      35.175  22.497  22.528  1.00  0.00     0.163 HD
BRANCH  14  16
ATOM     16  C   UNL A   1      35.467  22.782  24.523  1.00  0.00     0.082 C 
ATOM     17  C   UNL A   1      36.078  21.375  24.574  1.00  0.00     0.025 C 
ATOM     18  C   UNL A   1      36.333  23.970  24.948  1.00  0.00     0.025 C 
ATOM     19  C   UNL A   1      37.262  21.168  25.509  1.00  0.00     0.002 C 
ATOM     20  C   UNL A   1      37.335  23.615  26.040  1.00  0.00     0.002 C 
ATOM     21  C   UNL A   1      38.156  22.387  25.676  1.00  0.00     0.000 C 
ENDBRANCH  14  16
ENDBRANCH   7  12
BRANCH  10  22
ATOM     22  C   UNL A   1      30.022  27.036  23.110  1.00  0.00    -0.000 A 
ATOM     23  C   UNL A   1      30.650  28.208  22.679  1.00  0.00     0.017 A 
ATOM     24  C   UNL A   1      28.669  27.045  23.474  1.00  0.00     0.017 A 
ATOM     25  C   UNL A   1      29.919  29.397  22.594  1.00  0.00     0.086 A 
ATOM     26  C   UNL A   1      27.938  28.233  23.405  1.00  0.00     0.086 A 
ATOM     27  C   UNL A   1      28.564  29.406  22.959  1.00  0.00     0.269 A 
BRANCH  27  28
ATOM     28  N   UNL A   1      27.789  30.651  22.869  1.00  0.00     0.062 N 
ATOM     29  O   UNL A   1      27.827  31.277  21.802  1.00  0.00    -0.258 OA
ATOM     30  O   UNL A   1      27.140  30.997  23.866  1.00  0.00    -0.258 OA
ENDBRANCH  27  28
ENDBRANCH  10  22
ENDBRANCH   6   7
ENDBRANCH   4   6
ENDBRANCH   1   2
BRANCH   1  31
ATOM     31  C   UNL A   1      31.764  28.815  26.137  1.00  0.00     0.042 C 
BRANCH  31  32
ATOM     32  C   UNL A   1      32.874  29.770  25.704  1.00  0.00     0.118 C 
BRANCH  32  33
ATOM     33  N   UNL A   1      32.646  31.138  26.136  1.00  0.00    -0.352 N 
ATOM     34  C   UNL A   1      33.271  31.884  27.098  1.00  0.00     0.251 C 
ATOM     35  H   UNL A   1      31.924  31.605  25.658  1.00  0.00     0.163 HD
ATOM     36  O   UNL A   1      32.794  32.981  27.403  1.00  0.00    -0.269 OA
BRANCH  34  37
ATOM     37  C   UNL A   1      34.483  31.402  27.794  1.00  0.00     0.039 A 
ATOM     38  C   UNL A   1      35.515  32.315  28.032  1.00  0.00     0.014 A 
ATOM     39  C   UNL A   1      34.648  30.062  28.158  1.00  0.00     0.014 A 
ATOM     40  C   UNL A   1      36.687  31.897  28.667  1.00  0.00     0.010 A 
ATOM     41  C   UNL A   1      35.788  29.662  28.859  1.00  0.00     0.010 A 
ATOM     42  C   UNL A   1      36.826  30.572  29.110  1.00  0.00    -0.014 A 
BRANCH  42  43
ATOM     43  C   UNL A   1      38.059  30.137  29.818  1.00  0.00     0.031 A 
ATOM     44  C   UNL A   1      38.348  30.612  31.217  1.00  0.00     0.074 A 
ATOM     45  C   UNL A   1      38.934  29.326  29.193  1.00  0.00     0.049 A 
ATOM     46  N   UNL A   1      39.371  30.339  31.990  1.00  0.00    -0.248 NA
ATOM     47  C   UNL A   1      37.374  31.534  31.819  1.00  0.00     0.031 C 
ATOM     48  C   UNL A   1      38.796  28.830  27.824  1.00  0.00     0.029 A 
ATOM     49  N   UNL A   1      40.115  28.776  29.628  1.00  0.00    -0.354 N 
ATOM     50  C   UNL A   1      39.166  31.058  33.160  1.00  0.00     0.074 A 
ATOM     51  C   UNL A   1      37.953  31.825  32.975  1.00  0.00     0.031 C 
ATOM     52  C   UNL A   1      39.833  28.025  27.541  1.00  0.00     0.029 A 
ATOM     53  C   UNL A   1      40.725  27.973  28.695  1.00  0.00     0.049 A 
ATOM     54  H   UNL A   1      40.488  28.940  30.525  1.00  0.00     0.167 HD
ATOM     55  C   UNL A   1      39.906  31.060  34.296  1.00  0.00     0.037 A 
ATOM     56  C   UNL A   1      41.874  27.274  28.762  1.00  0.00     0.037 A 
ATOM     57  C   UNL A   1      41.102  30.282  34.490  1.00  0.00     0.049 A 
ATOM     58  C   UNL A   1      42.674  27.290  30.036  1.00  0.00     0.074 A 
ATOM     59  C   UNL A   1      41.895  30.182  35.620  1.00  0.00     0.029 A 
ATOM     60  N   UNL A   1      41.680  29.469  33.526  1.00  0.00    -0.354 N 
ATOM     61  N   UNL A   1      42.434  27.923  31.159  1.00  0.00    -0.248 NA
ATOM     62  C   UNL A   1      43.901  26.482  30.055  1.00  0.00     0.031 C 
ATOM     63  C   UNL A   1      42.978  29.346  35.326  1.00  0.00     0.029 A 
ATOM     64  C   UNL A   1      42.830  28.878  34.031  1.00  0.00     0.049 A 
ATOM     65  H   UNL A   1      41.328  29.331  32.617  1.00  0.00     0.167 HD
ATOM     66  C   UNL A   1      43.456  27.562  32.026  1.00  0.00     0.074 A 
ATOM     67  C   UNL A   1      44.311  26.643  31.304  1.00  0.00     0.031 C 
ATOM     68  C   UNL A   1      43.669  27.957  33.306  1.00  0.00     0.037 A 
BRANCH  55  69
ATOM     69  C   UNL A   1      39.439  31.935  35.426  1.00  0.00     0.064 A 
ATOM     70  C   UNL A   1      39.854  33.270  35.544  1.00  0.00     0.173 A 
ATOM     71  C   UNL A   1      38.536  31.443  36.381  1.00  0.00     0.173 A 
ATOM     72  F   UNL A   1      40.724  33.786  34.664  1.00  0.00    -0.203 F 
ATOM     73  C   UNL A   1      39.408  34.070  36.592  1.00  0.00     0.198 A 
ATOM     74  C   UNL A   1      38.067  32.256  37.410  1.00  0.00     0.198 A 
ATOM     75  F   UNL A   1      38.101  30.176  36.313  1.00  0.00    -0.203 F 
ATOM     76  F   UNL A   1      39.860  35.326  36.715  1.00  0.00    -0.200 F 
ATOM     77  C   UNL A   1      38.510  33.565  37.521  1.00  0.00     0.200 A 
ATOM     78  F   UNL A   1      37.188  31.771  38.298  1.00  0.00    -0.200 F 
ATOM     79  F   UNL A   1      38.076  34.339  38.526  1.00  0.00    -0.200 F 
ENDBRANCH  55  69
BRANCH  56  80
ATOM     80  C   UNL A   1      42.321  26.466  27.596  1.00  0.00     0.064 A 
ATOM     81  C   UNL A   1      41.784  25.192  27.355  1.00  0.00     0.173 A 
ATOM     82  C   UNL A   1      43.298  26.941  26.711  1.00  0.00     0.173 A 
ATOM     83  F   UNL A   1      40.861  24.686  28.185  1.00  0.00    -0.203 F 
ATOM     84  C   UNL A   1      42.229  24.415  26.287  1.00  0.00     0.198 A 
ATOM     85  C   UNL A   1      43.720  26.175  25.627  1.00  0.00     0.198 A 
ATOM     86  F   UNL A   1      43.838  28.155  26.896  1.00  0.00    -0.203 F 
ATOM     87  F   UNL A   1      41.739  23.181  26.110  1.00  0.00    -0.200 F 
ATOM     88  C   UNL A   1      43.193  24.910  25.421  1.00  0.00     0.200 A 
ATOM     89  F   UNL A   1      44.640  26.663  24.783  1.00  0.00    -0.200 F 
ATOM     90  F   UNL A   1      43.619  24.163  24.393  1.00  0.00    -0.200 F 
ENDBRANCH  56  80
BRANCH  68  91
ATOM     91  C   UNL A   1      44.846  27.358  34.024  1.00  0.00     0.064 A 
ATOM     92  C   UNL A   1      46.110  27.965  34.009  1.00  0.00     0.173 A 
ATOM     93  C   UNL A   1      44.701  26.164  34.747  1.00  0.00     0.173 A 
ATOM     94  F   UNL A   1      46.306  29.100  33.322  1.00  0.00    -0.203 F 
ATOM     95  C   UNL A   1      47.195  27.377  34.656  1.00  0.00     0.198 A 
ATOM     96  C   UNL A   1      45.778  25.597  35.422  1.00  0.00     0.198 A 
ATOM     97  F   UNL A   1      43.511  25.547  34.802  1.00  0.00    -0.203 F 
ATOM     98  F   UNL A   1      48.407  27.942  34.574  1.00  0.00    -0.200 F 
ATOM     99  C   UNL A   1      47.027  26.198  35.366  1.00  0.00     0.200 A 
ATOM    100  F   UNL A   1      45.610  24.465  36.120  1.00  0.00    -0.200 F 
ATOM    101  F   UNL A   1      48.071  25.633  35.987  1.00  0.00    -0.200 F 
ENDBRANCH  68  91
ENDBRANCH  42  43
ENDBRANCH  34  37
ENDBRANCH  32  33
ENDBRANCH  31  32
ENDBRANCH   1  31
TORSDOF 15
ENDMDL
MODEL 3
REMARK VINA RESULT:     -12.9      4.646     10.264
REMARK SMILES O=C(C[C@]1(C(=O)NC2CCCCC2)CC(c2ccc([N+](=O)[O-])cc2)=NO1)NCCCNC(=O)c1ccc(-c2c3nc(c(-c4c(F)c(F)c(F)c(F)c4F)c4ccc([nH]4)c(-c4c(F)c(F)c(F)c(F)c4F)c4nc(c(-c5c(F)c(F)c(F)c(F)c5F)c5ccc2[nH]5)C=C4)C=C3)cc1
REMARK SMILES IDX 28 1 27 2 1 3 2 4 3 6 4 7 14 8 26 9 15 10 25 11 5 12 6 13
REMARK SMILES IDX 7 14 8 16 9 17 13 18 10 19 12 20 11 21 16 22 17 23 24 24
REMARK SMILES IDX 18 25 23 26 19 27 20 28 21 29 22 30 29 31 30 32 31 33 32 34
REMARK SMILES IDX 33 36 34 37 35 38 96 39 36 40 95 41 37 42 38 43 39 44 89 45
REMARK SMILES IDX 40 46 94 47 88 48 90 49 41 50 93 51 87 52 86 53 42 55 74 56
REMARK SMILES IDX 54 57 73 58 55 59 58 60 72 61 91 62 56 63 57 64 71 66 92 67
REMARK SMILES IDX 59 68 43 69 44 70 52 71 45 72 46 73 50 74 53 75 47 76 48 77
REMARK SMILES IDX 51 78 49 79 75 80 76 81 84 82 77 83 78 84 82 85 85 86 79 87
REMARK SMILES IDX 80 88 83 89 81 90 60 91 61 92 69 93 62 94 63 95 67 96 70 97
REMARK SMILES IDX 64 98 65 99 68 100 66 101
REMARK H PARENT 27 5 7 15 31 35 90 54 58 65
REMARK Flexibility Score: inf
ROOT
ATOM      1  C   UNL A   1      35.805  21.234  25.852  1.00  0.00     0.117 C 
ENDROOT
BRANCH   1   2
ATOM      2  N   UNL A   1      35.021  22.418  25.549  1.00  0.00    -0.356 N 
ATOM      3  O   UNL A   1      34.268  22.720  27.684  1.00  0.00    -0.275 OA
ATOM      4  C   UNL A   1      34.277  23.065  26.505  1.00  0.00     0.224 C 
ATOM      5  H   UNL A   1      35.022  22.768  24.628  1.00  0.00     0.163 HD
BRANCH   4   6
ATOM      6  C   UNL A   1      33.350  24.149  26.004  1.00  0.00     0.162 C 
BRANCH   6   7
ATOM      7  C   UNL A   1      31.874  23.838  25.770  1.00  0.00     0.229 C 
ATOM      8  C   UNL A   1      31.493  22.360  25.911  1.00  0.00     0.123 C 
ATOM      9  O   UNL A   1      31.668  24.023  24.331  1.00  0.00    -0.378 OA
ATOM     10  C   UNL A   1      31.955  21.881  24.585  1.00  0.00     0.092 C 
ATOM     11  N   UNL A   1      32.053  22.807  23.687  1.00  0.00    -0.089 NA
BRANCH   7  12
ATOM     12  C   UNL A   1      30.769  24.728  26.415  1.00  0.00     0.268 C 
ATOM     13  O   UNL A   1      29.775  24.181  26.925  1.00  0.00    -0.270 OA
ATOM     14  N   UNL A   1      30.697  26.080  26.493  1.00  0.00    -0.350 N 
ATOM     15  H   UNL A   1      29.801  26.363  26.783  1.00  0.00     0.163 HD
BRANCH  14  16
ATOM     16  C   UNL A   1      31.562  27.249  26.273  1.00  0.00     0.082 C 
ATOM     17  C   UNL A   1      31.317  27.866  24.889  1.00  0.00     0.025 C 
ATOM     18  C   UNL A   1      31.643  28.180  27.484  1.00  0.00     0.025 C 
ATOM     19  C   UNL A   1      31.690  29.332  24.709  1.00  0.00     0.002 C 
ATOM     20  C   UNL A   1      32.229  29.546  27.146  1.00  0.00     0.002 C 
ATOM     21  C   UNL A   1      31.525  30.184  25.958  1.00  0.00     0.000 C 
ENDBRANCH  14  16
ENDBRANCH   7  12
BRANCH  10  22
ATOM     22  C   UNL A   1      32.288  20.463  24.383  1.00  0.00    -0.000 A 
ATOM     23  C   UNL A   1      32.235  19.920  23.096  1.00  0.00     0.017 A 
ATOM     24  C   UNL A   1      32.714  19.684  25.467  1.00  0.00     0.017 A 
ATOM     25  C   UNL A   1      32.626  18.594  22.884  1.00  0.00     0.086 A 
ATOM     26  C   UNL A   1      33.091  18.355  25.264  1.00  0.00     0.086 A 
ATOM     27  C   UNL A   1      33.052  17.815  23.971  1.00  0.00     0.269 A 
BRANCH  27  28
ATOM     28  N   UNL A   1      33.468  16.423  23.755  1.00  0.00     0.062 N 
ATOM     29  O   UNL A   1      33.092  15.575  24.575  1.00  0.00    -0.258 OA
ATOM     30  O   UNL A   1      34.167  16.179  22.761  1.00  0.00    -0.258 OA
ENDBRANCH  27  28
ENDBRANCH  10  22
ENDBRANCH   6   7
ENDBRANCH   4   6
ENDBRANCH   1   2
BRANCH   1  31
ATOM     31  C   UNL A   1      36.902  20.991  24.819  1.00  0.00     0.042 C 
BRANCH  31  32
ATOM     32  C   UNL A   1      38.274  21.548  25.189  1.00  0.00     0.118 C 
BRANCH  32  33
ATOM     33  N   UNL A   1      39.019  20.677  26.081  1.00  0.00    -0.352 N 
ATOM     34  C   UNL A   1      40.083  20.940  26.900  1.00  0.00     0.251 C 
ATOM     35  H   UNL A   1      38.706  19.744  26.100  1.00  0.00     0.163 HD
ATOM     36  O   UNL A   1      40.658  19.995  27.449  1.00  0.00    -0.269 OA
BRANCH  34  37
ATOM     37  C   UNL A   1      40.573  22.316  27.125  1.00  0.00     0.039 A 
ATOM     38  C   UNL A   1      41.554  22.517  28.100  1.00  0.00     0.014 A 
ATOM     39  C   UNL A   1      40.042  23.414  26.442  1.00  0.00     0.014 A 
ATOM     40  C   UNL A   1      42.031  23.804  28.360  1.00  0.00     0.010 A 
ATOM     41  C   UNL A   1      40.571  24.690  26.650  1.00  0.00     0.010 A 
ATOM     42  C   UNL A   1      41.562  24.902  27.620  1.00  0.00    -0.014 A 
BRANCH  42  43
ATOM     43  C   UNL A   1      42.095  26.267  27.873  1.00  0.00     0.031 A 
ATOM     44  C   UNL A   1      43.456  26.664  27.368  1.00  0.00     0.074 A 
ATOM     45  C   UNL A   1      41.360  27.148  28.578  1.00  0.00     0.049 A 
ATOM     46  N   UNL A   1      44.085  27.807  27.492  1.00  0.00    -0.248 NA
ATOM     47  C   UNL A   1      44.223  25.637  26.649  1.00  0.00     0.031 C 
ATOM     48  C   UNL A   1      40.046  26.876  29.162  1.00  0.00     0.029 A 
ATOM     49  N   UNL A   1      41.613  28.453  28.924  1.00  0.00    -0.354 N 
ATOM     50  C   UNL A   1      45.317  27.633  26.877  1.00  0.00     0.074 A 
ATOM     51  C   UNL A   1      45.373  26.258  26.430  1.00  0.00     0.031 C 
ATOM     52  C   UNL A   1      39.594  27.987  29.766  1.00  0.00     0.029 A 
ATOM     53  C   UNL A   1      40.599  29.039  29.642  1.00  0.00     0.049 A 
ATOM     54  H   UNL A   1      42.443  28.924  28.680  1.00  0.00     0.167 HD
ATOM     55  C   UNL A   1      46.303  28.542  26.678  1.00  0.00     0.037 A 
ATOM     56  C   UNL A   1      40.490  30.284  30.143  1.00  0.00     0.037 A 
ATOM     57  C   UNL A   1      46.241  29.916  27.103  1.00  0.00     0.049 A 
ATOM     58  C   UNL A   1      41.597  31.275  29.904  1.00  0.00     0.074 A 
ATOM     59  C   UNL A   1      47.169  30.925  26.908  1.00  0.00     0.029 A 
ATOM     60  N   UNL A   1      45.190  30.477  27.815  1.00  0.00    -0.354 N 
ATOM     61  N   UNL A   1      42.729  31.115  29.262  1.00  0.00    -0.248 NA
ATOM     62  C   UNL A   1      41.403  32.625  30.450  1.00  0.00     0.031 C 
ATOM     63  C   UNL A   1      46.702  32.082  27.541  1.00  0.00     0.029 A 
ATOM     64  C   UNL A   1      45.456  31.812  28.081  1.00  0.00     0.049 A 
ATOM     65  H   UNL A   1      44.375  29.997  28.091  1.00  0.00     0.167 HD
ATOM     66  C   UNL A   1      43.364  32.349  29.296  1.00  0.00     0.074 A 
ATOM     67  C   UNL A   1      42.484  33.252  30.008  1.00  0.00     0.031 C 
ATOM     68  C   UNL A   1      44.568  32.704  28.784  1.00  0.00     0.037 A 
BRANCH  55  69
ATOM     69  C   UNL A   1      47.541  28.077  25.962  1.00  0.00     0.064 A 
ATOM     70  C   UNL A   1      48.719  27.765  26.655  1.00  0.00     0.173 A 
ATOM     71  C   UNL A   1      47.535  27.905  24.569  1.00  0.00     0.173 A 
ATOM     72  F   UNL A   1      48.781  27.922  27.986  1.00  0.00    -0.203 F 
ATOM     73  C   UNL A   1      49.856  27.329  25.980  1.00  0.00     0.198 A 
ATOM     74  C   UNL A   1      48.664  27.438  23.900  1.00  0.00     0.198 A 
ATOM     75  F   UNL A   1      46.434  28.182  23.856  1.00  0.00    -0.203 F 
ATOM     76  F   UNL A   1      50.987  27.088  26.658  1.00  0.00    -0.200 F 
ATOM     77  C   UNL A   1      49.826  27.159  24.603  1.00  0.00     0.200 A 
ATOM     78  F   UNL A   1      48.629  27.261  22.572  1.00  0.00    -0.200 F 
ATOM     79  F   UNL A   1      50.919  26.733  23.955  1.00  0.00    -0.200 F 
ENDBRANCH  55  69
BRANCH  56  80
ATOM     80  C   UNL A   1      39.267  30.680  30.891  1.00  0.00     0.064 A 
ATOM     81  C   UNL A   1      39.171  30.472  32.275  1.00  0.00     0.173 A 
ATOM     82  C   UNL A   1      38.168  31.257  30.240  1.00  0.00     0.173 A 
ATOM     83  F   UNL A   1      40.189  29.905  32.939  1.00  0.00    -0.203 F 
ATOM     84  C   UNL A   1      38.012  30.803  32.973  1.00  0.00     0.198 A 
ATOM     85  C   UNL A   1      37.021  31.615  30.944  1.00  0.00     0.198 A 
ATOM     86  F   UNL A   1      38.213  31.480  28.918  1.00  0.00    -0.203 F 
ATOM     87  F   UNL A   1      37.927  30.546  34.285  1.00  0.00    -0.200 F 
ATOM     88  C   UNL A   1      36.940  31.380  32.308  1.00  0.00     0.200 A 
ATOM     89  F   UNL A   1      35.993  32.186  30.301  1.00  0.00    -0.200 F 
ATOM     90  F   UNL A   1      35.826  31.700  32.981  1.00  0.00    -0.200 F 
ENDBRANCH  56  80
BRANCH  68  91
ATOM     91  C   UNL A   1      44.982  34.141  28.932  1.00  0.00     0.064 A 
ATOM     92  C   UNL A   1      44.641  35.113  27.981  1.00  0.00     0.173 A 
ATOM     93  C   UNL A   1      45.723  34.552  30.052  1.00  0.00     0.173 A 
ATOM     94  F   UNL A   1      43.946  34.772  26.886  1.00  0.00    -0.203 F 
ATOM     95  C   UNL A   1      45.061  36.434  28.124  1.00  0.00     0.198 A 
ATOM     96  C   UNL A   1      46.111  35.879  30.209  1.00  0.00     0.198 A 
ATOM     97  F   UNL A   1      46.068  33.665  30.998  1.00  0.00    -0.203 F 
ATOM     98  F   UNL A   1      44.777  37.332  27.170  1.00  0.00    -0.200 F 
ATOM     99  C   UNL A   1      45.790  36.817  29.239  1.00  0.00     0.200 A 
ATOM    100  F   UNL A   1      46.803  36.250  31.296  1.00  0.00    -0.200 F 
ATOM    101  F   UNL A   1      46.193  38.087  29.375  1.00  0.00    -0.200 F 
ENDBRANCH  68  91
ENDBRANCH  42  43
ENDBRANCH  34  37
ENDBRANCH  32  33
ENDBRANCH  31  32
ENDBRANCH   1  31
TORSDOF 15
ENDMDL
