MODEL 1
REMARK VINA RESULT:     -12.5      0.000      0.000
REMARK SMILES Cc1cc2c(c(C)c1Cl)C=C(C(=O)NCCCNC(=O)c1ccc(-c3c4nc(c(-c5c(F)c(F)c(F)c(F)c5F)c5ccc([nH]5)c(-c5c(F)c(F)c(F)c(F)c5F)c5nc(c(-c6c(F)c(F)c(F)c(F)c6F)c6ccc3[nH]6)C=C5)C=C4)cc1)[C@@H](C(F)(F)F)O2
REMARK SMILES IDX 16 1 15 2 14 3 12 4 13 5 11 7 1 8 2 9 3 10 8 11 4 12 6 13
REMARK SMILES IDX 9 14 5 15 89 16 7 17 10 18 84 19 85 20 86 21 87 22 88 23
REMARK SMILES IDX 17 24 18 25 19 26 20 28 21 29 22 30 83 31 23 32 82 33 24 34
REMARK SMILES IDX 25 35 26 36 76 37 27 38 81 39 75 40 77 41 28 42 80 43 74 44
REMARK SMILES IDX 73 45 29 47 61 48 41 49 60 50 42 51 45 52 59 53 78 54 43 55
REMARK SMILES IDX 44 56 58 58 79 59 46 60 30 61 31 62 39 63 32 64 33 65 37 66
REMARK SMILES IDX 40 67 34 68 35 69 38 70 36 71 62 72 63 73 71 74 64 75 65 76
REMARK SMILES IDX 69 77 72 78 66 79 67 80 70 81 68 82 47 83 48 84 56 85 49 86
REMARK SMILES IDX 50 87 54 88 57 89 51 90 52 91 55 92 53 93
REMARK H PARENT 14 6 18 27 77 46 45 57
REMARK Flexibility Score: inf
ROOT
ATOM      1  C   UNL A   1      33.858  28.432  24.502  1.00  0.00     0.042 C 
ENDROOT
BRANCH   1   2
ATOM      2  C   UNL A   1      33.118  27.148  24.165  1.00  0.00     0.118 C 
BRANCH   2   3
ATOM      3  N   UNL A   1      32.337  26.666  25.295  1.00  0.00    -0.352 N 
ATOM      4  C   UNL A   1      32.178  25.504  25.968  1.00  0.00     0.251 C 
ATOM      5  O   UNL A   1      31.364  25.543  26.896  1.00  0.00    -0.270 OA
ATOM      6  H   UNL A   1      31.770  27.378  25.670  1.00  0.00     0.163 HD
BRANCH   4   7
ATOM      7  C   UNL A   1      32.901  24.234  25.667  1.00  0.00     0.067 C 
ATOM      8  C   UNL A   1      37.027  19.290  24.788  1.00  0.00     0.046 C 
ATOM      9  C   UNL A   1      36.357  20.592  25.129  1.00  0.00    -0.028 A 
ATOM     10  C   UNL A   1      34.964  20.660  25.052  1.00  0.00     0.052 A 
ATOM     11  C   UNL A   1      37.076  21.746  25.506  1.00  0.00     0.047 A 
ATOM     12  C   UNL A   1      34.302  21.851  25.325  1.00  0.00     0.128 A 
ATOM     13  C   UNL A   1      36.411  22.961  25.806  1.00  0.00    -0.021 A 
ATOM     14  Cl  UNL A   1      38.808  21.640  25.593  1.00  0.00    -0.084 Cl
ATOM     15  C   UNL A   1      34.999  23.003  25.704  1.00  0.00     0.022 A 
ATOM     16  O   UNL A   1      32.941  21.792  25.236  1.00  0.00    -0.475 OA
ATOM     17  C   UNL A   1      37.164  24.204  26.220  1.00  0.00     0.047 C 
ATOM     18  C   UNL A   1      34.204  24.201  26.003  1.00  0.00     0.026 C 
ATOM     19  C   UNL A   1      32.266  23.052  25.006  1.00  0.00     0.314 C 
BRANCH  19  20
ATOM     20  C   UNL A   1      32.049  23.252  23.493  1.00  0.00     0.429 C 
ATOM     21  F   UNL A   1      30.825  23.792  23.262  1.00  0.00    -0.167 F 
ATOM     22  F   UNL A   1      32.950  24.102  22.946  1.00  0.00    -0.167 F 
ATOM     23  F   UNL A   1      32.124  22.099  22.794  1.00  0.00    -0.167 F 
ENDBRANCH  19  20
ENDBRANCH   4   7
ENDBRANCH   2   3
ENDBRANCH   1   2
BRANCH   1  24
ATOM     24  C   UNL A   1      34.153  28.543  25.991  1.00  0.00     0.118 C 
BRANCH  24  25
ATOM     25  N   UNL A   1      33.838  29.873  26.507  1.00  0.00    -0.352 N 
ATOM     26  C   UNL A   1      34.412  30.585  27.529  1.00  0.00     0.251 C 
ATOM     27  H   UNL A   1      33.097  30.331  26.050  1.00  0.00     0.163 HD
ATOM     28  O   UNL A   1      33.828  31.556  28.006  1.00  0.00    -0.269 OA
BRANCH  26  29
ATOM     29  C   UNL A   1      35.729  30.183  28.054  1.00  0.00     0.039 A 
ATOM     30  C   UNL A   1      35.821  29.636  29.337  1.00  0.00     0.014 A 
ATOM     31  C   UNL A   1      36.877  30.371  27.284  1.00  0.00     0.014 A 
ATOM     32  C   UNL A   1      37.062  29.221  29.816  1.00  0.00     0.010 A 
ATOM     33  C   UNL A   1      38.090  29.859  27.716  1.00  0.00     0.010 A 
ATOM     34  C   UNL A   1      38.199  29.298  28.995  1.00  0.00    -0.014 A 
BRANCH  34  35
ATOM     35  C   UNL A   1      39.525  28.837  29.463  1.00  0.00     0.031 A 
ATOM     36  C   UNL A   1      40.290  29.662  30.459  1.00  0.00     0.074 A 
ATOM     37  C   UNL A   1      40.059  27.715  28.947  1.00  0.00     0.049 A 
ATOM     38  N   UNL A   1      41.489  29.468  30.945  1.00  0.00    -0.248 NA
ATOM     39  C   UNL A   1      39.635  30.886  30.950  1.00  0.00     0.031 C 
ATOM     40  C   UNL A   1      39.423  26.863  27.942  1.00  0.00     0.029 A 
ATOM     41  N   UNL A   1      41.260  27.101  29.196  1.00  0.00    -0.354 N 
ATOM     42  C   UNL A   1      41.730  30.546  31.787  1.00  0.00     0.074 A 
ATOM     43  C   UNL A   1      40.590  31.428  31.688  1.00  0.00     0.031 C 
ATOM     44  C   UNL A   1      40.221  25.814  27.689  1.00  0.00     0.029 A 
ATOM     45  C   UNL A   1      41.441  25.942  28.482  1.00  0.00     0.049 A 
ATOM     46  H   UNL A   1      41.927  27.456  29.826  1.00  0.00     0.167 HD
ATOM     47  C   UNL A   1      42.791  30.760  32.598  1.00  0.00     0.037 A 
ATOM     48  C   UNL A   1      42.475  25.081  28.472  1.00  0.00     0.037 A 
ATOM     49  C   UNL A   1      43.909  29.862  32.707  1.00  0.00     0.049 A 
ATOM     50  C   UNL A   1      43.656  25.351  29.363  1.00  0.00     0.074 A 
ATOM     51  C   UNL A   1      45.013  29.956  33.532  1.00  0.00     0.029 A 
ATOM     52  N   UNL A   1      44.062  28.700  31.960  1.00  0.00    -0.354 N 
ATOM     53  N   UNL A   1      43.849  26.341  30.202  1.00  0.00    -0.248 NA
ATOM     54  C   UNL A   1      44.763  24.385  29.309  1.00  0.00     0.031 C 
ATOM     55  C   UNL A   1      45.860  28.882  33.250  1.00  0.00     0.029 A 
ATOM     56  C   UNL A   1      45.258  28.085  32.288  1.00  0.00     0.049 A 
ATOM     57  H   UNL A   1      43.417  28.366  31.297  1.00  0.00     0.167 HD
ATOM     58  C   UNL A   1      45.085  26.110  30.789  1.00  0.00     0.074 A 
ATOM     59  C   UNL A   1      45.589  24.875  30.224  1.00  0.00     0.031 C 
ATOM     60  C   UNL A   1      45.742  26.855  31.712  1.00  0.00     0.037 A 
BRANCH  47  61
ATOM     61  C   UNL A   1      42.784  32.003  33.440  1.00  0.00     0.064 A 
ATOM     62  C   UNL A   1      43.346  33.205  32.980  1.00  0.00     0.173 A 
ATOM     63  C   UNL A   1      42.180  32.007  34.706  1.00  0.00     0.173 A 
ATOM     64  F   UNL A   1      43.949  33.253  31.782  1.00  0.00    -0.203 F 
ATOM     65  C   UNL A   1      43.331  34.352  33.767  1.00  0.00     0.198 A 
ATOM     66  C   UNL A   1      42.136  33.166  35.477  1.00  0.00     0.198 A 
ATOM     67  F   UNL A   1      41.626  30.887  35.194  1.00  0.00    -0.203 F 
ATOM     68  F   UNL A   1      43.922  35.473  33.327  1.00  0.00    -0.200 F 
ATOM     69  C   UNL A   1      42.719  34.335  35.011  1.00  0.00     0.200 A 
ATOM     70  F   UNL A   1      41.532  33.151  36.673  1.00  0.00    -0.200 F 
ATOM     71  F   UNL A   1      42.695  35.443  35.762  1.00  0.00    -0.200 F 
ENDBRANCH  47  61
BRANCH  48  72
ATOM     72  C   UNL A   1      42.404  23.862  27.626  1.00  0.00     0.064 A 
ATOM     73  C   UNL A   1      42.839  23.892  26.293  1.00  0.00     0.173 A 
ATOM     74  C   UNL A   1      41.956  22.635  28.137  1.00  0.00     0.173 A 
ATOM     75  F   UNL A   1      43.262  25.044  25.753  1.00  0.00    -0.203 F 
ATOM     76  C   UNL A   1      42.827  22.742  25.506  1.00  0.00     0.198 A 
ATOM     77  C   UNL A   1      41.969  21.481  27.358  1.00  0.00     0.198 A 
ATOM     78  F   UNL A   1      41.536  22.552  29.409  1.00  0.00    -0.203 F 
ATOM     79  F   UNL A   1      43.228  22.804  24.228  1.00  0.00    -0.200 F 
ATOM     80  C   UNL A   1      42.402  21.536  26.042  1.00  0.00     0.200 A 
ATOM     81  F   UNL A   1      41.576  20.314  27.884  1.00  0.00    -0.200 F 
ATOM     82  F   UNL A   1      42.411  20.427  25.290  1.00  0.00    -0.200 F 
ENDBRANCH  48  72
BRANCH  60  83
ATOM     83  C   UNL A   1      47.079  26.358  32.181  1.00  0.00     0.064 A 
ATOM     84  C   UNL A   1      47.193  25.486  33.272  1.00  0.00     0.173 A 
ATOM     85  C   UNL A   1      48.247  26.688  31.476  1.00  0.00     0.173 A 
ATOM     86  F   UNL A   1      46.107  25.150  33.985  1.00  0.00    -0.203 F 
ATOM     87  C   UNL A   1      48.430  24.971  33.649  1.00  0.00     0.198 A 
ATOM     88  C   UNL A   1      49.477  26.146  31.836  1.00  0.00     0.198 A 
ATOM     89  F   UNL A   1      48.190  27.512  30.418  1.00  0.00    -0.203 F 
ATOM     90  F   UNL A   1      48.521  24.165  34.716  1.00  0.00    -0.200 F 
ATOM     91  C   UNL A   1      49.569  25.291  32.925  1.00  0.00     0.200 A 
ATOM     92  F   UNL A   1      50.572  26.441  31.123  1.00  0.00    -0.200 F 
ATOM     93  F   UNL A   1      50.755  24.777  33.276  1.00  0.00    -0.200 F 
ENDBRANCH  60  83
ENDBRANCH  34  35
ENDBRANCH  26  29
ENDBRANCH  24  25
ENDBRANCH   1  24
TORSDOF 11
ENDMDL
MODEL 2
REMARK VINA RESULT:     -12.4      4.184      7.871
REMARK SMILES Cc1cc2c(c(C)c1Cl)C=C(C(=O)NCCCNC(=O)c1ccc(-c3c4nc(c(-c5c(F)c(F)c(F)c(F)c5F)c5ccc([nH]5)c(-c5c(F)c(F)c(F)c(F)c5F)c5nc(c(-c6c(F)c(F)c(F)c(F)c6F)c6ccc3[nH]6)C=C5)C=C4)cc1)[C@@H](C(F)(F)F)O2
REMARK SMILES IDX 16 1 15 2 14 3 12 4 13 5 11 7 1 8 2 9 3 10 8 11 4 12 6 13
REMARK SMILES IDX 9 14 5 15 89 16 7 17 10 18 84 19 85 20 86 21 87 22 88 23
REMARK SMILES IDX 17 24 18 25 19 26 20 28 21 29 22 30 83 31 23 32 82 33 24 34
REMARK SMILES IDX 25 35 26 36 76 37 27 38 81 39 75 40 77 41 28 42 80 43 74 44
REMARK SMILES IDX 73 45 29 47 61 48 41 49 60 50 42 51 45 52 59 53 78 54 43 55
REMARK SMILES IDX 44 56 58 58 79 59 46 60 30 61 31 62 39 63 32 64 33 65 37 66
REMARK SMILES IDX 40 67 34 68 35 69 38 70 36 71 62 72 63 73 71 74 64 75 65 76
REMARK SMILES IDX 69 77 72 78 66 79 67 80 70 81 68 82 47 83 48 84 56 85 49 86
REMARK SMILES IDX 50 87 54 88 57 89 51 90 52 91 55 92 53 93
REMARK H PARENT 14 6 18 27 77 46 45 57
REMARK Flexibility Score: inf
ROOT
ATOM      1  C   UNL A   1      37.811  19.808  24.846  1.00  0.00     0.042 C 
ENDROOT
BRANCH   1   2
ATOM      2  C   UNL A   1      36.486  20.516  25.078  1.00  0.00     0.118 C 
BRANCH   2   3
ATOM      3  N   UNL A   1      35.361  19.600  24.967  1.00  0.00    -0.352 N 
ATOM      4  C   UNL A   1      34.011  19.684  24.943  1.00  0.00     0.251 C 
ATOM      5  O   UNL A   1      33.421  18.603  24.844  1.00  0.00    -0.270 OA
ATOM      6  H   UNL A   1      35.664  18.667  24.889  1.00  0.00     0.163 HD
BRANCH   4   7
ATOM      7  C   UNL A   1      33.230  20.952  25.023  1.00  0.00     0.067 C 
ATOM      8  C   UNL A   1      30.126  26.602  24.199  1.00  0.00     0.046 C 
ATOM      9  C   UNL A   1      30.914  25.330  24.045  1.00  0.00    -0.028 A 
ATOM     10  C   UNL A   1      30.897  24.410  25.095  1.00  0.00     0.052 A 
ATOM     11  C   UNL A   1      31.677  25.039  22.895  1.00  0.00     0.047 A 
ATOM     12  C   UNL A   1      31.636  23.237  25.013  1.00  0.00     0.128 A 
ATOM     13  C   UNL A   1      32.419  23.836  22.791  1.00  0.00    -0.021 A 
ATOM     14  Cl  UNL A   1      31.685  26.199  21.601  1.00  0.00    -0.084 Cl
ATOM     15  C   UNL A   1      32.396  22.930  23.879  1.00  0.00     0.022 A 
ATOM     16  O   UNL A   1      31.528  22.406  26.091  1.00  0.00    -0.475 OA
ATOM     17  C   UNL A   1      33.235  23.503  21.564  1.00  0.00     0.047 C 
ATOM     18  C   UNL A   1      33.114  21.650  23.878  1.00  0.00     0.026 C 
ATOM     19  C   UNL A   1      32.619  21.474  26.285  1.00  0.00     0.314 C 
BRANCH  19  20
ATOM     20  C   UNL A   1      33.655  22.086  27.248  1.00  0.00     0.429 C 
ATOM     21  F   UNL A   1      33.030  22.652  28.312  1.00  0.00    -0.167 F 
ATOM     22  F   UNL A   1      34.506  21.161  27.754  1.00  0.00    -0.167 F 
ATOM     23  F   UNL A   1      34.414  23.040  26.667  1.00  0.00    -0.167 F 
ENDBRANCH  19  20
ENDBRANCH   4   7
ENDBRANCH   2   3
ENDBRANCH   1   2
BRANCH   1  24
ATOM     24  C   UNL A   1      38.907  20.342  25.758  1.00  0.00     0.118 C 
BRANCH  24  25
ATOM     25  N   UNL A   1      39.952  19.347  25.987  1.00  0.00    -0.352 N 
ATOM     26  C   UNL A   1      41.306  19.503  26.135  1.00  0.00     0.251 C 
ATOM     27  H   UNL A   1      39.634  18.417  26.043  1.00  0.00     0.163 HD
ATOM     28  O   UNL A   1      42.053  18.533  26.027  1.00  0.00    -0.269 OA
BRANCH  26  29
ATOM     29  C   UNL A   1      41.864  20.836  26.424  1.00  0.00     0.039 A 
ATOM     30  C   UNL A   1      42.096  21.727  25.373  1.00  0.00     0.014 A 
ATOM     31  C   UNL A   1      42.179  21.194  27.735  1.00  0.00     0.014 A 
ATOM     32  C   UNL A   1      42.587  23.002  25.652  1.00  0.00     0.010 A 
ATOM     33  C   UNL A   1      42.562  22.495  28.022  1.00  0.00     0.010 A 
ATOM     34  C   UNL A   1      42.790  23.405  26.982  1.00  0.00    -0.014 A 
BRANCH  34  35
ATOM     35  C   UNL A   1      43.281  24.761  27.313  1.00  0.00     0.031 A 
ATOM     36  C   UNL A   1      42.342  25.764  27.920  1.00  0.00     0.074 A 
ATOM     37  C   UNL A   1      44.548  25.102  27.014  1.00  0.00     0.049 A 
ATOM     38  N   UNL A   1      42.555  27.018  28.224  1.00  0.00    -0.248 NA
ATOM     39  C   UNL A   1      40.968  25.307  28.191  1.00  0.00     0.031 C 
ATOM     40  C   UNL A   1      45.532  24.222  26.383  1.00  0.00     0.029 A 
ATOM     41  N   UNL A   1      45.224  26.281  27.198  1.00  0.00    -0.354 N 
ATOM     42  C   UNL A   1      41.346  27.496  28.712  1.00  0.00     0.074 A 
ATOM     43  C   UNL A   1      40.383  26.425  28.591  1.00  0.00     0.031 C 
ATOM     44  C   UNL A   1      46.697  24.877  26.269  1.00  0.00     0.029 A 
ATOM     45  C   UNL A   1      46.531  26.236  26.780  1.00  0.00     0.049 A 
ATOM     46  H   UNL A   1      44.811  27.083  27.592  1.00  0.00     0.167 HD
ATOM     47  C   UNL A   1      41.074  28.709  29.245  1.00  0.00     0.037 A 
ATOM     48  C   UNL A   1      47.486  27.183  26.810  1.00  0.00     0.037 A 
ATOM     49  C   UNL A   1      42.046  29.760  29.382  1.00  0.00     0.049 A 
ATOM     50  C   UNL A   1      47.154  28.533  27.385  1.00  0.00     0.074 A 
ATOM     51  C   UNL A   1      41.890  31.009  29.953  1.00  0.00     0.029 A 
ATOM     52  N   UNL A   1      43.360  29.680  28.939  1.00  0.00    -0.354 N 
ATOM     53  N   UNL A   1      46.025  28.957  27.899  1.00  0.00    -0.248 NA
ATOM     54  C   UNL A   1      48.229  29.536  27.385  1.00  0.00     0.031 C 
ATOM     55  C   UNL A   1      43.093  31.705  29.809  1.00  0.00     0.029 A 
ATOM     56  C   UNL A   1      44.017  30.870  29.200  1.00  0.00     0.049 A 
ATOM     57  H   UNL A   1      43.763  28.895  28.504  1.00  0.00     0.167 HD
ATOM     58  C   UNL A   1      46.254  30.265  28.302  1.00  0.00     0.074 A 
ATOM     59  C   UNL A   1      47.638  30.559  27.989  1.00  0.00     0.031 C 
ATOM     60  C   UNL A   1      45.396  31.143  28.879  1.00  0.00     0.037 A 
BRANCH  47  61
ATOM     61  C   UNL A   1      39.675  28.956  29.733  1.00  0.00     0.064 A 
ATOM     62  C   UNL A   1      39.287  28.637  31.044  1.00  0.00     0.173 A 
ATOM     63  C   UNL A   1      38.719  29.549  28.894  1.00  0.00     0.173 A 
ATOM     64  F   UNL A   1      40.158  28.055  31.883  1.00  0.00    -0.203 F 
ATOM     65  C   UNL A   1      37.989  28.873  31.486  1.00  0.00     0.198 A 
ATOM     66  C   UNL A   1      37.431  29.816  29.351  1.00  0.00     0.198 A 
ATOM     67  F   UNL A   1      39.036  29.876  27.633  1.00  0.00    -0.203 F 
ATOM     68  F   UNL A   1      37.629  28.510  32.726  1.00  0.00    -0.200 F 
ATOM     69  C   UNL A   1      37.064  29.470  30.644  1.00  0.00     0.200 A 
ATOM     70  F   UNL A   1      36.542  30.406  28.540  1.00  0.00    -0.200 F 
ATOM     71  F   UNL A   1      35.819  29.708  31.074  1.00  0.00    -0.200 F 
ENDBRANCH  47  61
BRANCH  48  72
ATOM     72  C   UNL A   1      48.852  26.860  26.325  1.00  0.00     0.064 A 
ATOM     73  C   UNL A   1      49.796  26.282  27.184  1.00  0.00     0.173 A 
ATOM     74  C   UNL A   1      49.227  27.068  24.989  1.00  0.00     0.173 A 
ATOM     75  F   UNL A   1      49.491  26.078  28.474  1.00  0.00    -0.203 F 
ATOM     76  C   UNL A   1      51.063  25.926  26.726  1.00  0.00     0.198 A 
ATOM     77  C   UNL A   1      50.484  26.687  24.526  1.00  0.00     0.198 A 
ATOM     78  F   UNL A   1      48.357  27.611  24.124  1.00  0.00    -0.203 F 
ATOM     79  F   UNL A   1      51.955  25.395  27.575  1.00  0.00    -0.200 F 
ATOM     80  C   UNL A   1      51.403  26.118  25.395  1.00  0.00     0.200 A 
ATOM     81  F   UNL A   1      50.801  26.858  23.236  1.00  0.00    -0.200 F 
ATOM     82  F   UNL A   1      52.614  25.757  24.952  1.00  0.00    -0.200 F 
ENDBRANCH  48  72
BRANCH  60  83
ATOM     83  C   UNL A   1      45.923  32.507  29.219  1.00  0.00     0.064 A 
ATOM     84  C   UNL A   1      45.791  33.583  28.332  1.00  0.00     0.173 A 
ATOM     85  C   UNL A   1      46.483  32.757  30.482  1.00  0.00     0.173 A 
ATOM     86  F   UNL A   1      45.272  33.392  27.110  1.00  0.00    -0.203 F 
ATOM     87  C   UNL A   1      46.214  34.861  28.691  1.00  0.00     0.198 A 
ATOM     88  C   UNL A   1      46.875  34.041  30.849  1.00  0.00     0.198 A 
ATOM     89  F   UNL A   1      46.622  31.761  31.370  1.00  0.00    -0.203 F 
ATOM     90  F   UNL A   1      46.110  35.869  27.815  1.00  0.00    -0.200 F 
ATOM     91  C   UNL A   1      46.744  35.091  29.952  1.00  0.00     0.200 A 
ATOM     92  F   UNL A   1      47.368  34.265  32.074  1.00  0.00    -0.200 F 
ATOM     93  F   UNL A   1      47.130  36.325  30.303  1.00  0.00    -0.200 F 
ENDBRANCH  60  83
ENDBRANCH  34  35
ENDBRANCH  26  29
ENDBRANCH  24  25
ENDBRANCH   1  24
TORSDOF 11
ENDMDL
MODEL 3
REMARK VINA RESULT:     -12.4      4.357      7.809
REMARK SMILES Cc1cc2c(c(C)c1Cl)C=C(C(=O)NCCCNC(=O)c1ccc(-c3c4nc(c(-c5c(F)c(F)c(F)c(F)c5F)c5ccc([nH]5)c(-c5c(F)c(F)c(F)c(F)c5F)c5nc(c(-c6c(F)c(F)c(F)c(F)c6F)c6ccc3[nH]6)C=C5)C=C4)cc1)[C@@H](C(F)(F)F)O2
REMARK SMILES IDX 16 1 15 2 14 3 12 4 13 5 11 7 1 8 2 9 3 10 8 11 4 12 6 13
REMARK SMILES IDX 9 14 5 15 89 16 7 17 10 18 84 19 85 20 86 21 87 22 88 23
REMARK SMILES IDX 17 24 18 25 19 26 20 28 21 29 22 30 83 31 23 32 82 33 24 34
REMARK SMILES IDX 25 35 26 36 76 37 27 38 81 39 75 40 77 41 28 42 80 43 74 44
REMARK SMILES IDX 73 45 29 47 61 48 41 49 60 50 42 51 45 52 59 53 78 54 43 55
REMARK SMILES IDX 44 56 58 58 79 59 46 60 30 61 31 62 39 63 32 64 33 65 37 66
REMARK SMILES IDX 40 67 34 68 35 69 38 70 36 71 62 72 63 73 71 74 64 75 65 76
REMARK SMILES IDX 69 77 72 78 66 79 67 80 70 81 68 82 47 83 48 84 56 85 49 86
REMARK SMILES IDX 50 87 54 88 57 89 51 90 52 91 55 92 53 93
REMARK H PARENT 14 6 18 27 77 46 45 57
REMARK Flexibility Score: inf
ROOT
ATOM      1  C   UNL A   1      37.850  19.634  24.871  1.00  0.00     0.042 C 
ENDROOT
BRANCH   1   2
ATOM      2  C   UNL A   1      36.540  20.380  25.066  1.00  0.00     0.118 C 
BRANCH   2   3
ATOM      3  N   UNL A   1      35.396  19.483  24.996  1.00  0.00    -0.352 N 
ATOM      4  C   UNL A   1      34.047  19.593  24.988  1.00  0.00     0.251 C 
ATOM      5  O   UNL A   1      33.435  18.522  24.926  1.00  0.00    -0.270 OA
ATOM      6  H   UNL A   1      35.679  18.543  24.937  1.00  0.00     0.163 HD
BRANCH   4   7
ATOM      7  C   UNL A   1      33.292  20.878  25.046  1.00  0.00     0.067 C 
ATOM      8  C   UNL A   1      30.279  26.562  24.117  1.00  0.00     0.046 C 
ATOM      9  C   UNL A   1      31.040  25.271  23.985  1.00  0.00    -0.028 A 
ATOM     10  C   UNL A   1      31.027  24.382  25.063  1.00  0.00     0.052 A 
ATOM     11  C   UNL A   1      31.775  24.932  22.830  1.00  0.00     0.047 A 
ATOM     12  C   UNL A   1      31.742  23.192  25.000  1.00  0.00     0.128 A 
ATOM     13  C   UNL A   1      32.492  23.712  22.747  1.00  0.00    -0.021 A 
ATOM     14  Cl  UNL A   1      31.779  26.054  21.503  1.00  0.00    -0.084 Cl
ATOM     15  C   UNL A   1      32.473  22.838  23.861  1.00  0.00     0.022 A 
ATOM     16  O   UNL A   1      31.639  22.395  26.104  1.00  0.00    -0.475 OA
ATOM     17  C   UNL A   1      33.277  23.328  21.515  1.00  0.00     0.047 C 
ATOM     18  C   UNL A   1      33.167  21.545  23.884  1.00  0.00     0.026 C 
ATOM     19  C   UNL A   1      32.716  21.448  26.304  1.00  0.00     0.314 C 
BRANCH  19  20
ATOM     20  C   UNL A   1      33.782  22.067  27.229  1.00  0.00     0.429 C 
ATOM     21  F   UNL A   1      33.197  22.896  28.131  1.00  0.00    -0.167 F 
ATOM     22  F   UNL A   1      34.453  21.135  27.947  1.00  0.00    -0.167 F 
ATOM     23  F   UNL A   1      34.709  22.784  26.557  1.00  0.00    -0.167 F 
ENDBRANCH  19  20
ENDBRANCH   4   7
ENDBRANCH   2   3
ENDBRANCH   1   2
BRANCH   1  24
ATOM     24  C   UNL A   1      38.958  20.192  25.754  1.00  0.00     0.118 C 
BRANCH  24  25
ATOM     25  N   UNL A   1      40.003  19.202  26.000  1.00  0.00    -0.352 N 
ATOM     26  C   UNL A   1      41.359  19.359  26.126  1.00  0.00     0.251 C 
ATOM     27  H   UNL A   1      39.684  18.275  26.089  1.00  0.00     0.163 HD
ATOM     28  O   UNL A   1      42.103  18.383  26.038  1.00  0.00    -0.269 OA
BRANCH  26  29
ATOM     29  C   UNL A   1      41.924  20.698  26.366  1.00  0.00     0.039 A 
ATOM     30  C   UNL A   1      42.234  21.520  25.279  1.00  0.00     0.014 A 
ATOM     31  C   UNL A   1      42.168  21.132  27.669  1.00  0.00     0.014 A 
ATOM     32  C   UNL A   1      42.731  22.801  25.509  1.00  0.00     0.010 A 
ATOM     33  C   UNL A   1      42.557  22.442  27.900  1.00  0.00     0.010 A 
ATOM     34  C   UNL A   1      42.864  23.283  26.821  1.00  0.00    -0.014 A 
BRANCH  34  35
ATOM     35  C   UNL A   1      43.359  24.649  27.099  1.00  0.00     0.031 A 
ATOM     36  C   UNL A   1      42.424  25.677  27.670  1.00  0.00     0.074 A 
ATOM     37  C   UNL A   1      44.626  24.975  26.782  1.00  0.00     0.049 A 
ATOM     38  N   UNL A   1      42.642  26.942  27.925  1.00  0.00    -0.248 NA
ATOM     39  C   UNL A   1      41.051  25.235  27.963  1.00  0.00     0.031 C 
ATOM     40  C   UNL A   1      45.605  24.068  26.183  1.00  0.00     0.029 A 
ATOM     41  N   UNL A   1      45.305  26.158  26.918  1.00  0.00    -0.354 N 
ATOM     42  C   UNL A   1      41.436  27.442  28.398  1.00  0.00     0.074 A 
ATOM     43  C   UNL A   1      40.470  26.369  28.322  1.00  0.00     0.031 C 
ATOM     44  C   UNL A   1      46.772  24.715  26.040  1.00  0.00     0.029 A 
ATOM     45  C   UNL A   1      46.611  26.093  26.499  1.00  0.00     0.049 A 
ATOM     46  H   UNL A   1      44.896  26.976  27.283  1.00  0.00     0.167 HD
ATOM     47  C   UNL A   1      41.169  28.675  28.885  1.00  0.00     0.037 A 
ATOM     48  C   UNL A   1      47.568  27.038  26.488  1.00  0.00     0.037 A 
ATOM     49  C   UNL A   1      42.144  29.727  28.978  1.00  0.00     0.049 A 
ATOM     50  C   UNL A   1      47.242  28.410  27.012  1.00  0.00     0.074 A 
ATOM     51  C   UNL A   1      41.994  30.998  29.501  1.00  0.00     0.029 A 
ATOM     52  N   UNL A   1      43.457  29.627  28.534  1.00  0.00    -0.354 N 
ATOM     53  N   UNL A   1      46.116  28.857  27.513  1.00  0.00    -0.248 NA
ATOM     54  C   UNL A   1      48.320  29.409  26.970  1.00  0.00     0.031 C 
ATOM     55  C   UNL A   1      43.198  31.684  29.326  1.00  0.00     0.029 A 
ATOM     56  C   UNL A   1      44.118  30.824  28.747  1.00  0.00     0.049 A 
ATOM     57  H   UNL A   1      43.856  28.824  28.129  1.00  0.00     0.167 HD
ATOM     58  C   UNL A   1      46.351  30.179  27.866  1.00  0.00     0.074 A 
ATOM     59  C   UNL A   1      47.734  30.456  27.536  1.00  0.00     0.031 C 
ATOM     60  C   UNL A   1      45.497  31.080  28.410  1.00  0.00     0.037 A 
BRANCH  47  61
ATOM     61  C   UNL A   1      39.773  28.944  29.368  1.00  0.00     0.064 A 
ATOM     62  C   UNL A   1      38.777  29.427  28.503  1.00  0.00     0.173 A 
ATOM     63  C   UNL A   1      39.414  28.688  30.700  1.00  0.00     0.173 A 
ATOM     64  F   UNL A   1      39.070  29.703  27.223  1.00  0.00    -0.203 F 
ATOM     65  C   UNL A   1      37.485  29.671  28.961  1.00  0.00     0.198 A 
ATOM     66  C   UNL A   1      38.112  28.899  31.145  1.00  0.00     0.198 A 
ATOM     67  F   UNL A   1      40.325  28.225  31.568  1.00  0.00    -0.203 F 
ATOM     68  F   UNL A   1      36.567  30.182  28.128  1.00  0.00    -0.200 F 
ATOM     69  C   UNL A   1      37.151  29.399  30.278  1.00  0.00     0.200 A 
ATOM     70  F   UNL A   1      37.787  28.623  32.416  1.00  0.00    -0.200 F 
ATOM     71  F   UNL A   1      35.905  29.622  30.715  1.00  0.00    -0.200 F 
ENDBRANCH  47  61
BRANCH  48  72
ATOM     72  C   UNL A   1      48.932  26.693  26.011  1.00  0.00     0.064 A 
ATOM     73  C   UNL A   1      49.319  26.972  24.693  1.00  0.00     0.173 A 
ATOM     74  C   UNL A   1      49.891  26.132  26.867  1.00  0.00     0.173 A 
ATOM     75  F   UNL A   1      48.434  27.494  23.832  1.00  0.00    -0.203 F 
ATOM     76  C   UNL A   1      50.612  26.702  24.250  1.00  0.00     0.198 A 
ATOM     77  C   UNL A   1      51.191  25.887  26.431  1.00  0.00     0.198 A 
ATOM     78  F   UNL A   1      49.573  25.853  28.140  1.00  0.00    -0.203 F 
ATOM     79  F   UNL A   1      50.949  26.958  22.978  1.00  0.00    -0.200 F 
ATOM     80  C   UNL A   1      51.550  26.169  25.122  1.00  0.00     0.200 A 
ATOM     81  F   UNL A   1      52.099  25.390  27.281  1.00  0.00    -0.200 F 
ATOM     82  F   UNL A   1      52.799  25.929  24.700  1.00  0.00    -0.200 F 
ENDBRANCH  48  72
BRANCH  60  83
ATOM     83  C   UNL A   1      46.028  32.455  28.697  1.00  0.00     0.064 A 
ATOM     84  C   UNL A   1      46.683  32.750  29.900  1.00  0.00     0.173 A 
ATOM     85  C   UNL A   1      45.959  33.461  27.720  1.00  0.00     0.173 A 
ATOM     86  F   UNL A   1      46.765  31.825  30.869  1.00  0.00    -0.203 F 
ATOM     87  C   UNL A   1      47.239  34.007  30.121  1.00  0.00     0.198 A 
ATOM     88  C   UNL A   1      46.544  34.705  27.932  1.00  0.00     0.198 A 
ATOM     89  F   UNL A   1      45.351  33.225  26.547  1.00  0.00    -0.203 F 
ATOM     90  F   UNL A   1      47.831  34.278  31.292  1.00  0.00    -0.200 F 
ATOM     91  C   UNL A   1      47.180  34.979  29.134  1.00  0.00     0.200 A 
ATOM     92  F   UNL A   1      46.504  35.636  26.969  1.00  0.00    -0.200 F 
ATOM     93  F   UNL A   1      47.735  36.180  29.340  1.00  0.00    -0.200 F 
ENDBRANCH  60  83
ENDBRANCH  34  35
ENDBRANCH  26  29
ENDBRANCH  24  25
ENDBRANCH   1  24
TORSDOF 11
ENDMDL
