MODEL 1
REMARK VINA RESULT:     -10.2      0.000      0.000
REMARK SMILES COc1ccc([C@@H]([NH3+])CC(=O)NCCCNC(=O)c2ccc(-c3c4nc(c(-c5c(F)c(F)c(F)c(F)c5F)c5ccc([nH]5)c(-c5c(F)c(F)c(F)c(F)c5F)c5nc(c(-c6c(F)c(F)c(F)c(F)c6F)c6ccc3[nH]6)C=C5)C=C4)cc2)cc1
REMARK SMILES IDX 13 1 12 2 10 3 11 4 9 6 7 7 6 8 3 9 4 10 83 11 5 12 82 13
REMARK SMILES IDX 2 14 1 15 8 16 14 20 15 21 16 22 17 23 18 25 19 26 20 27
REMARK SMILES IDX 81 28 21 29 80 30 22 31 23 32 24 33 74 34 25 35 79 36 73 37
REMARK SMILES IDX 75 38 26 39 78 40 72 41 71 42 27 44 59 45 39 46 58 47 40 48
REMARK SMILES IDX 43 49 57 50 76 51 41 52 42 53 56 55 77 56 44 57 28 58 29 59
REMARK SMILES IDX 37 60 30 61 31 62 35 63 38 64 32 65 33 66 36 67 34 68 60 69
REMARK SMILES IDX 61 70 69 71 62 72 63 73 67 74 70 75 64 76 65 77 68 78 66 79
REMARK SMILES IDX 45 80 46 81 54 82 47 83 48 84 52 85 55 86 49 87 50 88 53 89
REMARK SMILES IDX 51 90
REMARK H PARENT 12 5 8 17 8 18 8 19 16 24 75 43 43 54
REMARK Flexibility Score: inf
ROOT
ATOM      1  C   UNL A   1      34.150  35.327  28.774  1.00  0.00     0.117 C 
ENDROOT
BRANCH   1   2
ATOM      2  N   UNL A   1      33.212  35.659  29.833  1.00  0.00    -0.356 N 
ATOM      3  C   UNL A   1      33.245  35.328  31.154  1.00  0.00     0.226 C 
ATOM      4  O   UNL A   1      32.221  35.510  31.818  1.00  0.00    -0.275 OA
ATOM      5  H   UNL A   1      32.440  36.203  29.554  1.00  0.00     0.163 HD
BRANCH   3   6
ATOM      6  C   UNL A   1      34.505  34.792  31.808  1.00  0.00     0.170 C 
BRANCH   6   7
ATOM      7  C   UNL A   1      34.309  33.394  32.425  1.00  0.00     0.221 C 
BRANCH   7   8
ATOM      8  C   UNL A   1      35.575  32.810  33.036  1.00  0.00     0.010 A 
ATOM      9  C   UNL A   1      37.986  31.803  34.062  1.00  0.00     0.118 A 
ATOM     10  C   UNL A   1      37.358  32.871  34.698  1.00  0.00     0.047 A 
ATOM     11  C   UNL A   1      37.377  31.172  32.979  1.00  0.00     0.047 A 
ATOM     12  C   UNL A   1      36.158  33.370  34.187  1.00  0.00     0.014 A 
ATOM     13  C   UNL A   1      36.175  31.671  32.470  1.00  0.00     0.014 A 
BRANCH   9  14
ATOM     14  O   UNL A   1      39.187  31.373  34.553  1.00  0.00    -0.497 OA
ATOM     15  C   UNL A   1      39.504  30.079  34.037  1.00  0.00     0.278 C 
ENDBRANCH   9  14
ENDBRANCH   7   8
BRANCH   7  16
ATOM     16  N   UNL A   1      33.277  33.453  33.471  1.00  0.00    -0.351 N 
ATOM     17  H   UNL A   1      32.545  34.105  33.189  1.00  0.00     0.345 HD
ATOM     18  H   UNL A   1      33.696  33.771  34.345  1.00  0.00     0.345 HD
ATOM     19  H   UNL A   1      32.873  32.525  33.604  1.00  0.00     0.345 HD
ENDBRANCH   7  16
ENDBRANCH   6   7
ENDBRANCH   3   6
ENDBRANCH   1   2
BRANCH   1  20
ATOM     20  C   UNL A   1      33.748  34.020  28.098  1.00  0.00     0.042 C 
BRANCH  20  21
ATOM     21  C   UNL A   1      34.559  32.801  28.508  1.00  0.00     0.118 C 
BRANCH  21  22
ATOM     22  N   UNL A   1      33.917  31.555  28.118  1.00  0.00    -0.352 N 
ATOM     23  C   UNL A   1      34.415  30.297  27.885  1.00  0.00     0.251 C 
ATOM     24  H   UNL A   1      32.942  31.627  28.001  1.00  0.00     0.163 HD
ATOM     25  O   UNL A   1      33.666  29.460  27.376  1.00  0.00    -0.269 OA
BRANCH  23  26
ATOM     26  C   UNL A   1      35.818  29.908  28.189  1.00  0.00     0.039 A 
ATOM     27  C   UNL A   1      36.095  29.363  29.452  1.00  0.00     0.014 A 
ATOM     28  C   UNL A   1      36.876  30.124  27.305  1.00  0.00     0.014 A 
ATOM     29  C   UNL A   1      37.400  28.988  29.799  1.00  0.00     0.010 A 
ATOM     30  C   UNL A   1      38.161  29.676  27.616  1.00  0.00     0.010 A 
ATOM     31  C   UNL A   1      38.442  29.119  28.873  1.00  0.00    -0.014 A 
BRANCH  31  32
ATOM     32  C   UNL A   1      39.841  28.743  29.216  1.00  0.00     0.031 A 
ATOM     33  C   UNL A   1      40.695  29.683  30.023  1.00  0.00     0.074 A 
ATOM     34  C   UNL A   1      40.366  27.589  28.764  1.00  0.00     0.049 A 
ATOM     35  N   UNL A   1      41.953  29.575  30.372  1.00  0.00    -0.248 NA
ATOM     36  C   UNL A   1      40.052  30.924  30.482  1.00  0.00     0.031 C 
ATOM     37  C   UNL A   1      39.658  26.597  27.955  1.00  0.00     0.029 A 
ATOM     38  N   UNL A   1      41.626  27.062  28.910  1.00  0.00    -0.354 N 
ATOM     39  C   UNL A   1      42.252  30.735  31.074  1.00  0.00     0.074 A 
ATOM     40  C   UNL A   1      41.063  31.559  31.053  1.00  0.00     0.031 C 
ATOM     41  C   UNL A   1      40.488  25.576  27.688  1.00  0.00     0.029 A 
ATOM     42  C   UNL A   1      41.795  25.855  28.275  1.00  0.00     0.049 A 
ATOM     43  H   UNL A   1      42.339  27.506  29.422  1.00  0.00     0.167 HD
ATOM     44  C   UNL A   1      43.405  31.075  31.701  1.00  0.00     0.037 A 
ATOM     45  C   UNL A   1      42.884  25.068  28.171  1.00  0.00     0.037 A 
ATOM     46  C   UNL A   1      44.584  30.250  31.736  1.00  0.00     0.049 A 
ATOM     47  C   UNL A   1      44.168  25.487  28.840  1.00  0.00     0.074 A 
ATOM     48  C   UNL A   1      45.779  30.479  32.394  1.00  0.00     0.029 A 
ATOM     49  N   UNL A   1      44.721  29.039  31.071  1.00  0.00    -0.354 N 
ATOM     50  N   UNL A   1      44.419  26.552  29.561  1.00  0.00    -0.248 NA
ATOM     51  C   UNL A   1      45.321  24.587  28.679  1.00  0.00     0.031 C 
ATOM     52  C   UNL A   1      46.660  29.438  32.079  1.00  0.00     0.029 A 
ATOM     53  C   UNL A   1      45.993  28.528  31.274  1.00  0.00     0.049 A 
ATOM     54  H   UNL A   1      44.017  28.607  30.534  1.00  0.00     0.167 HD
ATOM     55  C   UNL A   1      45.743  26.436  29.966  1.00  0.00     0.074 A 
ATOM     56  C   UNL A   1      46.240  25.191  29.419  1.00  0.00     0.031 C 
ATOM     57  C   UNL A   1      46.479  27.286  30.726  1.00  0.00     0.037 A 
BRANCH  44  58
ATOM     58  C   UNL A   1      43.446  32.410  32.390  1.00  0.00     0.064 A 
ATOM     59  C   UNL A   1      43.882  33.570  31.730  1.00  0.00     0.173 A 
ATOM     60  C   UNL A   1      43.035  32.533  33.726  1.00  0.00     0.173 A 
ATOM     61  F   UNL A   1      44.296  33.506  30.456  1.00  0.00    -0.203 F 
ATOM     62  C   UNL A   1      43.952  34.791  32.395  1.00  0.00     0.198 A 
ATOM     63  C   UNL A   1      43.072  33.764  34.377  1.00  0.00     0.198 A 
ATOM     64  F   UNL A   1      42.600  31.460  34.403  1.00  0.00    -0.203 F 
ATOM     65  F   UNL A   1      44.439  35.869  31.764  1.00  0.00    -0.200 F 
ATOM     66  C   UNL A   1      43.542  34.888  33.716  1.00  0.00     0.200 A 
ATOM     67  F   UNL A   1      42.663  33.859  35.650  1.00  0.00    -0.200 F 
ATOM     68  F   UNL A   1      43.612  36.063  34.356  1.00  0.00    -0.200 F 
ENDBRANCH  44  58
BRANCH  45  69
ATOM     69  C   UNL A   1      42.802  23.785  27.426  1.00  0.00     0.064 A 
ATOM     70  C   UNL A   1      42.342  22.619  28.053  1.00  0.00     0.173 A 
ATOM     71  C   UNL A   1      43.182  23.695  26.078  1.00  0.00     0.173 A 
ATOM     72  F   UNL A   1      41.991  22.650  29.347  1.00  0.00    -0.203 F 
ATOM     73  C   UNL A   1      42.279  21.409  27.366  1.00  0.00     0.198 A 
ATOM     74  C   UNL A   1      43.093  22.490  25.385  1.00  0.00     0.198 A 
ATOM     75  F   UNL A   1      43.630  24.781  25.432  1.00  0.00    -0.203 F 
ATOM     76  F   UNL A   1      41.876  20.300  28.002  1.00  0.00    -0.200 F 
ATOM     77  C   UNL A   1      42.648  21.346  26.030  1.00  0.00     0.200 A 
ATOM     78  F   UNL A   1      43.440  22.436  24.091  1.00  0.00    -0.200 F 
ATOM     79  F   UNL A   1      42.582  20.182  25.369  1.00  0.00    -0.200 F 
ENDBRANCH  45  69
BRANCH  57  80
ATOM     80  C   UNL A   1      47.893  26.887  31.040  1.00  0.00     0.064 A 
ATOM     81  C   UNL A   1      48.198  26.008  32.090  1.00  0.00     0.173 A 
ATOM     82  C   UNL A   1      48.955  27.356  30.250  1.00  0.00     0.173 A 
ATOM     83  F   UNL A   1      47.222  25.543  32.885  1.00  0.00    -0.203 F 
ATOM     84  C   UNL A   1      49.513  25.632  32.351  1.00  0.00     0.198 A 
ATOM     85  C   UNL A   1      50.265  26.951  30.494  1.00  0.00     0.198 A 
ATOM     86  F   UNL A   1      48.720  28.192  29.228  1.00  0.00    -0.203 F 
ATOM     87  F   UNL A   1      49.784  24.828  33.389  1.00  0.00    -0.200 F 
ATOM     88  C   UNL A   1      50.544  26.097  31.548  1.00  0.00     0.200 A 
ATOM     89  F   UNL A   1      51.258  27.389  29.706  1.00  0.00    -0.200 F 
ATOM     90  F   UNL A   1      51.807  25.724  31.795  1.00  0.00    -0.200 F 
ENDBRANCH  57  80
ENDBRANCH  31  32
ENDBRANCH  23  26
ENDBRANCH  21  22
ENDBRANCH  20  21
ENDBRANCH   1  20
TORSDOF 14
ENDMDL
MODEL 2
REMARK VINA RESULT:     -10.1      4.156      9.860
REMARK SMILES COc1ccc([C@@H]([NH3+])CC(=O)NCCCNC(=O)c2ccc(-c3c4nc(c(-c5c(F)c(F)c(F)c(F)c5F)c5ccc([nH]5)c(-c5c(F)c(F)c(F)c(F)c5F)c5nc(c(-c6c(F)c(F)c(F)c(F)c6F)c6ccc3[nH]6)C=C5)C=C4)cc2)cc1
REMARK SMILES IDX 13 1 12 2 10 3 11 4 9 6 7 7 6 8 3 9 4 10 83 11 5 12 82 13
REMARK SMILES IDX 2 14 1 15 8 16 14 20 15 21 16 22 17 23 18 25 19 26 20 27
REMARK SMILES IDX 81 28 21 29 80 30 22 31 23 32 24 33 74 34 25 35 79 36 73 37
REMARK SMILES IDX 75 38 26 39 78 40 72 41 71 42 27 44 59 45 39 46 58 47 40 48
REMARK SMILES IDX 43 49 57 50 76 51 41 52 42 53 56 55 77 56 44 57 28 58 29 59
REMARK SMILES IDX 37 60 30 61 31 62 35 63 38 64 32 65 33 66 36 67 34 68 60 69
REMARK SMILES IDX 61 70 69 71 62 72 63 73 67 74 70 75 64 76 65 77 68 78 66 79
REMARK SMILES IDX 45 80 46 81 54 82 47 83 48 84 52 85 55 86 49 87 50 88 53 89
REMARK SMILES IDX 51 90
REMARK H PARENT 12 5 8 17 8 18 8 19 16 24 75 43 43 54
REMARK Flexibility Score: inf
ROOT
ATOM      1  C   UNL A   1      32.005  28.111  22.969  1.00  0.00     0.117 C 
ENDROOT
BRANCH   1   2
ATOM      2  N   UNL A   1      32.325  27.315  21.796  1.00  0.00    -0.356 N 
ATOM      3  C   UNL A   1      32.809  26.043  21.719  1.00  0.00     0.226 C 
ATOM      4  O   UNL A   1      33.237  25.657  20.628  1.00  0.00    -0.275 OA
ATOM      5  H   UNL A   1      32.169  27.759  20.932  1.00  0.00     0.163 HD
BRANCH   3   6
ATOM      6  C   UNL A   1      32.790  25.111  22.916  1.00  0.00     0.170 C 
BRANCH   6   7
ATOM      7  C   UNL A   1      32.914  23.627  22.521  1.00  0.00     0.221 C 
BRANCH   7   8
ATOM      8  C   UNL A   1      34.056  22.900  23.217  1.00  0.00     0.010 A 
ATOM      9  C   UNL A   1      36.171  21.670  24.592  1.00  0.00     0.118 A 
ATOM     10  C   UNL A   1      34.863  21.250  24.820  1.00  0.00     0.047 A 
ATOM     11  C   UNL A   1      36.444  22.629  23.618  1.00  0.00     0.047 A 
ATOM     12  C   UNL A   1      33.812  21.861  24.133  1.00  0.00     0.014 A 
ATOM     13  C   UNL A   1      35.390  23.239  22.931  1.00  0.00     0.014 A 
BRANCH   9  14
ATOM     14  O   UNL A   1      37.174  21.090  25.319  1.00  0.00    -0.497 OA
ATOM     15  C   UNL A   1      38.152  22.063  25.687  1.00  0.00     0.278 C 
ENDBRANCH   9  14
ENDBRANCH   7   8
BRANCH   7  16
ATOM     16  N   UNL A   1      31.661  22.924  22.834  1.00  0.00    -0.351 N 
ATOM     17  H   UNL A   1      30.966  23.596  23.160  1.00  0.00     0.345 HD
ATOM     18  H   UNL A   1      31.832  22.232  23.564  1.00  0.00     0.345 HD
ATOM     19  H   UNL A   1      31.315  22.456  21.996  1.00  0.00     0.345 HD
ENDBRANCH   7  16
ENDBRANCH   6   7
ENDBRANCH   3   6
ENDBRANCH   1   2
BRANCH   1  20
ATOM     20  C   UNL A   1      33.220  28.918  23.413  1.00  0.00     0.042 C 
BRANCH  20  21
ATOM     21  C   UNL A   1      33.435  28.995  24.916  1.00  0.00     0.118 C 
BRANCH  21  22
ATOM     22  N   UNL A   1      32.894  30.219  25.488  1.00  0.00    -0.352 N 
ATOM     23  C   UNL A   1      33.220  30.929  26.617  1.00  0.00     0.251 C 
ATOM     24  H   UNL A   1      32.156  30.611  24.968  1.00  0.00     0.163 HD
ATOM     25  O   UNL A   1      32.464  31.836  26.972  1.00  0.00    -0.269 OA
BRANCH  23  26
ATOM     26  C   UNL A   1      34.421  30.636  27.444  1.00  0.00     0.039 A 
ATOM     27  C   UNL A   1      35.343  31.672  27.663  1.00  0.00     0.014 A 
ATOM     28  C   UNL A   1      34.705  29.367  27.950  1.00  0.00     0.014 A 
ATOM     29  C   UNL A   1      36.497  31.453  28.425  1.00  0.00     0.010 A 
ATOM     30  C   UNL A   1      35.812  29.167  28.777  1.00  0.00     0.010 A 
ATOM     31  C   UNL A   1      36.731  30.202  29.011  1.00  0.00    -0.014 A 
BRANCH  31  32
ATOM     32  C   UNL A   1      37.955  29.935  29.813  1.00  0.00     0.031 A 
ATOM     33  C   UNL A   1      39.016  29.011  29.279  1.00  0.00     0.074 A 
ATOM     34  C   UNL A   1      38.095  30.471  31.040  1.00  0.00     0.049 A 
ATOM     35  N   UNL A   1      40.122  28.595  29.846  1.00  0.00    -0.248 NA
ATOM     36  C   UNL A   1      38.792  28.463  27.932  1.00  0.00     0.031 C 
ATOM     37  C   UNL A   1      37.135  31.364  31.688  1.00  0.00     0.029 A 
ATOM     38  N   UNL A   1      39.098  30.330  31.968  1.00  0.00    -0.354 N 
ATOM     39  C   UNL A   1      40.713  27.731  28.934  1.00  0.00     0.074 A 
ATOM     40  C   UNL A   1      39.817  27.635  27.802  1.00  0.00     0.031 C 
ATOM     41  C   UNL A   1      37.601  31.703  32.901  1.00  0.00     0.029 A 
ATOM     42  C   UNL A   1      38.874  31.025  33.131  1.00  0.00     0.049 A 
ATOM     43  H   UNL A   1      39.903  29.784  31.813  1.00  0.00     0.167 HD
ATOM     44  C   UNL A   1      41.906  27.091  29.020  1.00  0.00     0.037 A 
ATOM     45  C   UNL A   1      39.607  31.099  34.260  1.00  0.00     0.037 A 
ATOM     46  C   UNL A   1      42.805  27.197  30.139  1.00  0.00     0.049 A 
ATOM     47  C   UNL A   1      40.908  30.346  34.350  1.00  0.00     0.074 A 
ATOM     48  C   UNL A   1      44.060  26.637  30.293  1.00  0.00     0.029 A 
ATOM     49  N   UNL A   1      42.537  27.901  31.304  1.00  0.00    -0.354 N 
ATOM     50  N   UNL A   1      41.492  29.588  33.453  1.00  0.00    -0.248 NA
ATOM     51  C   UNL A   1      41.653  30.462  35.612  1.00  0.00     0.031 C 
ATOM     52  C   UNL A   1      44.526  26.952  31.574  1.00  0.00     0.029 A 
ATOM     53  C   UNL A   1      43.588  27.760  32.196  1.00  0.00     0.049 A 
ATOM     54  H   UNL A   1      41.720  28.425  31.472  1.00  0.00     0.167 HD
ATOM     55  C   UNL A   1      42.684  29.165  34.028  1.00  0.00     0.074 A 
ATOM     56  C   UNL A   1      42.745  29.759  35.348  1.00  0.00     0.031 C 
ATOM     57  C   UNL A   1      43.641  28.357  33.507  1.00  0.00     0.037 A 
BRANCH  44  58
ATOM     58  C   UNL A   1      42.296  26.207  27.869  1.00  0.00     0.064 A 
ATOM     59  C   UNL A   1      43.187  26.638  26.874  1.00  0.00     0.173 A 
ATOM     60  C   UNL A   1      41.776  24.908  27.762  1.00  0.00     0.173 A 
ATOM     61  F   UNL A   1      43.706  27.875  26.921  1.00  0.00    -0.203 F 
ATOM     62  C   UNL A   1      43.507  25.821  25.793  1.00  0.00     0.198 A 
ATOM     63  C   UNL A   1      42.126  24.080  26.698  1.00  0.00     0.198 A 
ATOM     64  F   UNL A   1      40.927  24.440  28.689  1.00  0.00    -0.203 F 
ATOM     65  F   UNL A   1      44.306  26.282  24.820  1.00  0.00    -0.200 F 
ATOM     66  C   UNL A   1      42.980  24.542  25.708  1.00  0.00     0.200 A 
ATOM     67  F   UNL A   1      41.627  22.838  26.625  1.00  0.00    -0.200 F 
ATOM     68  F   UNL A   1      43.286  23.757  24.666  1.00  0.00    -0.200 F 
ENDBRANCH  44  58
BRANCH  45  69
ATOM     69  C   UNL A   1      39.141  31.944  35.391  1.00  0.00     0.064 A 
ATOM     70  C   UNL A   1      39.464  33.307  35.449  1.00  0.00     0.173 A 
ATOM     71  C   UNL A   1      38.370  31.411  36.434  1.00  0.00     0.173 A 
ATOM     72  F   UNL A   1      40.220  33.856  34.487  1.00  0.00    -0.203 F 
ATOM     73  C   UNL A   1      39.046  34.101  36.514  1.00  0.00     0.198 A 
ATOM     74  C   UNL A   1      37.930  32.213  37.486  1.00  0.00     0.198 A 
ATOM     75  F   UNL A   1      38.035  30.113  36.427  1.00  0.00    -0.203 F 
ATOM     76  F   UNL A   1      39.406  35.391  36.566  1.00  0.00    -0.200 F 
ATOM     77  C   UNL A   1      38.274  33.555  37.529  1.00  0.00     0.200 A 
ATOM     78  F   UNL A   1      37.175  31.684  38.458  1.00  0.00    -0.200 F 
ATOM     79  F   UNL A   1      37.869  34.322  38.551  1.00  0.00    -0.200 F 
ENDBRANCH  45  69
BRANCH  57  80
ATOM     80  C   UNL A   1      44.857  28.090  34.349  1.00  0.00     0.064 A 
ATOM     81  C   UNL A   1      44.934  26.980  35.205  1.00  0.00     0.173 A 
ATOM     82  C   UNL A   1      45.978  28.931  34.265  1.00  0.00     0.173 A 
ATOM     83  F   UNL A   1      43.886  26.154  35.335  1.00  0.00    -0.203 F 
ATOM     84  C   UNL A   1      46.078  26.738  35.961  1.00  0.00     0.198 A 
ATOM     85  C   UNL A   1      47.132  28.666  34.998  1.00  0.00     0.198 A 
ATOM     86  F   UNL A   1      45.961  30.002  33.457  1.00  0.00    -0.203 F 
ATOM     87  F   UNL A   1      46.111  25.699  36.807  1.00  0.00    -0.200 F 
ATOM     88  C   UNL A   1      47.179  27.575  35.850  1.00  0.00     0.200 A 
ATOM     89  F   UNL A   1      48.199  29.467  34.876  1.00  0.00    -0.200 F 
ATOM     90  F   UNL A   1      48.282  27.332  36.571  1.00  0.00    -0.200 F 
ENDBRANCH  57  80
ENDBRANCH  31  32
ENDBRANCH  23  26
ENDBRANCH  21  22
ENDBRANCH  20  21
ENDBRANCH   1  20
TORSDOF 14
ENDMDL
MODEL 3
REMARK VINA RESULT:     -10.1      0.438      2.129
REMARK SMILES COc1ccc([C@@H]([NH3+])CC(=O)NCCCNC(=O)c2ccc(-c3c4nc(c(-c5c(F)c(F)c(F)c(F)c5F)c5ccc([nH]5)c(-c5c(F)c(F)c(F)c(F)c5F)c5nc(c(-c6c(F)c(F)c(F)c(F)c6F)c6ccc3[nH]6)C=C5)C=C4)cc2)cc1
REMARK SMILES IDX 13 1 12 2 10 3 11 4 9 6 7 7 6 8 3 9 4 10 83 11 5 12 82 13
REMARK SMILES IDX 2 14 1 15 8 16 14 20 15 21 16 22 17 23 18 25 19 26 20 27
REMARK SMILES IDX 81 28 21 29 80 30 22 31 23 32 24 33 74 34 25 35 79 36 73 37
REMARK SMILES IDX 75 38 26 39 78 40 72 41 71 42 27 44 59 45 39 46 58 47 40 48
REMARK SMILES IDX 43 49 57 50 76 51 41 52 42 53 56 55 77 56 44 57 28 58 29 59
REMARK SMILES IDX 37 60 30 61 31 62 35 63 38 64 32 65 33 66 36 67 34 68 60 69
REMARK SMILES IDX 61 70 69 71 62 72 63 73 67 74 70 75 64 76 65 77 68 78 66 79
REMARK SMILES IDX 45 80 46 81 54 82 47 83 48 84 52 85 55 86 49 87 50 88 53 89
REMARK SMILES IDX 51 90
REMARK H PARENT 12 5 8 17 8 18 8 19 16 24 75 43 43 54
REMARK Flexibility Score: inf
ROOT
ATOM      1  C   UNL A   1      34.146  35.292  28.763  1.00  0.00     0.117 C 
ENDROOT
BRANCH   1   2
ATOM      2  N   UNL A   1      33.309  35.589  29.912  1.00  0.00    -0.356 N 
ATOM      3  C   UNL A   1      33.448  35.198  31.211  1.00  0.00     0.226 C 
ATOM      4  O   UNL A   1      32.488  35.364  31.967  1.00  0.00    -0.275 OA
ATOM      5  H   UNL A   1      32.526  36.156  29.726  1.00  0.00     0.163 HD
BRANCH   3   6
ATOM      6  C   UNL A   1      34.749  34.613  31.728  1.00  0.00     0.170 C 
BRANCH   6   7
ATOM      7  C   UNL A   1      34.564  33.796  33.021  1.00  0.00     0.221 C 
BRANCH   7   8
ATOM      8  C   UNL A   1      35.721  32.855  33.323  1.00  0.00     0.010 A 
ATOM      9  C   UNL A   1      37.773  31.055  33.978  1.00  0.00     0.118 A 
ATOM     10  C   UNL A   1      37.007  30.841  32.836  1.00  0.00     0.047 A 
ATOM     11  C   UNL A   1      37.591  32.205  34.743  1.00  0.00     0.047 A 
ATOM     12  C   UNL A   1      35.987  31.738  32.510  1.00  0.00     0.014 A 
ATOM     13  C   UNL A   1      36.572  33.103  34.415  1.00  0.00     0.014 A 
BRANCH   9  14
ATOM     14  O   UNL A   1      38.727  30.129  34.301  1.00  0.00    -0.497 OA
ATOM     15  C   UNL A   1      39.469  30.554  35.445  1.00  0.00     0.278 C 
ENDBRANCH   9  14
ENDBRANCH   7   8
BRANCH   7  16
ATOM     16  N   UNL A   1      34.401  34.707  34.165  1.00  0.00    -0.351 N 
ATOM     17  H   UNL A   1      33.862  35.523  33.875  1.00  0.00     0.345 HD
ATOM     18  H   UNL A   1      35.319  35.006  34.495  1.00  0.00     0.345 HD
ATOM     19  H   UNL A   1      33.909  34.224  34.917  1.00  0.00     0.345 HD
ENDBRANCH   7  16
ENDBRANCH   6   7
ENDBRANCH   3   6
ENDBRANCH   1   2
BRANCH   1  20
ATOM     20  C   UNL A   1      33.733  33.966  28.132  1.00  0.00     0.042 C 
BRANCH  20  21
ATOM     21  C   UNL A   1      34.526  32.753  28.593  1.00  0.00     0.118 C 
BRANCH  21  22
ATOM     22  N   UNL A   1      33.914  31.502  28.170  1.00  0.00    -0.352 N 
ATOM     23  C   UNL A   1      34.441  30.258  27.925  1.00  0.00     0.251 C 
ATOM     24  H   UNL A   1      32.941  31.557  28.037  1.00  0.00     0.163 HD
ATOM     25  O   UNL A   1      33.717  29.416  27.388  1.00  0.00    -0.269 OA
BRANCH  23  26
ATOM     26  C   UNL A   1      35.845  29.890  28.248  1.00  0.00     0.039 A 
ATOM     27  C   UNL A   1      36.116  29.364  29.520  1.00  0.00     0.014 A 
ATOM     28  C   UNL A   1      36.909  30.110  27.372  1.00  0.00     0.014 A 
ATOM     29  C   UNL A   1      37.422  29.009  29.884  1.00  0.00     0.010 A 
ATOM     30  C   UNL A   1      38.197  29.681  27.701  1.00  0.00     0.010 A 
ATOM     31  C   UNL A   1      38.472  29.142  28.968  1.00  0.00    -0.014 A 
BRANCH  31  32
ATOM     32  C   UNL A   1      39.871  28.788  29.330  1.00  0.00     0.031 A 
ATOM     33  C   UNL A   1      40.688  29.725  30.178  1.00  0.00     0.074 A 
ATOM     34  C   UNL A   1      40.431  27.658  28.859  1.00  0.00     0.049 A 
ATOM     35  N   UNL A   1      41.941  29.636  30.549  1.00  0.00    -0.248 NA
ATOM     36  C   UNL A   1      40.009  30.940  30.655  1.00  0.00     0.031 C 
ATOM     37  C   UNL A   1      39.762  26.673  28.011  1.00  0.00     0.029 A 
ATOM     38  N   UNL A   1      41.699  27.154  29.017  1.00  0.00    -0.354 N 
ATOM     39  C   UNL A   1      42.201  30.783  31.286  1.00  0.00     0.074 A 
ATOM     40  C   UNL A   1      40.995  31.582  31.262  1.00  0.00     0.031 C 
ATOM     41  C   UNL A   1      40.619  25.677  27.735  1.00  0.00     0.029 A 
ATOM     42  C   UNL A   1      41.908  25.969  28.356  1.00  0.00     0.049 A 
ATOM     43  H   UNL A   1      42.393  27.601  29.555  1.00  0.00     0.167 HD
ATOM     44  C   UNL A   1      43.333  31.132  31.945  1.00  0.00     0.037 A 
ATOM     45  C   UNL A   1      43.016  25.209  28.254  1.00  0.00     0.037 A 
ATOM     46  C   UNL A   1      44.530  30.332  31.983  1.00  0.00     0.049 A 
ATOM     47  C   UNL A   1      44.277  25.638  28.959  1.00  0.00     0.074 A 
ATOM     48  C   UNL A   1      45.706  30.570  32.671  1.00  0.00     0.029 A 
ATOM     49  N   UNL A   1      44.706  29.142  31.291  1.00  0.00    -0.354 N 
ATOM     50  N   UNL A   1      44.489  26.689  29.712  1.00  0.00    -0.248 NA
ATOM     51  C   UNL A   1      45.452  24.768  28.798  1.00  0.00     0.031 C 
ATOM     52  C   UNL A   1      46.615  29.557  32.347  1.00  0.00     0.029 A 
ATOM     53  C   UNL A   1      45.985  28.654  31.506  1.00  0.00     0.049 A 
ATOM     54  H   UNL A   1      44.023  28.709  30.729  1.00  0.00     0.167 HD
ATOM     55  C   UNL A   1      45.808  26.591  30.141  1.00  0.00     0.074 A 
ATOM     56  C   UNL A   1      46.343  25.372  29.572  1.00  0.00     0.031 C 
ATOM     57  C   UNL A   1      46.509  27.438  30.937  1.00  0.00     0.037 A 
BRANCH  44  58
ATOM     58  C   UNL A   1      43.330  32.449  32.669  1.00  0.00     0.064 A 
ATOM     59  C   UNL A   1      42.986  32.546  34.026  1.00  0.00     0.173 A 
ATOM     60  C   UNL A   1      43.683  33.630  31.998  1.00  0.00     0.173 A 
ATOM     61  F   UNL A   1      42.631  31.450  34.714  1.00  0.00    -0.203 F 
ATOM     62  C   UNL A   1      42.949  33.780  34.671  1.00  0.00     0.198 A 
ATOM     63  C   UNL A   1      43.679  34.858  32.656  1.00  0.00     0.198 A 
ATOM     64  F   UNL A   1      44.029  33.595  30.702  1.00  0.00    -0.203 F 
ATOM     65  F   UNL A   1      42.550  33.854  35.949  1.00  0.00    -0.200 F 
ATOM     66  C   UNL A   1      43.300  34.933  33.987  1.00  0.00     0.200 A 
ATOM     67  F   UNL A   1      44.032  35.970  31.996  1.00  0.00    -0.200 F 
ATOM     68  F   UNL A   1      43.261  36.121  34.607  1.00  0.00    -0.200 F 
ENDBRANCH  44  58
BRANCH  45  69
ATOM     69  C   UNL A   1      42.977  23.944  27.474  1.00  0.00     0.064 A 
ATOM     70  C   UNL A   1      43.342  23.924  26.121  1.00  0.00     0.173 A 
ATOM     71  C   UNL A   1      42.576  22.734  28.060  1.00  0.00     0.173 A 
ATOM     72  F   UNL A   1      43.709  25.060  25.510  1.00  0.00    -0.203 F 
ATOM     73  C   UNL A   1      43.291  22.746  25.379  1.00  0.00     0.198 A 
ATOM     74  C   UNL A   1      42.551  21.552  27.323  1.00  0.00     0.198 A 
ATOM     75  F   UNL A   1      42.217  22.700  29.351  1.00  0.00    -0.203 F 
ATOM     76  F   UNL A   1      43.603  22.764  24.075  1.00  0.00    -0.200 F 
ATOM     77  C   UNL A   1      42.902  21.559  25.982  1.00  0.00     0.200 A 
ATOM     78  F   UNL A   1      42.186  20.405  27.913  1.00  0.00    -0.200 F 
ATOM     79  F   UNL A   1      42.858  20.425  25.268  1.00  0.00    -0.200 F 
ENDBRANCH  45  69
BRANCH  57  80
ATOM     80  C   UNL A   1      47.925  27.061  31.269  1.00  0.00     0.064 A 
ATOM     81  C   UNL A   1      49.013  27.548  30.527  1.00  0.00     0.173 A 
ATOM     82  C   UNL A   1      48.202  26.239  32.374  1.00  0.00     0.173 A 
ATOM     83  F   UNL A   1      48.804  28.324  29.454  1.00  0.00    -0.203 F 
ATOM     84  C   UNL A   1      50.320  27.205  30.865  1.00  0.00     0.198 A 
ATOM     85  C   UNL A   1      49.512  25.927  32.727  1.00  0.00     0.198 A 
ATOM     86  F   UNL A   1      47.200  25.753  33.122  1.00  0.00    -0.203 F 
ATOM     87  F   UNL A   1      51.340  27.643  30.113  1.00  0.00    -0.200 F 
ATOM     88  C   UNL A   1      50.569  26.403  31.969  1.00  0.00     0.200 A 
ATOM     89  F   UNL A   1      49.750  25.165  33.804  1.00  0.00    -0.200 F 
ATOM     90  F   UNL A   1      51.829  26.085  32.297  1.00  0.00    -0.200 F 
ENDBRANCH  57  80
ENDBRANCH  31  32
ENDBRANCH  23  26
ENDBRANCH  21  22
ENDBRANCH  20  21
ENDBRANCH   1  20
TORSDOF 14
ENDMDL
