MODEL 1
REMARK VINA RESULT:     -11.3      0.000      0.000
REMARK SMILES O=C(COc1ccc2c(=O)c(-c3ccc4c(c3)OCCO4)coc2c1)NCCCNC(=O)c1ccc(-c2c3nc(c(-c4c(F)c(F)c(F)c(F)c4F)c4ccc([nH]4)c(-c4c(F)c(F)c(F)c(F)c4F)c4nc(c(-c5c(F)c(F)c(F)c(F)c5F)c5ccc2[nH]5)C=C4)C=C3)cc1
REMARK SMILES IDX 27 1 26 2 1 3 2 4 3 6 4 7 5 8 6 9 25 10 7 11 24 12 8 13
REMARK SMILES IDX 23 14 9 15 22 16 10 17 11 18 12 19 13 20 17 21 14 22 16 23
REMARK SMILES IDX 15 24 18 25 21 26 19 27 20 28 28 29 29 30 30 31 31 32 32 34
REMARK SMILES IDX 33 35 34 36 95 37 35 38 94 39 36 40 37 41 38 42 88 43 39 44
REMARK SMILES IDX 93 45 87 46 89 47 40 48 92 49 86 50 85 51 41 53 73 54 53 55
REMARK SMILES IDX 72 56 54 57 57 58 71 59 90 60 55 61 56 62 70 64 91 65 58 66
REMARK SMILES IDX 42 67 43 68 51 69 44 70 45 71 49 72 52 73 46 74 47 75 50 76
REMARK SMILES IDX 48 77 74 78 75 79 83 80 76 81 77 82 81 83 84 84 78 85 79 86
REMARK SMILES IDX 82 87 80 88 59 89 60 90 68 91 61 92 62 93 66 94 69 95 63 96
REMARK SMILES IDX 64 97 67 98 65 99
REMARK H PARENT 26 5 30 33 89 52 57 63
REMARK Flexibility Score: inf
ROOT
ATOM      1  C   UNL A   1      42.181  19.267  26.794  1.00  0.00     0.117 C 
ENDROOT
BRANCH   1   2
ATOM      2  N   UNL A   1      43.351  19.926  26.250  1.00  0.00    -0.353 N 
ATOM      3  O   UNL A   1      44.095  18.136  25.015  1.00  0.00    -0.271 OA
ATOM      4  C   UNL A   1      44.151  19.331  25.295  1.00  0.00     0.257 C 
ATOM      5  H   UNL A   1      43.582  20.828  26.571  1.00  0.00     0.163 HD
BRANCH   4   6
ATOM      6  C   UNL A   1      45.098  20.301  24.581  1.00  0.00     0.329 C 
BRANCH   6   7
ATOM      7  O   UNL A   1      44.506  21.489  24.053  1.00  0.00    -0.484 OA
BRANCH   7   8
ATOM      8  C   UNL A   1      44.827  22.644  24.719  1.00  0.00     0.123 A 
ATOM      9  C   UNL A   1      46.028  22.818  25.413  1.00  0.00     0.047 A 
ATOM     10  C   UNL A   1      43.947  23.723  24.577  1.00  0.00     0.094 A 
ATOM     11  C   UNL A   1      46.356  24.055  25.957  1.00  0.00     0.020 A 
ATOM     12  C   UNL A   1      44.267  24.962  25.141  1.00  0.00     0.141 A 
ATOM     13  C   UNL A   1      45.474  25.125  25.813  1.00  0.00     0.066 A 
ATOM     14  O   UNL A   1      43.367  25.988  24.990  1.00  0.00    -0.463 OA
ATOM     15  C   UNL A   1      45.833  26.441  26.353  1.00  0.00     0.200 A 
ATOM     16  C   UNL A   1      43.711  27.222  25.502  1.00  0.00     0.208 A 
ATOM     17  O   UNL A   1      46.900  26.609  26.934  1.00  0.00    -0.288 OA
ATOM     18  C   UNL A   1      44.845  27.531  26.150  1.00  0.00     0.065 A 
BRANCH  18  19
ATOM     19  C   UNL A   1      45.130  28.893  26.620  1.00  0.00    -0.007 A 
ATOM     20  C   UNL A   1      46.226  29.616  26.126  1.00  0.00     0.013 A 
ATOM     21  C   UNL A   1      44.253  29.511  27.524  1.00  0.00     0.059 A 
ATOM     22  C   UNL A   1      46.437  30.939  26.527  1.00  0.00     0.051 A 
ATOM     23  C   UNL A   1      44.459  30.832  27.912  1.00  0.00     0.161 A 
ATOM     24  C   UNL A   1      45.559  31.543  27.425  1.00  0.00     0.161 A 
ATOM     25  O   UNL A   1      43.535  31.372  28.771  1.00  0.00    -0.486 OA
ATOM     26  O   UNL A   1      45.827  32.843  27.770  1.00  0.00    -0.486 OA
ATOM     27  C   UNL A   1      43.612  32.801  28.779  1.00  0.00     0.271 C 
ATOM     28  C   UNL A   1      45.056  33.255  28.905  1.00  0.00     0.271 C 
ENDBRANCH  18  19
ENDBRANCH   7   8
ENDBRANCH   6   7
ENDBRANCH   4   6
ENDBRANCH   1   2
BRANCH   1  29
ATOM     29  C   UNL A   1      41.135  20.235  27.320  1.00  0.00     0.042 C 
BRANCH  29  30
ATOM     30  C   UNL A   1      41.038  21.534  26.530  1.00  0.00     0.118 C 
BRANCH  30  31
ATOM     31  N   UNL A   1      39.750  21.717  25.873  1.00  0.00    -0.352 N 
ATOM     32  C   UNL A   1      38.872  22.772  25.912  1.00  0.00     0.251 C 
ATOM     33  H   UNL A   1      39.463  20.963  25.309  1.00  0.00     0.163 HD
ATOM     34  O   UNL A   1      37.770  22.667  25.377  1.00  0.00    -0.269 OA
BRANCH  32  35
ATOM     35  C   UNL A   1      39.223  24.024  26.618  1.00  0.00     0.039 A 
ATOM     36  C   UNL A   1      38.799  24.189  27.940  1.00  0.00     0.014 A 
ATOM     37  C   UNL A   1      39.950  25.037  25.990  1.00  0.00     0.014 A 
ATOM     38  C   UNL A   1      39.169  25.332  28.653  1.00  0.00     0.010 A 
ATOM     39  C   UNL A   1      40.389  26.136  26.725  1.00  0.00     0.010 A 
ATOM     40  C   UNL A   1      40.005  26.295  28.065  1.00  0.00    -0.014 A 
BRANCH  40  41
ATOM     41  C   UNL A   1      40.495  27.465  28.840  1.00  0.00     0.031 A 
ATOM     42  C   UNL A   1      41.889  27.475  29.404  1.00  0.00     0.074 A 
ATOM     43  C   UNL A   1      39.662  28.493  29.091  1.00  0.00     0.049 A 
ATOM     44  N   UNL A   1      42.470  28.371  30.162  1.00  0.00    -0.248 NA
ATOM     45  C   UNL A   1      42.735  26.311  29.098  1.00  0.00     0.031 C 
ATOM     46  C   UNL A   1      38.273  28.586  28.638  1.00  0.00     0.029 A 
ATOM     47  N   UNL A   1      39.857  29.655  29.797  1.00  0.00    -0.354 N 
ATOM     48  C   UNL A   1      43.740  27.876  30.430  1.00  0.00     0.074 A 
ATOM     49  C   UNL A   1      43.826  26.576  29.802  1.00  0.00     0.031 C 
ATOM     50  C   UNL A   1      37.749  29.749  29.057  1.00  0.00     0.029 A 
ATOM     51  C   UNL A   1      38.747  30.465  29.845  1.00  0.00     0.049 A 
ATOM     52  H   UNL A   1      40.712  29.886  30.229  1.00  0.00     0.167 HD
ATOM     53  C   UNL A   1      44.749  28.462  31.117  1.00  0.00     0.037 A 
ATOM     54  C   UNL A   1      38.552  31.644  30.466  1.00  0.00     0.037 A 
ATOM     55  C   UNL A   1      44.667  29.764  31.726  1.00  0.00     0.049 A 
ATOM     56  C   UNL A   1      39.683  32.261  31.244  1.00  0.00     0.074 A 
ATOM     57  C   UNL A   1      45.653  30.468  32.394  1.00  0.00     0.029 A 
ATOM     58  N   UNL A   1      43.527  30.556  31.750  1.00  0.00    -0.354 N 
ATOM     59  N   UNL A   1      40.902  31.815  31.430  1.00  0.00    -0.248 NA
ATOM     60  C   UNL A   1      39.411  33.550  31.896  1.00  0.00     0.031 C 
ATOM     61  C   UNL A   1      45.097  31.660  32.870  1.00  0.00     0.029 A 
ATOM     62  C   UNL A   1      43.779  31.728  32.447  1.00  0.00     0.049 A 
ATOM     63  H   UNL A   1      42.667  30.321  31.334  1.00  0.00     0.167 HD
ATOM     64  C   UNL A   1      41.549  32.779  32.192  1.00  0.00     0.074 A 
ATOM     65  C   UNL A   1      40.593  33.843  32.419  1.00  0.00     0.031 C 
ATOM     66  C   UNL A   1      42.821  32.781  32.663  1.00  0.00     0.037 A 
BRANCH  53  67
ATOM     67  C   UNL A   1      46.036  27.697  31.250  1.00  0.00     0.064 A 
ATOM     68  C   UNL A   1      46.237  26.765  32.279  1.00  0.00     0.173 A 
ATOM     69  C   UNL A   1      47.066  27.868  30.312  1.00  0.00     0.173 A 
ATOM     70  F   UNL A   1      45.289  26.568  33.208  1.00  0.00    -0.203 F 
ATOM     71  C   UNL A   1      47.432  26.057  32.382  1.00  0.00     0.198 A 
ATOM     72  C   UNL A   1      48.246  27.135  30.399  1.00  0.00     0.198 A 
ATOM     73  F   UNL A   1      46.925  28.742  29.303  1.00  0.00    -0.203 F 
ATOM     74  F   UNL A   1      47.621  25.211  33.405  1.00  0.00    -0.200 F 
ATOM     75  C   UNL A   1      48.432  26.236  31.439  1.00  0.00     0.200 A 
ATOM     76  F   UNL A   1      49.205  27.298  29.477  1.00  0.00    -0.200 F 
ATOM     77  F   UNL A   1      49.578  25.549  31.536  1.00  0.00    -0.200 F 
ENDBRANCH  53  67
BRANCH  54  78
ATOM     78  C   UNL A   1      37.235  32.329  30.366  1.00  0.00     0.064 A 
ATOM     79  C   UNL A   1      36.959  33.207  29.311  1.00  0.00     0.173 A 
ATOM     80  C   UNL A   1      36.234  32.130  31.329  1.00  0.00     0.173 A 
ATOM     81  F   UNL A   1      37.892  33.447  28.377  1.00  0.00    -0.203 F 
ATOM     82  C   UNL A   1      35.741  33.881  29.233  1.00  0.00     0.198 A 
ATOM     83  C   UNL A   1      35.004  32.779  31.233  1.00  0.00     0.198 A 
ATOM     84  F   UNL A   1      36.446  31.296  32.358  1.00  0.00    -0.203 F 
ATOM     85  F   UNL A   1      35.524  34.756  28.242  1.00  0.00    -0.200 F 
ATOM     86  C   UNL A   1      34.763  33.661  30.192  1.00  0.00     0.200 A 
ATOM     87  F   UNL A   1      34.057  32.552  32.153  1.00  0.00    -0.200 F 
ATOM     88  F   UNL A   1      33.591  34.307  30.116  1.00  0.00    -0.200 F 
ENDBRANCH  54  78
BRANCH  66  89
ATOM     89  C   UNL A   1      43.265  33.986  33.443  1.00  0.00     0.064 A 
ATOM     90  C   UNL A   1      43.179  34.034  34.842  1.00  0.00     0.173 A 
ATOM     91  C   UNL A   1      43.820  35.093  32.783  1.00  0.00     0.173 A 
ATOM     92  F   UNL A   1      42.642  33.008  35.521  1.00  0.00    -0.203 F 
ATOM     93  C   UNL A   1      43.603  35.156  35.549  1.00  0.00     0.198 A 
ATOM     94  C   UNL A   1      44.275  36.200  33.494  1.00  0.00     0.198 A 
ATOM     95  F   UNL A   1      43.933  35.098  31.446  1.00  0.00    -0.203 F 
ATOM     96  F   UNL A   1      43.461  35.201  36.880  1.00  0.00    -0.200 F 
ATOM     97  C   UNL A   1      44.159  36.234  34.876  1.00  0.00     0.200 A 
ATOM     98  F   UNL A   1      44.827  37.233  32.844  1.00  0.00    -0.200 F 
ATOM     99  F   UNL A   1      44.575  37.310  35.557  1.00  0.00    -0.200 F 
ENDBRANCH  66  89
ENDBRANCH  40  41
ENDBRANCH  32  35
ENDBRANCH  30  31
ENDBRANCH  29  30
ENDBRANCH   1  29
TORSDOF 13
ENDMDL
MODEL 2
REMARK VINA RESULT:     -11.1      0.611      2.042
REMARK SMILES O=C(COc1ccc2c(=O)c(-c3ccc4c(c3)OCCO4)coc2c1)NCCCNC(=O)c1ccc(-c2c3nc(c(-c4c(F)c(F)c(F)c(F)c4F)c4ccc([nH]4)c(-c4c(F)c(F)c(F)c(F)c4F)c4nc(c(-c5c(F)c(F)c(F)c(F)c5F)c5ccc2[nH]5)C=C4)C=C3)cc1
REMARK SMILES IDX 27 1 26 2 1 3 2 4 3 6 4 7 5 8 6 9 25 10 7 11 24 12 8 13
REMARK SMILES IDX 23 14 9 15 22 16 10 17 11 18 12 19 13 20 17 21 14 22 16 23
REMARK SMILES IDX 15 24 18 25 21 26 19 27 20 28 28 29 29 30 30 31 31 32 32 34
REMARK SMILES IDX 33 35 34 36 95 37 35 38 94 39 36 40 37 41 38 42 88 43 39 44
REMARK SMILES IDX 93 45 87 46 89 47 40 48 92 49 86 50 85 51 41 53 73 54 53 55
REMARK SMILES IDX 72 56 54 57 57 58 71 59 90 60 55 61 56 62 70 64 91 65 58 66
REMARK SMILES IDX 42 67 43 68 51 69 44 70 45 71 49 72 52 73 46 74 47 75 50 76
REMARK SMILES IDX 48 77 74 78 75 79 83 80 76 81 77 82 81 83 84 84 78 85 79 86
REMARK SMILES IDX 82 87 80 88 59 89 60 90 68 91 61 92 62 93 66 94 69 95 63 96
REMARK SMILES IDX 64 97 67 98 65 99
REMARK H PARENT 26 5 30 33 89 52 57 63
REMARK Flexibility Score: inf
ROOT
ATOM      1  C   UNL A   1      41.758  19.759  27.366  1.00  0.00     0.117 C 
ENDROOT
BRANCH   1   2
ATOM      2  N   UNL A   1      43.015  20.098  26.733  1.00  0.00    -0.353 N 
ATOM      3  O   UNL A   1      43.119  18.247  25.373  1.00  0.00    -0.271 OA
ATOM      4  C   UNL A   1      43.532  19.361  25.685  1.00  0.00     0.257 C 
ATOM      5  H   UNL A   1      43.517  20.880  27.058  1.00  0.00     0.163 HD
BRANCH   4   6
ATOM      6  C   UNL A   1      44.650  20.071  24.914  1.00  0.00     0.329 C 
BRANCH   6   7
ATOM      7  O   UNL A   1      44.282  21.267  24.225  1.00  0.00    -0.484 OA
BRANCH   7   8
ATOM      8  C   UNL A   1      44.635  22.433  24.854  1.00  0.00     0.123 A 
ATOM      9  C   UNL A   1      45.816  22.577  25.588  1.00  0.00     0.047 A 
ATOM     10  C   UNL A   1      43.819  23.547  24.630  1.00  0.00     0.094 A 
ATOM     11  C   UNL A   1      46.185  23.820  26.093  1.00  0.00     0.020 A 
ATOM     12  C   UNL A   1      44.180  24.793  25.152  1.00  0.00     0.141 A 
ATOM     13  C   UNL A   1      45.366  24.925  25.867  1.00  0.00     0.066 A 
ATOM     14  O   UNL A   1      43.341  25.854  24.921  1.00  0.00    -0.463 OA
ATOM     15  C   UNL A   1      45.771  26.244  26.365  1.00  0.00     0.200 A 
ATOM     16  C   UNL A   1      43.727  27.091  25.394  1.00  0.00     0.208 A 
ATOM     17  O   UNL A   1      46.821  26.384  26.982  1.00  0.00    -0.288 OA
ATOM     18  C   UNL A   1      44.850  27.372  26.074  1.00  0.00     0.065 A 
BRANCH  18  19
ATOM     19  C   UNL A   1      45.185  28.738  26.497  1.00  0.00    -0.007 A 
ATOM     20  C   UNL A   1      46.340  29.379  26.026  1.00  0.00     0.013 A 
ATOM     21  C   UNL A   1      44.303  29.442  27.330  1.00  0.00     0.059 A 
ATOM     22  C   UNL A   1      46.603  30.706  26.379  1.00  0.00     0.051 A 
ATOM     23  C   UNL A   1      44.561  30.767  27.670  1.00  0.00     0.161 A 
ATOM     24  C   UNL A   1      45.719  31.396  27.206  1.00  0.00     0.161 A 
ATOM     25  O   UNL A   1      43.629  31.393  28.457  1.00  0.00    -0.486 OA
ATOM     26  O   UNL A   1      46.041  32.695  27.506  1.00  0.00    -0.486 OA
ATOM     27  C   UNL A   1      43.782  32.815  28.406  1.00  0.00     0.271 C 
ATOM     28  C   UNL A   1      45.242  33.199  28.583  1.00  0.00     0.271 C 
ENDBRANCH  18  19
ENDBRANCH   7   8
ENDBRANCH   6   7
ENDBRANCH   4   6
ENDBRANCH   1   2
BRANCH   1  29
ATOM     29  C   UNL A   1      40.789  20.926  27.445  1.00  0.00     0.042 C 
BRANCH  29  30
ATOM     30  C   UNL A   1      40.708  21.753  26.168  1.00  0.00     0.118 C 
BRANCH  30  31
ATOM     31  N   UNL A   1      39.344  22.088  25.780  1.00  0.00    -0.352 N 
ATOM     32  C   UNL A   1      38.569  23.176  26.099  1.00  0.00     0.251 C 
ATOM     33  H   UNL A   1      38.908  21.428  25.194  1.00  0.00     0.163 HD
ATOM     34  O   UNL A   1      37.386  23.200  25.763  1.00  0.00    -0.269 OA
BRANCH  32  35
ATOM     35  C   UNL A   1      39.131  24.307  26.869  1.00  0.00     0.039 A 
ATOM     36  C   UNL A   1      39.929  25.241  26.201  1.00  0.00     0.014 A 
ATOM     37  C   UNL A   1      38.893  24.449  28.238  1.00  0.00     0.014 A 
ATOM     38  C   UNL A   1      40.422  26.354  26.887  1.00  0.00     0.010 A 
ATOM     39  C   UNL A   1      39.312  25.601  28.900  1.00  0.00     0.010 A 
ATOM     40  C   UNL A   1      40.080  26.567  28.232  1.00  0.00    -0.014 A 
BRANCH  40  41
ATOM     41  C   UNL A   1      40.507  27.797  28.950  1.00  0.00     0.031 A 
ATOM     42  C   UNL A   1      41.889  27.896  29.533  1.00  0.00     0.074 A 
ATOM     43  C   UNL A   1      39.627  28.800  29.133  1.00  0.00     0.049 A 
ATOM     44  N   UNL A   1      42.419  28.856  30.250  1.00  0.00    -0.248 NA
ATOM     45  C   UNL A   1      42.789  26.755  29.301  1.00  0.00     0.031 C 
ATOM     46  C   UNL A   1      38.243  28.808  28.657  1.00  0.00     0.029 A 
ATOM     47  N   UNL A   1      39.761  30.005  29.779  1.00  0.00    -0.354 N 
ATOM     48  C   UNL A   1      43.704  28.430  30.562  1.00  0.00     0.074 A 
ATOM     49  C   UNL A   1      43.856  27.103  30.006  1.00  0.00     0.031 C 
ATOM     50  C   UNL A   1      37.663  29.968  29.005  1.00  0.00     0.029 A 
ATOM     51  C   UNL A   1      38.617  30.767  29.768  1.00  0.00     0.049 A 
ATOM     52  H   UNL A   1      40.598  30.295  30.210  1.00  0.00     0.167 HD
ATOM     53  C   UNL A   1      44.677  29.095  31.232  1.00  0.00     0.037 A 
ATOM     54  C   UNL A   1      38.363  31.968  30.322  1.00  0.00     0.037 A 
ATOM     55  C   UNL A   1      44.529  30.422  31.769  1.00  0.00     0.049 A 
ATOM     56  C   UNL A   1      39.453  32.673  31.082  1.00  0.00     0.074 A 
ATOM     57  C   UNL A   1      45.474  31.203  32.412  1.00  0.00     0.029 A 
ATOM     58  N   UNL A   1      43.357  31.165  31.734  1.00  0.00    -0.354 N 
ATOM     59  N   UNL A   1      40.687  32.291  31.309  1.00  0.00    -0.248 NA
ATOM     60  C   UNL A   1      39.116  33.982  31.660  1.00  0.00     0.031 C 
ATOM     61  C   UNL A   1      44.860  32.392  32.815  1.00  0.00     0.029 A 
ATOM     62  C   UNL A   1      43.548  32.381  32.371  1.00  0.00     0.049 A 
ATOM     63  H   UNL A   1      42.514  30.871  31.318  1.00  0.00     0.167 HD
ATOM     64  C   UNL A   1      41.279  33.321  32.027  1.00  0.00     0.074 A 
ATOM     65  C   UNL A   1      40.276  34.353  32.184  1.00  0.00     0.031 C 
ATOM     66  C   UNL A   1      42.542  33.402  32.516  1.00  0.00     0.037 A 
BRANCH  53  67
ATOM     67  C   UNL A   1      45.992  28.394  31.423  1.00  0.00     0.064 A 
ATOM     68  C   UNL A   1      47.048  28.545  30.512  1.00  0.00     0.173 A 
ATOM     69  C   UNL A   1      46.214  27.593  32.555  1.00  0.00     0.173 A 
ATOM     70  F   UNL A   1      46.888  29.293  29.409  1.00  0.00    -0.203 F 
ATOM     71  C   UNL A   1      48.264  27.896  30.709  1.00  0.00     0.198 A 
ATOM     72  C   UNL A   1      47.442  26.972  32.765  1.00  0.00     0.198 A 
ATOM     73  F   UNL A   1      45.241  27.418  33.462  1.00  0.00    -0.203 F 
ATOM     74  F   UNL A   1      49.240  28.013  29.798  1.00  0.00    -0.200 F 
ATOM     75  C   UNL A   1      48.463  27.117  31.839  1.00  0.00     0.200 A 
ATOM     76  F   UNL A   1      47.637  26.232  33.865  1.00  0.00    -0.200 F 
ATOM     77  F   UNL A   1      49.637  26.498  32.030  1.00  0.00    -0.200 F 
ENDBRANCH  53  67
BRANCH  54  78
ATOM     78  C   UNL A   1      37.020  32.589  30.167  1.00  0.00     0.064 A 
ATOM     79  C   UNL A   1      36.059  32.491  31.182  1.00  0.00     0.173 A 
ATOM     80  C   UNL A   1      36.665  33.280  28.998  1.00  0.00     0.173 A 
ATOM     81  F   UNL A   1      36.343  31.821  32.310  1.00  0.00    -0.203 F 
ATOM     82  C   UNL A   1      34.787  33.037  31.026  1.00  0.00     0.198 A 
ATOM     83  C   UNL A   1      35.403  33.854  28.857  1.00  0.00     0.198 A 
ATOM     84  F   UNL A   1      37.548  33.407  27.997  1.00  0.00    -0.203 F 
ATOM     85  F   UNL A   1      33.871  32.881  31.991  1.00  0.00    -0.200 F 
ATOM     86  C   UNL A   1      34.462  33.724  29.866  1.00  0.00     0.200 A 
ATOM     87  F   UNL A   1      35.099  34.530  27.740  1.00  0.00    -0.200 F 
ATOM     88  F   UNL A   1      33.239  34.251  29.717  1.00  0.00    -0.200 F 
ENDBRANCH  54  78
BRANCH  66  89
ATOM     89  C   UNL A   1      42.922  34.665  33.237  1.00  0.00     0.064 A 
ATOM     90  C   UNL A   1      43.412  35.787  32.553  1.00  0.00     0.173 A 
ATOM     91  C   UNL A   1      42.760  34.765  34.627  1.00  0.00     0.173 A 
ATOM     92  F   UNL A   1      43.601  35.739  31.225  1.00  0.00    -0.203 F 
ATOM     93  C   UNL A   1      43.752  36.952  33.237  1.00  0.00     0.198 A 
ATOM     94  C   UNL A   1      43.068  35.941  35.304  1.00  0.00     0.198 A 
ATOM     95  F   UNL A   1      42.288  33.723  35.330  1.00  0.00    -0.203 F 
ATOM     96  F   UNL A   1      44.269  37.992  32.569  1.00  0.00    -0.200 F 
ATOM     97  C   UNL A   1      43.572  37.031  34.609  1.00  0.00     0.200 A 
ATOM     98  F   UNL A   1      42.877  36.022  36.627  1.00  0.00    -0.200 F 
ATOM     99  F   UNL A   1      43.892  38.155  35.265  1.00  0.00    -0.200 F 
ENDBRANCH  66  89
ENDBRANCH  40  41
ENDBRANCH  32  35
ENDBRANCH  30  31
ENDBRANCH  29  30
ENDBRANCH   1  29
TORSDOF 13
ENDMDL
MODEL 3
REMARK VINA RESULT:     -11.0      4.607     10.027
REMARK SMILES O=C(COc1ccc2c(=O)c(-c3ccc4c(c3)OCCO4)coc2c1)NCCCNC(=O)c1ccc(-c2c3nc(c(-c4c(F)c(F)c(F)c(F)c4F)c4ccc([nH]4)c(-c4c(F)c(F)c(F)c(F)c4F)c4nc(c(-c5c(F)c(F)c(F)c(F)c5F)c5ccc2[nH]5)C=C4)C=C3)cc1
REMARK SMILES IDX 27 1 26 2 1 3 2 4 3 6 4 7 5 8 6 9 25 10 7 11 24 12 8 13
REMARK SMILES IDX 23 14 9 15 22 16 10 17 11 18 12 19 13 20 17 21 14 22 16 23
REMARK SMILES IDX 15 24 18 25 21 26 19 27 20 28 28 29 29 30 30 31 31 32 32 34
REMARK SMILES IDX 33 35 34 36 95 37 35 38 94 39 36 40 37 41 38 42 88 43 39 44
REMARK SMILES IDX 93 45 87 46 89 47 40 48 92 49 86 50 85 51 41 53 73 54 53 55
REMARK SMILES IDX 72 56 54 57 57 58 71 59 90 60 55 61 56 62 70 64 91 65 58 66
REMARK SMILES IDX 42 67 43 68 51 69 44 70 45 71 49 72 52 73 46 74 47 75 50 76
REMARK SMILES IDX 48 77 74 78 75 79 83 80 76 81 77 82 81 83 84 84 78 85 79 86
REMARK SMILES IDX 82 87 80 88 59 89 60 90 68 91 61 92 62 93 66 94 69 95 63 96
REMARK SMILES IDX 64 97 67 98 65 99
REMARK H PARENT 26 5 30 33 89 52 57 63
REMARK Flexibility Score: inf
ROOT
ATOM      1  C   UNL A   1      30.996  31.704  25.648  1.00  0.00     0.117 C 
ENDROOT
BRANCH   1   2
ATOM      2  N   UNL A   1      31.346  30.373  25.198  1.00  0.00    -0.353 N 
ATOM      3  O   UNL A   1      29.631  30.163  23.682  1.00  0.00    -0.271 OA
ATOM      4  C   UNL A   1      30.693  29.759  24.148  1.00  0.00     0.257 C 
ATOM      5  H   UNL A   1      32.073  29.891  25.654  1.00  0.00     0.163 HD
BRANCH   4   6
ATOM      6  C   UNL A   1      31.429  28.539  23.582  1.00  0.00     0.329 C 
BRANCH   6   7
ATOM      7  O   UNL A   1      31.070  27.272  24.135  1.00  0.00    -0.484 OA
BRANCH   7   8
ATOM      8  C   UNL A   1      32.031  26.299  24.031  1.00  0.00     0.123 A 
ATOM      9  C   UNL A   1      32.722  26.031  22.846  1.00  0.00     0.047 A 
ATOM     10  C   UNL A   1      32.401  25.645  25.211  1.00  0.00     0.094 A 
ATOM     11  C   UNL A   1      33.777  25.124  22.834  1.00  0.00     0.020 A 
ATOM     12  C   UNL A   1      33.449  24.719  25.196  1.00  0.00     0.141 A 
ATOM     13  C   UNL A   1      34.139  24.475  24.013  1.00  0.00     0.066 A 
ATOM     14  O   UNL A   1      33.767  24.090  26.374  1.00  0.00    -0.463 OA
ATOM     15  C   UNL A   1      35.275  23.546  24.013  1.00  0.00     0.200 A 
ATOM     16  C   UNL A   1      34.835  23.217  26.365  1.00  0.00     0.208 A 
ATOM     17  O   UNL A   1      35.906  23.332  22.984  1.00  0.00    -0.288 OA
ATOM     18  C   UNL A   1      35.603  22.904  25.310  1.00  0.00     0.065 A 
BRANCH  18  19
ATOM     19  C   UNL A   1      36.747  21.988  25.421  1.00  0.00    -0.007 A 
ATOM     20  C   UNL A   1      36.666  20.668  24.953  1.00  0.00     0.013 A 
ATOM     21  C   UNL A   1      37.963  22.458  25.938  1.00  0.00     0.059 A 
ATOM     22  C   UNL A   1      37.788  19.835  24.996  1.00  0.00     0.051 A 
ATOM     23  C   UNL A   1      39.082  21.630  25.968  1.00  0.00     0.161 A 
ATOM     24  C   UNL A   1      38.992  20.313  25.510  1.00  0.00     0.161 A 
ATOM     25  O   UNL A   1      40.240  22.179  26.456  1.00  0.00    -0.486 OA
ATOM     26  O   UNL A   1      40.049  19.440  25.517  1.00  0.00    -0.486 OA
ATOM     27  C   UNL A   1      41.380  21.402  26.074  1.00  0.00     0.271 C 
ATOM     28  C   UNL A   1      41.126  19.926  26.329  1.00  0.00     0.271 C 
ENDBRANCH  18  19
ENDBRANCH   7   8
ENDBRANCH   6   7
ENDBRANCH   4   6
ENDBRANCH   1   2
BRANCH   1  29
ATOM     29  C   UNL A   1      31.408  31.982  27.083  1.00  0.00     0.042 C 
BRANCH  29  30
ATOM     30  C   UNL A   1      32.669  32.825  27.216  1.00  0.00     0.118 C 
BRANCH  30  31
ATOM     31  N   UNL A   1      32.407  34.197  27.631  1.00  0.00    -0.352 N 
ATOM     32  C   UNL A   1      33.001  34.962  28.604  1.00  0.00     0.251 C 
ATOM     33  H   UNL A   1      31.689  34.650  27.132  1.00  0.00     0.163 HD
ATOM     34  O   UNL A   1      32.537  36.068  28.877  1.00  0.00    -0.269 OA
BRANCH  32  35
ATOM     35  C   UNL A   1      34.175  34.460  29.351  1.00  0.00     0.039 A 
ATOM     36  C   UNL A   1      33.969  33.842  30.588  1.00  0.00     0.014 A 
ATOM     37  C   UNL A   1      35.473  34.604  28.855  1.00  0.00     0.014 A 
ATOM     38  C   UNL A   1      35.050  33.302  31.287  1.00  0.00     0.010 A 
ATOM     39  C   UNL A   1      36.539  33.992  29.510  1.00  0.00     0.010 A 
ATOM     40  C   UNL A   1      36.340  33.333  30.732  1.00  0.00    -0.014 A 
BRANCH  40  41
ATOM     41  C   UNL A   1      37.487  32.672  31.411  1.00  0.00     0.031 A 
ATOM     42  C   UNL A   1      38.172  31.496  30.774  1.00  0.00     0.074 A 
ATOM     43  C   UNL A   1      37.869  33.093  32.632  1.00  0.00     0.049 A 
ATOM     44  N   UNL A   1      39.140  30.748  31.241  1.00  0.00    -0.248 NA
ATOM     45  C   UNL A   1      37.689  31.088  29.445  1.00  0.00     0.031 C 
ATOM     46  C   UNL A   1      37.258  34.194  33.377  1.00  0.00     0.029 A 
ATOM     47  N   UNL A   1      38.859  32.637  33.468  1.00  0.00    -0.354 N 
ATOM     48  C   UNL A   1      39.373  29.779  30.273  1.00  0.00     0.074 A 
ATOM     49  C   UNL A   1      38.409  29.999  29.217  1.00  0.00     0.031 C 
ATOM     50  C   UNL A   1      37.898  34.344  34.547  1.00  0.00     0.029 A 
ATOM     51  C   UNL A   1      38.935  33.323  34.657  1.00  0.00     0.049 A 
ATOM     52  H   UNL A   1      39.457  31.889  33.238  1.00  0.00     0.167 HD
ATOM     53  C   UNL A   1      40.320  28.810  30.255  1.00  0.00     0.037 A 
ATOM     54  C   UNL A   1      39.741  33.140  35.721  1.00  0.00     0.037 A 
ATOM     55  C   UNL A   1      41.290  28.606  31.299  1.00  0.00     0.049 A 
ATOM     56  C   UNL A   1      40.767  32.040  35.685  1.00  0.00     0.074 A 
ATOM     57  C   UNL A   1      42.325  27.689  31.347  1.00  0.00     0.029 A 
ATOM     58  N   UNL A   1      41.339  29.323  32.486  1.00  0.00    -0.354 N 
ATOM     59  N   UNL A   1      41.025  31.177  34.732  1.00  0.00    -0.248 NA
ATOM     60  C   UNL A   1      41.620  31.892  36.874  1.00  0.00     0.031 C 
ATOM     61  C   UNL A   1      42.965  27.813  32.584  1.00  0.00     0.029 A 
ATOM     62  C   UNL A   1      42.368  28.849  33.284  1.00  0.00     0.049 A 
ATOM     63  H   UNL A   1      40.732  30.061  32.726  1.00  0.00     0.167 HD
ATOM     64  C   UNL A   1      42.084  30.405  35.193  1.00  0.00     0.074 A 
ATOM     65  C   UNL A   1      42.433  30.914  36.502  1.00  0.00     0.031 C 
ATOM     66  C   UNL A   1      42.709  29.367  34.585  1.00  0.00     0.037 A 
BRANCH  53  67
ATOM     67  C   UNL A   1      40.353  27.893  29.066  1.00  0.00     0.064 A 
ATOM     68  C   UNL A   1      39.603  26.708  29.027  1.00  0.00     0.173 A 
ATOM     69  C   UNL A   1      41.112  28.223  27.932  1.00  0.00     0.173 A 
ATOM     70  F   UNL A   1      38.866  26.339  30.087  1.00  0.00    -0.203 F 
ATOM     71  C   UNL A   1      39.638  25.872  27.913  1.00  0.00     0.198 A 
ATOM     72  C   UNL A   1      41.119  27.402  26.808  1.00  0.00     0.198 A 
ATOM     73  F   UNL A   1      41.844  29.348  27.912  1.00  0.00    -0.203 F 
ATOM     74  F   UNL A   1      38.955  24.719  27.922  1.00  0.00    -0.200 F 
ATOM     75  C   UNL A   1      40.388  26.224  26.802  1.00  0.00     0.200 A 
ATOM     76  F   UNL A   1      41.832  27.752  25.729  1.00  0.00    -0.200 F 
ATOM     77  F   UNL A   1      40.415  25.423  25.728  1.00  0.00    -0.200 F 
ENDBRANCH  53  67
BRANCH  54  78
ATOM     78  C   UNL A   1      39.620  34.029  36.907  1.00  0.00     0.064 A 
ATOM     79  C   UNL A   1      38.858  33.647  38.019  1.00  0.00     0.173 A 
ATOM     80  C   UNL A   1      40.251  35.282  36.948  1.00  0.00     0.173 A 
ATOM     81  F   UNL A   1      38.218  32.468  38.019  1.00  0.00    -0.203 F 
ATOM     82  C   UNL A   1      38.710  34.493  39.117  1.00  0.00     0.198 A 
ATOM     83  C   UNL A   1      40.129  36.113  38.061  1.00  0.00     0.198 A 
ATOM     84  F   UNL A   1      40.996  35.695  35.912  1.00  0.00    -0.203 F 
ATOM     85  F   UNL A   1      37.932  34.124  40.143  1.00  0.00    -0.200 F 
ATOM     86  C   UNL A   1      39.351  35.722  39.139  1.00  0.00     0.200 A 
ATOM     87  F   UNL A   1      40.762  37.294  38.083  1.00  0.00    -0.200 F 
ATOM     88  F   UNL A   1      39.210  36.534  40.195  1.00  0.00    -0.200 F 
ENDBRANCH  54  78
BRANCH  66  89
ATOM     89  C   UNL A   1      43.860  28.731  35.314  1.00  0.00     0.064 A 
ATOM     90  C   UNL A   1      45.182  29.154  35.117  1.00  0.00     0.173 A 
ATOM     91  C   UNL A   1      43.630  27.711  36.249  1.00  0.00     0.173 A 
ATOM     92  F   UNL A   1      45.458  30.116  34.223  1.00  0.00    -0.203 F 
ATOM     93  C   UNL A   1      46.235  28.559  35.808  1.00  0.00     0.198 A 
ATOM     94  C   UNL A   1      44.680  27.141  36.963  1.00  0.00     0.198 A 
ATOM     95  F   UNL A   1      42.383  27.273  36.481  1.00  0.00    -0.203 F 
ATOM     96  F   UNL A   1      47.495  28.942  35.564  1.00  0.00    -0.200 F 
ATOM     97  C   UNL A   1      45.983  27.559  36.736  1.00  0.00     0.200 A 
ATOM     98  F   UNL A   1      44.432  26.188  37.872  1.00  0.00    -0.200 F 
ATOM     99  F   UNL A   1      46.995  26.993  37.406  1.00  0.00    -0.200 F 
ENDBRANCH  66  89
ENDBRANCH  40  41
ENDBRANCH  32  35
ENDBRANCH  30  31
ENDBRANCH  29  30
ENDBRANCH   1  29
TORSDOF 13
ENDMDL
