MODEL 1
REMARK VINA RESULT:     -13.1      0.000      0.000
REMARK SMILES O=C(C[C@@H](NS(=O)(=O)c1ccc(Cl)cc1)c1ccc(F)cc1)NCCCNC(=O)c1ccc(-c2c3nc(c(-c4c(F)c(F)c(F)c(F)c4F)c4ccc([nH]4)c(-c4c(F)c(F)c(F)c(F)c4F)c4nc(c(-c5c(F)c(F)c(F)c(F)c5F)c5ccc2[nH]5)C=C4)C=C3)cc1
REMARK SMILES IDX 24 1 23 2 1 3 2 4 3 6 4 7 5 8 6 10 7 11 8 12 9 13 10 14
REMARK SMILES IDX 15 15 11 16 14 17 12 18 13 19 16 20 17 21 22 22 18 23 21 24
REMARK SMILES IDX 19 25 20 26 25 27 26 28 27 29 28 30 29 32 30 33 31 34 92 35
REMARK SMILES IDX 32 36 91 37 33 38 34 39 35 40 85 41 36 42 90 43 84 44 86 45
REMARK SMILES IDX 37 46 89 47 83 48 82 49 38 51 70 52 50 53 69 54 51 55 54 56
REMARK SMILES IDX 68 57 87 58 52 59 53 60 67 62 88 63 55 64 39 65 40 66 48 67
REMARK SMILES IDX 41 68 42 69 46 70 49 71 43 72 44 73 47 74 45 75 71 76 72 77
REMARK SMILES IDX 80 78 73 79 74 80 78 81 81 82 75 83 76 84 79 85 77 86 56 87
REMARK SMILES IDX 57 88 65 89 58 90 59 91 63 92 66 93 60 94 61 95 64 96 62 97
REMARK H PARENT 23 5 5 9 27 31 86 50 54 61
REMARK Flexibility Score: inf
ROOT
ATOM      1  C   UNL A   1      31.783  30.477  26.543  1.00  0.00     0.117 C 
ENDROOT
BRANCH   1   2
ATOM      2  N   UNL A   1      32.323  30.171  25.231  1.00  0.00    -0.356 N 
ATOM      3  O   UNL A   1      33.121  28.093  25.810  1.00  0.00    -0.275 OA
ATOM      4  C   UNL A   1      32.936  28.964  24.969  1.00  0.00     0.221 C 
ATOM      5  H   UNL A   1      32.252  30.841  24.514  1.00  0.00     0.163 HD
BRANCH   4   6
ATOM      6  C   UNL A   1      33.309  28.774  23.520  1.00  0.00     0.124 C 
BRANCH   6   7
ATOM      7  C   UNL A   1      32.479  27.627  22.916  1.00  0.00     0.109 C 
BRANCH   7   8
ATOM      8  N   UNL A   1      32.765  26.368  23.655  1.00  0.00    -0.203 NA
ATOM      9  H   UNL A   1      31.939  26.151  24.212  1.00  0.00     0.142 HD
BRANCH   8  10
ATOM     10  S   UNL A   1      33.146  24.978  22.766  1.00  0.00     0.241 S 
ATOM     11  O   UNL A   1      31.993  24.108  22.802  1.00  0.00    -0.207 OA
ATOM     12  O   UNL A   1      33.689  25.468  21.519  1.00  0.00    -0.207 OA
BRANCH  10  13
ATOM     13  C   UNL A   1      34.476  24.215  23.649  1.00  0.00     0.082 A 
ATOM     14  C   UNL A   1      34.772  24.651  24.945  1.00  0.00     0.023 A 
ATOM     15  C   UNL A   1      35.255  23.234  23.028  1.00  0.00     0.023 A 
ATOM     16  C   UNL A   1      35.879  24.124  25.613  1.00  0.00     0.022 A 
ATOM     17  C   UNL A   1      36.367  22.718  23.697  1.00  0.00     0.022 A 
ATOM     18  C   UNL A   1      36.679  23.172  24.981  1.00  0.00     0.041 A 
ATOM     19  Cl  UNL A   1      38.072  22.562  25.785  1.00  0.00    -0.084 Cl
ENDBRANCH  10  13
ENDBRANCH   8  10
ENDBRANCH   7   8
BRANCH   7  20
ATOM     20  C   UNL A   1      30.998  27.969  22.979  1.00  0.00    -0.029 A 
ATOM     21  C   UNL A   1      30.072  27.122  23.618  1.00  0.00     0.008 A 
ATOM     22  C   UNL A   1      30.523  29.124  22.335  1.00  0.00     0.008 A 
ATOM     23  C   UNL A   1      28.710  27.424  23.611  1.00  0.00     0.039 A 
ATOM     24  C   UNL A   1      29.157  29.418  22.320  1.00  0.00     0.039 A 
ATOM     25  C   UNL A   1      28.265  28.565  22.958  1.00  0.00     0.123 A 
ATOM     26  F   UNL A   1      26.955  28.842  22.932  1.00  0.00    -0.207 F 
ENDBRANCH   7  20
ENDBRANCH   6   7
ENDBRANCH   4   6
ENDBRANCH   1   2
BRANCH   1  27
ATOM     27  C   UNL A   1      31.522  31.965  26.736  1.00  0.00     0.042 C 
BRANCH  27  28
ATOM     28  C   UNL A   1      32.717  32.761  27.251  1.00  0.00     0.118 C 
BRANCH  28  29
ATOM     29  N   UNL A   1      32.391  34.130  27.614  1.00  0.00    -0.352 N 
ATOM     30  C   UNL A   1      32.968  34.931  28.572  1.00  0.00     0.251 C 
ATOM     31  H   UNL A   1      31.656  34.541  27.103  1.00  0.00     0.163 HD
ATOM     32  O   UNL A   1      32.482  36.027  28.835  1.00  0.00    -0.269 OA
BRANCH  30  33
ATOM     33  C   UNL A   1      34.155  34.458  29.316  1.00  0.00     0.039 A 
ATOM     34  C   UNL A   1      33.969  33.857  30.565  1.00  0.00     0.014 A 
ATOM     35  C   UNL A   1      35.443  34.601  28.791  1.00  0.00     0.014 A 
ATOM     36  C   UNL A   1      35.065  33.332  31.253  1.00  0.00     0.010 A 
ATOM     37  C   UNL A   1      36.526  34.023  29.449  1.00  0.00     0.010 A 
ATOM     38  C   UNL A   1      36.347  33.377  30.683  1.00  0.00    -0.014 A 
BRANCH  38  39
ATOM     39  C   UNL A   1      37.517  32.754  31.352  1.00  0.00     0.031 A 
ATOM     40  C   UNL A   1      38.247  31.623  30.688  1.00  0.00     0.074 A 
ATOM     41  C   UNL A   1      37.874  33.154  32.587  1.00  0.00     0.049 A 
ATOM     42  N   UNL A   1      39.198  30.859  31.163  1.00  0.00    -0.248 NA
ATOM     43  C   UNL A   1      37.837  31.289  29.314  1.00  0.00     0.031 C 
ATOM     44  C   UNL A   1      37.231  34.225  33.348  1.00  0.00     0.029 A 
ATOM     45  N   UNL A   1      38.858  32.695  33.428  1.00  0.00    -0.354 N 
ATOM     46  C   UNL A   1      39.483  29.945  30.159  1.00  0.00     0.074 A 
ATOM     47  C   UNL A   1      38.582  30.222  29.062  1.00  0.00     0.031 C 
ATOM     48  C   UNL A   1      37.848  34.354  34.534  1.00  0.00     0.029 A 
ATOM     49  C   UNL A   1      38.901  33.348  34.636  1.00  0.00     0.049 A 
ATOM     50  H   UNL A   1      39.476  31.966  33.187  1.00  0.00     0.167 HD
ATOM     51  C   UNL A   1      40.425  28.972  30.148  1.00  0.00     0.037 A 
ATOM     52  C   UNL A   1      39.691  33.149  35.708  1.00  0.00     0.037 A 
ATOM     53  C   UNL A   1      41.348  28.723  31.223  1.00  0.00     0.049 A 
ATOM     54  C   UNL A   1      40.728  32.060  35.672  1.00  0.00     0.074 A 
ATOM     55  C   UNL A   1      42.368  27.789  31.283  1.00  0.00     0.029 A 
ATOM     56  N   UNL A   1      41.370  29.417  32.423  1.00  0.00    -0.354 N 
ATOM     57  N   UNL A   1      41.002  31.215  34.709  1.00  0.00    -0.248 NA
ATOM     58  C   UNL A   1      41.562  31.894  36.872  1.00  0.00     0.031 C 
ATOM     59  C   UNL A   1      42.986  27.897  32.532  1.00  0.00     0.029 A 
ATOM     60  C   UNL A   1      42.378  28.926  33.235  1.00  0.00     0.049 A 
ATOM     61  H   UNL A   1      40.759  30.152  32.662  1.00  0.00     0.167 HD
ATOM     62  C   UNL A   1      42.053  30.436  35.174  1.00  0.00     0.074 A 
ATOM     63  C   UNL A   1      42.372  30.911  36.504  1.00  0.00     0.031 C 
ATOM     64  C   UNL A   1      42.694  29.419  34.550  1.00  0.00     0.037 A 
BRANCH  51  65
ATOM     65  C   UNL A   1      40.519  28.104  28.928  1.00  0.00     0.064 A 
ATOM     66  C   UNL A   1      41.308  28.495  27.836  1.00  0.00     0.173 A 
ATOM     67  C   UNL A   1      39.777  26.920  28.815  1.00  0.00     0.173 A 
ATOM     68  F   UNL A   1      42.031  29.623  27.893  1.00  0.00    -0.203 F 
ATOM     69  C   UNL A   1      41.343  27.735  26.670  1.00  0.00     0.198 A 
ATOM     70  C   UNL A   1      39.835  26.148  27.657  1.00  0.00     0.198 A 
ATOM     71  F   UNL A   1      39.017  26.499  29.837  1.00  0.00    -0.203 F 
ATOM     72  F   UNL A   1      42.083  28.140  25.630  1.00  0.00    -0.200 F 
ATOM     73  C   UNL A   1      40.611  26.561  26.584  1.00  0.00     0.200 A 
ATOM     74  F   UNL A   1      39.145  25.002  27.585  1.00  0.00    -0.200 F 
ATOM     75  F   UNL A   1      40.655  25.823  25.466  1.00  0.00    -0.200 F 
ENDBRANCH  51  65
BRANCH  52  76
ATOM     76  C   UNL A   1      39.545  34.025  36.898  1.00  0.00     0.064 A 
ATOM     77  C   UNL A   1      40.201  35.261  36.984  1.00  0.00     0.173 A 
ATOM     78  C   UNL A   1      38.760  33.623  37.988  1.00  0.00     0.173 A 
ATOM     79  F   UNL A   1      40.966  35.687  35.968  1.00  0.00    -0.203 F 
ATOM     80  C   UNL A   1      40.092  36.054  38.124  1.00  0.00     0.198 A 
ATOM     81  C   UNL A   1      38.634  34.428  39.118  1.00  0.00     0.198 A 
ATOM     82  F   UNL A   1      38.097  32.458  37.942  1.00  0.00    -0.203 F 
ATOM     83  F   UNL A   1      40.753  37.218  38.194  1.00  0.00    -0.200 F 
ATOM     84  C   UNL A   1      39.306  35.639  39.189  1.00  0.00     0.200 A 
ATOM     85  F   UNL A   1      37.857  34.033  40.136  1.00  0.00    -0.200 F 
ATOM     86  F   UNL A   1      39.194  36.407  40.281  1.00  0.00    -0.200 F 
ENDBRANCH  52  76
BRANCH  64  87
ATOM     87  C   UNL A   1      43.829  28.761  35.274  1.00  0.00     0.064 A 
ATOM     88  C   UNL A   1      45.152  29.160  35.027  1.00  0.00     0.173 A 
ATOM     89  C   UNL A   1      43.617  27.676  36.136  1.00  0.00     0.173 A 
ATOM     90  F   UNL A   1      45.404  30.188  34.202  1.00  0.00    -0.203 F 
ATOM     91  C   UNL A   1      46.222  28.484  35.603  1.00  0.00     0.198 A 
ATOM     92  C   UNL A   1      44.690  27.017  36.729  1.00  0.00     0.198 A 
ATOM     93  F   UNL A   1      42.369  27.268  36.411  1.00  0.00    -0.203 F 
ATOM     94  F   UNL A   1      47.479  28.860  35.327  1.00  0.00    -0.200 F 
ATOM     95  C   UNL A   1      45.991  27.414  36.455  1.00  0.00     0.200 A 
ATOM     96  F   UNL A   1      44.465  25.994  37.566  1.00  0.00    -0.200 F 
ATOM     97  F   UNL A   1      47.022  26.763  37.010  1.00  0.00    -0.200 F 
ENDBRANCH  64  87
ENDBRANCH  38  39
ENDBRANCH  30  33
ENDBRANCH  28  29
ENDBRANCH  27  28
ENDBRANCH   1  27
TORSDOF 15
ENDMDL
MODEL 2
REMARK VINA RESULT:     -13.0      2.117      3.779
REMARK SMILES O=C(C[C@@H](NS(=O)(=O)c1ccc(Cl)cc1)c1ccc(F)cc1)NCCCNC(=O)c1ccc(-c2c3nc(c(-c4c(F)c(F)c(F)c(F)c4F)c4ccc([nH]4)c(-c4c(F)c(F)c(F)c(F)c4F)c4nc(c(-c5c(F)c(F)c(F)c(F)c5F)c5ccc2[nH]5)C=C4)C=C3)cc1
REMARK SMILES IDX 24 1 23 2 1 3 2 4 3 6 4 7 5 8 6 10 7 11 8 12 9 13 10 14
REMARK SMILES IDX 15 15 11 16 14 17 12 18 13 19 16 20 17 21 22 22 18 23 21 24
REMARK SMILES IDX 19 25 20 26 25 27 26 28 27 29 28 30 29 32 30 33 31 34 92 35
REMARK SMILES IDX 32 36 91 37 33 38 34 39 35 40 85 41 36 42 90 43 84 44 86 45
REMARK SMILES IDX 37 46 89 47 83 48 82 49 38 51 70 52 50 53 69 54 51 55 54 56
REMARK SMILES IDX 68 57 87 58 52 59 53 60 67 62 88 63 55 64 39 65 40 66 48 67
REMARK SMILES IDX 41 68 42 69 46 70 49 71 43 72 44 73 47 74 45 75 71 76 72 77
REMARK SMILES IDX 80 78 73 79 74 80 78 81 81 82 75 83 76 84 79 85 77 86 56 87
REMARK SMILES IDX 57 88 65 89 58 90 59 91 63 92 66 93 60 94 61 95 64 96 62 97
REMARK H PARENT 23 5 5 9 27 31 86 50 54 61
REMARK Flexibility Score: inf
ROOT
ATOM      1  C   UNL A   1      31.654  30.255  25.600  1.00  0.00     0.117 C 
ENDROOT
BRANCH   1   2
ATOM      2  N   UNL A   1      32.164  28.945  25.962  1.00  0.00    -0.356 N 
ATOM      3  O   UNL A   1      33.778  28.887  24.324  1.00  0.00    -0.275 OA
ATOM      4  C   UNL A   1      33.226  28.376  25.291  1.00  0.00     0.221 C 
ATOM      5  H   UNL A   1      31.741  28.452  26.702  1.00  0.00     0.163 HD
BRANCH   4   6
ATOM      6  C   UNL A   1      33.701  27.079  25.895  1.00  0.00     0.124 C 
BRANCH   6   7
ATOM      7  C   UNL A   1      33.014  25.896  25.189  1.00  0.00     0.109 C 
BRANCH   7   8
ATOM      8  N   UNL A   1      32.160  26.408  24.084  1.00  0.00    -0.203 NA
ATOM      9  H   UNL A   1      32.480  25.963  23.224  1.00  0.00     0.142 HD
BRANCH   8  10
ATOM     10  S   UNL A   1      30.486  26.167  24.177  1.00  0.00     0.241 S 
ATOM     11  O   UNL A   1      30.181  24.951  23.460  1.00  0.00    -0.207 OA
ATOM     12  O   UNL A   1      30.163  26.325  25.578  1.00  0.00    -0.207 OA
BRANCH  10  13
ATOM     13  C   UNL A   1      29.774  27.541  23.320  1.00  0.00     0.082 A 
ATOM     14  C   UNL A   1      30.609  28.408  22.607  1.00  0.00     0.023 A 
ATOM     15  C   UNL A   1      28.400  27.785  23.412  1.00  0.00     0.023 A 
ATOM     16  C   UNL A   1      30.069  29.548  22.009  1.00  0.00     0.022 A 
ATOM     17  C   UNL A   1      27.867  28.933  22.819  1.00  0.00     0.022 A 
ATOM     18  C   UNL A   1      28.705  29.812  22.130  1.00  0.00     0.041 A 
ATOM     19  Cl  UNL A   1      28.051  31.244  21.437  1.00  0.00    -0.084 Cl
ENDBRANCH  10  13
ENDBRANCH   8  10
ENDBRANCH   7   8
BRANCH   7  20
ATOM     20  C   UNL A   1      34.061  24.927  24.661  1.00  0.00    -0.029 A 
ATOM     21  C   UNL A   1      33.869  24.215  23.461  1.00  0.00     0.008 A 
ATOM     22  C   UNL A   1      35.225  24.683  25.410  1.00  0.00     0.008 A 
ATOM     23  C   UNL A   1      34.815  23.286  23.026  1.00  0.00     0.039 A 
ATOM     24  C   UNL A   1      36.164  23.745  24.977  1.00  0.00     0.039 A 
ATOM     25  C   UNL A   1      35.950  23.056  23.791  1.00  0.00     0.123 A 
ATOM     26  F   UNL A   1      36.846  22.147  23.383  1.00  0.00    -0.207 F 
ENDBRANCH   7  20
ENDBRANCH   6   7
ENDBRANCH   4   6
ENDBRANCH   1   2
BRANCH   1  27
ATOM     27  C   UNL A   1      31.568  31.200  26.792  1.00  0.00     0.042 C 
BRANCH  27  28
ATOM     28  C   UNL A   1      32.774  32.118  26.966  1.00  0.00     0.118 C 
BRANCH  28  29
ATOM     29  N   UNL A   1      32.419  33.487  27.300  1.00  0.00    -0.352 N 
ATOM     30  C   UNL A   1      32.978  34.321  28.240  1.00  0.00     0.251 C 
ATOM     31  H   UNL A   1      31.676  33.872  26.781  1.00  0.00     0.163 HD
ATOM     32  O   UNL A   1      32.470  35.411  28.480  1.00  0.00    -0.269 OA
BRANCH  30  33
ATOM     33  C   UNL A   1      34.175  33.889  28.994  1.00  0.00     0.039 A 
ATOM     34  C   UNL A   1      34.005  33.053  30.102  1.00  0.00     0.014 A 
ATOM     35  C   UNL A   1      35.457  34.300  28.615  1.00  0.00     0.014 A 
ATOM     36  C   UNL A   1      35.124  32.568  30.784  1.00  0.00     0.010 A 
ATOM     37  C   UNL A   1      36.572  33.767  29.256  1.00  0.00     0.010 A 
ATOM     38  C   UNL A   1      36.417  32.891  30.343  1.00  0.00    -0.014 A 
BRANCH  38  39
ATOM     39  C   UNL A   1      37.624  32.325  30.997  1.00  0.00     0.031 A 
ATOM     40  C   UNL A   1      38.403  31.234  30.318  1.00  0.00     0.074 A 
ATOM     41  C   UNL A   1      37.974  32.737  32.230  1.00  0.00     0.049 A 
ATOM     42  N   UNL A   1      39.396  30.517  30.779  1.00  0.00    -0.248 NA
ATOM     43  C   UNL A   1      37.994  30.886  28.948  1.00  0.00     0.031 C 
ATOM     44  C   UNL A   1      37.287  33.771  33.003  1.00  0.00     0.029 A 
ATOM     45  N   UNL A   1      38.990  32.324  33.057  1.00  0.00    -0.354 N 
ATOM     46  C   UNL A   1      39.715  29.622  29.768  1.00  0.00     0.074 A 
ATOM     47  C   UNL A   1      38.788  29.859  28.682  1.00  0.00     0.031 C 
ATOM     48  C   UNL A   1      37.911  33.926  34.183  1.00  0.00     0.029 A 
ATOM     49  C   UNL A   1      39.013  32.973  34.267  1.00  0.00     0.049 A 
ATOM     50  H   UNL A   1      39.640  31.628  32.806  1.00  0.00     0.167 HD
ATOM     51  C   UNL A   1      40.704  28.698  29.742  1.00  0.00     0.037 A 
ATOM     52  C   UNL A   1      39.825  32.809  35.330  1.00  0.00     0.037 A 
ATOM     53  C   UNL A   1      41.650  28.491  30.805  1.00  0.00     0.049 A 
ATOM     54  C   UNL A   1      40.914  31.774  35.278  1.00  0.00     0.074 A 
ATOM     55  C   UNL A   1      42.716  27.609  30.850  1.00  0.00     0.029 A 
ATOM     56  N   UNL A   1      41.650  29.180  32.009  1.00  0.00    -0.354 N 
ATOM     57  N   UNL A   1      41.219  30.948  34.308  1.00  0.00    -0.248 NA
ATOM     58  C   UNL A   1      41.769  31.644  36.467  1.00  0.00     0.031 C 
ATOM     59  C   UNL A   1      43.342  27.742  32.093  1.00  0.00     0.029 A 
ATOM     60  C   UNL A   1      42.691  28.736  32.807  1.00  0.00     0.049 A 
ATOM     61  H   UNL A   1      41.006  29.882  32.258  1.00  0.00     0.167 HD
ATOM     62  C   UNL A   1      42.313  30.220  34.756  1.00  0.00     0.074 A 
ATOM     63  C   UNL A   1      42.623  30.705  36.086  1.00  0.00     0.031 C 
ATOM     64  C   UNL A   1      42.997  29.239  34.121  1.00  0.00     0.037 A 
BRANCH  51  65
ATOM     65  C   UNL A   1      40.827  27.841  28.517  1.00  0.00     0.064 A 
ATOM     66  C   UNL A   1      41.611  28.260  27.432  1.00  0.00     0.173 A 
ATOM     67  C   UNL A   1      40.117  26.639  28.392  1.00  0.00     0.173 A 
ATOM     68  F   UNL A   1      42.305  29.406  27.501  1.00  0.00    -0.203 F 
ATOM     69  C   UNL A   1      41.673  27.509  26.262  1.00  0.00     0.198 A 
ATOM     70  C   UNL A   1      40.202  25.876  27.230  1.00  0.00     0.198 A 
ATOM     71  F   UNL A   1      39.363  26.191  29.407  1.00  0.00    -0.203 F 
ATOM     72  F   UNL A   1      42.408  27.940  25.228  1.00  0.00    -0.200 F 
ATOM     73  C   UNL A   1      40.972  26.316  26.164  1.00  0.00     0.200 A 
ATOM     74  F   UNL A   1      39.543  24.713  27.145  1.00  0.00    -0.200 F 
ATOM     75  F   UNL A   1      41.042  25.587  25.041  1.00  0.00    -0.200 F 
ENDBRANCH  51  65
BRANCH  52  76
ATOM     76  C   UNL A   1      39.648  33.672  36.526  1.00  0.00     0.064 A 
ATOM     77  C   UNL A   1      38.831  33.282  37.597  1.00  0.00     0.173 A 
ATOM     78  C   UNL A   1      40.278  34.921  36.604  1.00  0.00     0.173 A 
ATOM     79  F   UNL A   1      38.205  32.097  37.567  1.00  0.00    -0.203 F 
ATOM     80  C   UNL A   1      38.637  34.119  38.693  1.00  0.00     0.198 A 
ATOM     81  C   UNL A   1      40.100  35.748  37.711  1.00  0.00     0.198 A 
ATOM     82  F   UNL A   1      41.085  35.327  35.612  1.00  0.00    -0.203 F 
ATOM     83  F   UNL A   1      37.827  33.737  39.691  1.00  0.00    -0.200 F 
ATOM     84  C   UNL A   1      39.274  35.350  38.751  1.00  0.00     0.200 A 
ATOM     85  F   UNL A   1      40.735  36.927  37.773  1.00  0.00    -0.200 F 
ATOM     86  F   UNL A   1      39.095  36.150  39.811  1.00  0.00    -0.200 F 
ENDBRANCH  52  76
BRANCH  64  87
ATOM     87  C   UNL A   1      44.172  28.635  34.829  1.00  0.00     0.064 A 
ATOM     88  C   UNL A   1      45.456  29.172  34.653  1.00  0.00     0.173 A 
ATOM     89  C   UNL A   1      44.043  27.474  35.603  1.00  0.00     0.173 A 
ATOM     90  F   UNL A   1      45.630  30.279  33.913  1.00  0.00    -0.203 F 
ATOM     91  C   UNL A   1      46.572  28.557  35.210  1.00  0.00     0.198 A 
ATOM     92  C   UNL A   1      45.158  26.874  36.179  1.00  0.00     0.198 A 
ATOM     93  F   UNL A   1      42.833  26.933  35.809  1.00  0.00    -0.203 F 
ATOM     94  F   UNL A   1      47.793  29.066  35.001  1.00  0.00    -0.200 F 
ATOM     95  C   UNL A   1      46.422  27.408  35.973  1.00  0.00     0.200 A 
ATOM     96  F   UNL A   1      45.011  25.774  36.931  1.00  0.00    -0.200 F 
ATOM     97  F   UNL A   1      47.497  26.815  36.511  1.00  0.00    -0.200 F 
ENDBRANCH  64  87
ENDBRANCH  38  39
ENDBRANCH  30  33
ENDBRANCH  28  29
ENDBRANCH  27  28
ENDBRANCH   1  27
TORSDOF 15
ENDMDL
MODEL 3
REMARK VINA RESULT:     -13.0      5.954     11.330
REMARK SMILES O=C(C[C@@H](NS(=O)(=O)c1ccc(Cl)cc1)c1ccc(F)cc1)NCCCNC(=O)c1ccc(-c2c3nc(c(-c4c(F)c(F)c(F)c(F)c4F)c4ccc([nH]4)c(-c4c(F)c(F)c(F)c(F)c4F)c4nc(c(-c5c(F)c(F)c(F)c(F)c5F)c5ccc2[nH]5)C=C4)C=C3)cc1
REMARK SMILES IDX 24 1 23 2 1 3 2 4 3 6 4 7 5 8 6 10 7 11 8 12 9 13 10 14
REMARK SMILES IDX 15 15 11 16 14 17 12 18 13 19 16 20 17 21 22 22 18 23 21 24
REMARK SMILES IDX 19 25 20 26 25 27 26 28 27 29 28 30 29 32 30 33 31 34 92 35
REMARK SMILES IDX 32 36 91 37 33 38 34 39 35 40 85 41 36 42 90 43 84 44 86 45
REMARK SMILES IDX 37 46 89 47 83 48 82 49 38 51 70 52 50 53 69 54 51 55 54 56
REMARK SMILES IDX 68 57 87 58 52 59 53 60 67 62 88 63 55 64 39 65 40 66 48 67
REMARK SMILES IDX 41 68 42 69 46 70 49 71 43 72 44 73 47 74 45 75 71 76 72 77
REMARK SMILES IDX 80 78 73 79 74 80 78 81 81 82 75 83 76 84 79 85 77 86 56 87
REMARK SMILES IDX 57 88 65 89 58 90 59 91 63 92 66 93 60 94 61 95 64 96 62 97
REMARK H PARENT 23 5 5 9 27 31 86 50 54 61
REMARK Flexibility Score: inf
ROOT
ATOM      1  C   UNL A   1      37.084  20.940  24.814  1.00  0.00     0.117 C 
ENDROOT
BRANCH   1   2
ATOM      2  N   UNL A   1      35.981  20.823  25.750  1.00  0.00    -0.356 N 
ATOM      3  O   UNL A   1      35.559  23.082  25.862  1.00  0.00    -0.275 OA
ATOM      4  C   UNL A   1      35.282  21.931  26.180  1.00  0.00     0.221 C 
ATOM      5  H   UNL A   1      35.728  19.933  26.086  1.00  0.00     0.163 HD
BRANCH   4   6
ATOM      6  C   UNL A   1      34.088  21.600  27.039  1.00  0.00     0.124 C 
BRANCH   6   7
ATOM      7  C   UNL A   1      32.792  21.855  26.248  1.00  0.00     0.109 C 
BRANCH   7   8
ATOM      8  N   UNL A   1      32.795  23.251  25.732  1.00  0.00    -0.203 NA
ATOM      9  H   UNL A   1      32.945  23.199  24.725  1.00  0.00     0.142 HD
BRANCH   8  10
ATOM     10  S   UNL A   1      31.422  24.209  25.984  1.00  0.00     0.241 S 
ATOM     11  O   UNL A   1      30.637  24.173  24.771  1.00  0.00    -0.207 OA
ATOM     12  O   UNL A   1      30.883  23.767  27.250  1.00  0.00    -0.207 OA
BRANCH  10  13
ATOM     13  C   UNL A   1      32.042  25.849  26.226  1.00  0.00     0.082 A 
ATOM     14  C   UNL A   1      33.357  26.143  25.851  1.00  0.00     0.023 A 
ATOM     15  C   UNL A   1      31.240  26.814  26.841  1.00  0.00     0.023 A 
ATOM     16  C   UNL A   1      33.886  27.405  26.126  1.00  0.00     0.022 A 
ATOM     17  C   UNL A   1      31.777  28.073  27.123  1.00  0.00     0.022 A 
ATOM     18  C   UNL A   1      33.099  28.358  26.774  1.00  0.00     0.041 A 
ATOM     19  Cl  UNL A   1      33.768  29.895  27.159  1.00  0.00    -0.084 Cl
ENDBRANCH  10  13
ENDBRANCH   8  10
ENDBRANCH   7   8
BRANCH   7  20
ATOM     20  C   UNL A   1      32.674  20.855  25.108  1.00  0.00    -0.029 A 
ATOM     21  C   UNL A   1      32.405  21.269  23.788  1.00  0.00     0.008 A 
ATOM     22  C   UNL A   1      32.774  19.480  25.376  1.00  0.00     0.008 A 
ATOM     23  C   UNL A   1      32.240  20.331  22.769  1.00  0.00     0.039 A 
ATOM     24  C   UNL A   1      32.597  18.543  24.355  1.00  0.00     0.039 A 
ATOM     25  C   UNL A   1      32.332  18.977  23.063  1.00  0.00     0.123 A 
ATOM     26  F   UNL A   1      32.151  18.078  22.088  1.00  0.00    -0.207 F 
ENDBRANCH   7  20
ENDBRANCH   6   7
ENDBRANCH   4   6
ENDBRANCH   1   2
BRANCH   1  27
ATOM     27  C   UNL A   1      38.090  19.805  24.950  1.00  0.00     0.042 C 
BRANCH  27  28
ATOM     28  C   UNL A   1      39.272  20.107  25.866  1.00  0.00     0.118 C 
BRANCH  28  29
ATOM     29  N   UNL A   1      40.275  19.056  25.887  1.00  0.00    -0.352 N 
ATOM     30  C   UNL A   1      41.635  19.161  26.067  1.00  0.00     0.251 C 
ATOM     31  H   UNL A   1      39.935  18.141  25.755  1.00  0.00     0.163 HD
ATOM     32  O   UNL A   1      42.355  18.177  25.929  1.00  0.00    -0.269 OA
BRANCH  30  33
ATOM     33  C   UNL A   1      42.240  20.471  26.392  1.00  0.00     0.039 A 
ATOM     34  C   UNL A   1      42.776  21.239  25.352  1.00  0.00     0.014 A 
ATOM     35  C   UNL A   1      42.278  20.945  27.706  1.00  0.00     0.014 A 
ATOM     36  C   UNL A   1      43.282  22.512  25.621  1.00  0.00     0.010 A 
ATOM     37  C   UNL A   1      42.726  22.239  27.963  1.00  0.00     0.010 A 
ATOM     38  C   UNL A   1      43.227  23.037  26.922  1.00  0.00    -0.014 A 
BRANCH  38  39
ATOM     39  C   UNL A   1      43.681  24.419  27.221  1.00  0.00     0.031 A 
ATOM     40  C   UNL A   1      42.700  25.440  27.722  1.00  0.00     0.074 A 
ATOM     41  C   UNL A   1      44.955  24.774  26.971  1.00  0.00     0.049 A 
ATOM     42  N   UNL A   1      42.865  26.724  27.909  1.00  0.00    -0.248 NA
ATOM     43  C   UNL A   1      41.344  24.956  28.030  1.00  0.00     0.031 C 
ATOM     44  C   UNL A   1      45.998  23.883  26.463  1.00  0.00     0.029 A 
ATOM     45  N   UNL A   1      45.588  25.987  27.097  1.00  0.00    -0.354 N 
ATOM     46  C   UNL A   1      41.634  27.204  28.334  1.00  0.00     0.074 A 
ATOM     47  C   UNL A   1      40.720  26.083  28.343  1.00  0.00     0.031 C 
ATOM     48  C   UNL A   1      47.144  24.573  26.339  1.00  0.00     0.029 A 
ATOM     49  C   UNL A   1      46.907  25.963  26.716  1.00  0.00     0.049 A 
ATOM     50  H   UNL A   1      45.138  26.797  27.431  1.00  0.00     0.167 HD
ATOM     51  C   UNL A   1      41.302  28.465  28.700  1.00  0.00     0.037 A 
ATOM     52  C   UNL A   1      47.819  26.953  26.665  1.00  0.00     0.037 A 
ATOM     53  C   UNL A   1      42.221  29.571  28.729  1.00  0.00     0.049 A 
ATOM     54  C   UNL A   1      47.425  28.345  27.074  1.00  0.00     0.074 A 
ATOM     55  C   UNL A   1      41.987  30.875  29.130  1.00  0.00     0.029 A 
ATOM     56  N   UNL A   1      43.554  29.501  28.351  1.00  0.00    -0.354 N 
ATOM     57  N   UNL A   1      46.264  28.783  27.493  1.00  0.00    -0.248 NA
ATOM     58  C   UNL A   1      48.465  29.382  26.999  1.00  0.00     0.031 C 
ATOM     59  C   UNL A   1      43.170  31.602  28.965  1.00  0.00     0.029 A 
ATOM     60  C   UNL A   1      44.152  30.742  28.499  1.00  0.00     0.049 A 
ATOM     61  H   UNL A   1      44.008  28.690  28.026  1.00  0.00     0.167 HD
ATOM     62  C   UNL A   1      46.438  30.134  27.756  1.00  0.00     0.074 A 
ATOM     63  C   UNL A   1      47.819  30.447  27.454  1.00  0.00     0.031 C 
ATOM     64  C   UNL A   1      45.531  31.033  28.209  1.00  0.00     0.037 A 
BRANCH  51  65
ATOM     65  C   UNL A   1      39.883  28.721  29.112  1.00  0.00     0.064 A 
ATOM     66  C   UNL A   1      38.944  29.187  28.180  1.00  0.00     0.173 A 
ATOM     67  C   UNL A   1      39.470  28.567  30.443  1.00  0.00     0.173 A 
ATOM     68  F   UNL A   1      39.293  29.356  26.896  1.00  0.00    -0.203 F 
ATOM     69  C   UNL A   1      37.644  29.499  28.568  1.00  0.00     0.198 A 
ATOM     70  C   UNL A   1      38.161  28.854  30.823  1.00  0.00     0.198 A 
ATOM     71  F   UNL A   1      40.328  28.113  31.369  1.00  0.00    -0.203 F 
ATOM     72  F   UNL A   1      36.772  29.967  27.666  1.00  0.00    -0.200 F 
ATOM     73  C   UNL A   1      37.253  29.328  29.887  1.00  0.00     0.200 A 
ATOM     74  F   UNL A   1      37.778  28.666  32.093  1.00  0.00    -0.200 F 
ATOM     75  F   UNL A   1      35.998  29.616  30.258  1.00  0.00    -0.200 F 
ENDBRANCH  51  65
BRANCH  52  76
ATOM     76  C   UNL A   1      49.207  26.648  26.230  1.00  0.00     0.064 A 
ATOM     77  C   UNL A   1      50.179  26.209  27.139  1.00  0.00     0.173 A 
ATOM     78  C   UNL A   1      49.590  26.819  24.893  1.00  0.00     0.173 A 
ATOM     79  F   UNL A   1      49.862  26.034  28.430  1.00  0.00    -0.203 F 
ATOM     80  C   UNL A   1      51.489  25.970  26.730  1.00  0.00     0.198 A 
ATOM     81  C   UNL A   1      50.894  26.558  24.480  1.00  0.00     0.198 A 
ATOM     82  F   UNL A   1      48.688  27.218  23.984  1.00  0.00    -0.203 F 
ATOM     83  F   UNL A   1      52.408  25.579  27.623  1.00  0.00    -0.200 F 
ATOM     84  C   UNL A   1      51.845  26.141  25.400  1.00  0.00     0.200 A 
ATOM     85  F   UNL A   1      51.228  26.704  23.191  1.00  0.00    -0.200 F 
ATOM     86  F   UNL A   1      53.103  25.900  25.004  1.00  0.00    -0.200 F 
ENDBRANCH  52  76
BRANCH  64  87
ATOM     87  C   UNL A   1      45.998  32.439  28.440  1.00  0.00     0.064 A 
ATOM     88  C   UNL A   1      46.467  32.830  29.704  1.00  0.00     0.173 A 
ATOM     89  C   UNL A   1      45.892  33.418  27.443  1.00  0.00     0.173 A 
ATOM     90  F   UNL A   1      46.577  31.928  30.692  1.00  0.00    -0.203 F 
ATOM     91  C   UNL A   1      46.795  34.156  29.966  1.00  0.00     0.198 A 
ATOM     92  C   UNL A   1      46.243  34.740  27.703  1.00  0.00     0.198 A 
ATOM     93  F   UNL A   1      45.461  33.088  26.217  1.00  0.00    -0.203 F 
ATOM     94  F   UNL A   1      47.208  34.515  31.189  1.00  0.00    -0.200 F 
ATOM     95  C   UNL A   1      46.684  35.110  28.965  1.00  0.00     0.200 A 
ATOM     96  F   UNL A   1      46.153  35.658  26.730  1.00  0.00    -0.200 F 
ATOM     97  F   UNL A   1      47.001  36.387  29.217  1.00  0.00    -0.200 F 
ENDBRANCH  64  87
ENDBRANCH  38  39
ENDBRANCH  30  33
ENDBRANCH  28  29
ENDBRANCH  27  28
ENDBRANCH   1  27
TORSDOF 15
ENDMDL
