MODEL 1
REMARK VINA RESULT:     -11.1      0.000      0.000
REMARK SMILES CC1(C)C(CNC(=O)[C@H]2C[C@H]2C(=O)NCCCNC(=O)c2ccc(-c3c4nc(c(-c5c(F)c(F)c(F)c(F)c5F)c5ccc([nH]5)c(-c5c(F)c(F)c(F)c(F)c5F)c5nc(c(-c6c(F)c(F)c(F)c(F)c6F)c6ccc3[nH]6)C=C5)C=C4)cc2)C1(C)C
REMARK SMILES IDX 15 1 14 2 12 3 13 4 11 6 9 7 10 8 7 9 6 10 8 12 5 13 4 14
REMARK SMILES IDX 1 15 2 16 3 17 84 18 85 19 86 20 16 21 17 22 18 23 19 24
REMARK SMILES IDX 20 26 21 27 22 28 83 29 23 30 82 31 24 32 25 33 26 34 76 35
REMARK SMILES IDX 27 36 81 37 75 38 77 39 28 40 80 41 74 42 73 43 29 45 61 46
REMARK SMILES IDX 41 47 60 48 42 49 45 50 59 51 78 52 43 53 44 54 58 56 79 57
REMARK SMILES IDX 46 58 30 59 31 60 39 61 32 62 33 63 37 64 40 65 34 66 35 67
REMARK SMILES IDX 38 68 36 69 62 70 63 71 71 72 64 73 65 74 69 75 72 76 66 77
REMARK SMILES IDX 67 78 70 79 68 80 47 81 48 82 56 83 49 84 50 85 54 86 57 87
REMARK SMILES IDX 51 88 52 89 55 90 53 91
REMARK H PARENT 14 5 6 11 18 25 77 44 45 55
REMARK Flexibility Score: inf
ROOT
ATOM      1  C   UNL A   1      33.258  34.359  28.189  1.00  0.00     0.117 C 
ENDROOT
BRANCH   1   2
ATOM      2  N   UNL A   1      33.289  35.695  28.735  1.00  0.00    -0.356 N 
ATOM      3  C   UNL A   1      32.911  36.238  29.932  1.00  0.00     0.223 C 
ATOM      4  O   UNL A   1      32.988  37.464  30.017  1.00  0.00    -0.275 OA
ATOM      5  H   UNL A   1      33.662  36.359  28.112  1.00  0.00     0.163 HD
BRANCH   3   6
ATOM      6  C   UNL A   1      32.519  35.495  31.159  1.00  0.00     0.091 C 
ATOM      7  C   UNL A   1      33.139  35.546  32.539  1.00  0.00     0.091 C 
ATOM      8  C   UNL A   1      31.748  36.078  32.305  1.00  0.00     0.028 C 
BRANCH   7   9
ATOM      9  C   UNL A   1      34.400  36.271  32.802  1.00  0.00     0.223 C 
ATOM     10  N   UNL A   1      35.612  35.703  32.501  1.00  0.00    -0.356 N 
ATOM     11  H   UNL A   1      36.360  36.326  32.358  1.00  0.00     0.163 HD
ATOM     12  O   UNL A   1      34.353  37.441  33.170  1.00  0.00    -0.275 OA
BRANCH  10  13
ATOM     13  C   UNL A   1      35.918  34.304  32.371  1.00  0.00     0.120 C 
BRANCH  13  14
ATOM     14  C   UNL A   1      37.326  33.976  32.726  1.00  0.00     0.021 C 
ATOM     15  C   UNL A   1      39.146  32.380  33.694  1.00  0.00     0.012 C 
ATOM     16  C   UNL A   1      38.049  32.633  32.680  1.00  0.00    -0.025 C 
ATOM     17  C   UNL A   1      37.257  31.376  32.398  1.00  0.00     0.012 C 
ATOM     18  C   UNL A   1      38.302  33.689  31.581  1.00  0.00    -0.025 C 
ATOM     19  C   UNL A   1      39.528  34.575  31.561  1.00  0.00     0.012 C 
ATOM     20  C   UNL A   1      37.821  33.388  30.172  1.00  0.00     0.012 C 
ENDBRANCH  13  14
ENDBRANCH  10  13
ENDBRANCH   7   9
ENDBRANCH   3   6
ENDBRANCH   1   2
BRANCH   1  21
ATOM     21  C   UNL A   1      34.614  33.672  28.290  1.00  0.00     0.042 C 
BRANCH  21  22
ATOM     22  C   UNL A   1      34.581  32.405  29.127  1.00  0.00     0.118 C 
BRANCH  22  23
ATOM     23  N   UNL A   1      34.038  31.274  28.383  1.00  0.00    -0.352 N 
ATOM     24  C   UNL A   1      34.660  30.183  27.830  1.00  0.00     0.251 C 
ATOM     25  H   UNL A   1      33.062  31.298  28.254  1.00  0.00     0.163 HD
ATOM     26  O   UNL A   1      34.037  29.477  27.039  1.00  0.00    -0.269 OA
BRANCH  24  27
ATOM     27  C   UNL A   1      36.067  29.849  28.155  1.00  0.00     0.039 A 
ATOM     28  C   UNL A   1      36.361  29.328  29.419  1.00  0.00     0.014 A 
ATOM     29  C   UNL A   1      37.105  30.094  27.253  1.00  0.00     0.014 A 
ATOM     30  C   UNL A   1      37.678  28.997  29.753  1.00  0.00     0.010 A 
ATOM     31  C   UNL A   1      38.401  29.681  27.550  1.00  0.00     0.010 A 
ATOM     32  C   UNL A   1      38.705  29.138  28.808  1.00  0.00    -0.014 A 
BRANCH  32  33
ATOM     33  C   UNL A   1      40.105  28.745  29.110  1.00  0.00     0.031 A 
ATOM     34  C   UNL A   1      41.019  29.700  29.826  1.00  0.00     0.074 A 
ATOM     35  C   UNL A   1      40.577  27.563  28.670  1.00  0.00     0.049 A 
ATOM     36  N   UNL A   1      42.300  29.592  30.077  1.00  0.00    -0.248 NA
ATOM     37  C   UNL A   1      40.422  30.962  30.293  1.00  0.00     0.031 C 
ATOM     38  C   UNL A   1      39.806  26.568  27.920  1.00  0.00     0.029 A 
ATOM     39  N   UNL A   1      41.826  27.003  28.775  1.00  0.00    -0.354 N 
ATOM     40  C   UNL A   1      42.665  30.780  30.698  1.00  0.00     0.074 A 
ATOM     41  C   UNL A   1      41.482  31.611  30.751  1.00  0.00     0.031 C 
ATOM     42  C   UNL A   1      40.593  25.516  27.649  1.00  0.00     0.029 A 
ATOM     43  C   UNL A   1      41.932  25.776  28.170  1.00  0.00     0.049 A 
ATOM     44  H   UNL A   1      42.575  27.441  29.240  1.00  0.00     0.167 HD
ATOM     45  C   UNL A   1      43.872  31.137  31.198  1.00  0.00     0.037 A 
ATOM     46  C   UNL A   1      42.992  24.956  28.041  1.00  0.00     0.037 A 
ATOM     47  C   UNL A   1      45.036  30.291  31.189  1.00  0.00     0.049 A 
ATOM     48  C   UNL A   1      44.314  25.363  28.631  1.00  0.00     0.074 A 
ATOM     49  C   UNL A   1      46.283  30.531  31.737  1.00  0.00     0.029 A 
ATOM     50  N   UNL A   1      45.090  29.036  30.602  1.00  0.00    -0.354 N 
ATOM     51  N   UNL A   1      44.631  26.462  29.269  1.00  0.00    -0.248 NA
ATOM     52  C   UNL A   1      45.426  24.411  28.485  1.00  0.00     0.031 C 
ATOM     53  C   UNL A   1      47.104  29.434  31.455  1.00  0.00     0.029 A 
ATOM     54  C   UNL A   1      46.356  28.494  30.764  1.00  0.00     0.049 A 
ATOM     55  H   UNL A   1      44.343  28.594  30.139  1.00  0.00     0.167 HD
ATOM     56  C   UNL A   1      45.967  26.327  29.621  1.00  0.00     0.074 A 
ATOM     57  C   UNL A   1      46.398  25.032  29.138  1.00  0.00     0.031 C 
ATOM     58  C   UNL A   1      46.764  27.200  30.284  1.00  0.00     0.037 A 
BRANCH  45  59
ATOM     59  C   UNL A   1      43.994  32.502  31.809  1.00  0.00     0.064 A 
ATOM     60  C   UNL A   1      44.349  33.622  31.043  1.00  0.00     0.173 A 
ATOM     61  C   UNL A   1      43.721  32.699  33.172  1.00  0.00     0.173 A 
ATOM     62  F   UNL A   1      44.632  33.485  29.739  1.00  0.00    -0.203 F 
ATOM     63  C   UNL A   1      44.453  34.884  31.622  1.00  0.00     0.198 A 
ATOM     64  C   UNL A   1      43.799  33.967  33.742  1.00  0.00     0.198 A 
ATOM     65  F   UNL A   1      43.372  31.662  33.949  1.00  0.00    -0.203 F 
ATOM     66  F   UNL A   1      44.840  35.931  30.880  1.00  0.00    -0.200 F 
ATOM     67  C   UNL A   1      44.172  35.056  32.969  1.00  0.00     0.200 A 
ATOM     68  F   UNL A   1      43.516  34.135  35.041  1.00  0.00    -0.200 F 
ATOM     69  F   UNL A   1      44.267  36.273  33.524  1.00  0.00    -0.200 F 
ENDBRANCH  45  59
BRANCH  46  70
ATOM     70  C   UNL A   1      42.838  23.653  27.346  1.00  0.00     0.064 A 
ATOM     71  C   UNL A   1      43.219  23.509  26.004  1.00  0.00     0.173 A 
ATOM     72  C   UNL A   1      42.316  22.530  28.002  1.00  0.00     0.173 A 
ATOM     73  F   UNL A   1      43.705  24.561  25.329  1.00  0.00    -0.203 F 
ATOM     74  C   UNL A   1      43.069  22.293  25.341  1.00  0.00     0.198 A 
ATOM     75  C   UNL A   1      42.190  21.308  27.344  1.00  0.00     0.198 A 
ATOM     76  F   UNL A   1      41.943  22.617  29.287  1.00  0.00    -0.203 F 
ATOM     77  F   UNL A   1      43.406  22.192  24.048  1.00  0.00    -0.200 F 
ATOM     78  C   UNL A   1      42.560  21.193  26.013  1.00  0.00     0.200 A 
ATOM     79  F   UNL A   1      41.709  20.243  28.000  1.00  0.00    -0.200 F 
ATOM     80  F   UNL A   1      42.421  20.022  25.376  1.00  0.00    -0.200 F 
ENDBRANCH  46  70
BRANCH  58  81
ATOM     81  C   UNL A   1      48.175  26.769  30.554  1.00  0.00     0.064 A 
ATOM     82  C   UNL A   1      48.494  25.952  31.648  1.00  0.00     0.173 A 
ATOM     83  C   UNL A   1      49.210  27.143  29.685  1.00  0.00     0.173 A 
ATOM     84  F   UNL A   1      47.541  25.582  32.516  1.00  0.00    -0.203 F 
ATOM     85  C   UNL A   1      49.806  25.543  31.874  1.00  0.00     0.198 A 
ATOM     86  C   UNL A   1      50.515  26.711  29.900  1.00  0.00     0.198 A 
ATOM     87  F   UNL A   1      48.953  27.919  28.621  1.00  0.00    -0.203 F 
ATOM     88  F   UNL A   1      50.098  24.797  32.949  1.00  0.00    -0.200 F 
ATOM     89  C   UNL A   1      50.814  25.917  30.997  1.00  0.00     0.200 A 
ATOM     90  F   UNL A   1      51.486  27.065  29.046  1.00  0.00    -0.200 F 
ATOM     91  F   UNL A   1      52.074  25.518  31.213  1.00  0.00    -0.200 F 
ENDBRANCH  58  81
ENDBRANCH  32  33
ENDBRANCH  24  27
ENDBRANCH  22  23
ENDBRANCH  21  22
ENDBRANCH   1  21
TORSDOF 13
ENDMDL
MODEL 2
REMARK VINA RESULT:     -10.7      5.124     10.710
REMARK SMILES CC1(C)C(CNC(=O)[C@H]2C[C@H]2C(=O)NCCCNC(=O)c2ccc(-c3c4nc(c(-c5c(F)c(F)c(F)c(F)c5F)c5ccc([nH]5)c(-c5c(F)c(F)c(F)c(F)c5F)c5nc(c(-c6c(F)c(F)c(F)c(F)c6F)c6ccc3[nH]6)C=C5)C=C4)cc2)C1(C)C
REMARK SMILES IDX 15 1 14 2 12 3 13 4 11 6 9 7 10 8 7 9 6 10 8 12 5 13 4 14
REMARK SMILES IDX 1 15 2 16 3 17 84 18 85 19 86 20 16 21 17 22 18 23 19 24
REMARK SMILES IDX 20 26 21 27 22 28 83 29 23 30 82 31 24 32 25 33 26 34 76 35
REMARK SMILES IDX 27 36 81 37 75 38 77 39 28 40 80 41 74 42 73 43 29 45 61 46
REMARK SMILES IDX 41 47 60 48 42 49 45 50 59 51 78 52 43 53 44 54 58 56 79 57
REMARK SMILES IDX 46 58 30 59 31 60 39 61 32 62 33 63 37 64 40 65 34 66 35 67
REMARK SMILES IDX 38 68 36 69 62 70 63 71 71 72 64 73 65 74 69 75 72 76 66 77
REMARK SMILES IDX 67 78 70 79 68 80 47 81 48 82 56 83 49 84 50 85 54 86 57 87
REMARK SMILES IDX 51 88 52 89 55 90 53 91
REMARK H PARENT 14 5 6 11 18 25 77 44 45 55
REMARK Flexibility Score: inf
ROOT
ATOM      1  C   UNL A   1      37.438  20.699  24.546  1.00  0.00     0.117 C 
ENDROOT
BRANCH   1   2
ATOM      2  N   UNL A   1      37.602  21.838  25.419  1.00  0.00    -0.356 N 
ATOM      3  C   UNL A   1      36.892  22.989  25.618  1.00  0.00     0.223 C 
ATOM      4  O   UNL A   1      37.392  23.806  26.391  1.00  0.00    -0.275 OA
ATOM      5  H   UNL A   1      38.396  21.770  25.997  1.00  0.00     0.163 HD
BRANCH   3   6
ATOM      6  C   UNL A   1      35.542  23.303  25.079  1.00  0.00     0.091 C 
ATOM      7  C   UNL A   1      34.197  22.748  25.500  1.00  0.00     0.091 C 
ATOM      8  C   UNL A   1      34.538  24.196  25.745  1.00  0.00     0.028 C 
BRANCH   7   9
ATOM      9  C   UNL A   1      34.082  21.627  26.456  1.00  0.00     0.223 C 
ATOM     10  N   UNL A   1      34.205  20.328  26.033  1.00  0.00    -0.356 N 
ATOM     11  H   UNL A   1      34.473  19.672  26.716  1.00  0.00     0.163 HD
ATOM     12  O   UNL A   1      34.005  21.869  27.657  1.00  0.00    -0.275 OA
BRANCH  10  13
ATOM     13  C   UNL A   1      33.990  19.811  24.708  1.00  0.00     0.120 C 
BRANCH  13  14
ATOM     14  C   UNL A   1      34.357  18.376  24.571  1.00  0.00     0.021 C 
ATOM     15  C   UNL A   1      34.404  15.917  25.438  1.00  0.00     0.012 C 
ATOM     16  C   UNL A   1      33.598  17.134  25.030  1.00  0.00    -0.025 C 
ATOM     17  C   UNL A   1      32.367  17.296  25.893  1.00  0.00     0.012 C 
ATOM     18  C   UNL A   1      33.596  17.540  23.540  1.00  0.00    -0.025 C 
ATOM     19  C   UNL A   1      34.471  16.867  22.504  1.00  0.00     0.012 C 
ATOM     20  C   UNL A   1      32.290  18.014  22.926  1.00  0.00     0.012 C 
ENDBRANCH  13  14
ENDBRANCH  10  13
ENDBRANCH   7   9
ENDBRANCH   3   6
ENDBRANCH   1   2
BRANCH   1  21
ATOM     21  C   UNL A   1      38.316  19.529  24.967  1.00  0.00     0.042 C 
BRANCH  21  22
ATOM     22  C   UNL A   1      39.327  19.895  26.042  1.00  0.00     0.118 C 
BRANCH  22  23
ATOM     23  N   UNL A   1      40.481  19.004  26.029  1.00  0.00    -0.352 N 
ATOM     24  C   UNL A   1      41.826  19.276  26.076  1.00  0.00     0.251 C 
ATOM     25  H   UNL A   1      40.259  18.046  25.977  1.00  0.00     0.163 HD
ATOM     26  O   UNL A   1      42.627  18.382  25.811  1.00  0.00    -0.269 OA
BRANCH  24  27
ATOM     27  C   UNL A   1      42.328  20.626  26.425  1.00  0.00     0.039 A 
ATOM     28  C   UNL A   1      42.679  21.502  25.391  1.00  0.00     0.014 A 
ATOM     29  C   UNL A   1      42.510  21.020  27.752  1.00  0.00     0.014 A 
ATOM     30  C   UNL A   1      43.150  22.784  25.689  1.00  0.00     0.010 A 
ATOM     31  C   UNL A   1      42.891  22.326  28.048  1.00  0.00     0.010 A 
ATOM     32  C   UNL A   1      43.226  23.220  27.020  1.00  0.00    -0.014 A 
BRANCH  32  33
ATOM     33  C   UNL A   1      43.669  24.595  27.368  1.00  0.00     0.031 A 
ATOM     34  C   UNL A   1      42.669  25.611  27.848  1.00  0.00     0.074 A 
ATOM     35  C   UNL A   1      44.953  24.952  27.175  1.00  0.00     0.049 A 
ATOM     36  N   UNL A   1      42.834  26.888  28.088  1.00  0.00    -0.248 NA
ATOM     37  C   UNL A   1      41.292  25.136  28.054  1.00  0.00     0.031 C 
ATOM     38  C   UNL A   1      46.010  24.075  26.666  1.00  0.00     0.029 A 
ATOM     39  N   UNL A   1      45.585  26.155  27.367  1.00  0.00    -0.354 N 
ATOM     40  C   UNL A   1      41.580  27.371  28.439  1.00  0.00     0.074 A 
ATOM     41  C   UNL A   1      40.656  26.262  28.343  1.00  0.00     0.031 C 
ATOM     42  C   UNL A   1      47.160  24.764  26.604  1.00  0.00     0.029 A 
ATOM     43  C   UNL A   1      46.916  26.139  27.030  1.00  0.00     0.049 A 
ATOM     44  H   UNL A   1      45.127  26.955  27.714  1.00  0.00     0.167 HD
ATOM     45  C   UNL A   1      41.233  28.621  28.826  1.00  0.00     0.037 A 
ATOM     46  C   UNL A   1      47.833  27.124  27.052  1.00  0.00     0.037 A 
ATOM     47  C   UNL A   1      42.161  29.712  28.969  1.00  0.00     0.049 A 
ATOM     48  C   UNL A   1      47.430  28.496  27.515  1.00  0.00     0.074 A 
ATOM     49  C   UNL A   1      41.922  30.995  29.427  1.00  0.00     0.029 A 
ATOM     50  N   UNL A   1      43.511  29.643  28.656  1.00  0.00    -0.354 N 
ATOM     51  N   UNL A   1      46.254  28.925  27.902  1.00  0.00    -0.248 NA
ATOM     52  C   UNL A   1      48.484  29.521  27.547  1.00  0.00     0.031 C 
ATOM     53  C   UNL A   1      43.121  31.714  29.363  1.00  0.00     0.029 A 
ATOM     54  C   UNL A   1      44.115  30.866  28.901  1.00  0.00     0.049 A 
ATOM     55  H   UNL A   1      43.972  28.844  28.312  1.00  0.00     0.167 HD
ATOM     56  C   UNL A   1      46.429  30.259  28.245  1.00  0.00     0.074 A 
ATOM     57  C   UNL A   1      47.829  30.565  28.034  1.00  0.00     0.031 C 
ATOM     58  C   UNL A   1      45.511  31.149  28.693  1.00  0.00     0.037 A 
BRANCH  45  59
ATOM     59  C   UNL A   1      39.787  28.877  29.135  1.00  0.00     0.064 A 
ATOM     60  C   UNL A   1      39.265  28.685  30.423  1.00  0.00     0.173 A 
ATOM     61  C   UNL A   1      38.921  29.352  28.139  1.00  0.00     0.173 A 
ATOM     62  F   UNL A   1      40.049  28.219  31.406  1.00  0.00    -0.203 F 
ATOM     63  C   UNL A   1      37.922  28.931  30.696  1.00  0.00     0.198 A 
ATOM     64  C   UNL A   1      37.584  29.625  28.423  1.00  0.00     0.198 A 
ATOM     65  F   UNL A   1      39.370  29.559  26.892  1.00  0.00    -0.203 F 
ATOM     66  F   UNL A   1      37.435  28.695  31.922  1.00  0.00    -0.200 F 
ATOM     67  C   UNL A   1      37.085  29.407  29.698  1.00  0.00     0.200 A 
ATOM     68  F   UNL A   1      36.779  30.096  27.461  1.00  0.00    -0.200 F 
ATOM     69  F   UNL A   1      35.794  29.650  29.964  1.00  0.00    -0.200 F 
ENDBRANCH  45  59
BRANCH  46  70
ATOM     70  C   UNL A   1      49.233  26.838  26.648  1.00  0.00     0.064 A 
ATOM     71  C   UNL A   1      49.644  27.013  25.319  1.00  0.00     0.173 A 
ATOM     72  C   UNL A   1      50.186  26.392  27.574  1.00  0.00     0.173 A 
ATOM     73  F   UNL A   1      48.762  27.418  24.393  1.00  0.00    -0.203 F 
ATOM     74  C   UNL A   1      50.953  26.738  24.929  1.00  0.00     0.198 A 
ATOM     75  C   UNL A   1      51.501  26.141  27.188  1.00  0.00     0.198 A 
ATOM     76  F   UNL A   1      49.843  26.215  28.858  1.00  0.00    -0.203 F 
ATOM     77  F   UNL A   1      51.310  26.877  23.646  1.00  0.00    -0.200 F 
ATOM     78  C   UNL A   1      51.881  26.308  25.865  1.00  0.00     0.200 A 
ATOM     79  F   UNL A   1      52.399  25.738  28.097  1.00  0.00    -0.200 F 
ATOM     80  F   UNL A   1      53.142  26.048  25.490  1.00  0.00    -0.200 F 
ENDBRANCH  46  70
BRANCH  58  81
ATOM     81  C   UNL A   1      45.998  32.530  29.016  1.00  0.00     0.064 A 
ATOM     82  C   UNL A   1      45.980  33.555  28.060  1.00  0.00     0.173 A 
ATOM     83  C   UNL A   1      46.449  32.839  30.308  1.00  0.00     0.173 A 
ATOM     84  F   UNL A   1      45.573  33.304  26.807  1.00  0.00    -0.203 F 
ATOM     85  C   UNL A   1      46.417  34.838  28.381  1.00  0.00     0.198 A 
ATOM     86  C   UNL A   1      46.860  34.129  30.632  1.00  0.00     0.198 A 
ATOM     87  F   UNL A   1      46.479  31.893  31.259  1.00  0.00    -0.203 F 
ATOM     88  F   UNL A   1      46.431  35.794  27.441  1.00  0.00    -0.200 F 
ATOM     89  C   UNL A   1      46.849  35.126  29.667  1.00  0.00     0.200 A 
ATOM     90  F   UNL A   1      47.268  34.407  31.878  1.00  0.00    -0.200 F 
ATOM     91  F   UNL A   1      47.264  36.361  29.976  1.00  0.00    -0.200 F 
ENDBRANCH  58  81
ENDBRANCH  32  33
ENDBRANCH  24  27
ENDBRANCH  22  23
ENDBRANCH  21  22
ENDBRANCH   1  21
TORSDOF 13
ENDMDL
MODEL 3
REMARK VINA RESULT:     -10.7      3.039      6.111
REMARK SMILES CC1(C)C(CNC(=O)[C@H]2C[C@H]2C(=O)NCCCNC(=O)c2ccc(-c3c4nc(c(-c5c(F)c(F)c(F)c(F)c5F)c5ccc([nH]5)c(-c5c(F)c(F)c(F)c(F)c5F)c5nc(c(-c6c(F)c(F)c(F)c(F)c6F)c6ccc3[nH]6)C=C5)C=C4)cc2)C1(C)C
REMARK SMILES IDX 15 1 14 2 12 3 13 4 11 6 9 7 10 8 7 9 6 10 8 12 5 13 4 14
REMARK SMILES IDX 1 15 2 16 3 17 84 18 85 19 86 20 16 21 17 22 18 23 19 24
REMARK SMILES IDX 20 26 21 27 22 28 83 29 23 30 82 31 24 32 25 33 26 34 76 35
REMARK SMILES IDX 27 36 81 37 75 38 77 39 28 40 80 41 74 42 73 43 29 45 61 46
REMARK SMILES IDX 41 47 60 48 42 49 45 50 59 51 78 52 43 53 44 54 58 56 79 57
REMARK SMILES IDX 46 58 30 59 31 60 39 61 32 62 33 63 37 64 40 65 34 66 35 67
REMARK SMILES IDX 38 68 36 69 62 70 63 71 71 72 64 73 65 74 69 75 72 76 66 77
REMARK SMILES IDX 67 78 70 79 68 80 47 81 48 82 56 83 49 84 50 85 54 86 57 87
REMARK SMILES IDX 51 88 52 89 55 90 53 91
REMARK H PARENT 14 5 6 11 18 25 77 44 45 55
REMARK Flexibility Score: inf
ROOT
ATOM      1  C   UNL A   1      31.562  26.852  26.392  1.00  0.00     0.117 C 
ENDROOT
BRANCH   1   2
ATOM      2  N   UNL A   1      31.023  27.346  25.147  1.00  0.00    -0.356 N 
ATOM      3  C   UNL A   1      31.559  28.013  24.081  1.00  0.00     0.223 C 
ATOM      4  O   UNL A   1      30.763  28.377  23.215  1.00  0.00    -0.275 OA
ATOM      5  H   UNL A   1      30.061  27.164  25.043  1.00  0.00     0.163 HD
BRANCH   3   6
ATOM      6  C   UNL A   1      33.004  28.249  23.818  1.00  0.00     0.091 C 
ATOM      7  C   UNL A   1      33.964  27.430  22.981  1.00  0.00     0.091 C 
ATOM      8  C   UNL A   1      33.562  28.817  22.547  1.00  0.00     0.028 C 
BRANCH   7   9
ATOM      9  C   UNL A   1      33.584  26.115  22.422  1.00  0.00     0.223 C 
ATOM     10  N   UNL A   1      33.311  25.054  23.248  1.00  0.00    -0.356 N 
ATOM     11  H   UNL A   1      32.740  24.346  22.871  1.00  0.00     0.163 HD
ATOM     12  O   UNL A   1      33.386  26.011  21.215  1.00  0.00    -0.275 OA
BRANCH  10  13
ATOM     13  C   UNL A   1      33.760  24.854  24.600  1.00  0.00     0.120 C 
BRANCH  13  14
ATOM     14  C   UNL A   1      35.175  24.403  24.687  1.00  0.00     0.021 C 
ATOM     15  C   UNL A   1      37.280  23.669  26.039  1.00  0.00     0.012 C 
ATOM     16  C   UNL A   1      35.826  23.441  25.676  1.00  0.00    -0.025 C 
ATOM     17  C   UNL A   1      35.030  22.953  26.866  1.00  0.00     0.012 C 
ATOM     18  C   UNL A   1      35.498  22.974  24.241  1.00  0.00    -0.025 C 
ATOM     19  C   UNL A   1      36.542  22.874  23.151  1.00  0.00     0.012 C 
ATOM     20  C   UNL A   1      34.414  21.925  24.058  1.00  0.00     0.012 C 
ENDBRANCH  13  14
ENDBRANCH  10  13
ENDBRANCH   7   9
ENDBRANCH   3   6
ENDBRANCH   1   2
BRANCH   1  21
ATOM     21  C   UNL A   1      31.840  27.980  27.378  1.00  0.00     0.042 C 
BRANCH  21  22
ATOM     22  C   UNL A   1      33.281  28.464  27.342  1.00  0.00     0.118 C 
BRANCH  22  23
ATOM     23  N   UNL A   1      33.365  29.920  27.346  1.00  0.00    -0.352 N 
ATOM     24  C   UNL A   1      34.322  30.761  27.857  1.00  0.00     0.251 C 
ATOM     25  H   UNL A   1      32.609  30.376  26.910  1.00  0.00     0.163 HD
ATOM     26  O   UNL A   1      34.071  31.960  27.959  1.00  0.00    -0.269 OA
BRANCH  24  27
ATOM     27  C   UNL A   1      35.641  30.252  28.299  1.00  0.00     0.039 A 
ATOM     28  C   UNL A   1      36.706  30.262  27.391  1.00  0.00     0.014 A 
ATOM     29  C   UNL A   1      35.829  29.714  29.574  1.00  0.00     0.014 A 
ATOM     30  C   UNL A   1      37.965  29.793  27.781  1.00  0.00     0.010 A 
ATOM     31  C   UNL A   1      37.101  29.333  29.992  1.00  0.00     0.010 A 
ATOM     32  C   UNL A   1      38.182  29.357  29.097  1.00  0.00    -0.014 A 
BRANCH  32  33
ATOM     33  C   UNL A   1      39.519  28.906  29.560  1.00  0.00     0.031 A 
ATOM     34  C   UNL A   1      40.317  29.758  30.508  1.00  0.00     0.074 A 
ATOM     35  C   UNL A   1      40.050  27.772  29.064  1.00  0.00     0.049 A 
ATOM     36  N   UNL A   1      41.545  29.599  30.934  1.00  0.00    -0.248 NA
ATOM     37  C   UNL A   1      39.658  30.970  31.020  1.00  0.00     0.031 C 
ATOM     38  C   UNL A   1      39.400  26.882  28.099  1.00  0.00     0.029 A 
ATOM     39  N   UNL A   1      41.268  27.180  29.291  1.00  0.00    -0.354 N 
ATOM     40  C   UNL A   1      41.814  30.702  31.733  1.00  0.00     0.074 A 
ATOM     41  C   UNL A   1      40.638  31.544  31.702  1.00  0.00     0.031 C 
ATOM     42  C   UNL A   1      40.216  25.852  27.832  1.00  0.00     0.029 A 
ATOM     43  C   UNL A   1      41.462  26.026  28.573  1.00  0.00     0.049 A 
ATOM     44  H   UNL A   1      41.939  27.550  29.909  1.00  0.00     0.167 HD
ATOM     45  C   UNL A   1      42.932  30.978  32.445  1.00  0.00     0.037 A 
ATOM     46  C   UNL A   1      42.528  25.206  28.512  1.00  0.00     0.037 A 
ATOM     47  C   UNL A   1      44.083  30.117  32.514  1.00  0.00     0.049 A 
ATOM     48  C   UNL A   1      43.746  25.520  29.335  1.00  0.00     0.074 A 
ATOM     49  C   UNL A   1      45.233  30.270  33.267  1.00  0.00     0.029 A 
ATOM     50  N   UNL A   1      44.223  28.934  31.803  1.00  0.00    -0.354 N 
ATOM     51  N   UNL A   1      43.965  26.534  30.134  1.00  0.00    -0.248 NA
ATOM     52  C   UNL A   1      44.865  24.569  29.251  1.00  0.00     0.031 C 
ATOM     53  C   UNL A   1      46.086  29.196  32.988  1.00  0.00     0.029 A 
ATOM     54  C   UNL A   1      45.449  28.354  32.092  1.00  0.00     0.049 A 
ATOM     55  H   UNL A   1      43.553  28.561  31.187  1.00  0.00     0.167 HD
ATOM     56  C   UNL A   1      45.232  26.336  30.665  1.00  0.00     0.074 A 
ATOM     57  C   UNL A   1      45.729  25.095  30.108  1.00  0.00     0.031 C 
ATOM     58  C   UNL A   1      45.922  27.113  31.534  1.00  0.00     0.037 A 
BRANCH  45  59
ATOM     59  C   UNL A   1      42.964  32.264  33.218  1.00  0.00     0.064 A 
ATOM     60  C   UNL A   1      43.455  33.450  32.654  1.00  0.00     0.173 A 
ATOM     61  C   UNL A   1      42.465  32.318  34.529  1.00  0.00     0.173 A 
ATOM     62  F   UNL A   1      43.955  33.448  31.408  1.00  0.00    -0.203 F 
ATOM     63  C   UNL A   1      43.473  34.637  33.381  1.00  0.00     0.198 A 
ATOM     64  C   UNL A   1      42.459  33.514  35.244  1.00  0.00     0.198 A 
ATOM     65  F   UNL A   1      41.978  31.214  35.114  1.00  0.00    -0.203 F 
ATOM     66  F   UNL A   1      43.991  35.747  32.837  1.00  0.00    -0.200 F 
ATOM     67  C   UNL A   1      42.969  34.669  34.672  1.00  0.00     0.200 A 
ATOM     68  F   UNL A   1      41.961  33.546  36.487  1.00  0.00    -0.200 F 
ATOM     69  F   UNL A   1      42.982  35.814  35.370  1.00  0.00    -0.200 F 
ENDBRANCH  45  59
BRANCH  46  70
ATOM     70  C   UNL A   1      42.478  23.993  27.659  1.00  0.00     0.064 A 
ATOM     71  C   UNL A   1      42.028  22.770  28.178  1.00  0.00     0.173 A 
ATOM     72  C   UNL A   1      42.869  24.027  26.313  1.00  0.00     0.173 A 
ATOM     73  F   UNL A   1      41.663  22.685  29.466  1.00  0.00    -0.203 F 
ATOM     74  C   UNL A   1      41.987  21.624  27.388  1.00  0.00     0.198 A 
ATOM     75  C   UNL A   1      42.803  22.885  25.516  1.00  0.00     0.198 A 
ATOM     76  F   UNL A   1      43.300  25.173  25.768  1.00  0.00    -0.203 F 
ATOM     77  F   UNL A   1      41.590  20.460  27.919  1.00  0.00    -0.200 F 
ATOM     78  C   UNL A   1      42.369  21.684  26.056  1.00  0.00     0.200 A 
ATOM     79  F   UNL A   1      43.161  22.949  24.227  1.00  0.00    -0.200 F 
ATOM     80  F   UNL A   1      42.324  20.582  25.295  1.00  0.00    -0.200 F 
ENDBRANCH  46  70
BRANCH  58  81
ATOM     81  C   UNL A   1      47.275  26.628  31.961  1.00  0.00     0.064 A 
ATOM     82  C   UNL A   1      48.443  27.050  31.311  1.00  0.00     0.173 A 
ATOM     83  C   UNL A   1      47.405  25.765  33.059  1.00  0.00     0.173 A 
ATOM     84  F   UNL A   1      48.369  27.862  30.247  1.00  0.00    -0.203 F 
ATOM     85  C   UNL A   1      49.694  26.607  31.732  1.00  0.00     0.198 A 
ATOM     86  C   UNL A   1      48.658  25.344  33.493  1.00  0.00     0.198 A 
ATOM     87  F   UNL A   1      46.316  25.338  33.717  1.00  0.00    -0.203 F 
ATOM     88  F   UNL A   1      50.797  26.988  31.072  1.00  0.00    -0.200 F 
ATOM     89  C   UNL A   1      49.801  25.760  32.827  1.00  0.00     0.200 A 
ATOM     90  F   UNL A   1      48.761  24.534  34.556  1.00  0.00    -0.200 F 
ATOM     91  F   UNL A   1      51.006  25.339  33.234  1.00  0.00    -0.200 F 
ENDBRANCH  58  81
ENDBRANCH  32  33
ENDBRANCH  24  27
ENDBRANCH  22  23
ENDBRANCH  21  22
ENDBRANCH   1  21
TORSDOF 13
ENDMDL
