MODEL 1
REMARK VINA RESULT:     -11.9      0.000      0.000
REMARK SMILES CC[C@@H](C)S(=O)(=O)c1cc(C(=O)NCCCNC(=O)c2ccc(-c3c4nc(c(-c5c(F)c(F)c(F)c(F)c5F)c5ccc([nH]5)c(-c5c(F)c(F)c(F)c(F)c5F)c5nc(c(-c6c(F)c(F)c(F)c(F)c6F)c6ccc3[nH]6)C=C5)C=C4)cc2)c(C)cc1C
REMARK SMILES IDX 14 1 13 2 11 3 12 4 10 6 8 7 9 8 86 9 85 10 87 11 83 12
REMARK SMILES IDX 84 13 5 14 6 15 7 16 3 17 4 18 2 19 1 20 15 21 16 22 17 23
REMARK SMILES IDX 18 24 19 26 20 27 21 28 82 29 22 30 81 31 23 32 24 33 25 34
REMARK SMILES IDX 75 35 26 36 80 37 74 38 76 39 27 40 79 41 73 42 72 43 28 45
REMARK SMILES IDX 60 46 40 47 59 48 41 49 44 50 58 51 77 52 42 53 43 54 57 56
REMARK SMILES IDX 78 57 45 58 29 59 30 60 38 61 31 62 32 63 36 64 39 65 33 66
REMARK SMILES IDX 34 67 37 68 35 69 61 70 62 71 70 72 63 73 64 74 68 75 71 76
REMARK SMILES IDX 65 77 66 78 69 79 67 80 46 81 47 82 55 83 48 84 49 85 53 86
REMARK SMILES IDX 56 87 50 88 51 89 54 90 52 91
REMARK H PARENT 13 5 17 25 76 44 44 55
REMARK Flexibility Score: inf
ROOT
ATOM      1  C   UNL A   1      37.184  20.551  24.645  1.00  0.00     0.118 C 
ENDROOT
BRANCH   1   2
ATOM      2  N   UNL A   1      35.822  20.069  24.767  1.00  0.00    -0.352 N 
ATOM      3  C   UNL A   1      34.632  20.663  25.097  1.00  0.00     0.251 C 
ATOM      4  O   UNL A   1      33.658  19.913  25.171  1.00  0.00    -0.269 OA
ATOM      5  H   UNL A   1      35.734  19.108  24.571  1.00  0.00     0.163 HD
BRANCH   3   6
ATOM      6  C   UNL A   1      34.413  22.133  25.276  1.00  0.00     0.044 A 
ATOM      7  C   UNL A   1      33.809  24.205  24.023  1.00  0.00     0.071 A 
ATOM      8  C   UNL A   1      34.152  22.828  24.077  1.00  0.00     0.034 A 
ATOM      9  C   UNL A   1      33.871  24.955  25.201  1.00  0.00    -0.032 A 
ATOM     10  C   UNL A   1      34.105  24.247  26.398  1.00  0.00     0.009 A 
ATOM     11  C   UNL A   1      33.610  26.409  25.433  1.00  0.00     0.046 C 
ATOM     12  C   UNL A   1      34.275  22.852  26.465  1.00  0.00    -0.038 A 
ATOM     13  C   UNL A   1      34.169  22.268  27.836  1.00  0.00     0.045 C 
BRANCH   7  14
ATOM     14  S   UNL A   1      33.212  24.669  22.392  1.00  0.00     0.181 S 
ATOM     15  O   UNL A   1      33.278  23.438  21.616  1.00  0.00    -0.223 OA
ATOM     16  O   UNL A   1      34.028  25.804  22.001  1.00  0.00    -0.223 OA
BRANCH  14  17
ATOM     17  C   UNL A   1      31.520  25.212  22.308  1.00  0.00     0.110 C 
ATOM     18  C   UNL A   1      31.420  26.707  22.001  1.00  0.00     0.025 C 
BRANCH  17  19
ATOM     19  C   UNL A   1      30.641  24.573  23.399  1.00  0.00     0.016 C 
ATOM     20  C   UNL A   1      30.106  25.511  24.469  1.00  0.00     0.005 C 
ENDBRANCH  17  19
ENDBRANCH  14  17
ENDBRANCH   7  14
ENDBRANCH   3   6
ENDBRANCH   1   2
BRANCH   1  21
ATOM     21  C   UNL A   1      38.167  19.433  25.001  1.00  0.00     0.042 C 
BRANCH  21  22
ATOM     22  C   UNL A   1      39.164  19.791  26.093  1.00  0.00     0.118 C 
BRANCH  22  23
ATOM     23  N   UNL A   1      40.321  18.916  26.070  1.00  0.00    -0.352 N 
ATOM     24  C   UNL A   1      41.663  19.210  26.031  1.00  0.00     0.251 C 
ATOM     25  H   UNL A   1      40.111  17.954  26.084  1.00  0.00     0.163 HD
ATOM     26  O   UNL A   1      42.457  18.313  25.751  1.00  0.00    -0.269 OA
BRANCH  24  27
ATOM     27  C   UNL A   1      42.181  20.575  26.305  1.00  0.00     0.039 A 
ATOM     28  C   UNL A   1      42.299  20.990  27.637  1.00  0.00     0.014 A 
ATOM     29  C   UNL A   1      42.471  21.483  25.283  1.00  0.00     0.014 A 
ATOM     30  C   UNL A   1      42.736  22.285  27.940  1.00  0.00     0.010 A 
ATOM     31  C   UNL A   1      42.994  22.742  25.584  1.00  0.00     0.010 A 
ATOM     32  C   UNL A   1      43.109  23.167  26.915  1.00  0.00    -0.014 A 
BRANCH  32  33
ATOM     33  C   UNL A   1      43.575  24.548  27.213  1.00  0.00     0.031 A 
ATOM     34  C   UNL A   1      42.610  25.570  27.756  1.00  0.00     0.074 A 
ATOM     35  C   UNL A   1      44.846  24.904  26.946  1.00  0.00     0.049 A 
ATOM     36  N   UNL A   1      42.799  26.843  28.004  1.00  0.00    -0.248 NA
ATOM     37  C   UNL A   1      41.240  25.107  28.028  1.00  0.00     0.031 C 
ATOM     38  C   UNL A   1      45.868  24.025  26.379  1.00  0.00     0.029 A 
ATOM     39  N   UNL A   1      45.493  26.105  27.105  1.00  0.00    -0.354 N 
ATOM     40  C   UNL A   1      41.571  27.332  28.433  1.00  0.00     0.074 A 
ATOM     41  C   UNL A   1      40.632  26.234  28.368  1.00  0.00     0.031 C 
ATOM     42  C   UNL A   1      47.018  24.708  26.256  1.00  0.00     0.029 A 
ATOM     43  C   UNL A   1      46.805  26.082  26.701  1.00  0.00     0.049 A 
ATOM     44  H   UNL A   1      45.057  26.907  27.475  1.00  0.00     0.167 HD
ATOM     45  C   UNL A   1      41.259  28.578  28.865  1.00  0.00     0.037 A 
ATOM     46  C   UNL A   1      47.731  27.060  26.685  1.00  0.00     0.037 A 
ATOM     47  C   UNL A   1      42.204  29.659  28.972  1.00  0.00     0.049 A 
ATOM     48  C   UNL A   1      47.366  28.430  27.189  1.00  0.00     0.074 A 
ATOM     49  C   UNL A   1      42.002  30.936  29.465  1.00  0.00     0.029 A 
ATOM     50  N   UNL A   1      43.532  29.586  28.581  1.00  0.00    -0.354 N 
ATOM     51  N   UNL A   1      46.218  28.862  27.651  1.00  0.00    -0.248 NA
ATOM     52  C   UNL A   1      48.428  29.447  27.175  1.00  0.00     0.031 C 
ATOM     53  C   UNL A   1      43.199  31.649  29.337  1.00  0.00     0.029 A 
ATOM     54  C   UNL A   1      44.158  30.801  28.805  1.00  0.00     0.049 A 
ATOM     55  H   UNL A   1      43.967  28.789  28.200  1.00  0.00     0.167 HD
ATOM     56  C   UNL A   1      46.425  30.188  28.006  1.00  0.00     0.074 A 
ATOM     57  C   UNL A   1      47.812  30.487  27.719  1.00  0.00     0.031 C 
ATOM     58  C   UNL A   1      45.542  31.079  28.522  1.00  0.00     0.037 A 
BRANCH  45  59
ATOM     59  C   UNL A   1      39.835  28.840  29.262  1.00  0.00     0.064 A 
ATOM     60  C   UNL A   1      39.393  28.660  30.582  1.00  0.00     0.173 A 
ATOM     61  C   UNL A   1      38.908  29.311  28.320  1.00  0.00     0.173 A 
ATOM     62  F   UNL A   1      40.237  28.201  31.519  1.00  0.00    -0.203 F 
ATOM     63  C   UNL A   1      38.071  28.913  30.937  1.00  0.00     0.198 A 
ATOM     64  C   UNL A   1      37.594  29.592  28.685  1.00  0.00     0.198 A 
ATOM     65  F   UNL A   1      39.279  29.508  27.045  1.00  0.00    -0.203 F 
ATOM     66  F   UNL A   1      37.661  28.686  32.192  1.00  0.00    -0.200 F 
ATOM     67  C   UNL A   1      37.174  29.385  29.990  1.00  0.00     0.200 A 
ATOM     68  F   UNL A   1      36.732  30.060  27.772  1.00  0.00    -0.200 F 
ATOM     69  F   UNL A   1      35.903  29.633  30.334  1.00  0.00    -0.200 F 
ENDBRANCH  45  59
BRANCH  46  70
ATOM     70  C   UNL A   1      49.105  26.769  26.199  1.00  0.00     0.064 A 
ATOM     71  C   UNL A   1      49.452  26.985  24.857  1.00  0.00     0.173 A 
ATOM     72  C   UNL A   1      50.096  26.278  27.059  1.00  0.00     0.173 A 
ATOM     73  F   UNL A   1      48.532  27.434  23.992  1.00  0.00    -0.203 F 
ATOM     74  C   UNL A   1      50.735  26.704  24.392  1.00  0.00     0.198 A 
ATOM     75  C   UNL A   1      51.387  26.022  26.598  1.00  0.00     0.198 A 
ATOM     76  F   UNL A   1      49.816  26.059  28.352  1.00  0.00    -0.203 F 
ATOM     77  F   UNL A   1      51.029  26.882  23.097  1.00  0.00    -0.200 F 
ATOM     78  C   UNL A   1      51.703  26.230  25.264  1.00  0.00     0.200 A 
ATOM     79  F   UNL A   1      52.323  25.578  27.447  1.00  0.00    -0.200 F 
ATOM     80  F   UNL A   1      52.939  25.967  24.818  1.00  0.00    -0.200 F 
ENDBRANCH  46  70
BRANCH  58  81
ATOM     81  C   UNL A   1      46.058  32.452  28.839  1.00  0.00     0.064 A 
ATOM     82  C   UNL A   1      46.635  32.751  30.082  1.00  0.00     0.173 A 
ATOM     83  C   UNL A   1      46.010  33.467  27.873  1.00  0.00     0.173 A 
ATOM     84  F   UNL A   1      46.690  31.817  31.044  1.00  0.00    -0.203 F 
ATOM     85  C   UNL A   1      47.127  34.025  30.352  1.00  0.00     0.198 A 
ATOM     86  C   UNL A   1      46.528  34.732  28.138  1.00  0.00     0.198 A 
ATOM     87  F   UNL A   1      45.472  33.229  26.667  1.00  0.00    -0.203 F 
ATOM     88  F   UNL A   1      47.637  34.301  31.561  1.00  0.00    -0.200 F 
ATOM     89  C   UNL A   1      47.080  35.012  29.379  1.00  0.00     0.200 A 
ATOM     90  F   UNL A   1      46.492  35.682  27.192  1.00  0.00    -0.200 F 
ATOM     91  F   UNL A   1      47.560  36.236  29.639  1.00  0.00    -0.200 F 
ENDBRANCH  58  81
ENDBRANCH  32  33
ENDBRANCH  24  27
ENDBRANCH  22  23
ENDBRANCH  21  22
ENDBRANCH   1  21
TORSDOF 13
ENDMDL
MODEL 2
REMARK VINA RESULT:     -11.8      3.312      8.772
REMARK SMILES CC[C@@H](C)S(=O)(=O)c1cc(C(=O)NCCCNC(=O)c2ccc(-c3c4nc(c(-c5c(F)c(F)c(F)c(F)c5F)c5ccc([nH]5)c(-c5c(F)c(F)c(F)c(F)c5F)c5nc(c(-c6c(F)c(F)c(F)c(F)c6F)c6ccc3[nH]6)C=C5)C=C4)cc2)c(C)cc1C
REMARK SMILES IDX 14 1 13 2 11 3 12 4 10 6 8 7 9 8 86 9 85 10 87 11 83 12
REMARK SMILES IDX 84 13 5 14 6 15 7 16 3 17 4 18 2 19 1 20 15 21 16 22 17 23
REMARK SMILES IDX 18 24 19 26 20 27 21 28 82 29 22 30 81 31 23 32 24 33 25 34
REMARK SMILES IDX 75 35 26 36 80 37 74 38 76 39 27 40 79 41 73 42 72 43 28 45
REMARK SMILES IDX 60 46 40 47 59 48 41 49 44 50 58 51 77 52 42 53 43 54 57 56
REMARK SMILES IDX 78 57 45 58 29 59 30 60 38 61 31 62 32 63 36 64 39 65 33 66
REMARK SMILES IDX 34 67 37 68 35 69 61 70 62 71 70 72 63 73 64 74 68 75 71 76
REMARK SMILES IDX 65 77 66 78 69 79 67 80 46 81 47 82 55 83 48 84 49 85 53 86
REMARK SMILES IDX 56 87 50 88 51 89 54 90 52 91
REMARK H PARENT 13 5 17 25 76 44 44 55
REMARK Flexibility Score: inf
ROOT
ATOM      1  C   UNL A   1      34.612  22.303  26.693  1.00  0.00     0.118 C 
ENDROOT
BRANCH   1   2
ATOM      2  N   UNL A   1      33.299  22.545  27.257  1.00  0.00    -0.352 N 
ATOM      3  C   UNL A   1      32.214  23.278  26.855  1.00  0.00     0.251 C 
ATOM      4  O   UNL A   1      31.265  23.313  27.640  1.00  0.00    -0.269 OA
ATOM      5  H   UNL A   1      33.155  22.081  28.115  1.00  0.00     0.163 HD
BRANCH   3   6
ATOM      6  C   UNL A   1      32.061  23.948  25.524  1.00  0.00     0.044 A 
ATOM      7  C   UNL A   1      32.204  26.176  24.409  1.00  0.00     0.071 A 
ATOM      8  C   UNL A   1      32.204  25.351  25.565  1.00  0.00     0.034 A 
ATOM      9  C   UNL A   1      31.906  25.596  23.174  1.00  0.00    -0.032 A 
ATOM     10  C   UNL A   1      31.793  24.190  23.139  1.00  0.00     0.009 A 
ATOM     11  C   UNL A   1      31.795  26.216  21.819  1.00  0.00     0.046 C 
ATOM     12  C   UNL A   1      31.963  23.360  24.262  1.00  0.00    -0.038 A 
ATOM     13  C   UNL A   1      32.142  21.909  23.954  1.00  0.00     0.045 C 
BRANCH   7  14
ATOM     14  S   UNL A   1      32.748  27.845  24.797  1.00  0.00     0.181 S 
ATOM     15  O   UNL A   1      31.611  28.688  24.457  1.00  0.00    -0.223 OA
ATOM     16  O   UNL A   1      33.999  28.010  24.079  1.00  0.00    -0.223 OA
BRANCH  14  17
ATOM     17  C   UNL A   1      33.105  28.169  26.510  1.00  0.00     0.110 C 
ATOM     18  C   UNL A   1      31.835  28.467  27.307  1.00  0.00     0.025 C 
BRANCH  17  19
ATOM     19  C   UNL A   1      34.369  29.029  26.696  1.00  0.00     0.016 C 
ATOM     20  C   UNL A   1      34.223  30.262  27.574  1.00  0.00     0.005 C 
ENDBRANCH  17  19
ENDBRANCH  14  17
ENDBRANCH   7  14
ENDBRANCH   3   6
ENDBRANCH   1   2
BRANCH   1  21
ATOM     21  C   UNL A   1      35.385  23.621  26.588  1.00  0.00     0.042 C 
BRANCH  21  22
ATOM     22  C   UNL A   1      36.505  23.616  25.559  1.00  0.00     0.118 C 
BRANCH  22  23
ATOM     23  N   UNL A   1      37.521  22.629  25.878  1.00  0.00    -0.352 N 
ATOM     24  C   UNL A   1      38.808  22.786  26.332  1.00  0.00     0.251 C 
ATOM     25  H   UNL A   1      37.242  21.694  25.747  1.00  0.00     0.163 HD
ATOM     26  O   UNL A   1      39.573  21.825  26.282  1.00  0.00    -0.269 OA
BRANCH  24  27
ATOM     27  C   UNL A   1      39.304  24.079  26.869  1.00  0.00     0.039 A 
ATOM     28  C   UNL A   1      39.003  24.411  28.196  1.00  0.00     0.014 A 
ATOM     29  C   UNL A   1      39.982  25.008  26.075  1.00  0.00     0.014 A 
ATOM     30  C   UNL A   1      39.408  25.640  28.729  1.00  0.00     0.010 A 
ATOM     31  C   UNL A   1      40.465  26.193  26.631  1.00  0.00     0.010 A 
ATOM     32  C   UNL A   1      40.164  26.535  27.957  1.00  0.00    -0.014 A 
BRANCH  32  33
ATOM     33  C   UNL A   1      40.604  27.848  28.500  1.00  0.00     0.031 A 
ATOM     34  C   UNL A   1      42.050  28.070  28.860  1.00  0.00     0.074 A 
ATOM     35  C   UNL A   1      39.702  28.823  28.723  1.00  0.00     0.049 A 
ATOM     36  N   UNL A   1      42.617  29.111  29.418  1.00  0.00    -0.248 NA
ATOM     37  C   UNL A   1      42.978  26.962  28.583  1.00  0.00     0.031 C 
ATOM     38  C   UNL A   1      38.266  28.722  28.459  1.00  0.00     0.029 A 
ATOM     39  N   UNL A   1      39.857  30.088  29.233  1.00  0.00    -0.354 N 
ATOM     40  C   UNL A   1      43.955  28.772  29.582  1.00  0.00     0.074 A 
ATOM     41  C   UNL A   1      44.108  27.414  29.108  1.00  0.00     0.031 C 
ATOM     42  C   UNL A   1      37.675  29.881  28.791  1.00  0.00     0.029 A 
ATOM     43  C   UNL A   1      38.682  30.795  29.323  1.00  0.00     0.049 A 
ATOM     44  H   UNL A   1      40.728  30.456  29.508  1.00  0.00     0.167 HD
ATOM     45  C   UNL A   1      44.969  29.531  30.061  1.00  0.00     0.037 A 
ATOM     46  C   UNL A   1      38.443  32.036  29.787  1.00  0.00     0.037 A 
ATOM     47  C   UNL A   1      44.826  30.897  30.491  1.00  0.00     0.049 A 
ATOM     48  C   UNL A   1      39.590  32.867  30.296  1.00  0.00     0.074 A 
ATOM     49  C   UNL A   1      45.806  31.773  30.925  1.00  0.00     0.029 A 
ATOM     50  N   UNL A   1      43.624  31.587  30.537  1.00  0.00    -0.354 N 
ATOM     51  N   UNL A   1      40.860  32.556  30.386  1.00  0.00    -0.248 NA
ATOM     52  C   UNL A   1      39.270  34.224  30.761  1.00  0.00     0.031 C 
ATOM     53  C   UNL A   1      45.191  32.981  31.271  1.00  0.00     0.029 A 
ATOM     54  C   UNL A   1      43.834  32.872  31.010  1.00  0.00     0.049 A 
ATOM     55  H   UNL A   1      42.750  31.218  30.274  1.00  0.00     0.167 HD
ATOM     56  C   UNL A   1      41.493  33.683  30.892  1.00  0.00     0.074 A 
ATOM     57  C   UNL A   1      40.470  34.691  31.076  1.00  0.00     0.031 C 
ATOM     58  C   UNL A   1      42.806  33.865  31.179  1.00  0.00     0.037 A 
BRANCH  45  59
ATOM     59  C   UNL A   1      46.331  28.902  30.141  1.00  0.00     0.064 A 
ATOM     60  C   UNL A   1      47.233  28.961  29.068  1.00  0.00     0.173 A 
ATOM     61  C   UNL A   1      46.753  28.264  31.317  1.00  0.00     0.173 A 
ATOM     62  F   UNL A   1      46.876  29.551  27.917  1.00  0.00    -0.203 F 
ATOM     63  C   UNL A   1      48.495  28.378  29.159  1.00  0.00     0.198 A 
ATOM     64  C   UNL A   1      48.026  27.709  31.415  1.00  0.00     0.198 A 
ATOM     65  F   UNL A   1      45.932  28.186  32.377  1.00  0.00    -0.203 F 
ATOM     66  F   UNL A   1      49.320  28.404  28.104  1.00  0.00    -0.200 F 
ATOM     67  C   UNL A   1      48.893  27.759  30.335  1.00  0.00     0.200 A 
ATOM     68  F   UNL A   1      48.413  27.122  32.556  1.00  0.00    -0.200 F 
ATOM     69  F   UNL A   1      50.109  27.204  30.422  1.00  0.00    -0.200 F 
ENDBRANCH  45  59
BRANCH  46  70
ATOM     70  C   UNL A   1      37.060  32.579  29.767  1.00  0.00     0.064 A 
ATOM     71  C   UNL A   1      36.210  32.420  30.871  1.00  0.00     0.173 A 
ATOM     72  C   UNL A   1      36.562  33.268  28.653  1.00  0.00     0.173 A 
ATOM     73  F   UNL A   1      36.635  31.749  31.951  1.00  0.00    -0.203 F 
ATOM     74  C   UNL A   1      34.908  32.917  30.854  1.00  0.00     0.198 A 
ATOM     75  C   UNL A   1      35.268  33.788  28.648  1.00  0.00     0.198 A 
ATOM     76  F   UNL A   1      37.336  33.451  27.574  1.00  0.00    -0.203 F 
ATOM     77  F   UNL A   1      34.105  32.717  31.907  1.00  0.00    -0.200 F 
ATOM     78  C   UNL A   1      34.441  33.606  29.746  1.00  0.00     0.200 A 
ATOM     79  F   UNL A   1      34.826  34.466  27.581  1.00  0.00    -0.200 F 
ATOM     80  F   UNL A   1      33.192  34.090  29.733  1.00  0.00    -0.200 F 
ENDBRANCH  46  70
BRANCH  58  81
ATOM     81  C   UNL A   1      43.216  35.214  31.694  1.00  0.00     0.064 A 
ATOM     82  C   UNL A   1      43.667  36.223  30.831  1.00  0.00     0.173 A 
ATOM     83  C   UNL A   1      43.115  35.511  33.061  1.00  0.00     0.173 A 
ATOM     84  F   UNL A   1      43.795  35.982  29.517  1.00  0.00    -0.203 F 
ATOM     85  C   UNL A   1      44.024  37.475  31.323  1.00  0.00     0.198 A 
ATOM     86  C   UNL A   1      43.447  36.773  33.545  1.00  0.00     0.198 A 
ATOM     87  F   UNL A   1      42.683  34.581  33.925  1.00  0.00    -0.203 F 
ATOM     88  F   UNL A   1      44.494  38.413  30.487  1.00  0.00    -0.200 F 
ATOM     89  C   UNL A   1      43.907  37.752  32.677  1.00  0.00     0.200 A 
ATOM     90  F   UNL A   1      43.323  37.043  34.852  1.00  0.00    -0.200 F 
ATOM     91  F   UNL A   1      44.246  38.961  33.148  1.00  0.00    -0.200 F 
ENDBRANCH  58  81
ENDBRANCH  32  33
ENDBRANCH  24  27
ENDBRANCH  22  23
ENDBRANCH  21  22
ENDBRANCH   1  21
TORSDOF 13
ENDMDL
MODEL 3
REMARK VINA RESULT:     -11.7      4.774     10.074
REMARK SMILES CC[C@@H](C)S(=O)(=O)c1cc(C(=O)NCCCNC(=O)c2ccc(-c3c4nc(c(-c5c(F)c(F)c(F)c(F)c5F)c5ccc([nH]5)c(-c5c(F)c(F)c(F)c(F)c5F)c5nc(c(-c6c(F)c(F)c(F)c(F)c6F)c6ccc3[nH]6)C=C5)C=C4)cc2)c(C)cc1C
REMARK SMILES IDX 14 1 13 2 11 3 12 4 10 6 8 7 9 8 86 9 85 10 87 11 83 12
REMARK SMILES IDX 84 13 5 14 6 15 7 16 3 17 4 18 2 19 1 20 15 21 16 22 17 23
REMARK SMILES IDX 18 24 19 26 20 27 21 28 82 29 22 30 81 31 23 32 24 33 25 34
REMARK SMILES IDX 75 35 26 36 80 37 74 38 76 39 27 40 79 41 73 42 72 43 28 45
REMARK SMILES IDX 60 46 40 47 59 48 41 49 44 50 58 51 77 52 42 53 43 54 57 56
REMARK SMILES IDX 78 57 45 58 29 59 30 60 38 61 31 62 32 63 36 64 39 65 33 66
REMARK SMILES IDX 34 67 37 68 35 69 61 70 62 71 70 72 63 73 64 74 68 75 71 76
REMARK SMILES IDX 65 77 66 78 69 79 67 80 46 81 47 82 55 83 48 84 49 85 53 86
REMARK SMILES IDX 56 87 50 88 51 89 54 90 52 91
REMARK H PARENT 13 5 17 25 76 44 44 55
REMARK Flexibility Score: inf
ROOT
ATOM      1  C   UNL A   1      33.557  27.993  22.901  1.00  0.00     0.118 C 
ENDROOT
BRANCH   1   2
ATOM      2  N   UNL A   1      32.835  27.402  21.791  1.00  0.00    -0.352 N 
ATOM      3  C   UNL A   1      32.222  26.192  21.596  1.00  0.00     0.251 C 
ATOM      4  O   UNL A   1      31.755  26.000  20.471  1.00  0.00    -0.269 OA
ATOM      5  H   UNL A   1      32.772  27.998  21.010  1.00  0.00     0.163 HD
BRANCH   3   6
ATOM      6  C   UNL A   1      31.999  25.149  22.646  1.00  0.00     0.044 A 
ATOM      7  C   UNL A   1      33.151  23.303  23.869  1.00  0.00     0.071 A 
ATOM      8  C   UNL A   1      33.101  24.293  22.852  1.00  0.00     0.034 A 
ATOM      9  C   UNL A   1      31.999  23.060  24.621  1.00  0.00    -0.032 A 
ATOM     10  C   UNL A   1      30.912  23.939  24.429  1.00  0.00     0.009 A 
ATOM     11  C   UNL A   1      31.750  22.068  25.711  1.00  0.00     0.046 C 
ATOM     12  C   UNL A   1      30.931  25.027  23.536  1.00  0.00    -0.038 A 
ATOM     13  C   UNL A   1      29.832  26.020  23.729  1.00  0.00     0.045 C 
BRANCH   7  14
ATOM     14  S   UNL A   1      34.813  22.645  24.062  1.00  0.00     0.181 S 
ATOM     15  O   UNL A   1      35.517  23.077  22.863  1.00  0.00    -0.223 OA
ATOM     16  O   UNL A   1      34.629  21.227  24.310  1.00  0.00    -0.223 OA
BRANCH  14  17
ATOM     17  C   UNL A   1      35.747  23.279  25.436  1.00  0.00     0.110 C 
ATOM     18  C   UNL A   1      35.153  24.582  25.973  1.00  0.00     0.025 C 
BRANCH  17  19
ATOM     19  C   UNL A   1      37.267  23.134  25.234  1.00  0.00     0.016 C 
ATOM     20  C   UNL A   1      38.152  23.918  26.188  1.00  0.00     0.005 C 
ENDBRANCH  17  19
ENDBRANCH  14  17
ENDBRANCH   7  14
ENDBRANCH   3   6
ENDBRANCH   1   2
BRANCH   1  21
ATOM     21  C   UNL A   1      32.604  28.836  23.753  1.00  0.00     0.042 C 
BRANCH  21  22
ATOM     22  C   UNL A   1      33.104  29.127  25.160  1.00  0.00     0.118 C 
BRANCH  22  23
ATOM     23  N   UNL A   1      32.622  30.407  25.646  1.00  0.00    -0.352 N 
ATOM     24  C   UNL A   1      33.018  31.160  26.725  1.00  0.00     0.251 C 
ATOM     25  H   UNL A   1      31.891  30.800  25.116  1.00  0.00     0.163 HD
ATOM     26  O   UNL A   1      32.295  32.081  27.100  1.00  0.00    -0.269 OA
BRANCH  24  27
ATOM     27  C   UNL A   1      34.283  30.888  27.456  1.00  0.00     0.039 A 
ATOM     28  C   UNL A   1      34.508  29.594  27.943  1.00  0.00     0.014 A 
ATOM     29  C   UNL A   1      35.209  31.893  27.747  1.00  0.00     0.014 A 
ATOM     30  C   UNL A   1      35.662  29.305  28.679  1.00  0.00     0.010 A 
ATOM     31  C   UNL A   1      36.402  31.586  28.401  1.00  0.00     0.010 A 
ATOM     32  C   UNL A   1      36.633  30.294  28.896  1.00  0.00    -0.014 A 
BRANCH  32  33
ATOM     33  C   UNL A   1      37.867  30.012  29.678  1.00  0.00     0.031 A 
ATOM     34  C   UNL A   1      38.909  29.072  29.129  1.00  0.00     0.074 A 
ATOM     35  C   UNL A   1      38.031  30.552  30.900  1.00  0.00     0.049 A 
ATOM     36  N   UNL A   1      40.012  28.637  29.688  1.00  0.00    -0.248 NA
ATOM     37  C   UNL A   1      38.665  28.525  27.785  1.00  0.00     0.031 C 
ATOM     38  C   UNL A   1      37.078  31.443  31.565  1.00  0.00     0.029 A 
ATOM     39  N   UNL A   1      39.053  30.423  31.808  1.00  0.00    -0.354 N 
ATOM     40  C   UNL A   1      40.573  27.749  28.777  1.00  0.00     0.074 A 
ATOM     41  C   UNL A   1      39.669  27.671  27.651  1.00  0.00     0.031 C 
ATOM     42  C   UNL A   1      37.569  31.795  32.765  1.00  0.00     0.029 A 
ATOM     43  C   UNL A   1      38.851  31.128  32.970  1.00  0.00     0.049 A 
ATOM     44  H   UNL A   1      39.855  29.876  31.643  1.00  0.00     0.167 HD
ATOM     45  C   UNL A   1      41.747  27.077  28.861  1.00  0.00     0.037 A 
ATOM     46  C   UNL A   1      39.612  31.222  34.077  1.00  0.00     0.037 A 
ATOM     47  C   UNL A   1      42.668  27.189  29.962  1.00  0.00     0.049 A 
ATOM     48  C   UNL A   1      40.921  30.483  34.138  1.00  0.00     0.074 A 
ATOM     49  C   UNL A   1      43.914  26.606  30.108  1.00  0.00     0.029 A 
ATOM     50  N   UNL A   1      42.440  27.939  31.106  1.00  0.00    -0.354 N 
ATOM     51  N   UNL A   1      41.469  29.697  33.243  1.00  0.00    -0.248 NA
ATOM     52  C   UNL A   1      41.720  30.649  35.361  1.00  0.00     0.031 C 
ATOM     53  C   UNL A   1      44.425  26.972  31.357  1.00  0.00     0.029 A 
ATOM     54  C   UNL A   1      43.516  27.819  31.971  1.00  0.00     0.049 A 
ATOM     55  H   UNL A   1      41.634  28.477  31.279  1.00  0.00     0.167 HD
ATOM     56  C   UNL A   1      42.685  29.297  33.781  1.00  0.00     0.074 A 
ATOM     57  C   UNL A   1      42.801  29.937  35.075  1.00  0.00     0.031 C 
ATOM     58  C   UNL A   1      43.620  28.471  33.251  1.00  0.00     0.037 A 
BRANCH  45  59
ATOM     59  C   UNL A   1      42.108  26.163  27.726  1.00  0.00     0.064 A 
ATOM     60  C   UNL A   1      42.988  26.564  26.709  1.00  0.00     0.173 A 
ATOM     61  C   UNL A   1      41.596  24.858  27.671  1.00  0.00     0.173 A 
ATOM     62  F   UNL A   1      43.498  27.805  26.709  1.00  0.00    -0.203 F 
ATOM     63  C   UNL A   1      43.319  25.703  25.665  1.00  0.00     0.198 A 
ATOM     64  C   UNL A   1      41.952  23.990  26.643  1.00  0.00     0.198 A 
ATOM     65  F   UNL A   1      40.755  24.421  28.623  1.00  0.00    -0.203 F 
ATOM     66  F   UNL A   1      44.122  26.126  24.680  1.00  0.00    -0.200 F 
ATOM     67  C   UNL A   1      42.805  24.415  25.637  1.00  0.00     0.200 A 
ATOM     68  F   UNL A   1      41.465  22.741  26.623  1.00  0.00    -0.200 F 
ATOM     69  F   UNL A   1      43.129  23.586  24.635  1.00  0.00    -0.200 F 
ENDBRANCH  45  59
BRANCH  46  70
ATOM     70  C   UNL A   1      39.165  32.073  35.210  1.00  0.00     0.064 A 
ATOM     71  C   UNL A   1      38.456  31.520  36.287  1.00  0.00     0.173 A 
ATOM     72  C   UNL A   1      39.439  33.447  35.245  1.00  0.00     0.173 A 
ATOM     73  F   UNL A   1      38.152  30.214  36.288  1.00  0.00    -0.203 F 
ATOM     74  C   UNL A   1      38.024  32.315  37.347  1.00  0.00     0.198 A 
ATOM     75  C   UNL A   1      39.030  34.235  36.320  1.00  0.00     0.198 A 
ATOM     76  F   UNL A   1      40.117  34.022  34.242  1.00  0.00    -0.203 F 
ATOM     77  F   UNL A   1      37.315  31.768  38.344  1.00  0.00    -0.200 F 
ATOM     78  C   UNL A   1      38.317  33.669  37.366  1.00  0.00     0.200 A 
ATOM     79  F   UNL A   1      39.328  35.541  36.341  1.00  0.00    -0.200 F 
ATOM     80  F   UNL A   1      37.908  34.431  38.390  1.00  0.00    -0.200 F 
ENDBRANCH  46  70
BRANCH  58  81
ATOM     81  C   UNL A   1      44.865  28.237  34.054  1.00  0.00     0.064 A 
ATOM     82  C   UNL A   1      45.986  29.069  33.930  1.00  0.00     0.173 A 
ATOM     83  C   UNL A   1      44.920  27.192  34.988  1.00  0.00     0.173 A 
ATOM     84  F   UNL A   1      45.988  30.073  33.039  1.00  0.00    -0.203 F 
ATOM     85  C   UNL A   1      47.127  28.850  34.698  1.00  0.00     0.198 A 
ATOM     86  C   UNL A   1      46.052  26.993  35.773  1.00  0.00     0.198 A 
ATOM     87  F   UNL A   1      43.871  26.371  35.148  1.00  0.00    -0.203 F 
ATOM     88  F   UNL A   1      48.204  29.632  34.534  1.00  0.00    -0.200 F 
ATOM     89  C   UNL A   1      47.157  27.818  35.624  1.00  0.00     0.200 A 
ATOM     90  F   UNL A   1      46.075  26.001  36.676  1.00  0.00    -0.200 F 
ATOM     91  F   UNL A   1      48.253  27.613  36.366  1.00  0.00    -0.200 F 
ENDBRANCH  58  81
ENDBRANCH  32  33
ENDBRANCH  24  27
ENDBRANCH  22  23
ENDBRANCH  21  22
ENDBRANCH   1  21
TORSDOF 13
ENDMDL
