MODEL 1
REMARK VINA RESULT:     -14.0      0.000      0.000
REMARK SMILES O=C(NCCCNC(=O)[C@@H]1[C@@H](C(=O)Nc2nc(-c3ccc(F)cc3)cs2)[C@H]2C=C[C@@H]1O2)c1ccc(-c2c3nc(c(-c4c(F)c(F)c(F)c(F)c4F)c4ccc([nH]4)c(-c4c(F)c(F)c(F)c(F)c4F)c4nc(c(-c5c(F)c(F)c(F)c(F)c5F)c5ccc2[nH]5)C=C4)C=C3)cc1
REMARK SMILES IDX 5 1 4 2 3 3 1 4 2 5 32 7 33 8 94 9 34 10 93 11 35 12 36 13
REMARK SMILES IDX 37 14 87 15 38 16 92 17 86 18 88 19 39 20 91 21 85 22 84 23
REMARK SMILES IDX 40 25 72 26 52 27 71 28 53 29 56 30 70 31 89 32 54 33 55 34
REMARK SMILES IDX 69 36 90 37 57 38 41 39 42 40 50 41 43 42 44 43 48 44 51 45
REMARK SMILES IDX 45 46 46 47 49 48 47 49 73 50 74 51 82 52 75 53 76 54 80 55
REMARK SMILES IDX 83 56 77 57 78 58 81 59 79 60 58 61 59 62 67 63 60 64 61 65
REMARK SMILES IDX 65 66 68 67 62 68 63 69 66 70 64 71 6 72 7 73 8 74 9 76
REMARK SMILES IDX 10 77 11 78 30 79 27 80 29 81 31 82 28 83 12 84 13 85 14 86
REMARK SMILES IDX 15 88 16 89 26 90 17 91 25 92 18 93 19 94 24 95 20 96 23 97
REMARK SMILES IDX 21 98 22 99
REMARK H PARENT 3 6 88 24 56 35 7 75 14 87
REMARK Flexibility Score: inf
ROOT
ATOM      1  C   UNL A   1      33.268  29.351  24.686  1.00  0.00     0.042 C 
ENDROOT
BRANCH   1   2
ATOM      2  C   UNL A   1      32.677  29.506  26.074  1.00  0.00     0.118 C 
BRANCH   2   3
ATOM      3  N   UNL A   1      32.386  30.896  26.410  1.00  0.00    -0.352 N 
ATOM      4  O   UNL A   1      32.549  32.907  27.408  1.00  0.00    -0.269 OA
ATOM      5  C   UNL A   1      33.065  31.819  27.165  1.00  0.00     0.251 C 
ATOM      6  H   UNL A   1      31.546  31.233  26.023  1.00  0.00     0.163 HD
BRANCH   5   7
ATOM      7  C   UNL A   1      34.393  31.487  27.720  1.00  0.00     0.039 A 
ATOM      8  C   UNL A   1      34.694  30.177  28.073  1.00  0.00     0.014 A 
ATOM      9  C   UNL A   1      35.338  32.498  27.920  1.00  0.00     0.014 A 
ATOM     10  C   UNL A   1      35.814  29.916  28.844  1.00  0.00     0.010 A 
ATOM     11  C   UNL A   1      36.544  32.204  28.565  1.00  0.00     0.010 A 
ATOM     12  C   UNL A   1      36.769  30.919  29.080  1.00  0.00    -0.014 A 
BRANCH  12  13
ATOM     13  C   UNL A   1      38.000  30.553  29.825  1.00  0.00     0.031 A 
ATOM     14  C   UNL A   1      38.195  30.951  31.261  1.00  0.00     0.074 A 
ATOM     15  C   UNL A   1      38.897  29.755  29.211  1.00  0.00     0.049 A 
ATOM     16  N   UNL A   1      39.186  30.656  32.066  1.00  0.00    -0.248 NA
ATOM     17  C   UNL A   1      37.158  31.793  31.879  1.00  0.00     0.031 C 
ATOM     18  C   UNL A   1      38.800  29.304  27.819  1.00  0.00     0.029 A 
ATOM     19  N   UNL A   1      40.021  29.129  29.681  1.00  0.00    -0.354 N 
ATOM     20  C   UNL A   1      38.910  31.298  33.265  1.00  0.00     0.074 A 
ATOM     21  C   UNL A   1      37.662  32.008  33.088  1.00  0.00     0.031 C 
ATOM     22  C   UNL A   1      39.751  28.391  27.583  1.00  0.00     0.029 A 
ATOM     23  C   UNL A   1      40.583  28.263  28.773  1.00  0.00     0.049 A 
ATOM     24  H   UNL A   1      40.391  29.284  30.580  1.00  0.00     0.167 HD
ATOM     25  C   UNL A   1      39.636  31.288  34.408  1.00  0.00     0.037 A 
ATOM     26  C   UNL A   1      41.653  27.455  28.881  1.00  0.00     0.037 A 
ATOM     27  C   UNL A   1      40.857  30.545  34.585  1.00  0.00     0.049 A 
ATOM     28  C   UNL A   1      42.430  27.461  30.163  1.00  0.00     0.074 A 
ATOM     29  C   UNL A   1      41.671  30.475  35.704  1.00  0.00     0.029 A 
ATOM     30  N   UNL A   1      41.430  29.726  33.623  1.00  0.00    -0.354 N 
ATOM     31  N   UNL A   1      42.178  28.109  31.275  1.00  0.00    -0.248 NA
ATOM     32  C   UNL A   1      43.651  26.649  30.199  1.00  0.00     0.031 C 
ATOM     33  C   UNL A   1      42.749  29.636  35.409  1.00  0.00     0.029 A 
ATOM     34  C   UNL A   1      42.589  29.154  34.120  1.00  0.00     0.049 A 
ATOM     35  H   UNL A   1      41.067  29.575  32.720  1.00  0.00     0.167 HD
ATOM     36  C   UNL A   1      43.211  27.789  32.140  1.00  0.00     0.074 A 
ATOM     37  C   UNL A   1      44.075  26.862  31.438  1.00  0.00     0.031 C 
ATOM     38  C   UNL A   1      43.432  28.237  33.399  1.00  0.00     0.037 A 
BRANCH  25  39
ATOM     39  C   UNL A   1      39.150  32.111  35.565  1.00  0.00     0.064 A 
ATOM     40  C   UNL A   1      39.550  33.450  35.698  1.00  0.00     0.173 A 
ATOM     41  C   UNL A   1      38.374  31.551  36.588  1.00  0.00     0.173 A 
ATOM     42  F   UNL A   1      40.298  34.029  34.748  1.00  0.00    -0.203 F 
ATOM     43  C   UNL A   1      39.207  34.192  36.826  1.00  0.00     0.198 A 
ATOM     44  C   UNL A   1      38.015  32.304  37.706  1.00  0.00     0.198 A 
ATOM     45  F   UNL A   1      37.957  30.279  36.501  1.00  0.00    -0.203 F 
ATOM     46  F   UNL A   1      39.629  35.458  36.947  1.00  0.00    -0.200 F 
ATOM     47  C   UNL A   1      38.441  33.618  37.829  1.00  0.00     0.200 A 
ATOM     48  F   UNL A   1      37.260  31.754  38.667  1.00  0.00    -0.200 F 
ATOM     49  F   UNL A   1      38.113  34.331  38.915  1.00  0.00    -0.200 F 
ENDBRANCH  25  39
BRANCH  26  50
ATOM     50  C   UNL A   1      42.041  26.589  27.740  1.00  0.00     0.064 A 
ATOM     51  C   UNL A   1      41.475  25.316  27.566  1.00  0.00     0.173 A 
ATOM     52  C   UNL A   1      43.018  26.999  26.824  1.00  0.00     0.173 A 
ATOM     53  F   UNL A   1      40.540  24.874  28.419  1.00  0.00    -0.203 F 
ATOM     54  C   UNL A   1      41.895  24.476  26.538  1.00  0.00     0.198 A 
ATOM     55  C   UNL A   1      43.415  26.170  25.777  1.00  0.00     0.198 A 
ATOM     56  F   UNL A   1      43.574  28.214  26.938  1.00  0.00    -0.203 F 
ATOM     57  F   UNL A   1      41.372  23.247  26.424  1.00  0.00    -0.200 F 
ATOM     58  C   UNL A   1      42.862  24.906  25.641  1.00  0.00     0.200 A 
ATOM     59  F   UNL A   1      44.334  26.596  24.899  1.00  0.00    -0.200 F 
ATOM     60  F   UNL A   1      43.259  24.100  24.646  1.00  0.00    -0.200 F 
ENDBRANCH  26  50
BRANCH  38  61
ATOM     61  C   UNL A   1      44.658  27.730  34.093  1.00  0.00     0.064 A 
ATOM     62  C   UNL A   1      45.874  28.422  33.990  1.00  0.00     0.173 A 
ATOM     63  C   UNL A   1      44.635  26.534  34.824  1.00  0.00     0.173 A 
ATOM     64  F   UNL A   1      45.943  29.568  33.296  1.00  0.00    -0.203 F 
ATOM     65  C   UNL A   1      47.026  27.928  34.591  1.00  0.00     0.198 A 
ATOM     66  C   UNL A   1      45.785  26.056  35.443  1.00  0.00     0.198 A 
ATOM     67  F   UNL A   1      43.490  25.849  34.962  1.00  0.00    -0.203 F 
ATOM     68  F   UNL A   1      48.183  28.593  34.465  1.00  0.00    -0.200 F 
ATOM     69  C   UNL A   1      46.980  26.749  35.321  1.00  0.00     0.200 A 
ATOM     70  F   UNL A   1      45.735  24.929  36.167  1.00  0.00    -0.200 F 
ATOM     71  F   UNL A   1      48.090  26.284  35.913  1.00  0.00    -0.200 F 
ENDBRANCH  38  61
ENDBRANCH  12  13
ENDBRANCH   5   7
ENDBRANCH   2   3
ENDBRANCH   1   2
BRANCH   1  72
ATOM     72  C   UNL A   1      33.731  27.940  24.391  1.00  0.00     0.117 C 
BRANCH  72  73
ATOM     73  N   UNL A   1      33.274  26.974  25.374  1.00  0.00    -0.356 N 
ATOM     74  C   UNL A   1      33.568  25.665  25.561  1.00  0.00     0.227 C 
ATOM     75  H   UNL A   1      32.632  27.339  26.026  1.00  0.00     0.163 HD
ATOM     76  O   UNL A   1      33.109  25.144  26.587  1.00  0.00    -0.275 OA
BRANCH  74  77
ATOM     77  C   UNL A   1      34.312  24.795  24.567  1.00  0.00     0.127 C 
ATOM     78  C   UNL A   1      33.547  23.661  23.855  1.00  0.00     0.127 C 
ATOM     79  C   UNL A   1      35.429  24.034  25.308  1.00  0.00     0.155 C 
ATOM     80  C   UNL A   1      34.477  22.460  24.151  1.00  0.00     0.155 C 
ATOM     81  C   UNL A   1      36.459  23.569  24.324  1.00  0.00     0.004 C 
ATOM     82  O   UNL A   1      34.788  22.749  25.548  1.00  0.00    -0.365 OA
ATOM     83  C   UNL A   1      35.870  22.600  23.610  1.00  0.00     0.004 C 
BRANCH  78  84
ATOM     84  C   UNL A   1      33.293  23.850  22.372  1.00  0.00     0.233 C 
ATOM     85  O   UNL A   1      34.042  23.387  21.509  1.00  0.00    -0.274 OA
ATOM     86  N   UNL A   1      32.131  24.431  21.951  1.00  0.00    -0.302 N 
ATOM     87  H   UNL A   1      31.868  24.257  21.019  1.00  0.00     0.172 HD
BRANCH  86  88
ATOM     88  C   UNL A   1      31.293  25.226  22.677  1.00  0.00     0.189 A 
ATOM     89  N   UNL A   1      30.990  26.484  22.497  1.00  0.00    -0.220 NA
ATOM     90  S   UNL A   1      30.505  24.428  23.963  1.00  0.00    -0.105 S 
ATOM     91  C   UNL A   1      30.022  26.859  23.420  1.00  0.00     0.084 A 
ATOM     92  C   UNL A   1      29.701  25.895  24.356  1.00  0.00     0.097 A 
BRANCH  91  93
ATOM     93  C   UNL A   1      29.359  28.152  23.348  1.00  0.00     0.001 A 
ATOM     94  C   UNL A   1      27.977  28.198  23.109  1.00  0.00     0.013 A 
ATOM     95  C   UNL A   1      30.060  29.353  23.530  1.00  0.00     0.013 A 
ATOM     96  C   UNL A   1      27.305  29.422  23.055  1.00  0.00     0.040 A 
ATOM     97  C   UNL A   1      29.390  30.579  23.447  1.00  0.00     0.040 A 
ATOM     98  C   UNL A   1      28.020  30.602  23.217  1.00  0.00     0.123 A 
ATOM     99  F   UNL A   1      27.382  31.776  23.146  1.00  0.00    -0.207 F 
ENDBRANCH  91  93
ENDBRANCH  86  88
ENDBRANCH  78  84
ENDBRANCH  74  77
ENDBRANCH  72  73
ENDBRANCH   1  72
TORSDOF 13
ENDMDL
MODEL 2
REMARK VINA RESULT:     -14.0      1.125      1.377
REMARK SMILES O=C(NCCCNC(=O)[C@@H]1[C@@H](C(=O)Nc2nc(-c3ccc(F)cc3)cs2)[C@H]2C=C[C@@H]1O2)c1ccc(-c2c3nc(c(-c4c(F)c(F)c(F)c(F)c4F)c4ccc([nH]4)c(-c4c(F)c(F)c(F)c(F)c4F)c4nc(c(-c5c(F)c(F)c(F)c(F)c5F)c5ccc2[nH]5)C=C4)C=C3)cc1
REMARK SMILES IDX 5 1 4 2 3 3 1 4 2 5 32 7 33 8 94 9 34 10 93 11 35 12 36 13
REMARK SMILES IDX 37 14 87 15 38 16 92 17 86 18 88 19 39 20 91 21 85 22 84 23
REMARK SMILES IDX 40 25 72 26 52 27 71 28 53 29 56 30 70 31 89 32 54 33 55 34
REMARK SMILES IDX 69 36 90 37 57 38 41 39 42 40 50 41 43 42 44 43 48 44 51 45
REMARK SMILES IDX 45 46 46 47 49 48 47 49 73 50 74 51 82 52 75 53 76 54 80 55
REMARK SMILES IDX 83 56 77 57 78 58 81 59 79 60 58 61 59 62 67 63 60 64 61 65
REMARK SMILES IDX 65 66 68 67 62 68 63 69 66 70 64 71 6 72 7 73 8 74 9 76
REMARK SMILES IDX 10 77 11 78 30 79 27 80 29 81 31 82 28 83 12 84 13 85 14 86
REMARK SMILES IDX 15 88 16 89 26 90 17 91 25 92 18 93 19 94 24 95 20 96 23 97
REMARK SMILES IDX 21 98 22 99
REMARK H PARENT 3 6 88 24 56 35 7 75 14 87
REMARK Flexibility Score: inf
ROOT
ATOM      1  C   UNL A   1      31.621  28.575  26.213  1.00  0.00     0.042 C 
ENDROOT
BRANCH   1   2
ATOM      2  C   UNL A   1      32.720  29.567  25.886  1.00  0.00     0.118 C 
BRANCH   2   3
ATOM      3  N   UNL A   1      32.394  30.927  26.303  1.00  0.00    -0.352 N 
ATOM      4  O   UNL A   1      32.498  32.875  27.427  1.00  0.00    -0.269 OA
ATOM      5  C   UNL A   1      33.041  31.815  27.126  1.00  0.00     0.251 C 
ATOM      6  H   UNL A   1      31.553  31.271  25.924  1.00  0.00     0.163 HD
BRANCH   5   7
ATOM      7  C   UNL A   1      34.367  31.477  27.681  1.00  0.00     0.039 A 
ATOM      8  C   UNL A   1      34.652  30.169  28.057  1.00  0.00     0.014 A 
ATOM      9  C   UNL A   1      35.325  32.478  27.860  1.00  0.00     0.014 A 
ATOM     10  C   UNL A   1      35.772  29.908  28.828  1.00  0.00     0.010 A 
ATOM     11  C   UNL A   1      36.530  32.181  28.507  1.00  0.00     0.010 A 
ATOM     12  C   UNL A   1      36.740  30.903  29.044  1.00  0.00    -0.014 A 
BRANCH  12  13
ATOM     13  C   UNL A   1      37.969  30.534  29.791  1.00  0.00     0.031 A 
ATOM     14  C   UNL A   1      38.159  30.925  31.230  1.00  0.00     0.074 A 
ATOM     15  C   UNL A   1      38.869  29.740  29.175  1.00  0.00     0.049 A 
ATOM     16  N   UNL A   1      39.148  30.628  32.036  1.00  0.00    -0.248 NA
ATOM     17  C   UNL A   1      37.119  31.763  31.849  1.00  0.00     0.031 C 
ATOM     18  C   UNL A   1      38.777  29.296  27.781  1.00  0.00     0.029 A 
ATOM     19  N   UNL A   1      39.993  29.113  29.646  1.00  0.00    -0.354 N 
ATOM     20  C   UNL A   1      38.867  31.263  33.238  1.00  0.00     0.074 A 
ATOM     21  C   UNL A   1      37.619  31.973  33.060  1.00  0.00     0.031 C 
ATOM     22  C   UNL A   1      39.730  28.386  27.544  1.00  0.00     0.029 A 
ATOM     23  C   UNL A   1      40.558  28.253  28.736  1.00  0.00     0.049 A 
ATOM     24  H   UNL A   1      40.360  29.264  30.547  1.00  0.00     0.167 HD
ATOM     25  C   UNL A   1      39.590  31.249  34.383  1.00  0.00     0.037 A 
ATOM     26  C   UNL A   1      41.629  27.446  28.843  1.00  0.00     0.037 A 
ATOM     27  C   UNL A   1      40.811  30.506  34.560  1.00  0.00     0.049 A 
ATOM     28  C   UNL A   1      42.401  27.446  30.128  1.00  0.00     0.074 A 
ATOM     29  C   UNL A   1      41.621  30.431  35.681  1.00  0.00     0.029 A 
ATOM     30  N   UNL A   1      41.388  29.693  33.596  1.00  0.00    -0.354 N 
ATOM     31  N   UNL A   1      42.145  28.088  31.242  1.00  0.00    -0.248 NA
ATOM     32  C   UNL A   1      43.624  26.635  30.163  1.00  0.00     0.031 C 
ATOM     33  C   UNL A   1      42.701  29.595  35.385  1.00  0.00     0.029 A 
ATOM     34  C   UNL A   1      42.546  29.119  34.093  1.00  0.00     0.049 A 
ATOM     35  H   UNL A   1      41.028  29.546  32.691  1.00  0.00     0.167 HD
ATOM     36  C   UNL A   1      43.176  27.765  32.109  1.00  0.00     0.074 A 
ATOM     37  C   UNL A   1      44.043  26.842  31.405  1.00  0.00     0.031 C 
ATOM     38  C   UNL A   1      43.393  28.207  33.371  1.00  0.00     0.037 A 
BRANCH  25  39
ATOM     39  C   UNL A   1      39.098  32.065  35.542  1.00  0.00     0.064 A 
ATOM     40  C   UNL A   1      39.481  33.409  35.673  1.00  0.00     0.173 A 
ATOM     41  C   UNL A   1      38.336  31.495  36.570  1.00  0.00     0.173 A 
ATOM     42  F   UNL A   1      40.216  33.998  34.718  1.00  0.00    -0.203 F 
ATOM     43  C   UNL A   1      39.134  34.146  36.803  1.00  0.00     0.198 A 
ATOM     44  C   UNL A   1      37.973  32.243  37.689  1.00  0.00     0.198 A 
ATOM     45  F   UNL A   1      37.935  30.218  36.485  1.00  0.00    -0.203 F 
ATOM     46  F   UNL A   1      39.540  35.418  36.922  1.00  0.00    -0.200 F 
ATOM     47  C   UNL A   1      38.382  33.563  37.809  1.00  0.00     0.200 A 
ATOM     48  F   UNL A   1      37.231  31.683  38.655  1.00  0.00    -0.200 F 
ATOM     49  F   UNL A   1      38.050  34.272  38.897  1.00  0.00    -0.200 F 
ENDBRANCH  25  39
BRANCH  26  50
ATOM     50  C   UNL A   1      42.021  26.585  27.699  1.00  0.00     0.064 A 
ATOM     51  C   UNL A   1      41.462  25.311  27.519  1.00  0.00     0.173 A 
ATOM     52  C   UNL A   1      42.997  27.004  26.785  1.00  0.00     0.173 A 
ATOM     53  F   UNL A   1      40.528  24.862  28.370  1.00  0.00    -0.203 F 
ATOM     54  C   UNL A   1      41.886  24.477  26.489  1.00  0.00     0.198 A 
ATOM     55  C   UNL A   1      43.399  26.181  25.735  1.00  0.00     0.198 A 
ATOM     56  F   UNL A   1      43.548  28.221  26.905  1.00  0.00    -0.203 F 
ATOM     57  F   UNL A   1      41.369  23.246  26.369  1.00  0.00    -0.200 F 
ATOM     58  C   UNL A   1      42.852  24.914  25.594  1.00  0.00     0.200 A 
ATOM     59  F   UNL A   1      44.317  26.614  24.860  1.00  0.00    -0.200 F 
ATOM     60  F   UNL A   1      43.253  24.114  24.597  1.00  0.00    -0.200 F 
ENDBRANCH  26  50
BRANCH  38  61
ATOM     61  C   UNL A   1      44.617  27.698  34.066  1.00  0.00     0.064 A 
ATOM     62  C   UNL A   1      45.831  28.394  33.974  1.00  0.00     0.173 A 
ATOM     63  C   UNL A   1      44.594  26.496  34.787  1.00  0.00     0.173 A 
ATOM     64  F   UNL A   1      45.900  29.546  33.289  1.00  0.00    -0.203 F 
ATOM     65  C   UNL A   1      46.982  27.899  34.576  1.00  0.00     0.198 A 
ATOM     66  C   UNL A   1      45.743  26.016  35.407  1.00  0.00     0.198 A 
ATOM     67  F   UNL A   1      43.450  25.807  34.914  1.00  0.00    -0.203 F 
ATOM     68  F   UNL A   1      48.138  28.568  34.461  1.00  0.00    -0.200 F 
ATOM     69  C   UNL A   1      46.936  26.714  35.296  1.00  0.00     0.200 A 
ATOM     70  F   UNL A   1      45.692  24.884  36.122  1.00  0.00    -0.200 F 
ATOM     71  F   UNL A   1      48.044  26.247  35.890  1.00  0.00    -0.200 F 
ENDBRANCH  38  61
ENDBRANCH  12  13
ENDBRANCH   5   7
ENDBRANCH   2   3
ENDBRANCH   1   2
BRANCH   1  72
ATOM     72  C   UNL A   1      32.146  27.274  26.783  1.00  0.00     0.117 C 
BRANCH  72  73
ATOM     73  N   UNL A   1      31.200  26.179  26.667  1.00  0.00    -0.356 N 
ATOM     74  C   UNL A   1      31.364  24.835  26.692  1.00  0.00     0.227 C 
ATOM     75  H   UNL A   1      30.266  26.468  26.548  1.00  0.00     0.163 HD
ATOM     76  O   UNL A   1      30.326  24.159  26.701  1.00  0.00    -0.275 OA
BRANCH  74  77
ATOM     77  C   UNL A   1      32.700  24.125  26.603  1.00  0.00     0.127 C 
ATOM     78  C   UNL A   1      33.239  23.729  25.213  1.00  0.00     0.127 C 
ATOM     79  C   UNL A   1      32.592  22.766  27.322  1.00  0.00     0.155 C 
ATOM     80  C   UNL A   1      33.535  22.227  25.440  1.00  0.00     0.155 C 
ATOM     81  C   UNL A   1      33.962  22.275  27.676  1.00  0.00     0.004 C 
ATOM     82  O   UNL A   1      32.342  21.870  26.202  1.00  0.00    -0.365 OA
ATOM     83  C   UNL A   1      34.543  21.944  26.515  1.00  0.00     0.004 C 
BRANCH  78  84
ATOM     84  C   UNL A   1      34.452  24.494  24.719  1.00  0.00     0.233 C 
ATOM     85  O   UNL A   1      35.564  24.378  25.239  1.00  0.00    -0.274 OA
ATOM     86  N   UNL A   1      34.365  25.239  23.578  1.00  0.00    -0.302 N 
ATOM     87  H   UNL A   1      35.215  25.455  23.132  1.00  0.00     0.172 HD
BRANCH  86  88
ATOM     88  C   UNL A   1      33.234  25.718  22.986  1.00  0.00     0.189 A 
ATOM     89  N   UNL A   1      32.348  26.554  23.458  1.00  0.00    -0.220 NA
ATOM     90  S   UNL A   1      32.990  25.171  21.389  1.00  0.00    -0.105 S 
ATOM     91  C   UNL A   1      31.409  26.833  22.472  1.00  0.00     0.084 A 
ATOM     92  C   UNL A   1      31.548  26.101  21.308  1.00  0.00     0.097 A 
BRANCH  91  93
ATOM     93  C   UNL A   1      30.402  27.869  22.647  1.00  0.00     0.001 A 
ATOM     94  C   UNL A   1      29.168  27.531  23.224  1.00  0.00     0.013 A 
ATOM     95  C   UNL A   1      30.638  29.199  22.270  1.00  0.00     0.013 A 
ATOM     96  C   UNL A   1      28.188  28.505  23.425  1.00  0.00     0.040 A 
ATOM     97  C   UNL A   1      29.643  30.167  22.446  1.00  0.00     0.040 A 
ATOM     98  C   UNL A   1      28.431  29.813  23.027  1.00  0.00     0.123 A 
ATOM     99  F   UNL A   1      27.485  30.744  23.201  1.00  0.00    -0.207 F 
ENDBRANCH  91  93
ENDBRANCH  86  88
ENDBRANCH  78  84
ENDBRANCH  74  77
ENDBRANCH  72  73
ENDBRANCH   1  72
TORSDOF 13
ENDMDL
MODEL 3
REMARK VINA RESULT:     -13.9      2.574      4.899
REMARK SMILES O=C(NCCCNC(=O)[C@@H]1[C@@H](C(=O)Nc2nc(-c3ccc(F)cc3)cs2)[C@H]2C=C[C@@H]1O2)c1ccc(-c2c3nc(c(-c4c(F)c(F)c(F)c(F)c4F)c4ccc([nH]4)c(-c4c(F)c(F)c(F)c(F)c4F)c4nc(c(-c5c(F)c(F)c(F)c(F)c5F)c5ccc2[nH]5)C=C4)C=C3)cc1
REMARK SMILES IDX 5 1 4 2 3 3 1 4 2 5 32 7 33 8 94 9 34 10 93 11 35 12 36 13
REMARK SMILES IDX 37 14 87 15 38 16 92 17 86 18 88 19 39 20 91 21 85 22 84 23
REMARK SMILES IDX 40 25 72 26 52 27 71 28 53 29 56 30 70 31 89 32 54 33 55 34
REMARK SMILES IDX 69 36 90 37 57 38 41 39 42 40 50 41 43 42 44 43 48 44 51 45
REMARK SMILES IDX 45 46 46 47 49 48 47 49 73 50 74 51 82 52 75 53 76 54 80 55
REMARK SMILES IDX 83 56 77 57 78 58 81 59 79 60 58 61 59 62 67 63 60 64 61 65
REMARK SMILES IDX 65 66 68 67 62 68 63 69 66 70 64 71 6 72 7 73 8 74 9 76
REMARK SMILES IDX 10 77 11 78 30 79 27 80 29 81 31 82 28 83 12 84 13 85 14 86
REMARK SMILES IDX 15 88 16 89 26 90 17 91 25 92 18 93 19 94 24 95 20 96 23 97
REMARK SMILES IDX 21 98 22 99
REMARK H PARENT 3 6 88 24 56 35 7 75 14 87
REMARK Flexibility Score: inf
ROOT
ATOM      1  C   UNL A   1      31.592  32.164  26.642  1.00  0.00     0.042 C 
ENDROOT
BRANCH   1   2
ATOM      2  C   UNL A   1      32.779  32.874  27.264  1.00  0.00     0.118 C 
BRANCH   2   3
ATOM      3  N   UNL A   1      32.463  34.234  27.688  1.00  0.00    -0.352 N 
ATOM      4  O   UNL A   1      32.466  36.117  28.923  1.00  0.00    -0.269 OA
ATOM      5  C   UNL A   1      32.989  35.034  28.671  1.00  0.00     0.251 C 
ATOM      6  H   UNL A   1      31.737  34.655  27.173  1.00  0.00     0.163 HD
BRANCH   5   7
ATOM      7  C   UNL A   1      34.155  34.574  29.453  1.00  0.00     0.039 A 
ATOM      8  C   UNL A   1      35.439  34.716  28.939  1.00  0.00     0.014 A 
ATOM      9  C   UNL A   1      33.965  33.967  30.697  1.00  0.00     0.014 A 
ATOM     10  C   UNL A   1      36.491  34.040  29.533  1.00  0.00     0.010 A 
ATOM     11  C   UNL A   1      35.058  33.414  31.375  1.00  0.00     0.010 A 
ATOM     12  C   UNL A   1      36.323  33.400  30.772  1.00  0.00    -0.014 A 
BRANCH  12  13
ATOM     13  C   UNL A   1      37.513  32.781  31.409  1.00  0.00     0.031 A 
ATOM     14  C   UNL A   1      37.928  33.139  32.808  1.00  0.00     0.074 A 
ATOM     15  C   UNL A   1      38.152  31.802  30.737  1.00  0.00     0.049 A 
ATOM     16  N   UNL A   1      38.906  32.643  33.525  1.00  0.00    -0.248 NA
ATOM     17  C   UNL A   1      37.162  34.191  33.496  1.00  0.00     0.031 C 
ATOM     18  C   UNL A   1      37.826  31.372  29.374  1.00  0.00     0.029 A 
ATOM     19  N   UNL A   1      39.156  30.951  31.118  1.00  0.00    -0.354 N 
ATOM     20  C   UNL A   1      38.893  33.339  34.726  1.00  0.00     0.074 A 
ATOM     21  C   UNL A   1      37.816  34.302  34.646  1.00  0.00     0.031 C 
ATOM     22  C   UNL A   1      38.530  30.272  29.077  1.00  0.00     0.029 A 
ATOM     23  C   UNL A   1      39.427  29.977  30.188  1.00  0.00     0.049 A 
ATOM     24  H   UNL A   1      39.637  31.029  31.973  1.00  0.00     0.167 HD
ATOM     25  C   UNL A   1      39.707  33.181  35.796  1.00  0.00     0.037 A 
ATOM     26  C   UNL A   1      40.304  28.957  30.219  1.00  0.00     0.037 A 
ATOM     27  C   UNL A   1      40.751  32.192  35.880  1.00  0.00     0.049 A 
ATOM     28  C   UNL A   1      41.184  28.804  31.422  1.00  0.00     0.074 A 
ATOM     29  C   UNL A   1      41.635  31.956  36.919  1.00  0.00     0.029 A 
ATOM     30  N   UNL A   1      41.038  31.261  34.893  1.00  0.00    -0.354 N 
ATOM     31  N   UNL A   1      41.187  29.500  32.532  1.00  0.00    -0.248 NA
ATOM     32  C   UNL A   1      42.200  27.747  31.367  1.00  0.00     0.031 C 
ATOM     33  C   UNL A   1      42.474  30.901  36.549  1.00  0.00     0.029 A 
ATOM     34  C   UNL A   1      42.089  30.454  35.295  1.00  0.00     0.049 A 
ATOM     35  H   UNL A   1      40.564  31.185  34.032  1.00  0.00     0.167 HD
ATOM     36  C   UNL A   1      42.207  28.971  33.307  1.00  0.00     0.074 A 
ATOM     37  C   UNL A   1      42.778  27.873  32.554  1.00  0.00     0.031 C 
ATOM     38  C   UNL A   1      42.641  29.371  34.526  1.00  0.00     0.037 A 
BRANCH  25  39
ATOM     39  C   UNL A   1      39.525  34.099  36.968  1.00  0.00     0.064 A 
ATOM     40  C   UNL A   1      40.193  35.333  37.011  1.00  0.00     0.173 A 
ATOM     41  C   UNL A   1      38.773  33.719  38.088  1.00  0.00     0.173 A 
ATOM     42  F   UNL A   1      40.929  35.739  35.967  1.00  0.00    -0.203 F 
ATOM     43  C   UNL A   1      40.131  36.143  38.143  1.00  0.00     0.198 A 
ATOM     44  C   UNL A   1      38.696  34.542  39.210  1.00  0.00     0.198 A 
ATOM     45  F   UNL A   1      38.107  32.555  38.090  1.00  0.00    -0.203 F 
ATOM     46  F   UNL A   1      40.804  37.301  38.174  1.00  0.00    -0.200 F 
ATOM     47  C   UNL A   1      39.383  35.747  39.241  1.00  0.00     0.200 A 
ATOM     48  F   UNL A   1      37.960  34.167  40.265  1.00  0.00    -0.200 F 
ATOM     49  F   UNL A   1      39.326  36.525  40.330  1.00  0.00    -0.200 F 
ENDBRANCH  25  39
BRANCH  26  50
ATOM     50  C   UNL A   1      40.382  28.017  29.072  1.00  0.00     0.064 A 
ATOM     51  C   UNL A   1      41.159  28.310  27.941  1.00  0.00     0.173 A 
ATOM     52  C   UNL A   1      39.645  26.826  29.066  1.00  0.00     0.173 A 
ATOM     53  F   UNL A   1      41.878  29.441  27.894  1.00  0.00    -0.203 F 
ATOM     54  C   UNL A   1      41.171  27.463  26.836  1.00  0.00     0.198 A 
ATOM     55  C   UNL A   1      39.682  25.963  27.973  1.00  0.00     0.198 A 
ATOM     56  F   UNL A   1      38.902  26.493  30.132  1.00  0.00    -0.203 F 
ATOM     57  F   UNL A   1      41.884  27.791  25.750  1.00  0.00    -0.200 F 
ATOM     58  C   UNL A   1      40.436  26.287  26.855  1.00  0.00     0.200 A 
ATOM     59  F   UNL A   1      38.988  24.817  28.003  1.00  0.00    -0.200 F 
ATOM     60  F   UNL A   1      40.455  25.467  25.795  1.00  0.00    -0.200 F 
ENDBRANCH  26  50
BRANCH  38  61
ATOM     61  C   UNL A   1      43.790  28.615  35.117  1.00  0.00     0.064 A 
ATOM     62  C   UNL A   1      43.564  27.489  35.922  1.00  0.00     0.173 A 
ATOM     63  C   UNL A   1      45.113  29.035  34.918  1.00  0.00     0.173 A 
ATOM     64  F   UNL A   1      42.315  27.055  36.142  1.00  0.00    -0.203 F 
ATOM     65  C   UNL A   1      44.626  26.813  36.514  1.00  0.00     0.198 A 
ATOM     66  C   UNL A   1      46.173  28.342  35.493  1.00  0.00     0.198 A 
ATOM     67  F   UNL A   1      45.375  30.097  34.143  1.00  0.00    -0.203 F 
ATOM     68  F   UNL A   1      44.389  25.750  37.295  1.00  0.00    -0.200 F 
ATOM     69  C   UNL A   1      45.929  27.237  36.295  1.00  0.00     0.200 A 
ATOM     70  F   UNL A   1      47.433  28.738  35.263  1.00  0.00    -0.200 F 
ATOM     71  F   UNL A   1      46.952  26.574  36.853  1.00  0.00    -0.200 F 
ENDBRANCH  38  61
ENDBRANCH  12  13
ENDBRANCH   5   7
ENDBRANCH   2   3
ENDBRANCH   1   2
BRANCH   1  72
ATOM     72  C   UNL A   1      31.764  30.661  26.579  1.00  0.00     0.117 C 
BRANCH  72  73
ATOM     73  N   UNL A   1      32.505  30.222  25.409  1.00  0.00    -0.356 N 
ATOM     74  C   UNL A   1      32.255  29.261  24.488  1.00  0.00     0.227 C 
ATOM     75  H   UNL A   1      33.344  30.716  25.258  1.00  0.00     0.163 HD
ATOM     76  O   UNL A   1      33.026  29.221  23.520  1.00  0.00    -0.275 OA
BRANCH  74  77
ATOM     77  C   UNL A   1      31.186  28.195  24.619  1.00  0.00     0.127 C 
ATOM     78  C   UNL A   1      31.608  26.768  25.024  1.00  0.00     0.127 C 
ATOM     79  C   UNL A   1      30.530  27.974  23.242  1.00  0.00     0.155 C 
ATOM     80  C   UNL A   1      30.943  25.943  23.895  1.00  0.00     0.155 C 
ATOM     81  C   UNL A   1      29.193  27.321  23.422  1.00  0.00     0.004 C 
ATOM     82  O   UNL A   1      31.258  26.808  22.763  1.00  0.00    -0.365 OA
ATOM     83  C   UNL A   1      29.450  26.070  23.826  1.00  0.00     0.004 C 
BRANCH  78  84
ATOM     84  C   UNL A   1      31.187  26.309  26.407  1.00  0.00     0.233 C 
ATOM     85  O   UNL A   1      30.590  27.046  27.195  1.00  0.00    -0.274 OA
ATOM     86  N   UNL A   1      31.341  25.000  26.763  1.00  0.00    -0.302 N 
ATOM     87  H   UNL A   1      30.789  24.684  27.515  1.00  0.00     0.172 HD
BRANCH  86  88
ATOM     88  C   UNL A   1      32.172  24.079  26.195  1.00  0.00     0.189 A 
ATOM     89  N   UNL A   1      33.476  24.082  26.120  1.00  0.00    -0.220 NA
ATOM     90  S   UNL A   1      31.374  22.720  25.542  1.00  0.00    -0.105 S 
ATOM     91  C   UNL A   1      33.905  22.897  25.537  1.00  0.00     0.084 A 
ATOM     92  C   UNL A   1      32.896  22.073  25.076  1.00  0.00     0.097 A 
BRANCH  91  93
ATOM     93  C   UNL A   1      35.314  22.538  25.483  1.00  0.00     0.001 A 
ATOM     94  C   UNL A   1      36.276  23.492  25.848  1.00  0.00     0.013 A 
ATOM     95  C   UNL A   1      35.736  21.258  25.095  1.00  0.00     0.013 A 
ATOM     96  C   UNL A   1      37.636  23.174  25.829  1.00  0.00     0.040 A 
ATOM     97  C   UNL A   1      37.100  20.951  25.048  1.00  0.00     0.040 A 
ATOM     98  C   UNL A   1      38.036  21.908  25.421  1.00  0.00     0.123 A 
ATOM     99  F   UNL A   1      39.340  21.608  25.382  1.00  0.00    -0.207 F 
ENDBRANCH  91  93
ENDBRANCH  86  88
ENDBRANCH  78  84
ENDBRANCH  74  77
ENDBRANCH  72  73
ENDBRANCH   1  72
TORSDOF 13
ENDMDL
