MODEL 1
REMARK VINA RESULT:     -12.2      0.000      0.000
REMARK SMILES O=C(NCCCNC(=O)[C@H](Cc1ccc(O)cc1)NC(=O)c1ccc(Cl)s1)c1ccc(-c2c3nc(c(-c4c(F)c(F)c(F)c(F)c4F)c4ccc([nH]4)c(-c4c(F)c(F)c(F)c(F)c4F)c4nc(c(-c5c(F)c(F)c(F)c(F)c5F)c5ccc2[nH]5)C=C4)C=C3)cc1
REMARK SMILES IDX 5 1 4 2 3 3 1 4 2 5 28 7 29 8 90 9 30 10 89 11 31 12 32 13
REMARK SMILES IDX 33 14 83 15 34 16 88 17 82 18 84 19 35 20 87 21 81 22 80 23
REMARK SMILES IDX 36 25 68 26 48 27 67 28 49 29 52 30 66 31 85 32 50 33 51 34
REMARK SMILES IDX 65 36 86 37 53 38 37 39 38 40 46 41 39 42 40 43 44 44 47 45
REMARK SMILES IDX 41 46 42 47 45 48 43 49 69 50 70 51 78 52 71 53 72 54 76 55
REMARK SMILES IDX 79 56 73 57 74 58 77 59 75 60 54 61 55 62 63 63 56 64 57 65
REMARK SMILES IDX 61 66 64 67 58 68 59 69 62 70 60 71 6 72 7 73 8 74 9 76
REMARK SMILES IDX 10 77 19 78 20 79 21 81 22 82 23 83 27 84 24 85 25 86 26 87
REMARK SMILES IDX 11 88 12 89 13 90 18 91 14 92 17 93 15 94 16 95
REMARK H PARENT 3 6 84 24 52 35 7 75 19 80 16 96
REMARK Flexibility Score: inf
ROOT
ATOM      1  C   UNL A   1      32.072  27.836  26.201  1.00  0.00     0.042 C 
ENDROOT
BRANCH   1   2
ATOM      2  C   UNL A   1      33.006  28.904  25.653  1.00  0.00     0.118 C 
BRANCH   2   3
ATOM      3  N   UNL A   1      32.588  30.259  25.989  1.00  0.00    -0.352 N 
ATOM      4  O   UNL A   1      32.542  32.188  27.158  1.00  0.00    -0.269 OA
ATOM      5  C   UNL A   1      33.125  31.140  26.898  1.00  0.00     0.251 C 
ATOM      6  H   UNL A   1      31.806  30.593  25.493  1.00  0.00     0.163 HD
BRANCH   5   7
ATOM      7  C   UNL A   1      34.391  30.807  27.583  1.00  0.00     0.039 A 
ATOM      8  C   UNL A   1      34.587  29.537  28.128  1.00  0.00     0.014 A 
ATOM      9  C   UNL A   1      35.391  31.777  27.688  1.00  0.00     0.014 A 
ATOM     10  C   UNL A   1      35.696  29.294  28.925  1.00  0.00     0.010 A 
ATOM     11  C   UNL A   1      36.562  31.490  28.395  1.00  0.00     0.010 A 
ATOM     12  C   UNL A   1      36.709  30.258  29.048  1.00  0.00    -0.014 A 
BRANCH  12  13
ATOM     13  C   UNL A   1      37.944  29.913  29.798  1.00  0.00     0.031 A 
ATOM     14  C   UNL A   1      38.206  30.462  31.171  1.00  0.00     0.074 A 
ATOM     15  C   UNL A   1      38.822  29.067  29.226  1.00  0.00     0.049 A 
ATOM     16  N   UNL A   1      39.230  30.250  31.961  1.00  0.00    -0.248 NA
ATOM     17  C   UNL A   1      37.197  31.374  31.730  1.00  0.00     0.031 C 
ATOM     18  C   UNL A   1      38.675  28.478  27.892  1.00  0.00     0.029 A 
ATOM     19  N   UNL A   1      39.999  28.540  29.692  1.00  0.00    -0.354 N 
ATOM     20  C   UNL A   1      38.998  31.011  33.099  1.00  0.00     0.074 A 
ATOM     21  C   UNL A   1      37.751  31.717  32.885  1.00  0.00     0.031 C 
ATOM     22  C   UNL A   1      39.693  27.637  27.667  1.00  0.00     0.029 A 
ATOM     23  C   UNL A   1      40.603  27.685  28.804  1.00  0.00     0.049 A 
ATOM     24  H   UNL A   1      40.374  28.755  30.576  1.00  0.00     0.167 HD
ATOM     25  C   UNL A   1      39.754  31.103  34.221  1.00  0.00     0.037 A 
ATOM     26  C   UNL A   1      41.775  27.030  28.882  1.00  0.00     0.037 A 
ATOM     27  C   UNL A   1      40.992  30.392  34.423  1.00  0.00     0.049 A 
ATOM     28  C   UNL A   1      42.613  27.189  30.117  1.00  0.00     0.074 A 
ATOM     29  C   UNL A   1      41.814  30.388  35.537  1.00  0.00     0.029 A 
ATOM     30  N   UNL A   1      41.593  29.564  33.485  1.00  0.00    -0.354 N 
ATOM     31  N   UNL A   1      42.363  27.877  31.204  1.00  0.00    -0.248 NA
ATOM     32  C   UNL A   1      43.898  26.479  30.136  1.00  0.00     0.031 C 
ATOM     33  C   UNL A   1      42.941  29.612  35.250  1.00  0.00     0.029 A 
ATOM     34  C   UNL A   1      42.793  29.073  33.982  1.00  0.00     0.049 A 
ATOM     35  H   UNL A   1      41.224  29.356  32.596  1.00  0.00     0.167 HD
ATOM     36  C   UNL A   1      43.447  27.670  32.044  1.00  0.00     0.074 A 
ATOM     37  C   UNL A   1      44.345  26.770  31.349  1.00  0.00     0.031 C 
ATOM     38  C   UNL A   1      43.679  28.180  33.278  1.00  0.00     0.037 A 
BRANCH  25  39
ATOM     39  C   UNL A   1      39.281  32.025  35.311  1.00  0.00     0.064 A 
ATOM     40  C   UNL A   1      38.506  31.567  36.386  1.00  0.00     0.173 A 
ATOM     41  C   UNL A   1      39.650  33.381  35.302  1.00  0.00     0.173 A 
ATOM     42  F   UNL A   1      38.118  30.284  36.441  1.00  0.00    -0.203 F 
ATOM     43  C   UNL A   1      38.091  32.435  37.394  1.00  0.00     0.198 A 
ATOM     44  C   UNL A   1      39.261  34.238  36.328  1.00  0.00     0.198 A 
ATOM     45  F   UNL A   1      40.398  33.872  34.303  1.00  0.00    -0.203 F 
ATOM     46  F   UNL A   1      37.309  31.985  38.385  1.00  0.00    -0.200 F 
ATOM     47  C   UNL A   1      38.475  33.767  37.369  1.00  0.00     0.200 A 
ATOM     48  F   UNL A   1      39.648  35.522  36.309  1.00  0.00    -0.200 F 
ATOM     49  F   UNL A   1      38.082  34.599  38.343  1.00  0.00    -0.200 F 
ENDBRANCH  25  39
BRANCH  26  50
ATOM     50  C   UNL A   1      42.220  26.179  27.749  1.00  0.00     0.064 A 
ATOM     51  C   UNL A   1      41.705  24.889  27.567  1.00  0.00     0.173 A 
ATOM     52  C   UNL A   1      43.162  26.644  26.817  1.00  0.00     0.173 A 
ATOM     53  F   UNL A   1      40.815  24.395  28.440  1.00  0.00    -0.203 F 
ATOM     54  C   UNL A   1      42.128  24.089  26.508  1.00  0.00     0.198 A 
ATOM     55  C   UNL A   1      43.557  25.856  25.739  1.00  0.00     0.198 A 
ATOM     56  F   UNL A   1      43.679  27.874  26.941  1.00  0.00    -0.203 F 
ATOM     57  F   UNL A   1      41.653  22.842  26.384  1.00  0.00    -0.200 F 
ATOM     58  C   UNL A   1      43.047  24.576  25.591  1.00  0.00     0.200 A 
ATOM     59  F   UNL A   1      44.428  26.340  24.844  1.00  0.00    -0.200 F 
ATOM     60  F   UNL A   1      43.446  23.809  24.567  1.00  0.00    -0.200 F 
ENDBRANCH  26  50
BRANCH  38  61
ATOM     61  C   UNL A   1      44.940  27.749  33.970  1.00  0.00     0.064 A 
ATOM     62  C   UNL A   1      46.133  28.481  33.855  1.00  0.00     0.173 A 
ATOM     63  C   UNL A   1      44.951  26.601  34.776  1.00  0.00     0.173 A 
ATOM     64  F   UNL A   1      46.181  29.576  33.081  1.00  0.00    -0.203 F 
ATOM     65  C   UNL A   1      47.295  28.060  34.497  1.00  0.00     0.198 A 
ATOM     66  C   UNL A   1      46.106  26.204  35.445  1.00  0.00     0.198 A 
ATOM     67  F   UNL A   1      43.836  25.868  34.924  1.00  0.00    -0.203 F 
ATOM     68  F   UNL A   1      48.436  28.742  34.324  1.00  0.00    -0.200 F 
ATOM     69  C   UNL A   1      47.278  26.928  35.297  1.00  0.00     0.200 A 
ATOM     70  F   UNL A   1      46.083  25.118  36.230  1.00  0.00    -0.200 F 
ATOM     71  F   UNL A   1      48.396  26.529  35.918  1.00  0.00    -0.200 F 
ENDBRANCH  38  61
ENDBRANCH  12  13
ENDBRANCH   5   7
ENDBRANCH   2   3
ENDBRANCH   1   2
BRANCH   1  72
ATOM     72  C   UNL A   1      32.634  26.428  26.133  1.00  0.00     0.117 C 
BRANCH  72  73
ATOM     73  N   UNL A   1      31.793  25.474  26.831  1.00  0.00    -0.354 N 
ATOM     74  C   UNL A   1      31.338  24.247  26.463  1.00  0.00     0.242 C 
ATOM     75  H   UNL A   1      31.503  25.765  27.726  1.00  0.00     0.163 HD
ATOM     76  O   UNL A   1      30.539  23.693  27.224  1.00  0.00    -0.273 OA
BRANCH  74  77
ATOM     77  C   UNL A   1      31.716  23.610  25.119  1.00  0.00     0.176 C 
BRANCH  77  78
ATOM     78  N   UNL A   1      32.024  22.192  25.338  1.00  0.00    -0.339 N 
ATOM     79  C   UNL A   1      33.231  21.536  25.286  1.00  0.00     0.262 C 
ATOM     80  H   UNL A   1      31.249  21.624  25.553  1.00  0.00     0.164 HD
ATOM     81  O   UNL A   1      33.202  20.310  25.415  1.00  0.00    -0.268 OA
BRANCH  79  82
ATOM     82  C   UNL A   1      34.444  22.289  25.046  1.00  0.00     0.093 A 
ATOM     83  C   UNL A   1      35.059  22.631  23.853  1.00  0.00     0.027 A 
ATOM     84  S   UNL A   1      35.316  22.909  26.392  1.00  0.00    -0.118 S 
ATOM     85  C   UNL A   1      36.314  23.279  24.057  1.00  0.00     0.033 A 
ATOM     86  C   UNL A   1      36.562  23.461  25.391  1.00  0.00     0.094 A 
ATOM     87  Cl  UNL A   1      37.963  24.171  26.085  1.00  0.00    -0.072 Cl
ENDBRANCH  79  82
ENDBRANCH  77  78
BRANCH  77  88
ATOM     88  C   UNL A   1      30.676  23.831  24.000  1.00  0.00     0.070 C 
BRANCH  88  89
ATOM     89  C   UNL A   1      30.676  25.243  23.456  1.00  0.00    -0.045 A 
ATOM     90  C   UNL A   1      31.684  25.660  22.575  1.00  0.00     0.007 A 
ATOM     91  C   UNL A   1      29.677  26.155  23.820  1.00  0.00     0.007 A 
ATOM     92  C   UNL A   1      31.659  26.944  22.027  1.00  0.00     0.046 A 
ATOM     93  C   UNL A   1      29.635  27.427  23.254  1.00  0.00     0.046 A 
ATOM     94  C   UNL A   1      30.622  27.810  22.358  1.00  0.00     0.115 A 
BRANCH  94  95
ATOM     95  O   UNL A   1      30.540  29.058  21.821  1.00  0.00    -0.508 OA
ATOM     96  H   UNL A   1      30.671  29.811  22.364  1.00  0.00     0.293 HD
ENDBRANCH  94  95
ENDBRANCH  88  89
ENDBRANCH  77  88
ENDBRANCH  74  77
ENDBRANCH  72  73
ENDBRANCH   1  72
TORSDOF 15
ENDMDL
MODEL 2
REMARK VINA RESULT:     -12.1      0.325      1.165
REMARK SMILES O=C(NCCCNC(=O)[C@H](Cc1ccc(O)cc1)NC(=O)c1ccc(Cl)s1)c1ccc(-c2c3nc(c(-c4c(F)c(F)c(F)c(F)c4F)c4ccc([nH]4)c(-c4c(F)c(F)c(F)c(F)c4F)c4nc(c(-c5c(F)c(F)c(F)c(F)c5F)c5ccc2[nH]5)C=C4)C=C3)cc1
REMARK SMILES IDX 5 1 4 2 3 3 1 4 2 5 28 7 29 8 90 9 30 10 89 11 31 12 32 13
REMARK SMILES IDX 33 14 83 15 34 16 88 17 82 18 84 19 35 20 87 21 81 22 80 23
REMARK SMILES IDX 36 25 68 26 48 27 67 28 49 29 52 30 66 31 85 32 50 33 51 34
REMARK SMILES IDX 65 36 86 37 53 38 37 39 38 40 46 41 39 42 40 43 44 44 47 45
REMARK SMILES IDX 41 46 42 47 45 48 43 49 69 50 70 51 78 52 71 53 72 54 76 55
REMARK SMILES IDX 79 56 73 57 74 58 77 59 75 60 54 61 55 62 63 63 56 64 57 65
REMARK SMILES IDX 61 66 64 67 58 68 59 69 62 70 60 71 6 72 7 73 8 74 9 76
REMARK SMILES IDX 10 77 19 78 20 79 21 81 22 82 23 83 27 84 24 85 25 86 26 87
REMARK SMILES IDX 11 88 12 89 13 90 18 91 14 92 17 93 15 94 16 95
REMARK H PARENT 3 6 84 24 52 35 7 75 19 80 16 96
REMARK Flexibility Score: inf
ROOT
ATOM      1  C   UNL A   1      31.984  28.073  26.176  1.00  0.00     0.042 C 
ENDROOT
BRANCH   1   2
ATOM      2  C   UNL A   1      33.015  29.105  25.745  1.00  0.00     0.118 C 
BRANCH   2   3
ATOM      3  N   UNL A   1      32.628  30.472  26.066  1.00  0.00    -0.352 N 
ATOM      4  O   UNL A   1      32.628  32.414  27.214  1.00  0.00    -0.269 OA
ATOM      5  C   UNL A   1      33.186  31.351  26.965  1.00  0.00     0.251 C 
ATOM      6  H   UNL A   1      31.853  30.818  25.568  1.00  0.00     0.163 HD
BRANCH   5   7
ATOM      7  C   UNL A   1      34.446  30.997  27.651  1.00  0.00     0.039 A 
ATOM      8  C   UNL A   1      34.639  29.709  28.154  1.00  0.00     0.014 A 
ATOM      9  C   UNL A   1      35.442  31.965  27.801  1.00  0.00     0.014 A 
ATOM     10  C   UNL A   1      35.741  29.441  28.954  1.00  0.00     0.010 A 
ATOM     11  C   UNL A   1      36.606  31.657  28.511  1.00  0.00     0.010 A 
ATOM     12  C   UNL A   1      36.750  30.402  29.121  1.00  0.00    -0.014 A 
BRANCH  12  13
ATOM     13  C   UNL A   1      37.976  30.035  29.873  1.00  0.00     0.031 A 
ATOM     14  C   UNL A   1      38.225  30.540  31.265  1.00  0.00     0.074 A 
ATOM     15  C   UNL A   1      38.862  29.208  29.282  1.00  0.00     0.049 A 
ATOM     16  N   UNL A   1      39.240  30.303  32.058  1.00  0.00    -0.248 NA
ATOM     17  C   UNL A   1      37.209  31.433  31.843  1.00  0.00     0.031 C 
ATOM     18  C   UNL A   1      38.728  28.662  27.929  1.00  0.00     0.029 A 
ATOM     19  N   UNL A   1      40.034  28.668  29.744  1.00  0.00    -0.354 N 
ATOM     20  C   UNL A   1      38.996  31.027  33.218  1.00  0.00     0.074 A 
ATOM     21  C   UNL A   1      37.751  31.738  33.014  1.00  0.00     0.031 C 
ATOM     22  C   UNL A   1      39.750  27.830  27.688  1.00  0.00     0.029 A 
ATOM     23  C   UNL A   1      40.648  27.842  28.834  1.00  0.00     0.049 A 
ATOM     24  H   UNL A   1      40.400  28.854  30.638  1.00  0.00     0.167 HD
ATOM     25  C   UNL A   1      39.741  31.084  34.349  1.00  0.00     0.037 A 
ATOM     26  C   UNL A   1      41.819  27.185  28.904  1.00  0.00     0.037 A 
ATOM     27  C   UNL A   1      40.978  30.367  34.541  1.00  0.00     0.049 A 
ATOM     28  C   UNL A   1      42.645  27.305  30.152  1.00  0.00     0.074 A 
ATOM     29  C   UNL A   1      41.788  30.329  35.663  1.00  0.00     0.029 A 
ATOM     30  N   UNL A   1      41.589  29.570  33.583  1.00  0.00    -0.354 N 
ATOM     31  N   UNL A   1      42.383  27.958  31.257  1.00  0.00    -0.248 NA
ATOM     32  C   UNL A   1      43.931  26.596  30.160  1.00  0.00     0.031 C 
ATOM     33  C   UNL A   1      42.919  29.563  35.362  1.00  0.00     0.029 A 
ATOM     34  C   UNL A   1      42.784  29.065  34.076  1.00  0.00     0.049 A 
ATOM     35  H   UNL A   1      41.229  29.390  32.685  1.00  0.00     0.167 HD
ATOM     36  C   UNL A   1      43.460  27.725  32.100  1.00  0.00     0.074 A 
ATOM     37  C   UNL A   1      44.365  26.849  31.386  1.00  0.00     0.031 C 
ATOM     38  C   UNL A   1      43.678  28.196  33.353  1.00  0.00     0.037 A 
BRANCH  25  39
ATOM     39  C   UNL A   1      39.257  31.970  35.463  1.00  0.00     0.064 A 
ATOM     40  C   UNL A   1      38.432  31.488  36.490  1.00  0.00     0.173 A 
ATOM     41  C   UNL A   1      39.662  33.314  35.528  1.00  0.00     0.173 A 
ATOM     42  F   UNL A   1      38.007  30.216  36.474  1.00  0.00    -0.203 F 
ATOM     43  C   UNL A   1      38.006  32.322  37.522  1.00  0.00     0.198 A 
ATOM     44  C   UNL A   1      39.262  34.136  36.578  1.00  0.00     0.198 A 
ATOM     45  F   UNL A   1      40.458  33.826  34.578  1.00  0.00    -0.203 F 
ATOM     46  F   UNL A   1      37.178  31.851  38.465  1.00  0.00    -0.200 F 
ATOM     47  C   UNL A   1      38.428  33.643  37.570  1.00  0.00     0.200 A 
ATOM     48  F   UNL A   1      39.685  35.407  36.630  1.00  0.00    -0.200 F 
ATOM     49  F   UNL A   1      38.024  34.442  38.566  1.00  0.00    -0.200 F 
ENDBRANCH  25  39
BRANCH  26  50
ATOM     50  C   UNL A   1      42.277  26.371  27.748  1.00  0.00     0.064 A 
ATOM     51  C   UNL A   1      43.220  26.871  26.840  1.00  0.00     0.173 A 
ATOM     52  C   UNL A   1      41.791  25.072  27.536  1.00  0.00     0.173 A 
ATOM     53  F   UNL A   1      43.703  28.113  26.992  1.00  0.00    -0.203 F 
ATOM     54  C   UNL A   1      43.644  26.110  25.753  1.00  0.00     0.198 A 
ATOM     55  C   UNL A   1      42.242  24.299  26.469  1.00  0.00     0.198 A 
ATOM     56  F   UNL A   1      40.894  24.543  28.381  1.00  0.00    -0.203 F 
ATOM     57  F   UNL A   1      44.513  26.629  24.874  1.00  0.00    -0.200 F 
ATOM     58  C   UNL A   1      43.162  24.822  25.573  1.00  0.00     0.200 A 
ATOM     59  F   UNL A   1      41.790  23.048  26.312  1.00  0.00    -0.200 F 
ATOM     60  F   UNL A   1      43.578  24.088  24.533  1.00  0.00    -0.200 F 
ENDBRANCH  26  50
BRANCH  38  61
ATOM     61  C   UNL A   1      44.933  27.743  34.043  1.00  0.00     0.064 A 
ATOM     62  C   UNL A   1      46.126  28.478  33.963  1.00  0.00     0.173 A 
ATOM     63  C   UNL A   1      44.936  26.570  34.813  1.00  0.00     0.173 A 
ATOM     64  F   UNL A   1      46.181  29.597  33.224  1.00  0.00    -0.203 F 
ATOM     65  C   UNL A   1      47.282  28.039  34.603  1.00  0.00     0.198 A 
ATOM     66  C   UNL A   1      46.085  26.154  35.481  1.00  0.00     0.198 A 
ATOM     67  F   UNL A   1      43.821  25.833  34.928  1.00  0.00    -0.203 F 
ATOM     68  F   UNL A   1      48.424  28.725  34.463  1.00  0.00    -0.200 F 
ATOM     69  C   UNL A   1      47.258  26.882  35.366  1.00  0.00     0.200 A 
ATOM     70  F   UNL A   1      46.055  25.043  36.231  1.00  0.00    -0.200 F 
ATOM     71  F   UNL A   1      48.370  26.464  35.986  1.00  0.00    -0.200 F 
ENDBRANCH  38  61
ENDBRANCH  12  13
ENDBRANCH   5   7
ENDBRANCH   2   3
ENDBRANCH   1   2
BRANCH   1  72
ATOM     72  C   UNL A   1      32.524  26.657  26.264  1.00  0.00     0.117 C 
BRANCH  72  73
ATOM     73  N   UNL A   1      31.529  25.728  26.765  1.00  0.00    -0.354 N 
ATOM     74  C   UNL A   1      31.043  24.571  26.241  1.00  0.00     0.242 C 
ATOM     75  H   UNL A   1      31.141  25.976  27.635  1.00  0.00     0.163 HD
ATOM     76  O   UNL A   1      30.109  24.031  26.842  1.00  0.00    -0.273 OA
BRANCH  74  77
ATOM     77  C   UNL A   1      31.555  24.004  24.910  1.00  0.00     0.176 C 
BRANCH  77  78
ATOM     78  N   UNL A   1      31.736  22.555  25.053  1.00  0.00    -0.339 N 
ATOM     79  C   UNL A   1      32.885  21.802  24.995  1.00  0.00     0.262 C 
ATOM     80  H   UNL A   1      30.909  22.044  25.213  1.00  0.00     0.164 HD
ATOM     81  O   UNL A   1      32.748  20.577  25.050  1.00  0.00    -0.268 OA
BRANCH  79  82
ATOM     82  C   UNL A   1      34.163  22.461  24.833  1.00  0.00     0.093 A 
ATOM     83  C   UNL A   1      34.854  22.794  23.679  1.00  0.00     0.027 A 
ATOM     84  S   UNL A   1      35.025  22.957  26.236  1.00  0.00    -0.118 S 
ATOM     85  C   UNL A   1      36.148  23.328  23.958  1.00  0.00     0.033 A 
ATOM     86  C   UNL A   1      36.353  23.440  25.308  1.00  0.00     0.094 A 
ATOM     87  Cl  UNL A   1      37.776  24.006  26.083  1.00  0.00    -0.072 Cl
ENDBRANCH  79  82
ENDBRANCH  77  78
BRANCH  77  88
ATOM     88  C   UNL A   1      30.692  24.383  23.688  1.00  0.00     0.070 C 
BRANCH  88  89
ATOM     89  C   UNL A   1      30.834  25.833  23.283  1.00  0.00    -0.045 A 
ATOM     90  C   UNL A   1      32.012  26.283  22.669  1.00  0.00     0.007 A 
ATOM     91  C   UNL A   1      29.800  26.750  23.514  1.00  0.00     0.007 A 
ATOM     92  C   UNL A   1      32.128  27.609  22.245  1.00  0.00     0.046 A 
ATOM     93  C   UNL A   1      29.902  28.065  23.067  1.00  0.00     0.046 A 
ATOM     94  C   UNL A   1      31.062  28.483  22.431  1.00  0.00     0.115 A 
BRANCH  94  95
ATOM     95  O   UNL A   1      31.119  29.774  22.003  1.00  0.00    -0.508 OA
ATOM     96  H   UNL A   1      30.352  30.312  22.033  1.00  0.00     0.293 HD
ENDBRANCH  94  95
ENDBRANCH  88  89
ENDBRANCH  77  88
ENDBRANCH  74  77
ENDBRANCH  72  73
ENDBRANCH   1  72
TORSDOF 15
ENDMDL
MODEL 3
REMARK VINA RESULT:     -12.1      0.291      7.385
REMARK SMILES O=C(NCCCNC(=O)[C@H](Cc1ccc(O)cc1)NC(=O)c1ccc(Cl)s1)c1ccc(-c2c3nc(c(-c4c(F)c(F)c(F)c(F)c4F)c4ccc([nH]4)c(-c4c(F)c(F)c(F)c(F)c4F)c4nc(c(-c5c(F)c(F)c(F)c(F)c5F)c5ccc2[nH]5)C=C4)C=C3)cc1
REMARK SMILES IDX 5 1 4 2 3 3 1 4 2 5 28 7 29 8 90 9 30 10 89 11 31 12 32 13
REMARK SMILES IDX 33 14 83 15 34 16 88 17 82 18 84 19 35 20 87 21 81 22 80 23
REMARK SMILES IDX 36 25 68 26 48 27 67 28 49 29 52 30 66 31 85 32 50 33 51 34
REMARK SMILES IDX 65 36 86 37 53 38 37 39 38 40 46 41 39 42 40 43 44 44 47 45
REMARK SMILES IDX 41 46 42 47 45 48 43 49 69 50 70 51 78 52 71 53 72 54 76 55
REMARK SMILES IDX 79 56 73 57 74 58 77 59 75 60 54 61 55 62 63 63 56 64 57 65
REMARK SMILES IDX 61 66 64 67 58 68 59 69 62 70 60 71 6 72 7 73 8 74 9 76
REMARK SMILES IDX 10 77 19 78 20 79 21 81 22 82 23 83 27 84 24 85 25 86 26 87
REMARK SMILES IDX 11 88 12 89 13 90 18 91 14 92 17 93 15 94 16 95
REMARK H PARENT 3 6 84 24 52 35 7 75 19 80 16 96
REMARK Flexibility Score: inf
ROOT
ATOM      1  C   UNL A   1      32.045  27.967  26.153  1.00  0.00     0.042 C 
ENDROOT
BRANCH   1   2
ATOM      2  C   UNL A   1      33.008  29.031  25.650  1.00  0.00     0.118 C 
BRANCH   2   3
ATOM      3  N   UNL A   1      32.605  30.385  26.009  1.00  0.00    -0.352 N 
ATOM      4  O   UNL A   1      32.579  32.293  27.211  1.00  0.00    -0.269 OA
ATOM      5  C   UNL A   1      33.150  31.243  26.935  1.00  0.00     0.251 C 
ATOM      6  H   UNL A   1      31.829  30.737  25.516  1.00  0.00     0.163 HD
BRANCH   5   7
ATOM      7  C   UNL A   1      34.409  30.883  27.618  1.00  0.00     0.039 A 
ATOM      8  C   UNL A   1      34.580  29.607  28.157  1.00  0.00     0.014 A 
ATOM      9  C   UNL A   1      35.428  31.832  27.726  1.00  0.00     0.014 A 
ATOM     10  C   UNL A   1      35.685  29.338  28.953  1.00  0.00     0.010 A 
ATOM     11  C   UNL A   1      36.593  31.520  28.432  1.00  0.00     0.010 A 
ATOM     12  C   UNL A   1      36.717  30.282  29.079  1.00  0.00    -0.014 A 
BRANCH  12  13
ATOM     13  C   UNL A   1      37.944  29.910  29.828  1.00  0.00     0.031 A 
ATOM     14  C   UNL A   1      38.966  28.978  29.245  1.00  0.00     0.074 A 
ATOM     15  C   UNL A   1      38.137  30.454  31.046  1.00  0.00     0.049 A 
ATOM     16  N   UNL A   1      40.094  28.562  29.766  1.00  0.00    -0.248 NA
ATOM     17  C   UNL A   1      38.687  28.431  27.909  1.00  0.00     0.031 C 
ATOM     18  C   UNL A   1      37.206  31.366  31.715  1.00  0.00     0.029 A 
ATOM     19  N   UNL A   1      39.179  30.336  31.929  1.00  0.00    -0.354 N 
ATOM     20  C   UNL A   1      40.650  27.696  28.834  1.00  0.00     0.074 A 
ATOM     21  C   UNL A   1      39.720  27.620  27.726  1.00  0.00     0.031 C 
ATOM     22  C   UNL A   1      37.739  31.762  32.879  1.00  0.00     0.029 A 
ATOM     23  C   UNL A   1      39.009  31.076  33.074  1.00  0.00     0.049 A 
ATOM     24  H   UNL A   1      39.970  29.777  31.759  1.00  0.00     0.167 HD
ATOM     25  C   UNL A   1      41.832  27.035  28.896  1.00  0.00     0.037 A 
ATOM     26  C   UNL A   1      39.778  31.171  34.173  1.00  0.00     0.037 A 
ATOM     27  C   UNL A   1      42.751  27.123  30.003  1.00  0.00     0.049 A 
ATOM     28  C   UNL A   1      41.058  30.390  34.233  1.00  0.00     0.074 A 
ATOM     29  C   UNL A   1      43.990  26.522  30.147  1.00  0.00     0.029 A 
ATOM     30  N   UNL A   1      42.527  27.851  31.164  1.00  0.00    -0.354 N 
ATOM     31  N   UNL A   1      41.593  29.608  33.327  1.00  0.00    -0.248 NA
ATOM     32  C   UNL A   1      41.841  30.504  35.470  1.00  0.00     0.031 C 
ATOM     33  C   UNL A   1      44.485  26.833  31.417  1.00  0.00     0.029 A 
ATOM     34  C   UNL A   1      43.590  27.686  32.042  1.00  0.00     0.049 A 
ATOM     35  H   UNL A   1      41.732  28.404  31.339  1.00  0.00     0.167 HD
ATOM     36  C   UNL A   1      42.783  29.152  33.874  1.00  0.00     0.074 A 
ATOM     37  C   UNL A   1      42.903  29.766  35.180  1.00  0.00     0.031 C 
ATOM     38  C   UNL A   1      43.694  28.301  33.342  1.00  0.00     0.037 A 
BRANCH  25  39
ATOM     39  C   UNL A   1      42.192  26.134  27.747  1.00  0.00     0.064 A 
ATOM     40  C   UNL A   1      43.104  26.526  26.754  1.00  0.00     0.173 A 
ATOM     41  C   UNL A   1      41.651  24.841  27.663  1.00  0.00     0.173 A 
ATOM     42  F   UNL A   1      43.645  27.753  26.781  1.00  0.00    -0.203 F 
ATOM     43  C   UNL A   1      43.436  25.670  25.706  1.00  0.00     0.198 A 
ATOM     44  C   UNL A   1      42.010  23.976  26.632  1.00  0.00     0.198 A 
ATOM     45  F   UNL A   1      40.781  24.411  28.588  1.00  0.00    -0.203 F 
ATOM     46  F   UNL A   1      44.271  26.085  24.743  1.00  0.00    -0.200 F 
ATOM     47  C   UNL A   1      42.895  24.394  25.650  1.00  0.00     0.200 A 
ATOM     48  F   UNL A   1      41.499  22.738  26.589  1.00  0.00    -0.200 F 
ATOM     49  F   UNL A   1      43.221  23.569  24.645  1.00  0.00    -0.200 F 
ENDBRANCH  25  39
BRANCH  26  50
ATOM     50  C   UNL A   1      39.342  32.030  35.304  1.00  0.00     0.064 A 
ATOM     51  C   UNL A   1      39.705  33.382  35.366  1.00  0.00     0.173 A 
ATOM     52  C   UNL A   1      38.544  31.520  36.339  1.00  0.00     0.173 A 
ATOM     53  F   UNL A   1      40.480  33.912  34.409  1.00  0.00    -0.203 F 
ATOM     54  C   UNL A   1      39.302  34.186  36.430  1.00  0.00     0.198 A 
ATOM     55  C   UNL A   1      38.112  32.333  37.383  1.00  0.00     0.198 A 
ATOM     56  F   UNL A   1      38.161  30.235  36.322  1.00  0.00    -0.203 F 
ATOM     57  F   UNL A   1      39.701  35.464  36.489  1.00  0.00    -0.200 F 
ATOM     58  C   UNL A   1      38.499  33.663  37.434  1.00  0.00     0.200 A 
ATOM     59  F   UNL A   1      37.319  31.829  38.338  1.00  0.00    -0.200 F 
ATOM     60  F   UNL A   1      38.104  34.440  38.451  1.00  0.00    -0.200 F 
ENDBRANCH  26  50
BRANCH  38  61
ATOM     61  C   UNL A   1      44.918  28.009  34.163  1.00  0.00     0.064 A 
ATOM     62  C   UNL A   1      46.064  28.816  34.093  1.00  0.00     0.173 A 
ATOM     63  C   UNL A   1      44.936  26.921  35.048  1.00  0.00     0.173 A 
ATOM     64  F   UNL A   1      46.105  29.858  33.248  1.00  0.00    -0.203 F 
ATOM     65  C   UNL A   1      47.192  28.525  34.855  1.00  0.00     0.198 A 
ATOM     66  C   UNL A   1      46.053  26.655  35.835  1.00  0.00     0.198 A 
ATOM     67  F   UNL A   1      43.865  26.120  35.158  1.00  0.00    -0.203 F 
ATOM     68  F   UNL A   1      48.296  29.275  34.727  1.00  0.00    -0.200 F 
ATOM     69  C   UNL A   1      47.183  27.450  35.730  1.00  0.00     0.200 A 
ATOM     70  F   UNL A   1      46.036  25.624  36.692  1.00  0.00    -0.200 F 
ATOM     71  F   UNL A   1      48.267  27.176  36.468  1.00  0.00    -0.200 F 
ENDBRANCH  38  61
ENDBRANCH  12  13
ENDBRANCH   5   7
ENDBRANCH   2   3
ENDBRANCH   1   2
BRANCH   1  72
ATOM     72  C   UNL A   1      32.619  26.561  26.151  1.00  0.00     0.117 C 
BRANCH  72  73
ATOM     73  N   UNL A   1      31.731  25.612  26.794  1.00  0.00    -0.354 N 
ATOM     74  C   UNL A   1      31.240  24.418  26.368  1.00  0.00     0.242 C 
ATOM     75  H   UNL A   1      31.434  25.877  27.695  1.00  0.00     0.163 HD
ATOM     76  O   UNL A   1      30.406  23.863  27.090  1.00  0.00    -0.273 OA
BRANCH  74  77
ATOM     77  C   UNL A   1      31.620  23.823  25.005  1.00  0.00     0.176 C 
BRANCH  77  78
ATOM     78  N   UNL A   1      31.848  22.382  25.166  1.00  0.00    -0.339 N 
ATOM     79  C   UNL A   1      33.020  21.666  25.113  1.00  0.00     0.262 C 
ATOM     80  H   UNL A   1      31.039  21.848  25.338  1.00  0.00     0.164 HD
ATOM     81  O   UNL A   1      32.923  20.438  25.185  1.00  0.00    -0.268 OA
BRANCH  79  82
ATOM     82  C   UNL A   1      34.276  22.363  24.934  1.00  0.00     0.093 A 
ATOM     83  C   UNL A   1      34.951  22.699  23.772  1.00  0.00     0.027 A 
ATOM     84  S   UNL A   1      35.127  22.909  26.325  1.00  0.00    -0.118 S 
ATOM     85  C   UNL A   1      36.228  23.280  24.037  1.00  0.00     0.033 A 
ATOM     86  C   UNL A   1      36.435  23.420  25.384  1.00  0.00     0.094 A 
ATOM     87  Cl  UNL A   1      37.842  24.044  26.144  1.00  0.00    -0.072 Cl
ENDBRANCH  79  82
ENDBRANCH  77  78
BRANCH  77  88
ATOM     88  C   UNL A   1      30.624  24.149  23.872  1.00  0.00     0.070 C 
BRANCH  88  89
ATOM     89  C   UNL A   1      30.739  25.571  23.368  1.00  0.00    -0.045 A 
ATOM     90  C   UNL A   1      29.713  26.494  23.619  1.00  0.00     0.007 A 
ATOM     91  C   UNL A   1      31.863  25.990  22.645  1.00  0.00     0.007 A 
ATOM     92  C   UNL A   1      29.838  27.821  23.204  1.00  0.00     0.046 A 
ATOM     93  C   UNL A   1      32.002  27.319  22.254  1.00  0.00     0.046 A 
ATOM     94  C   UNL A   1      30.991  28.226  22.541  1.00  0.00     0.115 A 
BRANCH  94  95
ATOM     95  O   UNL A   1      31.169  29.517  22.148  1.00  0.00    -0.508 OA
ATOM     96  H   UNL A   1      30.798  30.216  22.650  1.00  0.00     0.293 HD
ENDBRANCH  94  95
ENDBRANCH  88  89
ENDBRANCH  77  88
ENDBRANCH  74  77
ENDBRANCH  72  73
ENDBRANCH   1  72
TORSDOF 15
ENDMDL
