MODEL 1
REMARK VINA RESULT:     -12.1      0.000      0.000
REMARK SMILES CCCc1cc(=O)[nH]c(S[C@@H]2CC[C@@]([NH2+]C)(C(=O)NCCCNC(=O)c3ccc(-c4c5nc(c(-c6c(F)c(F)c(F)c(F)c6F)c6ccc([nH]6)c(-c6c(F)c(F)c(F)c(F)c6F)c6nc(c(-c7c(F)c(F)c(F)c(F)c7F)c7ccc4[nH]7)C=C6)C=C5)cc3)C2)n1
REMARK SMILES IDX 20 1 19 2 17 3 18 4 14 6 11 7 12 8 89 9 13 10 10 11 9 12
REMARK SMILES IDX 4 13 5 14 90 15 6 16 7 17 8 18 3 20 2 21 1 22 15 23 16 24
REMARK SMILES IDX 21 27 22 28 23 29 24 30 25 32 26 33 27 34 88 35 28 36 87 37
REMARK SMILES IDX 29 38 30 39 31 40 81 41 32 42 86 43 80 44 82 45 33 46 85 47
REMARK SMILES IDX 79 48 78 49 34 51 66 52 46 53 65 54 47 55 50 56 64 57 83 58
REMARK SMILES IDX 48 59 49 60 63 62 84 63 51 64 35 65 36 66 44 67 37 68 38 69
REMARK SMILES IDX 42 70 45 71 39 72 40 73 43 74 41 75 67 76 68 77 76 78 69 79
REMARK SMILES IDX 70 80 74 81 77 82 71 83 72 84 75 85 73 86 52 87 53 88 61 89
REMARK SMILES IDX 54 90 55 91 59 92 62 93 56 94 57 95 60 96 58 97
REMARK H PARENT 19 5 8 19 15 25 15 26 23 31 82 50 50 61
REMARK Flexibility Score: inf
ROOT
ATOM      1  C   UNL A   1      31.612  30.896  25.941  1.00  0.00     0.118 C 
ENDROOT
BRANCH   1   2
ATOM      2  N   UNL A   1      31.413  29.658  26.678  1.00  0.00    -0.351 N 
ATOM      3  C   UNL A   1      32.143  28.502  26.657  1.00  0.00     0.281 C 
ATOM      4  O   UNL A   1      31.745  27.574  27.366  1.00  0.00    -0.268 OA
ATOM      5  H   UNL A   1      30.636  29.652  27.282  1.00  0.00     0.163 HD
BRANCH   3   6
ATOM      6  C   UNL A   1      33.411  28.376  25.756  1.00  0.00     0.176 C 
ATOM      7  C   UNL A   1      33.388  26.191  24.687  1.00  0.00     0.062 C 
ATOM      8  C   UNL A   1      33.162  27.205  23.576  1.00  0.00     0.022 C 
ATOM      9  C   UNL A   1      34.027  26.963  25.837  1.00  0.00     0.094 C 
ATOM     10  C   UNL A   1      32.987  28.548  24.276  1.00  0.00     0.080 C 
BRANCH   7  11
ATOM     11  S   UNL A   1      34.292  24.708  24.145  1.00  0.00    -0.084 SA
BRANCH  11  12
ATOM     12  C   UNL A   1      33.284  23.383  24.647  1.00  0.00     0.168 A 
ATOM     13  C   UNL A   1      32.448  21.257  24.611  1.00  0.00     0.049 A 
ATOM     14  C   UNL A   1      31.677  21.476  25.687  1.00  0.00     0.095 A 
ATOM     15  N   UNL A   1      33.268  22.226  24.077  1.00  0.00    -0.229 NA
ATOM     16  C   UNL A   1      31.677  22.818  26.292  1.00  0.00     0.251 A 
ATOM     17  O   UNL A   1      30.962  23.084  27.252  1.00  0.00    -0.269 OA
ATOM     18  N   UNL A   1      32.517  23.713  25.715  1.00  0.00    -0.301 N 
ATOM     19  H   UNL A   1      32.571  24.626  26.083  1.00  0.00     0.172 HD
BRANCH  13  20
ATOM     20  C   UNL A   1      32.529  19.929  23.876  1.00  0.00     0.056 C 
BRANCH  20  21
ATOM     21  C   UNL A   1      33.587  18.906  24.309  1.00  0.00     0.003 C 
ATOM     22  C   UNL A   1      33.557  17.618  23.498  1.00  0.00     0.004 C 
ENDBRANCH  20  21
ENDBRANCH  13  20
ENDBRANCH  11  12
ENDBRANCH   7  11
BRANCH   6  23
ATOM     23  N   UNL A   1      34.418  29.409  26.129  1.00  0.00    -0.336 N 
ATOM     24  C   UNL A   1      34.886  29.313  27.508  1.00  0.00     0.331 C 
ATOM     25  H   UNL A   1      33.998  30.329  25.996  1.00  0.00     0.346 HD
ATOM     26  H   UNL A   1      35.230  29.258  25.531  1.00  0.00     0.346 HD
ENDBRANCH   6  23
ENDBRANCH   3   6
ENDBRANCH   1   2
BRANCH   1  27
ATOM     27  C   UNL A   1      31.371  32.119  26.816  1.00  0.00     0.042 C 
BRANCH  27  28
ATOM     28  C   UNL A   1      32.647  32.824  27.251  1.00  0.00     0.118 C 
BRANCH  28  29
ATOM     29  N   UNL A   1      32.421  34.212  27.626  1.00  0.00    -0.352 N 
ATOM     30  C   UNL A   1      33.004  34.964  28.616  1.00  0.00     0.251 C 
ATOM     31  H   UNL A   1      31.746  34.685  27.087  1.00  0.00     0.163 HD
ATOM     32  O   UNL A   1      32.545  36.067  28.897  1.00  0.00    -0.269 OA
BRANCH  30  33
ATOM     33  C   UNL A   1      34.167  34.439  29.364  1.00  0.00     0.039 A 
ATOM     34  C   UNL A   1      33.949  33.818  30.596  1.00  0.00     0.014 A 
ATOM     35  C   UNL A   1      35.465  34.563  28.864  1.00  0.00     0.014 A 
ATOM     36  C   UNL A   1      35.025  33.264  31.293  1.00  0.00     0.010 A 
ATOM     37  C   UNL A   1      36.522  33.933  29.513  1.00  0.00     0.010 A 
ATOM     38  C   UNL A   1      36.315  33.279  30.737  1.00  0.00    -0.014 A 
BRANCH  38  39
ATOM     39  C   UNL A   1      37.457  32.619  31.421  1.00  0.00     0.031 A 
ATOM     40  C   UNL A   1      38.166  31.465  30.766  1.00  0.00     0.074 A 
ATOM     41  C   UNL A   1      37.813  33.019  32.657  1.00  0.00     0.049 A 
ATOM     42  N   UNL A   1      39.138  30.721  31.230  1.00  0.00    -0.248 NA
ATOM     43  C   UNL A   1      37.706  31.078  29.423  1.00  0.00     0.031 C 
ATOM     44  C   UNL A   1      37.177  34.097  33.416  1.00  0.00     0.029 A 
ATOM     45  N   UNL A   1      38.797  32.560  33.499  1.00  0.00    -0.354 N 
ATOM     46  C   UNL A   1      39.390  29.771  30.248  1.00  0.00     0.074 A 
ATOM     47  C   UNL A   1      38.439  29.999  29.183  1.00  0.00     0.031 C 
ATOM     48  C   UNL A   1      37.802  34.235  34.596  1.00  0.00     0.029 A 
ATOM     49  C   UNL A   1      38.852  33.226  34.699  1.00  0.00     0.049 A 
ATOM     50  H   UNL A   1      39.404  31.821  33.265  1.00  0.00     0.167 HD
ATOM     51  C   UNL A   1      40.342  28.808  30.229  1.00  0.00     0.037 A 
ATOM     52  C   UNL A   1      39.652  33.039  35.766  1.00  0.00     0.037 A 
ATOM     53  C   UNL A   1      41.309  28.606  31.275  1.00  0.00     0.049 A 
ATOM     54  C   UNL A   1      40.690  31.949  35.719  1.00  0.00     0.074 A 
ATOM     55  C   UNL A   1      42.362  27.709  31.312  1.00  0.00     0.029 A 
ATOM     56  N   UNL A   1      41.338  29.306  32.472  1.00  0.00    -0.354 N 
ATOM     57  N   UNL A   1      40.974  31.113  34.750  1.00  0.00    -0.248 NA
ATOM     58  C   UNL A   1      41.525  31.778  36.917  1.00  0.00     0.031 C 
ATOM     59  C   UNL A   1      42.990  27.823  32.556  1.00  0.00     0.029 A 
ATOM     60  C   UNL A   1      42.371  28.837  33.268  1.00  0.00     0.049 A 
ATOM     61  H   UNL A   1      40.717  30.029  32.719  1.00  0.00     0.167 HD
ATOM     62  C   UNL A   1      42.041  30.349  35.203  1.00  0.00     0.074 A 
ATOM     63  C   UNL A   1      42.363  30.829  36.530  1.00  0.00     0.031 C 
ATOM     64  C   UNL A   1      42.693  29.338  34.579  1.00  0.00     0.037 A 
BRANCH  51  65
ATOM     65  C   UNL A   1      40.392  27.890  29.040  1.00  0.00     0.064 A 
ATOM     66  C   UNL A   1      39.638  26.708  28.987  1.00  0.00     0.173 A 
ATOM     67  C   UNL A   1      41.151  28.235  27.912  1.00  0.00     0.173 A 
ATOM     68  F   UNL A   1      38.903  26.328  30.043  1.00  0.00    -0.203 F 
ATOM     69  C   UNL A   1      39.659  25.896  27.856  1.00  0.00     0.198 A 
ATOM     70  C   UNL A   1      41.143  27.437  26.771  1.00  0.00     0.198 A 
ATOM     71  F   UNL A   1      41.885  29.358  27.907  1.00  0.00    -0.203 F 
ATOM     72  F   UNL A   1      38.962  24.751  27.844  1.00  0.00    -0.200 F 
ATOM     73  C   UNL A   1      40.403  26.265  26.746  1.00  0.00     0.200 A 
ATOM     74  F   UNL A   1      41.851  27.804  25.693  1.00  0.00    -0.200 F 
ATOM     75  F   UNL A   1      40.407  25.491  25.652  1.00  0.00    -0.200 F 
ENDBRANCH  51  65
BRANCH  52  76
ATOM     76  C   UNL A   1      39.525  33.906  36.967  1.00  0.00     0.064 A 
ATOM     77  C   UNL A   1      38.760  33.499  38.071  1.00  0.00     0.173 A 
ATOM     78  C   UNL A   1      40.127  35.173  37.025  1.00  0.00     0.173 A 
ATOM     79  F   UNL A   1      38.147  32.307  38.057  1.00  0.00    -0.203 F 
ATOM     80  C   UNL A   1      38.572  34.338  39.168  1.00  0.00     0.198 A 
ATOM     81  C   UNL A   1      39.967  35.996  38.138  1.00  0.00     0.198 A 
ATOM     82  F   UNL A   1      40.874  35.609  36.001  1.00  0.00    -0.203 F 
ATOM     83  F   UNL A   1      37.781  33.950  40.177  1.00  0.00    -0.200 F 
ATOM     84  C   UNL A   1      39.178  35.584  39.202  1.00  0.00     0.200 A 
ATOM     85  F   UNL A   1      40.566  37.193  38.174  1.00  0.00    -0.200 F 
ATOM     86  F   UNL A   1      38.991  36.394  40.253  1.00  0.00    -0.200 F 
ENDBRANCH  52  76
BRANCH  64  87
ATOM     87  C   UNL A   1      43.858  28.718  35.297  1.00  0.00     0.064 A 
ATOM     88  C   UNL A   1      45.168  29.190  35.128  1.00  0.00     0.173 A 
ATOM     89  C   UNL A   1      43.653  27.660  36.197  1.00  0.00     0.173 A 
ATOM     90  F   UNL A   1      45.420  30.188  34.269  1.00  0.00    -0.203 F 
ATOM     91  C   UNL A   1      46.232  28.605  35.810  1.00  0.00     0.198 A 
ATOM     92  C   UNL A   1      44.714  27.104  36.904  1.00  0.00     0.198 A 
ATOM     93  F   UNL A   1      42.418  27.177  36.402  1.00  0.00    -0.203 F 
ATOM     94  F   UNL A   1      47.483  29.036  35.591  1.00  0.00    -0.200 F 
ATOM     95  C   UNL A   1      46.003  27.569  36.704  1.00  0.00     0.200 A 
ATOM     96  F   UNL A   1      44.487  26.114  37.780  1.00  0.00    -0.200 F 
ATOM     97  F   UNL A   1      47.027  27.016  37.366  1.00  0.00    -0.200 F 
ENDBRANCH  64  87
ENDBRANCH  38  39
ENDBRANCH  30  33
ENDBRANCH  28  29
ENDBRANCH  27  28
ENDBRANCH   1  27
TORSDOF 15
ENDMDL
MODEL 2
REMARK VINA RESULT:     -12.0      5.399     10.821
REMARK SMILES CCCc1cc(=O)[nH]c(S[C@@H]2CC[C@@]([NH2+]C)(C(=O)NCCCNC(=O)c3ccc(-c4c5nc(c(-c6c(F)c(F)c(F)c(F)c6F)c6ccc([nH]6)c(-c6c(F)c(F)c(F)c(F)c6F)c6nc(c(-c7c(F)c(F)c(F)c(F)c7F)c7ccc4[nH]7)C=C6)C=C5)cc3)C2)n1
REMARK SMILES IDX 20 1 19 2 17 3 18 4 14 6 11 7 12 8 89 9 13 10 10 11 9 12
REMARK SMILES IDX 4 13 5 14 90 15 6 16 7 17 8 18 3 20 2 21 1 22 15 23 16 24
REMARK SMILES IDX 21 27 22 28 23 29 24 30 25 32 26 33 27 34 88 35 28 36 87 37
REMARK SMILES IDX 29 38 30 39 31 40 81 41 32 42 86 43 80 44 82 45 33 46 85 47
REMARK SMILES IDX 79 48 78 49 34 51 66 52 46 53 65 54 47 55 50 56 64 57 83 58
REMARK SMILES IDX 48 59 49 60 63 62 84 63 51 64 35 65 36 66 44 67 37 68 38 69
REMARK SMILES IDX 42 70 45 71 39 72 40 73 43 74 41 75 67 76 68 77 76 78 69 79
REMARK SMILES IDX 70 80 74 81 77 82 71 83 72 84 75 85 73 86 52 87 53 88 61 89
REMARK SMILES IDX 54 90 55 91 59 92 62 93 56 94 57 95 60 96 58 97
REMARK H PARENT 19 5 8 19 15 25 15 26 23 31 82 50 50 61
REMARK Flexibility Score: inf
ROOT
ATOM      1  C   UNL A   1      36.647  20.701  25.078  1.00  0.00     0.118 C 
ENDROOT
BRANCH   1   2
ATOM      2  N   UNL A   1      35.412  19.935  25.014  1.00  0.00    -0.351 N 
ATOM      3  C   UNL A   1      34.121  20.368  24.883  1.00  0.00     0.281 C 
ATOM      4  O   UNL A   1      33.238  19.507  24.880  1.00  0.00    -0.268 OA
ATOM      5  H   UNL A   1      35.522  18.959  25.074  1.00  0.00     0.163 HD
BRANCH   3   6
ATOM      6  C   UNL A   1      33.799  21.890  24.762  1.00  0.00     0.176 C 
ATOM      7  C   UNL A   1      31.957  22.415  26.261  1.00  0.00     0.062 C 
ATOM      8  C   UNL A   1      33.182  23.106  26.842  1.00  0.00     0.022 C 
ATOM      9  C   UNL A   1      32.279  22.154  24.794  1.00  0.00     0.094 C 
ATOM     10  C   UNL A   1      34.361  22.617  26.009  1.00  0.00     0.080 C 
BRANCH   7  11
ATOM     11  S   UNL A   1      30.403  23.308  26.573  1.00  0.00    -0.084 SA
BRANCH  11  12
ATOM     12  C   UNL A   1      30.728  24.933  26.043  1.00  0.00     0.168 A 
ATOM     13  C   UNL A   1      31.269  27.141  26.272  1.00  0.00     0.049 A 
ATOM     14  C   UNL A   1      31.280  27.339  24.944  1.00  0.00     0.095 A 
ATOM     15  N   UNL A   1      30.988  25.916  26.836  1.00  0.00    -0.229 NA
ATOM     16  C   UNL A   1      30.935  26.213  24.062  1.00  0.00     0.251 A 
ATOM     17  O   UNL A   1      30.891  26.348  22.844  1.00  0.00    -0.269 OA
ATOM     18  N   UNL A   1      30.681  25.039  24.692  1.00  0.00    -0.301 N 
ATOM     19  H   UNL A   1      30.456  24.244  24.155  1.00  0.00     0.172 HD
BRANCH  13  20
ATOM     20  C   UNL A   1      31.583  28.218  27.297  1.00  0.00     0.056 C 
BRANCH  20  21
ATOM     21  C   UNL A   1      32.682  29.241  26.983  1.00  0.00     0.003 C 
ATOM     22  C   UNL A   1      34.082  28.642  26.957  1.00  0.00     0.004 C 
ENDBRANCH  20  21
ENDBRANCH  13  20
ENDBRANCH  11  12
ENDBRANCH   7  11
BRANCH   6  23
ATOM     23  N   UNL A   1      34.403  22.451  23.520  1.00  0.00    -0.336 N 
ATOM     24  C   UNL A   1      34.049  23.844  23.265  1.00  0.00     0.331 C 
ATOM     25  H   UNL A   1      34.088  21.890  22.728  1.00  0.00     0.346 HD
ATOM     26  H   UNL A   1      35.414  22.423  23.645  1.00  0.00     0.346 HD
ENDBRANCH   6  23
ENDBRANCH   3   6
ENDBRANCH   1   2
BRANCH   1  27
ATOM     27  C   UNL A   1      37.871  19.813  24.902  1.00  0.00     0.042 C 
BRANCH  27  28
ATOM     28  C   UNL A   1      39.062  20.231  25.751  1.00  0.00     0.118 C 
BRANCH  28  29
ATOM     29  N   UNL A   1      40.080  19.195  25.838  1.00  0.00    -0.352 N 
ATOM     30  C   UNL A   1      41.427  19.302  26.082  1.00  0.00     0.251 C 
ATOM     31  H   UNL A   1      39.754  18.277  25.700  1.00  0.00     0.163 HD
ATOM     32  O   UNL A   1      42.155  18.325  25.933  1.00  0.00    -0.269 OA
BRANCH  30  33
ATOM     33  C   UNL A   1      42.009  20.595  26.502  1.00  0.00     0.039 A 
ATOM     34  C   UNL A   1      42.472  21.473  25.520  1.00  0.00     0.014 A 
ATOM     35  C   UNL A   1      42.108  20.941  27.852  1.00  0.00     0.014 A 
ATOM     36  C   UNL A   1      42.972  22.724  25.888  1.00  0.00     0.010 A 
ATOM     37  C   UNL A   1      42.521  22.219  28.212  1.00  0.00     0.010 A 
ATOM     38  C   UNL A   1      42.962  23.125  27.234  1.00  0.00    -0.014 A 
BRANCH  38  39
ATOM     39  C   UNL A   1      43.408  24.483  27.638  1.00  0.00     0.031 A 
ATOM     40  C   UNL A   1      42.396  25.532  28.012  1.00  0.00     0.074 A 
ATOM     41  C   UNL A   1      44.720  24.789  27.607  1.00  0.00     0.049 A 
ATOM     42  N   UNL A   1      42.585  26.788  28.328  1.00  0.00    -0.248 NA
ATOM     43  C   UNL A   1      40.983  25.124  28.005  1.00  0.00     0.031 C 
ATOM     44  C   UNL A   1      45.796  23.874  27.221  1.00  0.00     0.029 A 
ATOM     45  N   UNL A   1      45.375  25.961  27.899  1.00  0.00    -0.354 N 
ATOM     46  C   UNL A   1      41.319  27.321  28.537  1.00  0.00     0.074 A 
ATOM     47  C   UNL A   1      40.366  26.268  28.266  1.00  0.00     0.031 C 
ATOM     48  C   UNL A   1      46.974  24.507  27.327  1.00  0.00     0.029 A 
ATOM     49  C   UNL A   1      46.737  25.886  27.743  1.00  0.00     0.049 A 
ATOM     50  H   UNL A   1      44.910  26.778  28.192  1.00  0.00     0.167 HD
ATOM     51  C   UNL A   1      40.985  28.571  28.938  1.00  0.00     0.037 A 
ATOM     52  C   UNL A   1      47.688  26.826  27.906  1.00  0.00     0.037 A 
ATOM     53  C   UNL A   1      41.938  29.606  29.241  1.00  0.00     0.049 A 
ATOM     54  C   UNL A   1      47.281  28.211  28.337  1.00  0.00     0.074 A 
ATOM     55  C   UNL A   1      41.701  30.878  29.730  1.00  0.00     0.029 A 
ATOM     56  N   UNL A   1      43.311  29.489  29.077  1.00  0.00    -0.354 N 
ATOM     57  N   UNL A   1      46.088  28.677  28.614  1.00  0.00    -0.248 NA
ATOM     58  C   UNL A   1      48.358  29.201  28.483  1.00  0.00     0.031 C 
ATOM     59  C   UNL A   1      42.923  31.553  29.804  1.00  0.00     0.029 A 
ATOM     60  C   UNL A   1      43.930  30.680  29.424  1.00  0.00     0.049 A 
ATOM     61  H   UNL A   1      43.776  28.681  28.762  1.00  0.00     0.167 HD
ATOM     62  C   UNL A   1      46.274  29.997  29.003  1.00  0.00     0.074 A 
ATOM     63  C   UNL A   1      47.697  30.253  28.941  1.00  0.00     0.031 C 
ATOM     64  C   UNL A   1      45.349  30.915  29.377  1.00  0.00     0.037 A 
BRANCH  51  65
ATOM     65  C   UNL A   1      39.525  28.899  29.075  1.00  0.00     0.064 A 
ATOM     66  C   UNL A   1      38.850  28.771  30.298  1.00  0.00     0.173 A 
ATOM     67  C   UNL A   1      38.811  29.416  27.983  1.00  0.00     0.173 A 
ATOM     68  F   UNL A   1      39.485  28.272  31.370  1.00  0.00    -0.203 F 
ATOM     69  C   UNL A   1      37.509  29.127  30.417  1.00  0.00     0.198 A 
ATOM     70  C   UNL A   1      37.481  29.802  28.115  1.00  0.00     0.198 A 
ATOM     71  F   UNL A   1      39.411  29.566  26.793  1.00  0.00    -0.203 F 
ATOM     72  F   UNL A   1      36.874  28.958  31.585  1.00  0.00    -0.200 F 
ATOM     73  C   UNL A   1      36.829  29.652  29.329  1.00  0.00     0.200 A 
ATOM     74  F   UNL A   1      36.829  30.324  27.066  1.00  0.00    -0.200 F 
ATOM     75  F   UNL A   1      35.543  30.012  29.450  1.00  0.00    -0.200 F 
ENDBRANCH  51  65
BRANCH  52  76
ATOM     76  C   UNL A   1      49.121  26.499  27.679  1.00  0.00     0.064 A 
ATOM     77  C   UNL A   1      49.976  26.225  28.757  1.00  0.00     0.173 A 
ATOM     78  C   UNL A   1      49.677  26.492  26.391  1.00  0.00     0.173 A 
ATOM     79  F   UNL A   1      49.498  26.239  30.010  1.00  0.00    -0.203 F 
ATOM     80  C   UNL A   1      51.336  25.994  28.560  1.00  0.00     0.198 A 
ATOM     81  C   UNL A   1      51.030  26.226  26.192  1.00  0.00     0.198 A 
ATOM     82  F   UNL A   1      48.904  26.741  25.324  1.00  0.00    -0.203 F 
ATOM     83  F   UNL A   1      52.140  25.802  29.614  1.00  0.00    -0.200 F 
ATOM     84  C   UNL A   1      51.861  25.992  27.277  1.00  0.00     0.200 A 
ATOM     85  F   UNL A   1      51.532  26.210  24.950  1.00  0.00    -0.200 F 
ATOM     86  F   UNL A   1      53.171  25.777  27.088  1.00  0.00    -0.200 F 
ENDBRANCH  52  76
BRANCH  64  87
ATOM     87  C   UNL A   1      45.849  32.266  29.802  1.00  0.00     0.064 A 
ATOM     88  C   UNL A   1      46.225  32.534  31.126  1.00  0.00     0.173 A 
ATOM     89  C   UNL A   1      45.987  33.298  28.860  1.00  0.00     0.173 A 
ATOM     90  F   UNL A   1      46.097  31.587  32.068  1.00  0.00    -0.203 F 
ATOM     91  C   UNL A   1      46.693  33.791  31.497  1.00  0.00     0.198 A 
ATOM     92  C   UNL A   1      46.491  34.542  29.227  1.00  0.00     0.198 A 
ATOM     93  F   UNL A   1      45.650  33.093  27.578  1.00  0.00    -0.203 F 
ATOM     94  F   UNL A   1      46.995  34.040  32.780  1.00  0.00    -0.200 F 
ATOM     95  C   UNL A   1      46.834  34.791  30.546  1.00  0.00     0.200 A 
ATOM     96  F   UNL A   1      46.641  35.501  28.303  1.00  0.00    -0.200 F 
ATOM     97  F   UNL A   1      47.293  35.998  30.904  1.00  0.00    -0.200 F 
ENDBRANCH  64  87
ENDBRANCH  38  39
ENDBRANCH  30  33
ENDBRANCH  28  29
ENDBRANCH  27  28
ENDBRANCH   1  27
TORSDOF 15
ENDMDL
MODEL 3
REMARK VINA RESULT:     -11.9      4.733     10.434
REMARK SMILES CCCc1cc(=O)[nH]c(S[C@@H]2CC[C@@]([NH2+]C)(C(=O)NCCCNC(=O)c3ccc(-c4c5nc(c(-c6c(F)c(F)c(F)c(F)c6F)c6ccc([nH]6)c(-c6c(F)c(F)c(F)c(F)c6F)c6nc(c(-c7c(F)c(F)c(F)c(F)c7F)c7ccc4[nH]7)C=C6)C=C5)cc3)C2)n1
REMARK SMILES IDX 20 1 19 2 17 3 18 4 14 6 11 7 12 8 89 9 13 10 10 11 9 12
REMARK SMILES IDX 4 13 5 14 90 15 6 16 7 17 8 18 3 20 2 21 1 22 15 23 16 24
REMARK SMILES IDX 21 27 22 28 23 29 24 30 25 32 26 33 27 34 88 35 28 36 87 37
REMARK SMILES IDX 29 38 30 39 31 40 81 41 32 42 86 43 80 44 82 45 33 46 85 47
REMARK SMILES IDX 79 48 78 49 34 51 66 52 46 53 65 54 47 55 50 56 64 57 83 58
REMARK SMILES IDX 48 59 49 60 63 62 84 63 51 64 35 65 36 66 44 67 37 68 38 69
REMARK SMILES IDX 42 70 45 71 39 72 40 73 43 74 41 75 67 76 68 77 76 78 69 79
REMARK SMILES IDX 70 80 74 81 77 82 71 83 72 84 75 85 73 86 52 87 53 88 61 89
REMARK SMILES IDX 54 90 55 91 59 92 62 93 56 94 57 95 60 96 58 97
REMARK H PARENT 19 5 8 19 15 25 15 26 23 31 82 50 50 61
REMARK Flexibility Score: inf
ROOT
ATOM      1  C   UNL A   1      34.369  34.905  29.668  1.00  0.00     0.118 C 
ENDROOT
BRANCH   1   2
ATOM      2  N   UNL A   1      33.950  33.857  30.585  1.00  0.00    -0.351 N 
ATOM      3  C   UNL A   1      34.501  33.464  31.773  1.00  0.00     0.281 C 
ATOM      4  O   UNL A   1      33.965  32.518  32.356  1.00  0.00    -0.268 OA
ATOM      5  H   UNL A   1      33.150  33.355  30.309  1.00  0.00     0.163 HD
BRANCH   3   6
ATOM      6  C   UNL A   1      35.764  34.183  32.342  1.00  0.00     0.176 C 
ATOM      7  C   UNL A   1      37.254  32.505  33.282  1.00  0.00     0.062 C 
ATOM      8  C   UNL A   1      37.961  33.052  32.051  1.00  0.00     0.022 C 
ATOM      9  C   UNL A   1      36.222  33.556  33.676  1.00  0.00     0.094 C 
ATOM     10  C   UNL A   1      36.945  33.959  31.365  1.00  0.00     0.080 C 
BRANCH   7  11
ATOM     11  S   UNL A   1      38.392  31.992  34.606  1.00  0.00    -0.084 SA
BRANCH  11  12
ATOM     12  C   UNL A   1      39.140  30.547  33.993  1.00  0.00     0.168 A 
ATOM     13  C   UNL A   1      40.862  29.129  33.494  1.00  0.00     0.049 A 
ATOM     14  C   UNL A   1      40.028  28.171  33.060  1.00  0.00     0.095 A 
ATOM     15  N   UNL A   1      40.413  30.341  33.970  1.00  0.00    -0.229 NA
ATOM     16  C   UNL A   1      38.582  28.446  33.052  1.00  0.00     0.251 A 
ATOM     17  O   UNL A   1      37.779  27.622  32.629  1.00  0.00    -0.269 OA
ATOM     18  N   UNL A   1      38.220  29.657  33.544  1.00  0.00    -0.301 N 
ATOM     19  H   UNL A   1      37.265  29.896  33.577  1.00  0.00     0.172 HD
BRANCH  13  20
ATOM     20  C   UNL A   1      42.374  28.989  33.537  1.00  0.00     0.056 C 
BRANCH  20  21
ATOM     21  C   UNL A   1      42.992  27.592  33.397  1.00  0.00     0.003 C 
ATOM     22  C   UNL A   1      44.469  27.539  33.764  1.00  0.00     0.004 C 
ENDBRANCH  20  21
ENDBRANCH  13  20
ENDBRANCH  11  12
ENDBRANCH   7  11
BRANCH   6  23
ATOM     23  N   UNL A   1      35.502  35.640  32.511  1.00  0.00    -0.336 N 
ATOM     24  C   UNL A   1      34.422  35.946  33.443  1.00  0.00     0.331 C 
ATOM     25  H   UNL A   1      35.259  36.029  31.599  1.00  0.00     0.346 HD
ATOM     26  H   UNL A   1      36.351  36.049  32.900  1.00  0.00     0.346 HD
ENDBRANCH   6  23
ENDBRANCH   3   6
ENDBRANCH   1   2
BRANCH   1  27
ATOM     27  C   UNL A   1      34.425  34.407  28.230  1.00  0.00     0.042 C 
BRANCH  27  28
ATOM     28  C   UNL A   1      35.169  33.091  28.063  1.00  0.00     0.118 C 
BRANCH  28  29
ATOM     29  N   UNL A   1      34.272  31.951  27.938  1.00  0.00    -0.352 N 
ATOM     30  C   UNL A   1      34.554  30.609  27.891  1.00  0.00     0.251 C 
ATOM     31  H   UNL A   1      33.316  32.178  27.878  1.00  0.00     0.163 HD
ATOM     32  O   UNL A   1      33.672  29.808  27.597  1.00  0.00    -0.269 OA
BRANCH  30  33
ATOM     33  C   UNL A   1      35.924  30.124  28.170  1.00  0.00     0.039 A 
ATOM     34  C   UNL A   1      36.858  30.118  27.133  1.00  0.00     0.014 A 
ATOM     35  C   UNL A   1      36.286  29.669  29.440  1.00  0.00     0.014 A 
ATOM     36  C   UNL A   1      38.173  29.720  27.386  1.00  0.00     0.010 A 
ATOM     37  C   UNL A   1      37.614  29.359  29.713  1.00  0.00     0.010 A 
ATOM     38  C   UNL A   1      38.573  29.377  28.688  1.00  0.00    -0.014 A 
BRANCH  38  39
ATOM     39  C   UNL A   1      39.985  29.035  28.996  1.00  0.00     0.031 A 
ATOM     40  C   UNL A   1      40.855  30.010  29.741  1.00  0.00     0.074 A 
ATOM     41  C   UNL A   1      40.501  27.872  28.550  1.00  0.00     0.049 A 
ATOM     42  N   UNL A   1      42.125  29.921  30.046  1.00  0.00    -0.248 NA
ATOM     43  C   UNL A   1      40.223  31.265  30.179  1.00  0.00     0.031 C 
ATOM     44  C   UNL A   1      39.772  26.862  27.780  1.00  0.00     0.029 A 
ATOM     45  N   UNL A   1      41.763  27.345  28.674  1.00  0.00    -0.354 N 
ATOM     46  C   UNL A   1      42.445  31.109  30.690  1.00  0.00     0.074 A 
ATOM     47  C   UNL A   1      41.252  31.925  30.692  1.00  0.00     0.031 C 
ATOM     48  C   UNL A   1      40.589  25.827  27.525  1.00  0.00     0.029 A 
ATOM     49  C   UNL A   1      41.910  26.119  28.072  1.00  0.00     0.049 A 
ATOM     50  H   UNL A   1      42.493  27.803  29.148  1.00  0.00     0.167 HD
ATOM     51  C   UNL A   1      43.623  31.476  31.248  1.00  0.00     0.037 A 
ATOM     52  C   UNL A   1      42.992  25.324  27.963  1.00  0.00     0.037 A 
ATOM     53  C   UNL A   1      44.799  30.647  31.274  1.00  0.00     0.049 A 
ATOM     54  C   UNL A   1      44.292  25.770  28.580  1.00  0.00     0.074 A 
ATOM     55  C   UNL A   1      46.016  30.898  31.884  1.00  0.00     0.029 A 
ATOM     56  N   UNL A   1      44.908  29.408  30.661  1.00  0.00    -0.354 N 
ATOM     57  N   UNL A   1      44.558  26.857  29.261  1.00  0.00    -0.248 NA
ATOM     58  C   UNL A   1      45.444  24.871  28.417  1.00  0.00     0.031 C 
ATOM     59  C   UNL A   1      46.880  29.840  31.588  1.00  0.00     0.029 A 
ATOM     60  C   UNL A   1      46.183  28.898  30.849  1.00  0.00     0.049 A 
ATOM     61  H   UNL A   1      44.186  28.958  30.165  1.00  0.00     0.167 HD
ATOM     62  C   UNL A   1      45.890  26.756  29.640  1.00  0.00     0.074 A 
ATOM     63  C   UNL A   1      46.374  25.492  29.125  1.00  0.00     0.031 C 
ATOM     64  C   UNL A   1      46.645  27.631  30.348  1.00  0.00     0.037 A 
BRANCH  51  65
ATOM     65  C   UNL A   1      43.710  32.838  31.877  1.00  0.00     0.064 A 
ATOM     66  C   UNL A   1      43.952  33.991  31.115  1.00  0.00     0.173 A 
ATOM     67  C   UNL A   1      43.480  32.997  33.252  1.00  0.00     0.173 A 
ATOM     68  F   UNL A   1      44.188  33.892  29.798  1.00  0.00    -0.203 F 
ATOM     69  C   UNL A   1      43.980  35.249  31.710  1.00  0.00     0.198 A 
ATOM     70  C   UNL A   1      43.476  34.261  33.837  1.00  0.00     0.198 A 
ATOM     71  F   UNL A   1      43.237  31.929  34.026  1.00  0.00    -0.203 F 
ATOM     72  F   UNL A   1      44.252  36.332  30.968  1.00  0.00    -0.200 F 
ATOM     73  C   UNL A   1      43.732  35.385  33.067  1.00  0.00     0.200 A 
ATOM     74  F   UNL A   1      43.221  34.391  35.146  1.00  0.00    -0.200 F 
ATOM     75  F   UNL A   1      43.741  36.600  33.634  1.00  0.00    -0.200 F 
ENDBRANCH  51  65
BRANCH  52  76
ATOM     76  C   UNL A   1      42.902  24.018  27.258  1.00  0.00     0.064 A 
ATOM     77  C   UNL A   1      42.465  22.866  27.929  1.00  0.00     0.173 A 
ATOM     78  C   UNL A   1      43.288  23.880  25.915  1.00  0.00     0.173 A 
ATOM     79  F   UNL A   1      42.104  22.940  29.219  1.00  0.00    -0.203 F 
ATOM     80  C   UNL A   1      42.452  21.624  27.298  1.00  0.00     0.198 A 
ATOM     81  C   UNL A   1      43.240  22.644  25.276  1.00  0.00     0.198 A 
ATOM     82  F   UNL A   1      43.709  24.950  25.224  1.00  0.00    -0.203 F 
ATOM     83  F   UNL A   1      42.093  20.530  27.985  1.00  0.00    -0.200 F 
ATOM     84  C   UNL A   1      42.836  21.514  25.971  1.00  0.00     0.200 A 
ATOM     85  F   UNL A   1      43.599  22.544  23.989  1.00  0.00    -0.200 F 
ATOM     86  F   UNL A   1      42.831  20.318  25.366  1.00  0.00    -0.200 F 
ENDBRANCH  52  76
BRANCH  64  87
ATOM     87  C   UNL A   1      48.060  27.230  30.658  1.00  0.00     0.064 A 
ATOM     88  C   UNL A   1      48.378  26.436  31.769  1.00  0.00     0.173 A 
ATOM     89  C   UNL A   1      49.107  27.617  29.808  1.00  0.00     0.173 A 
ATOM     90  F   UNL A   1      47.415  26.052  32.622  1.00  0.00    -0.203 F 
ATOM     91  C   UNL A   1      49.695  26.070  32.034  1.00  0.00     0.198 A 
ATOM     92  C   UNL A   1      50.417  27.218  30.055  1.00  0.00     0.198 A 
ATOM     93  F   UNL A   1      48.857  28.370  28.726  1.00  0.00    -0.203 F 
ATOM     94  F   UNL A   1      49.982  25.356  33.132  1.00  0.00    -0.200 F 
ATOM     95  C   UNL A   1      50.712  26.454  31.172  1.00  0.00     0.200 A 
ATOM     96  F   UNL A   1      51.395  27.576  29.211  1.00  0.00    -0.200 F 
ATOM     97  F   UNL A   1      51.977  26.091  31.423  1.00  0.00    -0.200 F 
ENDBRANCH  64  87
ENDBRANCH  38  39
ENDBRANCH  30  33
ENDBRANCH  28  29
ENDBRANCH  27  28
ENDBRANCH   1  27
TORSDOF 15
ENDMDL
