MODEL 1
REMARK VINA RESULT:     -13.2      0.000      0.000
REMARK SMILES C[C@H]1CC[C@@H]([C@H](C(=O)NCCCNC(=O)c2ccc(-c3c4nc(c(-c5c(F)c(F)c(F)c(F)c5F)c5ccc([nH]5)c(-c5c(F)c(F)c(F)c(F)c5F)c5nc(c(-c6c(F)c(F)c(F)c(F)c6F)c6ccc3[nH]6)C=C5)C=C4)cc2)[C@@H]2CCS(=O)(=O)C2)C[C@@H]1C
REMARK SMILES IDX 11 1 10 2 9 3 7 4 8 5 6 7 5 8 1 9 2 10 3 11 87 12 4 13 86 14
REMARK SMILES IDX 88 15 79 16 80 17 85 18 81 19 82 20 83 21 84 22 12 23 13 24
REMARK SMILES IDX 14 25 15 27 16 28 17 29 78 30 18 31 77 32 19 33 20 34 21 35
REMARK SMILES IDX 71 36 22 37 76 38 70 39 72 40 23 41 75 42 69 43 68 44 24 46
REMARK SMILES IDX 56 47 36 48 55 49 37 50 40 51 54 52 73 53 38 54 39 55 53 57
REMARK SMILES IDX 74 58 41 59 25 60 26 61 34 62 27 63 28 64 32 65 35 66 29 67
REMARK SMILES IDX 30 68 33 69 31 70 57 71 58 72 66 73 59 74 60 75 64 76 67 77
REMARK SMILES IDX 61 78 62 79 65 80 63 81 42 82 43 83 51 84 44 85 45 86 49 87
REMARK SMILES IDX 52 88 46 89 47 90 50 91 48 92
REMARK H PARENT 9 6 13 26 72 45 40 56
REMARK Flexibility Score: inf
ROOT
ATOM      1  C   UNL A   1      31.481  32.131  26.876  1.00  0.00     0.042 C 
ENDROOT
BRANCH   1   2
ATOM      2  C   UNL A   1      31.693  30.662  26.518  1.00  0.00     0.117 C 
BRANCH   2   3
ATOM      3  N   UNL A   1      31.699  30.420  25.082  1.00  0.00    -0.356 N 
ATOM      4  C   UNL A   1      32.098  29.237  24.542  1.00  0.00     0.223 C 
ATOM      5  O   UNL A   1      33.218  29.191  24.033  1.00  0.00    -0.275 OA
ATOM      6  H   UNL A   1      31.402  31.139  24.478  1.00  0.00     0.163 HD
BRANCH   4   7
ATOM      7  C   UNL A   1      31.167  28.014  24.516  1.00  0.00     0.085 C 
BRANCH   7   8
ATOM      8  C   UNL A   1      30.357  27.779  23.178  1.00  0.00     0.002 C 
ATOM      9  C   UNL A   1      27.561  31.081  23.250  1.00  0.00     0.008 C 
ATOM     10  C   UNL A   1      28.180  29.817  22.630  1.00  0.00    -0.011 C 
ATOM     11  C   UNL A   1      29.666  30.115  22.344  1.00  0.00     0.004 C 
ATOM     12  C   UNL A   1      27.948  28.604  23.555  1.00  0.00    -0.011 C 
ATOM     13  C   UNL A   1      30.532  28.887  22.123  1.00  0.00     0.005 C 
ATOM     14  C   UNL A   1      28.872  27.418  23.269  1.00  0.00     0.008 C 
ATOM     15  C   UNL A   1      26.489  28.135  23.599  1.00  0.00     0.008 C 
ENDBRANCH   7   8
BRANCH   7  16
ATOM     16  C   UNL A   1      31.943  26.779  25.107  1.00  0.00     0.018 C 
ATOM     17  C   UNL A   1      31.955  25.500  24.237  1.00  0.00     0.021 C 
ATOM     18  C   UNL A   1      31.568  26.347  26.535  1.00  0.00     0.141 C 
ATOM     19  C   UNL A   1      31.021  24.424  24.788  1.00  0.00     0.137 C 
ATOM     20  S   UNL A   1      30.729  24.793  26.497  1.00  0.00     0.150 S 
ATOM     21  O   UNL A   1      29.320  25.030  26.731  1.00  0.00    -0.229 OA
ATOM     22  O   UNL A   1      31.488  23.862  27.311  1.00  0.00    -0.229 OA
ENDBRANCH   7  16
ENDBRANCH   4   7
ENDBRANCH   2   3
ENDBRANCH   1   2
BRANCH   1  23
ATOM     23  C   UNL A   1      32.757  32.905  27.179  1.00  0.00     0.118 C 
BRANCH  23  24
ATOM     24  N   UNL A   1      32.497  34.255  27.661  1.00  0.00    -0.352 N 
ATOM     25  C   UNL A   1      33.046  34.954  28.707  1.00  0.00     0.251 C 
ATOM     26  H   UNL A   1      31.813  34.748  27.151  1.00  0.00     0.163 HD
ATOM     27  O   UNL A   1      32.538  36.016  29.059  1.00  0.00    -0.269 OA
BRANCH  25  28
ATOM     28  C   UNL A   1      34.226  34.434  29.432  1.00  0.00     0.039 A 
ATOM     29  C   UNL A   1      34.030  33.763  30.642  1.00  0.00     0.014 A 
ATOM     30  C   UNL A   1      35.521  34.625  28.946  1.00  0.00     0.014 A 
ATOM     31  C   UNL A   1      35.124  33.223  31.323  1.00  0.00     0.010 A 
ATOM     32  C   UNL A   1      36.598  34.005  29.573  1.00  0.00     0.010 A 
ATOM     33  C   UNL A   1      36.412  33.301  30.772  1.00  0.00    -0.014 A 
BRANCH  33  34
ATOM     34  C   UNL A   1      37.574  32.649  31.430  1.00  0.00     0.031 A 
ATOM     35  C   UNL A   1      38.267  31.486  30.777  1.00  0.00     0.074 A 
ATOM     36  C   UNL A   1      37.956  33.055  32.656  1.00  0.00     0.049 A 
ATOM     37  N   UNL A   1      39.252  30.749  31.227  1.00  0.00    -0.248 NA
ATOM     38  C   UNL A   1      37.764  31.076  29.458  1.00  0.00     0.031 C 
ATOM     39  C   UNL A   1      37.325  34.129  33.424  1.00  0.00     0.029 A 
ATOM     40  N   UNL A   1      38.954  32.600  33.480  1.00  0.00    -0.354 N 
ATOM     41  C   UNL A   1      39.471  29.780  30.256  1.00  0.00     0.074 A 
ATOM     42  C   UNL A   1      38.478  29.986  29.224  1.00  0.00     0.031 C 
ATOM     43  C   UNL A   1      37.960  34.263  34.597  1.00  0.00     0.029 A 
ATOM     44  C   UNL A   1      39.015  33.257  34.685  1.00  0.00     0.049 A 
ATOM     45  H   UNL A   1      39.569  31.872  33.232  1.00  0.00     0.167 HD
ATOM     46  C   UNL A   1      40.427  28.820  30.219  1.00  0.00     0.037 A 
ATOM     47  C   UNL A   1      39.818  33.063  35.748  1.00  0.00     0.037 A 
ATOM     48  C   UNL A   1      41.420  28.628  31.244  1.00  0.00     0.049 A 
ATOM     49  C   UNL A   1      40.874  31.994  35.687  1.00  0.00     0.074 A 
ATOM     50  C   UNL A   1      42.479  27.739  31.265  1.00  0.00     0.029 A 
ATOM     51  N   UNL A   1      41.465  29.330  32.441  1.00  0.00    -0.354 N 
ATOM     52  N   UNL A   1      41.132  31.142  34.726  1.00  0.00    -0.248 NA
ATOM     53  C   UNL A   1      41.755  31.868  36.856  1.00  0.00     0.031 C 
ATOM     54  C   UNL A   1      43.124  27.855  32.501  1.00  0.00     0.029 A 
ATOM     55  C   UNL A   1      42.511  28.866  33.225  1.00  0.00     0.049 A 
ATOM     56  H   UNL A   1      40.845  30.051  32.697  1.00  0.00     0.167 HD
ATOM     57  C   UNL A   1      42.217  30.391  35.161  1.00  0.00     0.074 A 
ATOM     58  C   UNL A   1      42.577  30.902  36.468  1.00  0.00     0.031 C 
ATOM     59  C   UNL A   1      42.855  29.374  34.531  1.00  0.00     0.037 A 
BRANCH  46  60
ATOM     60  C   UNL A   1      40.425  27.892  29.034  1.00  0.00     0.064 A 
ATOM     61  C   UNL A   1      41.187  28.152  27.885  1.00  0.00     0.173 A 
ATOM     62  C   UNL A   1      39.645  26.724  29.049  1.00  0.00     0.173 A 
ATOM     63  F   UNL A   1      41.947  29.256  27.813  1.00  0.00    -0.203 F 
ATOM     64  C   UNL A   1      41.127  27.311  26.776  1.00  0.00     0.198 A 
ATOM     65  C   UNL A   1      39.617  25.865  27.953  1.00  0.00     0.198 A 
ATOM     66  F   UNL A   1      38.904  26.417  30.124  1.00  0.00    -0.203 F 
ATOM     67  F   UNL A   1      41.804  27.623  25.662  1.00  0.00    -0.200 F 
ATOM     68  C   UNL A   1      40.345  26.166  26.812  1.00  0.00     0.200 A 
ATOM     69  F   UNL A   1      38.876  24.749  27.997  1.00  0.00    -0.200 F 
ATOM     70  F   UNL A   1      40.285  25.360  25.744  1.00  0.00    -0.200 F 
ENDBRANCH  46  60
BRANCH  47  71
ATOM     71  C   UNL A   1      39.653  33.923  36.948  1.00  0.00     0.064 A 
ATOM     72  C   UNL A   1      40.250  35.189  37.018  1.00  0.00     0.173 A 
ATOM     73  C   UNL A   1      38.857  33.516  38.029  1.00  0.00     0.173 A 
ATOM     74  F   UNL A   1      41.035  35.615  36.018  1.00  0.00    -0.203 F 
ATOM     75  C   UNL A   1      40.061  36.013  38.126  1.00  0.00     0.198 A 
ATOM     76  C   UNL A   1      38.646  34.352  39.123  1.00  0.00     0.198 A 
ATOM     77  F   UNL A   1      38.257  32.317  38.008  1.00  0.00    -0.203 F 
ATOM     78  F   UNL A   1      40.665  37.208  38.180  1.00  0.00    -0.200 F 
ATOM     79  C   UNL A   1      39.251  35.599  39.172  1.00  0.00     0.200 A 
ATOM     80  F   UNL A   1      37.845  33.956  40.122  1.00  0.00    -0.200 F 
ATOM     81  F   UNL A   1      39.052  36.401  40.227  1.00  0.00    -0.200 F 
ENDBRANCH  47  71
BRANCH  59  82
ATOM     82  C   UNL A   1      44.028  28.753  35.237  1.00  0.00     0.064 A 
ATOM     83  C   UNL A   1      43.878  27.650  36.091  1.00  0.00     0.173 A 
ATOM     84  C   UNL A   1      45.326  29.244  35.023  1.00  0.00     0.173 A 
ATOM     85  F   UNL A   1      42.658  27.151  36.342  1.00  0.00    -0.203 F 
ATOM     86  C   UNL A   1      44.979  27.079  36.724  1.00  0.00     0.198 A 
ATOM     87  C   UNL A   1      46.428  28.649  35.630  1.00  0.00     0.198 A 
ATOM     88  F   UNL A   1      45.527  30.293  34.212  1.00  0.00    -0.203 F 
ATOM     89  F   UNL A   1      44.806  26.059  37.576  1.00  0.00    -0.200 F 
ATOM     90  C   UNL A   1      46.253  27.573  36.487  1.00  0.00     0.200 A 
ATOM     91  F   UNL A   1      47.660  29.118  35.387  1.00  0.00    -0.200 F 
ATOM     92  F   UNL A   1      47.313  27.016  37.090  1.00  0.00    -0.200 F 
ENDBRANCH  59  82
ENDBRANCH  33  34
ENDBRANCH  25  28
ENDBRANCH  23  24
ENDBRANCH   1  23
TORSDOF 12
ENDMDL
MODEL 2
REMARK VINA RESULT:     -12.9      6.337     11.729
REMARK SMILES C[C@H]1CC[C@@H]([C@H](C(=O)NCCCNC(=O)c2ccc(-c3c4nc(c(-c5c(F)c(F)c(F)c(F)c5F)c5ccc([nH]5)c(-c5c(F)c(F)c(F)c(F)c5F)c5nc(c(-c6c(F)c(F)c(F)c(F)c6F)c6ccc3[nH]6)C=C5)C=C4)cc2)[C@@H]2CCS(=O)(=O)C2)C[C@@H]1C
REMARK SMILES IDX 11 1 10 2 9 3 7 4 8 5 6 7 5 8 1 9 2 10 3 11 87 12 4 13 86 14
REMARK SMILES IDX 88 15 79 16 80 17 85 18 81 19 82 20 83 21 84 22 12 23 13 24
REMARK SMILES IDX 14 25 15 27 16 28 17 29 78 30 18 31 77 32 19 33 20 34 21 35
REMARK SMILES IDX 71 36 22 37 76 38 70 39 72 40 23 41 75 42 69 43 68 44 24 46
REMARK SMILES IDX 56 47 36 48 55 49 37 50 40 51 54 52 73 53 38 54 39 55 53 57
REMARK SMILES IDX 74 58 41 59 25 60 26 61 34 62 27 63 28 64 32 65 35 66 29 67
REMARK SMILES IDX 30 68 33 69 31 70 57 71 58 72 66 73 59 74 60 75 64 76 67 77
REMARK SMILES IDX 61 78 62 79 65 80 63 81 42 82 43 83 51 84 44 85 45 86 49 87
REMARK SMILES IDX 52 88 46 89 47 90 50 91 48 92
REMARK H PARENT 9 6 13 26 72 45 40 56
REMARK Flexibility Score: inf
ROOT
ATOM      1  C   UNL A   1      38.408  19.794  24.899  1.00  0.00     0.042 C 
ENDROOT
BRANCH   1   2
ATOM      2  C   UNL A   1      37.258  20.793  24.799  1.00  0.00     0.117 C 
BRANCH   2   3
ATOM      3  N   UNL A   1      36.034  20.320  25.431  1.00  0.00    -0.356 N 
ATOM      4  C   UNL A   1      34.956  21.124  25.628  1.00  0.00     0.223 C 
ATOM      5  O   UNL A   1      34.765  21.554  26.766  1.00  0.00    -0.275 OA
ATOM      6  H   UNL A   1      35.985  19.382  25.726  1.00  0.00     0.163 HD
BRANCH   4   7
ATOM      7  C   UNL A   1      33.976  21.443  24.488  1.00  0.00     0.085 C 
BRANCH   7   8
ATOM      8  C   UNL A   1      32.628  20.615  24.471  1.00  0.00     0.002 C 
ATOM      9  C   UNL A   1      33.999  16.732  23.143  1.00  0.00     0.008 C 
ATOM     10  C   UNL A   1      32.918  17.726  23.599  1.00  0.00    -0.011 C 
ATOM     11  C   UNL A   1      33.278  18.186  25.026  1.00  0.00     0.004 C 
ATOM     12  C   UNL A   1      32.791  18.876  22.579  1.00  0.00    -0.011 C 
ATOM     13  C   UNL A   1      32.579  19.455  25.482  1.00  0.00     0.005 C 
ATOM     14  C   UNL A   1      32.085  20.118  23.127  1.00  0.00     0.008 C 
ATOM     15  C   UNL A   1      32.153  18.453  21.251  1.00  0.00     0.008 C 
ENDBRANCH   7   8
BRANCH   7  16
ATOM     16  C   UNL A   1      33.854  23.006  24.352  1.00  0.00     0.018 C 
ATOM     17  C   UNL A   1      32.422  23.588  24.419  1.00  0.00     0.021 C 
ATOM     18  C   UNL A   1      34.543  23.650  23.136  1.00  0.00     0.141 C 
ATOM     19  C   UNL A   1      31.917  24.025  23.045  1.00  0.00     0.137 C 
ATOM     20  S   UNL A   1      33.332  24.253  22.001  1.00  0.00     0.150 S 
ATOM     21  O   UNL A   1      33.278  23.353  20.870  1.00  0.00    -0.229 OA
ATOM     22  O   UNL A   1      33.559  25.676  21.830  1.00  0.00    -0.229 OA
ENDBRANCH   7  16
ENDBRANCH   4   7
ENDBRANCH   2   3
ENDBRANCH   1   2
BRANCH   1  23
ATOM     23  C   UNL A   1      39.379  20.049  26.044  1.00  0.00     0.118 C 
BRANCH  23  24
ATOM     24  N   UNL A   1      40.471  19.086  26.083  1.00  0.00    -0.352 N 
ATOM     25  C   UNL A   1      41.828  19.275  26.168  1.00  0.00     0.251 C 
ATOM     26  H   UNL A   1      40.189  18.144  26.040  1.00  0.00     0.163 HD
ATOM     27  O   UNL A   1      42.584  18.323  25.987  1.00  0.00    -0.269 OA
BRANCH  25  28
ATOM     28  C   UNL A   1      42.393  20.613  26.449  1.00  0.00     0.039 A 
ATOM     29  C   UNL A   1      42.798  21.411  25.376  1.00  0.00     0.014 A 
ATOM     30  C   UNL A   1      42.552  21.074  27.757  1.00  0.00     0.014 A 
ATOM     31  C   UNL A   1      43.292  22.696  25.612  1.00  0.00     0.010 A 
ATOM     32  C   UNL A   1      42.954  22.387  27.987  1.00  0.00     0.010 A 
ATOM     33  C   UNL A   1      43.333  23.212  26.917  1.00  0.00    -0.014 A 
BRANCH  33  34
ATOM     34  C   UNL A   1      43.763  24.610  27.181  1.00  0.00     0.031 A 
ATOM     35  C   UNL A   1      42.772  25.635  27.660  1.00  0.00     0.074 A 
ATOM     36  C   UNL A   1      45.031  24.976  26.914  1.00  0.00     0.049 A 
ATOM     37  N   UNL A   1      42.944  26.914  27.880  1.00  0.00    -0.248 NA
ATOM     38  C   UNL A   1      41.398  25.166  27.888  1.00  0.00     0.031 C 
ATOM     39  C   UNL A   1      46.070  24.092  26.386  1.00  0.00     0.029 A 
ATOM     40  N   UNL A   1      45.656  26.192  27.031  1.00  0.00    -0.354 N 
ATOM     41  C   UNL A   1      41.700  27.403  28.253  1.00  0.00     0.074 A 
ATOM     42  C   UNL A   1      40.771  26.297  28.170  1.00  0.00     0.031 C 
ATOM     43  C   UNL A   1      47.207  24.788  26.241  1.00  0.00     0.029 A 
ATOM     44  C   UNL A   1      46.968  26.177  26.625  1.00  0.00     0.049 A 
ATOM     45  H   UNL A   1      45.208  26.998  27.375  1.00  0.00     0.167 HD
ATOM     46  C   UNL A   1      41.366  28.655  28.650  1.00  0.00     0.037 A 
ATOM     47  C   UNL A   1      47.873  27.170  26.553  1.00  0.00     0.037 A 
ATOM     48  C   UNL A   1      42.298  29.749  28.742  1.00  0.00     0.049 A 
ATOM     49  C   UNL A   1      47.485  28.553  26.999  1.00  0.00     0.074 A 
ATOM     50  C   UNL A   1      42.080  31.033  29.208  1.00  0.00     0.029 A 
ATOM     51  N   UNL A   1      43.627  29.690  28.344  1.00  0.00    -0.354 N 
ATOM     52  N   UNL A   1      46.328  28.986  27.437  1.00  0.00    -0.248 NA
ATOM     53  C   UNL A   1      48.532  29.582  26.950  1.00  0.00     0.031 C 
ATOM     54  C   UNL A   1      43.257  31.770  29.029  1.00  0.00     0.029 A 
ATOM     55  C   UNL A   1      44.231  30.926  28.517  1.00  0.00     0.049 A 
ATOM     56  H   UNL A   1      44.076  28.888  27.990  1.00  0.00     0.167 HD
ATOM     57  C   UNL A   1      46.510  30.330  27.736  1.00  0.00     0.074 A 
ATOM     58  C   UNL A   1      47.895  30.636  27.443  1.00  0.00     0.031 C 
ATOM     59  C   UNL A   1      45.609  31.225  28.211  1.00  0.00     0.037 A 
BRANCH  46  60
ATOM     60  C   UNL A   1      39.923  28.907  28.994  1.00  0.00     0.064 A 
ATOM     61  C   UNL A   1      39.427  28.733  30.295  1.00  0.00     0.173 A 
ATOM     62  C   UNL A   1      39.020  29.327  28.004  1.00  0.00     0.173 A 
ATOM     63  F   UNL A   1      40.243  28.328  31.281  1.00  0.00    -0.203 F 
ATOM     64  C   UNL A   1      38.076  28.915  30.581  1.00  0.00     0.198 A 
ATOM     65  C   UNL A   1      37.677  29.546  28.301  1.00  0.00     0.198 A 
ATOM     66  F   UNL A   1      39.438  29.521  26.744  1.00  0.00    -0.203 F 
ATOM     67  F   UNL A   1      37.614  28.668  31.815  1.00  0.00    -0.200 F 
ATOM     68  C   UNL A   1      37.203  29.325  29.586  1.00  0.00     0.200 A 
ATOM     69  F   UNL A   1      36.838  29.961  27.342  1.00  0.00    -0.200 F 
ATOM     70  F   UNL A   1      35.903  29.497  29.861  1.00  0.00    -0.200 F 
ENDBRANCH  46  60
BRANCH  47  71
ATOM     71  C   UNL A   1      49.240  26.873  26.052  1.00  0.00     0.064 A 
ATOM     72  C   UNL A   1      50.227  26.361  26.905  1.00  0.00     0.173 A 
ATOM     73  C   UNL A   1      49.572  27.049  24.701  1.00  0.00     0.173 A 
ATOM     74  F   UNL A   1      49.963  26.192  28.209  1.00  0.00    -0.203 F 
ATOM     75  C   UNL A   1      51.496  26.041  26.426  1.00  0.00     0.198 A 
ATOM     76  C   UNL A   1      50.831  26.703  24.218  1.00  0.00     0.198 A 
ATOM     77  F   UNL A   1      48.661  27.528  23.842  1.00  0.00    -0.203 F 
ATOM     78  F   UNL A   1      52.430  25.579  27.268  1.00  0.00    -0.200 F 
ATOM     79  C   UNL A   1      51.794  26.202  25.082  1.00  0.00     0.200 A 
ATOM     80  F   UNL A   1      51.109  26.840  22.914  1.00  0.00    -0.200 F 
ATOM     81  F   UNL A   1      53.008  25.874  24.618  1.00  0.00    -0.200 F 
ENDBRANCH  47  71
BRANCH  59  82
ATOM     82  C   UNL A   1      46.096  32.624  28.468  1.00  0.00     0.064 A 
ATOM     83  C   UNL A   1      45.988  33.634  27.500  1.00  0.00     0.173 A 
ATOM     84  C   UNL A   1      46.641  32.967  29.715  1.00  0.00     0.173 A 
ATOM     85  F   UNL A   1      45.488  33.355  26.286  1.00  0.00    -0.203 F 
ATOM     86  C   UNL A   1      46.430  34.928  27.762  1.00  0.00     0.198 A 
ATOM     87  C   UNL A   1      47.052  34.270  29.985  1.00  0.00     0.198 A 
ATOM     88  F   UNL A   1      46.763  32.043  30.679  1.00  0.00    -0.203 F 
ATOM     89  F   UNL A   1      46.365  35.863  26.805  1.00  0.00    -0.200 F 
ATOM     90  C   UNL A   1      46.953  35.247  29.006  1.00  0.00     0.200 A 
ATOM     91  F   UNL A   1      47.541  34.580  31.193  1.00  0.00    -0.200 F 
ATOM     92  F   UNL A   1      47.371  36.495  29.260  1.00  0.00    -0.200 F 
ENDBRANCH  59  82
ENDBRANCH  33  34
ENDBRANCH  25  28
ENDBRANCH  23  24
ENDBRANCH   1  23
TORSDOF 12
ENDMDL
MODEL 3
REMARK VINA RESULT:     -12.9      6.324     11.574
REMARK SMILES C[C@H]1CC[C@@H]([C@H](C(=O)NCCCNC(=O)c2ccc(-c3c4nc(c(-c5c(F)c(F)c(F)c(F)c5F)c5ccc([nH]5)c(-c5c(F)c(F)c(F)c(F)c5F)c5nc(c(-c6c(F)c(F)c(F)c(F)c6F)c6ccc3[nH]6)C=C5)C=C4)cc2)[C@@H]2CCS(=O)(=O)C2)C[C@@H]1C
REMARK SMILES IDX 11 1 10 2 9 3 7 4 8 5 6 7 5 8 1 9 2 10 3 11 87 12 4 13 86 14
REMARK SMILES IDX 88 15 79 16 80 17 85 18 81 19 82 20 83 21 84 22 12 23 13 24
REMARK SMILES IDX 14 25 15 27 16 28 17 29 78 30 18 31 77 32 19 33 20 34 21 35
REMARK SMILES IDX 71 36 22 37 76 38 70 39 72 40 23 41 75 42 69 43 68 44 24 46
REMARK SMILES IDX 56 47 36 48 55 49 37 50 40 51 54 52 73 53 38 54 39 55 53 57
REMARK SMILES IDX 74 58 41 59 25 60 26 61 34 62 27 63 28 64 32 65 35 66 29 67
REMARK SMILES IDX 30 68 33 69 31 70 57 71 58 72 66 73 59 74 60 75 64 76 67 77
REMARK SMILES IDX 61 78 62 79 65 80 63 81 42 82 43 83 51 84 44 85 45 86 49 87
REMARK SMILES IDX 52 88 46 89 47 90 50 91 48 92
REMARK H PARENT 9 6 13 26 72 45 40 56
REMARK Flexibility Score: inf
ROOT
ATOM      1  C   UNL A   1      38.358  19.754  24.893  1.00  0.00     0.042 C 
ENDROOT
BRANCH   1   2
ATOM      2  C   UNL A   1      37.243  20.790  24.783  1.00  0.00     0.117 C 
BRANCH   2   3
ATOM      3  N   UNL A   1      36.008  20.369  25.430  1.00  0.00    -0.356 N 
ATOM      4  C   UNL A   1      34.964  21.217  25.631  1.00  0.00     0.223 C 
ATOM      5  O   UNL A   1      34.800  21.661  26.767  1.00  0.00    -0.275 OA
ATOM      6  H   UNL A   1      35.925  19.436  25.732  1.00  0.00     0.163 HD
BRANCH   4   7
ATOM      7  C   UNL A   1      33.986  21.567  24.498  1.00  0.00     0.085 C 
BRANCH   7   8
ATOM      8  C   UNL A   1      32.616  20.775  24.485  1.00  0.00     0.002 C 
ATOM      9  C   UNL A   1      33.893  16.828  23.255  1.00  0.00     0.008 C 
ATOM     10  C   UNL A   1      32.836  17.861  23.679  1.00  0.00    -0.011 C 
ATOM     11  C   UNL A   1      33.195  18.342  25.100  1.00  0.00     0.004 C 
ATOM     12  C   UNL A   1      32.750  18.992  22.633  1.00  0.00    -0.011 C 
ATOM     13  C   UNL A   1      32.526  19.639  25.521  1.00  0.00     0.005 C 
ATOM     14  C   UNL A   1      32.073  20.264  23.148  1.00  0.00     0.008 C 
ATOM     15  C   UNL A   1      32.113  18.557  21.308  1.00  0.00     0.008 C 
ENDBRANCH   7   8
BRANCH   7  16
ATOM     16  C   UNL A   1      33.906  23.133  24.368  1.00  0.00     0.018 C 
ATOM     17  C   UNL A   1      32.488  23.750  24.412  1.00  0.00     0.021 C 
ATOM     18  C   UNL A   1      34.633  23.765  23.170  1.00  0.00     0.141 C 
ATOM     19  C   UNL A   1      32.019  24.206  23.032  1.00  0.00     0.137 C 
ATOM     20  S   UNL A   1      33.459  24.405  22.016  1.00  0.00     0.150 S 
ATOM     21  O   UNL A   1      33.404  23.512  20.878  1.00  0.00    -0.229 OA
ATOM     22  O   UNL A   1      33.724  25.823  21.857  1.00  0.00    -0.229 OA
ENDBRANCH   7  16
ENDBRANCH   4   7
ENDBRANCH   2   3
ENDBRANCH   1   2
BRANCH   1  23
ATOM     23  C   UNL A   1      39.381  20.028  25.987  1.00  0.00     0.118 C 
BRANCH  23  24
ATOM     24  N   UNL A   1      40.469  19.060  25.998  1.00  0.00    -0.352 N 
ATOM     25  C   UNL A   1      41.827  19.239  26.094  1.00  0.00     0.251 C 
ATOM     26  H   UNL A   1      40.183  18.120  25.925  1.00  0.00     0.163 HD
ATOM     27  O   UNL A   1      42.579  18.291  25.885  1.00  0.00    -0.269 OA
BRANCH  25  28
ATOM     28  C   UNL A   1      42.397  20.565  26.420  1.00  0.00     0.039 A 
ATOM     29  C   UNL A   1      42.854  21.376  25.377  1.00  0.00     0.014 A 
ATOM     30  C   UNL A   1      42.510  21.004  27.740  1.00  0.00     0.014 A 
ATOM     31  C   UNL A   1      43.354  22.650  25.653  1.00  0.00     0.010 A 
ATOM     32  C   UNL A   1      42.918  22.307  28.007  1.00  0.00     0.010 A 
ATOM     33  C   UNL A   1      43.350  23.144  26.968  1.00  0.00    -0.014 A 
BRANCH  33  34
ATOM     34  C   UNL A   1      43.786  24.532  27.272  1.00  0.00     0.031 A 
ATOM     35  C   UNL A   1      42.786  25.568  27.702  1.00  0.00     0.074 A 
ATOM     36  C   UNL A   1      45.073  24.879  27.084  1.00  0.00     0.049 A 
ATOM     37  N   UNL A   1      42.965  26.843  27.946  1.00  0.00    -0.248 NA
ATOM     38  C   UNL A   1      41.393  25.121  27.844  1.00  0.00     0.031 C 
ATOM     39  C   UNL A   1      46.128  23.983  26.609  1.00  0.00     0.029 A 
ATOM     40  N   UNL A   1      45.710  26.083  27.252  1.00  0.00    -0.354 N 
ATOM     41  C   UNL A   1      41.709  27.349  28.250  1.00  0.00     0.074 A 
ATOM     42  C   UNL A   1      40.768  26.260  28.100  1.00  0.00     0.031 C 
ATOM     43  C   UNL A   1      47.282  24.661  26.540  1.00  0.00     0.029 A 
ATOM     44  C   UNL A   1      47.044  26.049  26.923  1.00  0.00     0.049 A 
ATOM     45  H   UNL A   1      45.256  26.893  27.577  1.00  0.00     0.167 HD
ATOM     46  C   UNL A   1      41.373  28.603  28.640  1.00  0.00     0.037 A 
ATOM     47  C   UNL A   1      47.968  27.028  26.916  1.00  0.00     0.037 A 
ATOM     48  C   UNL A   1      42.316  29.680  28.799  1.00  0.00     0.049 A 
ATOM     49  C   UNL A   1      47.577  28.412  27.354  1.00  0.00     0.074 A 
ATOM     50  C   UNL A   1      42.092  30.963  29.265  1.00  0.00     0.029 A 
ATOM     51  N   UNL A   1      43.665  29.602  28.479  1.00  0.00    -0.354 N 
ATOM     52  N   UNL A   1      46.403  28.860  27.727  1.00  0.00    -0.248 NA
ATOM     53  C   UNL A   1      48.641  29.424  27.378  1.00  0.00     0.031 C 
ATOM     54  C   UNL A   1      43.288  31.681  29.164  1.00  0.00     0.029 A 
ATOM     55  C   UNL A   1      44.277  30.826  28.701  1.00  0.00     0.049 A 
ATOM     56  H   UNL A   1      44.120  28.796  28.144  1.00  0.00     0.167 HD
ATOM     57  C   UNL A   1      46.589  30.198  28.050  1.00  0.00     0.074 A 
ATOM     58  C   UNL A   1      47.994  30.484  27.843  1.00  0.00     0.031 C 
ATOM     59  C   UNL A   1      45.676  31.104  28.481  1.00  0.00     0.037 A 
BRANCH  46  60
ATOM     60  C   UNL A   1      39.916  28.876  28.900  1.00  0.00     0.064 A 
ATOM     61  C   UNL A   1      39.345  28.716  30.172  1.00  0.00     0.173 A 
ATOM     62  C   UNL A   1      39.077  29.303  27.859  1.00  0.00     0.173 A 
ATOM     63  F   UNL A   1      40.099  28.305  31.204  1.00  0.00    -0.203 F 
ATOM     64  C   UNL A   1      37.983  28.917  30.381  1.00  0.00     0.198 A 
ATOM     65  C   UNL A   1      37.722  29.542  28.079  1.00  0.00     0.198 A 
ATOM     66  F   UNL A   1      39.567  29.484  26.624  1.00  0.00    -0.203 F 
ATOM     67  F   UNL A   1      37.449  28.682  31.587  1.00  0.00    -0.200 F 
ATOM     68  C   UNL A   1      37.173  29.334  29.335  1.00  0.00     0.200 A 
ATOM     69  F   UNL A   1      36.945  29.962  27.071  1.00  0.00    -0.200 F 
ATOM     70  F   UNL A   1      35.862  29.524  29.536  1.00  0.00    -0.200 F 
ENDBRANCH  46  60
BRANCH  47  71
ATOM     71  C   UNL A   1      49.357  26.712  26.494  1.00  0.00     0.064 A 
ATOM     72  C   UNL A   1      49.759  26.861  25.160  1.00  0.00     0.173 A 
ATOM     73  C   UNL A   1      50.323  26.300  27.425  1.00  0.00     0.173 A 
ATOM     74  F   UNL A   1      48.867  27.235  24.230  1.00  0.00    -0.203 F 
ATOM     75  C   UNL A   1      51.072  26.606  24.772  1.00  0.00     0.198 A 
ATOM     76  C   UNL A   1      51.641  26.073  27.041  1.00  0.00     0.198 A 
ATOM     77  F   UNL A   1      49.990  26.150  28.715  1.00  0.00    -0.203 F 
ATOM     78  F   UNL A   1      51.424  26.730  23.485  1.00  0.00    -0.200 F 
ATOM     79  C   UNL A   1      52.015  26.223  25.714  1.00  0.00     0.200 A 
ATOM     80  F   UNL A   1      52.554  25.722  27.958  1.00  0.00    -0.200 F 
ATOM     81  F   UNL A   1      53.283  25.998  25.343  1.00  0.00    -0.200 F 
ENDBRANCH  47  71
BRANCH  59  82
ATOM     82  C   UNL A   1      46.170  32.492  28.782  1.00  0.00     0.064 A 
ATOM     83  C   UNL A   1      46.663  32.843  30.047  1.00  0.00     0.173 A 
ATOM     84  C   UNL A   1      46.186  33.472  27.777  1.00  0.00     0.173 A 
ATOM     85  F   UNL A   1      46.656  31.948  31.047  1.00  0.00    -0.203 F 
ATOM     86  C   UNL A   1      47.131  34.130  30.302  1.00  0.00     0.198 A 
ATOM     87  C   UNL A   1      46.685  34.747  28.026  1.00  0.00     0.198 A 
ATOM     88  F   UNL A   1      45.731  33.189  26.547  1.00  0.00    -0.203 F 
ATOM     89  F   UNL A   1      47.549  34.458  31.532  1.00  0.00    -0.200 F 
ATOM     90  C   UNL A   1      47.149  35.078  29.290  1.00  0.00     0.200 A 
ATOM     91  F   UNL A   1      46.718  35.657  27.042  1.00  0.00    -0.200 F 
ATOM     92  F   UNL A   1      47.607  36.313  29.534  1.00  0.00    -0.200 F 
ENDBRANCH  59  82
ENDBRANCH  33  34
ENDBRANCH  25  28
ENDBRANCH  23  24
ENDBRANCH   1  23
TORSDOF 12
ENDMDL
