MODEL 1
REMARK VINA RESULT:     -14.1      0.000      0.000
REMARK SMILES O=C(NCCCNC(=O)c1ccc(-c2c3nc(c(-c4c(F)c(F)c(F)c(F)c4F)c4ccc([nH]4)c(-c4c(F)c(F)c(F)c(F)c4F)c4nc(c(-c5c(F)c(F)c(F)c(F)c5F)c5ccc2[nH]5)C=C4)C=C3)cc1)C1=N[C@@H]2NC=NN2[C@@H]([C@H]2C=NN=C2c2ccc(F)cc2)C1
REMARK SMILES IDX 5 1 4 2 3 3 1 4 2 5 73 7 74 8 93 9 75 10 80 11 76 12 79 13
REMARK SMILES IDX 77 14 78 16 81 17 82 18 85 19 83 20 84 21 86 22 87 23 92 24
REMARK SMILES IDX 88 25 91 26 89 27 90 28 6 29 7 30 8 31 9 33 10 34 11 35
REMARK SMILES IDX 72 36 12 37 71 38 13 39 14 40 15 41 65 42 16 43 70 44 64 45
REMARK SMILES IDX 66 46 17 47 69 48 63 49 62 50 18 52 50 53 30 54 49 55 31 56
REMARK SMILES IDX 34 57 48 58 67 59 32 60 33 61 47 63 68 64 35 65 19 66 20 67
REMARK SMILES IDX 28 68 21 69 22 70 26 71 29 72 23 73 24 74 27 75 25 76 51 77
REMARK SMILES IDX 52 78 60 79 53 80 54 81 58 82 61 83 55 84 56 85 59 86 57 87
REMARK SMILES IDX 36 88 37 89 45 90 38 91 39 92 43 93 46 94 40 95 41 96 44 97
REMARK SMILES IDX 42 98
REMARK H PARENT 3 6 76 15 7 32 66 51 34 62
REMARK Flexibility Score: inf
ROOT
ATOM      1  C   UNL A   1      32.395  27.933  25.957  1.00  0.00     0.042 C 
ENDROOT
BRANCH   1   2
ATOM      2  C   UNL A   1      31.507  27.279  24.912  1.00  0.00     0.118 C 
BRANCH   2   3
ATOM      3  N   UNL A   1      30.288  26.672  25.410  1.00  0.00    -0.351 N 
ATOM      4  O   UNL A   1      29.005  25.285  26.623  1.00  0.00    -0.268 OA
ATOM      5  C   UNL A   1      30.090  25.487  26.084  1.00  0.00     0.265 C 
ATOM      6  H   UNL A   1      29.469  27.191  25.241  1.00  0.00     0.163 HD
BRANCH   5   7
ATOM      7  C   UNL A   1      31.136  24.359  26.096  1.00  0.00     0.106 C 
ATOM      8  N   UNL A   1      31.358  23.805  27.237  1.00  0.00    -0.237 NA
ATOM      9  C   UNL A   1      31.842  23.983  24.823  1.00  0.00     0.090 C 
ATOM     10  C   UNL A   1      32.120  22.583  27.294  1.00  0.00     0.319 C 
ATOM     11  C   UNL A   1      32.986  23.014  25.094  1.00  0.00     0.127 C 
ATOM     12  N   UNL A   1      33.286  22.530  28.129  1.00  0.00    -0.335 N 
ATOM     13  N   UNL A   1      32.561  21.945  26.029  1.00  0.00    -0.249 NA
ATOM     14  C   UNL A   1      34.053  21.562  27.552  1.00  0.00     0.217 C 
ATOM     15  H   UNL A   1      33.485  23.066  28.930  1.00  0.00     0.165 HD
ATOM     16  N   UNL A   1      33.664  21.131  26.380  1.00  0.00    -0.164 NA
BRANCH  11  17
ATOM     17  C   UNL A   1      33.597  22.366  23.839  1.00  0.00     0.109 C 
ATOM     18  C   UNL A   1      32.973  22.824  22.561  1.00  0.00     0.120 C 
ATOM     19  C   UNL A   1      34.996  22.800  23.531  1.00  0.00     0.081 C 
ATOM     20  N   UNL A   1      33.816  23.370  21.748  1.00  0.00    -0.162 NA
ATOM     21  N   UNL A   1      35.101  23.364  22.364  1.00  0.00    -0.155 NA
BRANCH  19  22
ATOM     22  C   UNL A   1      36.097  22.692  24.505  1.00  0.00    -0.001 A 
ATOM     23  C   UNL A   1      36.528  23.798  25.250  1.00  0.00     0.013 A 
ATOM     24  C   UNL A   1      36.800  21.484  24.567  1.00  0.00     0.013 A 
ATOM     25  C   UNL A   1      37.703  23.710  25.997  1.00  0.00     0.040 A 
ATOM     26  C   UNL A   1      37.967  21.399  25.322  1.00  0.00     0.040 A 
ATOM     27  C   UNL A   1      38.418  22.517  26.015  1.00  0.00     0.123 A 
ATOM     28  F   UNL A   1      39.564  22.447  26.702  1.00  0.00    -0.207 F 
ENDBRANCH  19  22
ENDBRANCH  11  17
ENDBRANCH   5   7
ENDBRANCH   2   3
ENDBRANCH   1   2
BRANCH   1  29
ATOM     29  C   UNL A   1      33.166  29.162  25.510  1.00  0.00     0.118 C 
BRANCH  29  30
ATOM     30  N   UNL A   1      32.682  30.409  26.084  1.00  0.00    -0.352 N 
ATOM     31  C   UNL A   1      33.229  31.243  27.040  1.00  0.00     0.251 C 
ATOM     32  H   UNL A   1      31.814  30.710  25.730  1.00  0.00     0.163 HD
ATOM     33  O   UNL A   1      32.588  32.197  27.451  1.00  0.00    -0.269 OA
BRANCH  31  34
ATOM     34  C   UNL A   1      34.573  30.965  27.602  1.00  0.00     0.039 A 
ATOM     35  C   UNL A   1      35.480  32.019  27.754  1.00  0.00     0.014 A 
ATOM     36  C   UNL A   1      34.943  29.678  27.987  1.00  0.00     0.014 A 
ATOM     37  C   UNL A   1      36.703  31.801  28.399  1.00  0.00     0.010 A 
ATOM     38  C   UNL A   1      36.102  29.486  28.730  1.00  0.00     0.010 A 
ATOM     39  C   UNL A   1      36.996  30.545  28.950  1.00  0.00    -0.014 A 
BRANCH  39  40
ATOM     40  C   UNL A   1      38.220  30.285  29.754  1.00  0.00     0.031 A 
ATOM     41  C   UNL A   1      39.286  29.370  29.215  1.00  0.00     0.074 A 
ATOM     42  C   UNL A   1      38.322  30.764  31.009  1.00  0.00     0.049 A 
ATOM     43  N   UNL A   1      40.323  28.848  29.819  1.00  0.00    -0.248 NA
ATOM     44  C   UNL A   1      39.138  28.954  27.810  1.00  0.00     0.031 C 
ATOM     45  C   UNL A   1      37.352  31.642  31.666  1.00  0.00     0.029 A 
ATOM     46  N   UNL A   1      39.283  30.557  31.970  1.00  0.00    -0.354 N 
ATOM     47  C   UNL A   1      40.930  28.024  28.882  1.00  0.00     0.074 A 
ATOM     48  C   UNL A   1      40.110  28.064  27.690  1.00  0.00     0.031 C 
ATOM     49  C   UNL A   1      37.776  31.914  32.910  1.00  0.00     0.029 A 
ATOM     50  C   UNL A   1      39.015  31.186  33.162  1.00  0.00     0.049 A 
ATOM     51  H   UNL A   1      40.087  30.010  31.818  1.00  0.00     0.167 HD
ATOM     52  C   UNL A   1      42.079  27.315  28.993  1.00  0.00     0.037 A 
ATOM     53  C   UNL A   1      39.683  31.161  34.331  1.00  0.00     0.037 A 
ATOM     54  C   UNL A   1      42.902  27.295  30.174  1.00  0.00     0.049 A 
ATOM     55  C   UNL A   1      40.934  30.332  34.448  1.00  0.00     0.074 A 
ATOM     56  C   UNL A   1      44.106  26.643  30.377  1.00  0.00     0.029 A 
ATOM     57  N   UNL A   1      42.602  27.957  31.356  1.00  0.00    -0.354 N 
ATOM     58  N   UNL A   1      41.522  29.586  33.545  1.00  0.00    -0.248 NA
ATOM     59  C   UNL A   1      41.614  30.340  35.752  1.00  0.00     0.031 C 
ATOM     60  C   UNL A   1      44.507  26.867  31.698  1.00  0.00     0.029 A 
ATOM     61  C   UNL A   1      43.588  27.712  32.299  1.00  0.00     0.049 A 
ATOM     62  H   UNL A   1      41.807  28.518  31.503  1.00  0.00     0.167 HD
ATOM     63  C   UNL A   1      42.662  29.074  34.154  1.00  0.00     0.074 A 
ATOM     64  C   UNL A   1      42.681  29.593  35.505  1.00  0.00     0.031 C 
ATOM     65  C   UNL A   1      43.608  28.254  33.635  1.00  0.00     0.037 A 
BRANCH  52  66
ATOM     66  C   UNL A   1      42.504  26.500  27.804  1.00  0.00     0.064 A 
ATOM     67  C   UNL A   1      42.111  25.160  27.648  1.00  0.00     0.173 A 
ATOM     68  C   UNL A   1      43.315  27.061  26.806  1.00  0.00     0.173 A 
ATOM     69  F   UNL A   1      41.344  24.569  28.577  1.00  0.00    -0.203 F 
ATOM     70  C   UNL A   1      42.554  24.402  26.568  1.00  0.00     0.198 A 
ATOM     71  C   UNL A   1      43.724  26.311  25.706  1.00  0.00     0.198 A 
ATOM     72  F   UNL A   1      43.714  28.338  26.896  1.00  0.00    -0.203 F 
ATOM     73  F   UNL A   1      42.228  23.105  26.483  1.00  0.00    -0.200 F 
ATOM     74  C   UNL A   1      43.356  24.979  25.595  1.00  0.00     0.200 A 
ATOM     75  F   UNL A   1      44.485  26.876  24.758  1.00  0.00    -0.200 F 
ATOM     76  F   UNL A   1      43.784  24.248  24.557  1.00  0.00    -0.200 F 
ENDBRANCH  52  66
BRANCH  53  77
ATOM     77  C   UNL A   1      39.199  31.971  35.481  1.00  0.00     0.064 A 
ATOM     78  C   UNL A   1      39.563  33.320  35.607  1.00  0.00     0.173 A 
ATOM     79  C   UNL A   1      38.367  31.427  36.470  1.00  0.00     0.173 A 
ATOM     80  F   UNL A   1      40.376  33.879  34.698  1.00  0.00    -0.203 F 
ATOM     81  C   UNL A   1      39.131  34.086  36.687  1.00  0.00     0.198 A 
ATOM     82  C   UNL A   1      37.909  32.203  37.534  1.00  0.00     0.198 A 
ATOM     83  F   UNL A   1      37.985  30.143  36.396  1.00  0.00    -0.203 F 
ATOM     84  F   UNL A   1      39.533  35.359  36.805  1.00  0.00    -0.200 F 
ATOM     85  C   UNL A   1      38.298  33.530  37.645  1.00  0.00     0.200 A 
ATOM     86  F   UNL A   1      37.095  31.665  38.452  1.00  0.00    -0.200 F 
ATOM     87  F   UNL A   1      37.877  34.269  38.681  1.00  0.00    -0.200 F 
ENDBRANCH  53  77
BRANCH  65  88
ATOM     88  C   UNL A   1      44.786  27.915  34.502  1.00  0.00     0.064 A 
ATOM     89  C   UNL A   1      45.923  28.733  34.567  1.00  0.00     0.173 A 
ATOM     90  C   UNL A   1      44.747  26.779  35.328  1.00  0.00     0.173 A 
ATOM     91  F   UNL A   1      46.017  29.821  33.788  1.00  0.00    -0.203 F 
ATOM     92  C   UNL A   1      46.985  28.416  35.412  1.00  0.00     0.198 A 
ATOM     93  C   UNL A   1      45.795  26.484  36.194  1.00  0.00     0.198 A 
ATOM     94  F   UNL A   1      43.679  25.966  35.309  1.00  0.00    -0.203 F 
ATOM     95  F   UNL A   1      48.080  29.189  35.426  1.00  0.00    -0.200 F 
ATOM     96  C   UNL A   1      46.915  27.299  36.232  1.00  0.00     0.200 A 
ATOM     97  F   UNL A   1      45.717  25.413  36.997  1.00  0.00    -0.200 F 
ATOM     98  F   UNL A   1      47.931  27.006  37.055  1.00  0.00    -0.200 F 
ENDBRANCH  65  88
ENDBRANCH  39  40
ENDBRANCH  31  34
ENDBRANCH  29  30
ENDBRANCH   1  29
TORSDOF 12
ENDMDL
MODEL 2
REMARK VINA RESULT:     -14.1      0.111      1.107
REMARK SMILES O=C(NCCCNC(=O)c1ccc(-c2c3nc(c(-c4c(F)c(F)c(F)c(F)c4F)c4ccc([nH]4)c(-c4c(F)c(F)c(F)c(F)c4F)c4nc(c(-c5c(F)c(F)c(F)c(F)c5F)c5ccc2[nH]5)C=C4)C=C3)cc1)C1=N[C@@H]2NC=NN2[C@@H]([C@H]2C=NN=C2c2ccc(F)cc2)C1
REMARK SMILES IDX 5 1 4 2 3 3 1 4 2 5 73 7 74 8 93 9 75 10 80 11 76 12 79 13
REMARK SMILES IDX 77 14 78 16 81 17 82 18 85 19 83 20 84 21 86 22 87 23 92 24
REMARK SMILES IDX 88 25 91 26 89 27 90 28 6 29 7 30 8 31 9 33 10 34 11 35
REMARK SMILES IDX 72 36 12 37 71 38 13 39 14 40 15 41 65 42 16 43 70 44 64 45
REMARK SMILES IDX 66 46 17 47 69 48 63 49 62 50 18 52 50 53 30 54 49 55 31 56
REMARK SMILES IDX 34 57 48 58 67 59 32 60 33 61 47 63 68 64 35 65 19 66 20 67
REMARK SMILES IDX 28 68 21 69 22 70 26 71 29 72 23 73 24 74 27 75 25 76 51 77
REMARK SMILES IDX 52 78 60 79 53 80 54 81 58 82 61 83 55 84 56 85 59 86 57 87
REMARK SMILES IDX 36 88 37 89 45 90 38 91 39 92 43 93 46 94 40 95 41 96 44 97
REMARK SMILES IDX 42 98
REMARK H PARENT 3 6 76 15 7 32 66 51 34 62
REMARK Flexibility Score: inf
ROOT
ATOM      1  C   UNL A   1      32.426  27.798  25.891  1.00  0.00     0.042 C 
ENDROOT
BRANCH   1   2
ATOM      2  C   UNL A   1      31.467  27.234  24.855  1.00  0.00     0.118 C 
BRANCH   2   3
ATOM      3  N   UNL A   1      30.261  26.624  25.380  1.00  0.00    -0.351 N 
ATOM      4  O   UNL A   1      29.008  25.244  26.632  1.00  0.00    -0.268 OA
ATOM      5  C   UNL A   1      30.084  25.448  26.076  1.00  0.00     0.265 C 
ATOM      6  H   UNL A   1      29.435  27.131  25.213  1.00  0.00     0.163 HD
BRANCH   5   7
ATOM      7  C   UNL A   1      31.141  24.331  26.092  1.00  0.00     0.106 C 
ATOM      8  N   UNL A   1      31.364  23.779  27.235  1.00  0.00    -0.237 NA
ATOM      9  C   UNL A   1      31.857  23.962  24.822  1.00  0.00     0.090 C 
ATOM     10  C   UNL A   1      32.138  22.565  27.295  1.00  0.00     0.319 C 
ATOM     11  C   UNL A   1      33.009  23.005  25.098  1.00  0.00     0.127 C 
ATOM     12  N   UNL A   1      33.301  22.524  28.135  1.00  0.00    -0.335 N 
ATOM     13  N   UNL A   1      32.591  21.932  26.032  1.00  0.00    -0.249 NA
ATOM     14  C   UNL A   1      34.080  21.564  27.560  1.00  0.00     0.217 C 
ATOM     15  H   UNL A   1      33.491  23.062  28.937  1.00  0.00     0.165 HD
ATOM     16  N   UNL A   1      33.701  21.128  26.388  1.00  0.00    -0.164 NA
BRANCH  11  17
ATOM     17  C   UNL A   1      33.632  22.363  23.846  1.00  0.00     0.109 C 
ATOM     18  C   UNL A   1      33.011  22.817  22.566  1.00  0.00     0.120 C 
ATOM     19  C   UNL A   1      35.030  22.810  23.545  1.00  0.00     0.081 C 
ATOM     20  N   UNL A   1      33.853  23.371  21.757  1.00  0.00    -0.162 NA
ATOM     21  N   UNL A   1      35.135  23.376  22.379  1.00  0.00    -0.155 NA
BRANCH  19  22
ATOM     22  C   UNL A   1      36.126  22.712  24.525  1.00  0.00    -0.001 A 
ATOM     23  C   UNL A   1      36.511  23.809  25.307  1.00  0.00     0.013 A 
ATOM     24  C   UNL A   1      36.871  21.528  24.556  1.00  0.00     0.013 A 
ATOM     25  C   UNL A   1      37.684  23.741  26.061  1.00  0.00     0.040 A 
ATOM     26  C   UNL A   1      38.036  21.462  25.318  1.00  0.00     0.040 A 
ATOM     27  C   UNL A   1      38.441  22.573  26.048  1.00  0.00     0.123 A 
ATOM     28  F   UNL A   1      39.584  22.524  26.742  1.00  0.00    -0.207 F 
ENDBRANCH  19  22
ENDBRANCH  11  17
ENDBRANCH   5   7
ENDBRANCH   2   3
ENDBRANCH   1   2
BRANCH   1  29
ATOM     29  C   UNL A   1      33.217  29.025  25.476  1.00  0.00     0.118 C 
BRANCH  29  30
ATOM     30  N   UNL A   1      32.723  30.270  26.046  1.00  0.00    -0.352 N 
ATOM     31  C   UNL A   1      33.262  31.110  27.002  1.00  0.00     0.251 C 
ATOM     32  H   UNL A   1      31.854  30.565  25.689  1.00  0.00     0.163 HD
ATOM     33  O   UNL A   1      32.613  32.061  27.409  1.00  0.00    -0.269 OA
BRANCH  31  34
ATOM     34  C   UNL A   1      34.606  30.842  27.568  1.00  0.00     0.039 A 
ATOM     35  C   UNL A   1      35.517  31.897  27.690  1.00  0.00     0.014 A 
ATOM     36  C   UNL A   1      34.973  29.565  27.986  1.00  0.00     0.014 A 
ATOM     37  C   UNL A   1      36.742  31.692  28.338  1.00  0.00     0.010 A 
ATOM     38  C   UNL A   1      36.133  29.388  28.731  1.00  0.00     0.010 A 
ATOM     39  C   UNL A   1      37.031  30.450  28.921  1.00  0.00    -0.014 A 
BRANCH  39  40
ATOM     40  C   UNL A   1      38.256  30.207  29.728  1.00  0.00     0.031 A 
ATOM     41  C   UNL A   1      39.330  29.296  29.199  1.00  0.00     0.074 A 
ATOM     42  C   UNL A   1      38.353  30.697  30.980  1.00  0.00     0.049 A 
ATOM     43  N   UNL A   1      40.370  28.788  29.809  1.00  0.00    -0.248 NA
ATOM     44  C   UNL A   1      39.188  28.866  27.798  1.00  0.00     0.031 C 
ATOM     45  C   UNL A   1      37.375  31.573  31.628  1.00  0.00     0.029 A 
ATOM     46  N   UNL A   1      39.314  30.507  31.943  1.00  0.00    -0.354 N 
ATOM     47  C   UNL A   1      40.986  27.960  28.880  1.00  0.00     0.074 A 
ATOM     48  C   UNL A   1      40.167  27.983  27.687  1.00  0.00     0.031 C 
ATOM     49  C   UNL A   1      37.795  31.860  32.870  1.00  0.00     0.029 A 
ATOM     50  C   UNL A   1      39.040  31.144  33.130  1.00  0.00     0.049 A 
ATOM     51  H   UNL A   1      40.123  29.966  31.797  1.00  0.00     0.167 HD
ATOM     52  C   UNL A   1      42.140  27.262  28.999  1.00  0.00     0.037 A 
ATOM     53  C   UNL A   1      39.706  31.135  34.300  1.00  0.00     0.037 A 
ATOM     54  C   UNL A   1      42.962  27.258  30.181  1.00  0.00     0.049 A 
ATOM     55  C   UNL A   1      40.963  30.317  34.426  1.00  0.00     0.074 A 
ATOM     56  C   UNL A   1      44.171  26.618  30.391  1.00  0.00     0.029 A 
ATOM     57  N   UNL A   1      42.655  27.928  31.357  1.00  0.00    -0.354 N 
ATOM     58  N   UNL A   1      41.559  29.568  33.530  1.00  0.00    -0.248 NA
ATOM     59  C   UNL A   1      41.642  30.342  35.731  1.00  0.00     0.031 C 
ATOM     60  C   UNL A   1      44.568  26.857  31.710  1.00  0.00     0.029 A 
ATOM     61  C   UNL A   1      43.641  27.700  32.303  1.00  0.00     0.049 A 
ATOM     62  H   UNL A   1      41.855  28.485  31.498  1.00  0.00     0.167 HD
ATOM     63  C   UNL A   1      42.702  29.071  34.145  1.00  0.00     0.074 A 
ATOM     64  C   UNL A   1      42.716  29.602  35.491  1.00  0.00     0.031 C 
ATOM     65  C   UNL A   1      43.655  28.254  33.634  1.00  0.00     0.037 A 
BRANCH  52  66
ATOM     66  C   UNL A   1      42.573  26.439  27.818  1.00  0.00     0.064 A 
ATOM     67  C   UNL A   1      42.174  25.101  27.662  1.00  0.00     0.173 A 
ATOM     68  C   UNL A   1      43.398  26.992  26.827  1.00  0.00     0.173 A 
ATOM     69  F   UNL A   1      41.394  24.518  28.585  1.00  0.00    -0.203 F 
ATOM     70  C   UNL A   1      42.625  24.337  26.590  1.00  0.00     0.198 A 
ATOM     71  C   UNL A   1      43.815  26.236  25.733  1.00  0.00     0.198 A 
ATOM     72  F   UNL A   1      43.804  28.268  26.916  1.00  0.00    -0.203 F 
ATOM     73  F   UNL A   1      42.292  23.041  26.506  1.00  0.00    -0.200 F 
ATOM     74  C   UNL A   1      43.440  24.906  25.623  1.00  0.00     0.200 A 
ATOM     75  F   UNL A   1      44.589  26.792  24.792  1.00  0.00    -0.200 F 
ATOM     76  F   UNL A   1      43.875  24.168  24.593  1.00  0.00    -0.200 F 
ENDBRANCH  52  66
BRANCH  53  77
ATOM     77  C   UNL A   1      39.214  31.951  35.442  1.00  0.00     0.064 A 
ATOM     78  C   UNL A   1      39.551  33.309  35.546  1.00  0.00     0.173 A 
ATOM     79  C   UNL A   1      38.400  31.404  36.445  1.00  0.00     0.173 A 
ATOM     80  F   UNL A   1      40.346  33.872  34.623  1.00  0.00    -0.203 F 
ATOM     81  C   UNL A   1      39.111  34.081  36.618  1.00  0.00     0.198 A 
ATOM     82  C   UNL A   1      37.935  32.186  37.502  1.00  0.00     0.198 A 
ATOM     83  F   UNL A   1      38.044  30.112  36.392  1.00  0.00    -0.203 F 
ATOM     84  F   UNL A   1      39.488  35.363  36.715  1.00  0.00    -0.200 F 
ATOM     85  C   UNL A   1      38.297  33.521  37.591  1.00  0.00     0.200 A 
ATOM     86  F   UNL A   1      37.138  31.644  38.433  1.00  0.00    -0.200 F 
ATOM     87  F   UNL A   1      37.869  34.267  38.619  1.00  0.00    -0.200 F 
ENDBRANCH  53  77
BRANCH  65  88
ATOM     88  C   UNL A   1      44.835  27.932  34.506  1.00  0.00     0.064 A 
ATOM     89  C   UNL A   1      44.869  26.793  35.321  1.00  0.00     0.173 A 
ATOM     90  C   UNL A   1      45.976  28.751  34.475  1.00  0.00     0.173 A 
ATOM     91  F   UNL A   1      43.800  25.985  35.399  1.00  0.00    -0.203 F 
ATOM     92  C   UNL A   1      45.993  26.496  36.089  1.00  0.00     0.198 A 
ATOM     93  C   UNL A   1      47.109  28.434  35.217  1.00  0.00     0.198 A 
ATOM     94  F   UNL A   1      45.998  29.851  33.706  1.00  0.00    -0.203 F 
ATOM     95  F   UNL A   1      45.988  25.424  36.894  1.00  0.00    -0.200 F 
ATOM     96  C   UNL A   1      47.115  27.310  36.028  1.00  0.00     0.200 A 
ATOM     97  F   UNL A   1      48.197  29.213  35.143  1.00  0.00    -0.200 F 
ATOM     98  F   UNL A   1      48.201  27.012  36.754  1.00  0.00    -0.200 F 
ENDBRANCH  65  88
ENDBRANCH  39  40
ENDBRANCH  31  34
ENDBRANCH  29  30
ENDBRANCH   1  29
TORSDOF 12
ENDMDL
MODEL 3
REMARK VINA RESULT:     -14.0      2.920      7.590
REMARK SMILES O=C(NCCCNC(=O)c1ccc(-c2c3nc(c(-c4c(F)c(F)c(F)c(F)c4F)c4ccc([nH]4)c(-c4c(F)c(F)c(F)c(F)c4F)c4nc(c(-c5c(F)c(F)c(F)c(F)c5F)c5ccc2[nH]5)C=C4)C=C3)cc1)C1=N[C@@H]2NC=NN2[C@@H]([C@H]2C=NN=C2c2ccc(F)cc2)C1
REMARK SMILES IDX 5 1 4 2 3 3 1 4 2 5 73 7 74 8 93 9 75 10 80 11 76 12 79 13
REMARK SMILES IDX 77 14 78 16 81 17 82 18 85 19 83 20 84 21 86 22 87 23 92 24
REMARK SMILES IDX 88 25 91 26 89 27 90 28 6 29 7 30 8 31 9 33 10 34 11 35
REMARK SMILES IDX 72 36 12 37 71 38 13 39 14 40 15 41 65 42 16 43 70 44 64 45
REMARK SMILES IDX 66 46 17 47 69 48 63 49 62 50 18 52 50 53 30 54 49 55 31 56
REMARK SMILES IDX 34 57 48 58 67 59 32 60 33 61 47 63 68 64 35 65 19 66 20 67
REMARK SMILES IDX 28 68 21 69 22 70 26 71 29 72 23 73 24 74 27 75 25 76 51 77
REMARK SMILES IDX 52 78 60 79 53 80 54 81 58 82 61 83 55 84 56 85 59 86 57 87
REMARK SMILES IDX 36 88 37 89 45 90 38 91 39 92 43 93 46 94 40 95 41 96 44 97
REMARK SMILES IDX 42 98
REMARK H PARENT 3 6 76 15 7 32 66 51 34 62
REMARK Flexibility Score: inf
ROOT
ATOM      1  C   UNL A   1      32.356  28.127  27.130  1.00  0.00     0.042 C 
ENDROOT
BRANCH   1   2
ATOM      2  C   UNL A   1      31.867  27.521  25.825  1.00  0.00     0.118 C 
BRANCH   2   3
ATOM      3  N   UNL A   1      30.558  26.898  25.871  1.00  0.00    -0.351 N 
ATOM      4  O   UNL A   1      29.009  25.359  26.392  1.00  0.00    -0.268 OA
ATOM      5  C   UNL A   1      30.194  25.606  26.181  1.00  0.00     0.265 C 
ATOM      6  H   UNL A   1      29.809  27.495  25.646  1.00  0.00     0.163 HD
BRANCH   5   7
ATOM      7  C   UNL A   1      31.195  24.440  26.166  1.00  0.00     0.106 C 
ATOM      8  N   UNL A   1      31.390  23.845  27.293  1.00  0.00    -0.237 NA
ATOM      9  C   UNL A   1      31.893  24.072  24.886  1.00  0.00     0.090 C 
ATOM     10  C   UNL A   1      32.104  22.595  27.319  1.00  0.00     0.319 C 
ATOM     11  C   UNL A   1      32.997  23.052  25.135  1.00  0.00     0.127 C 
ATOM     12  N   UNL A   1      33.262  22.474  28.157  1.00  0.00    -0.335 N 
ATOM     13  N   UNL A   1      32.527  21.975  26.039  1.00  0.00    -0.249 NA
ATOM     14  C   UNL A   1      33.994  21.493  27.556  1.00  0.00     0.217 C 
ATOM     15  H   UNL A   1      33.478  22.979  28.974  1.00  0.00     0.165 HD
ATOM     16  N   UNL A   1      33.595  21.109  26.372  1.00  0.00    -0.164 NA
BRANCH  11  17
ATOM     17  C   UNL A   1      33.590  22.416  23.865  1.00  0.00     0.109 C 
ATOM     18  C   UNL A   1      32.943  22.882  22.602  1.00  0.00     0.120 C 
ATOM     19  C   UNL A   1      34.983  22.856  23.538  1.00  0.00     0.081 C 
ATOM     20  N   UNL A   1      33.771  23.437  21.779  1.00  0.00    -0.162 NA
ATOM     21  N   UNL A   1      35.066  23.430  22.374  1.00  0.00    -0.155 NA
BRANCH  19  22
ATOM     22  C   UNL A   1      36.099  22.745  24.493  1.00  0.00    -0.001 A 
ATOM     23  C   UNL A   1      36.539  23.846  25.238  1.00  0.00     0.013 A 
ATOM     24  C   UNL A   1      36.806  21.538  24.535  1.00  0.00     0.013 A 
ATOM     25  C   UNL A   1      37.728  23.757  25.966  1.00  0.00     0.040 A 
ATOM     26  C   UNL A   1      37.986  21.451  25.270  1.00  0.00     0.040 A 
ATOM     27  C   UNL A   1      38.445  22.565  25.963  1.00  0.00     0.123 A 
ATOM     28  F   UNL A   1      39.603  22.494  26.630  1.00  0.00    -0.207 F 
ENDBRANCH  19  22
ENDBRANCH  11  17
ENDBRANCH   5   7
ENDBRANCH   2   3
ENDBRANCH   1   2
BRANCH   1  29
ATOM     29  C   UNL A   1      33.751  28.725  27.112  1.00  0.00     0.118 C 
BRANCH  29  30
ATOM     30  N   UNL A   1      33.825  30.080  27.639  1.00  0.00    -0.352 N 
ATOM     31  C   UNL A   1      34.833  30.741  28.313  1.00  0.00     0.251 C 
ATOM     32  H   UNL A   1      33.014  30.619  27.489  1.00  0.00     0.163 HD
ATOM     33  O   UNL A   1      34.632  31.859  28.759  1.00  0.00    -0.269 OA
BRANCH  31  34
ATOM     34  C   UNL A   1      36.145  30.086  28.536  1.00  0.00     0.039 A 
ATOM     35  C   UNL A   1      37.135  30.191  27.553  1.00  0.00     0.014 A 
ATOM     36  C   UNL A   1      36.409  29.377  29.705  1.00  0.00     0.014 A 
ATOM     37  C   UNL A   1      38.420  29.690  27.799  1.00  0.00     0.010 A 
ATOM     38  C   UNL A   1      37.710  28.985  29.997  1.00  0.00     0.010 A 
ATOM     39  C   UNL A   1      38.734  29.140  29.049  1.00  0.00    -0.014 A 
BRANCH  39  40
ATOM     40  C   UNL A   1      40.109  28.706  29.414  1.00  0.00     0.031 A 
ATOM     41  C   UNL A   1      40.994  29.624  30.213  1.00  0.00     0.074 A 
ATOM     42  C   UNL A   1      40.608  27.551  28.931  1.00  0.00     0.049 A 
ATOM     43  N   UNL A   1      42.276  29.539  30.465  1.00  0.00    -0.248 NA
ATOM     44  C   UNL A   1      40.352  30.827  30.768  1.00  0.00     0.031 C 
ATOM     45  C   UNL A   1      39.869  26.577  28.125  1.00  0.00     0.029 A 
ATOM     46  N   UNL A   1      41.867  27.010  29.028  1.00  0.00    -0.354 N 
ATOM     47  C   UNL A   1      42.596  30.685  31.179  1.00  0.00     0.074 A 
ATOM     48  C   UNL A   1      41.390  31.481  31.264  1.00  0.00     0.031 C 
ATOM     49  C   UNL A   1      40.680  25.553  27.819  1.00  0.00     0.029 A 
ATOM     50  C   UNL A   1      42.010  25.820  28.355  1.00  0.00     0.049 A 
ATOM     51  H   UNL A   1      42.598  27.435  29.532  1.00  0.00     0.167 HD
ATOM     52  C   UNL A   1      43.781  31.035  31.735  1.00  0.00     0.037 A 
ATOM     53  C   UNL A   1      43.096  25.044  28.175  1.00  0.00     0.037 A 
ATOM     54  C   UNL A   1      44.972  30.230  31.666  1.00  0.00     0.049 A 
ATOM     55  C   UNL A   1      44.414  25.473  28.763  1.00  0.00     0.074 A 
ATOM     56  C   UNL A   1      46.213  30.473  32.230  1.00  0.00     0.029 A 
ATOM     57  N   UNL A   1      45.071  29.024  30.985  1.00  0.00    -0.354 N 
ATOM     58  N   UNL A   1      44.700  26.539  29.471  1.00  0.00    -0.248 NA
ATOM     59  C   UNL A   1      45.564  24.587  28.526  1.00  0.00     0.031 C 
ATOM     60  C   UNL A   1      47.076  29.441  31.846  1.00  0.00     0.029 A 
ATOM     61  C   UNL A   1      46.357  28.521  31.098  1.00  0.00     0.049 A 
ATOM     62  H   UNL A   1      44.336  28.590  30.496  1.00  0.00     0.167 HD
ATOM     63  C   UNL A   1      46.045  26.431  29.800  1.00  0.00     0.074 A 
ATOM     64  C   UNL A   1      46.520  25.196  29.214  1.00  0.00     0.031 C 
ATOM     65  C   UNL A   1      46.812  27.277  30.529  1.00  0.00     0.037 A 
BRANCH  52  66
ATOM     66  C   UNL A   1      43.840  32.350  32.461  1.00  0.00     0.064 A 
ATOM     67  C   UNL A   1      43.552  32.452  33.832  1.00  0.00     0.173 A 
ATOM     68  C   UNL A   1      44.189  33.526  31.780  1.00  0.00     0.173 A 
ATOM     69  F   UNL A   1      43.203  31.361  34.531  1.00  0.00    -0.203 F 
ATOM     70  C   UNL A   1      43.562  33.684  34.479  1.00  0.00     0.198 A 
ATOM     71  C   UNL A   1      44.237  34.752  32.439  1.00  0.00     0.198 A 
ATOM     72  F   UNL A   1      44.484  33.489  30.471  1.00  0.00    -0.203 F 
ATOM     73  F   UNL A   1      43.208  33.764  35.769  1.00  0.00    -0.200 F 
ATOM     74  C   UNL A   1      43.909  34.833  33.784  1.00  0.00     0.200 A 
ATOM     75  F   UNL A   1      44.589  35.858  31.769  1.00  0.00    -0.200 F 
ATOM     76  F   UNL A   1      43.916  36.019  34.407  1.00  0.00    -0.200 F 
ENDBRANCH  52  66
BRANCH  53  77
ATOM     77  C   UNL A   1      42.979  23.765  27.425  1.00  0.00     0.064 A 
ATOM     78  C   UNL A   1      43.284  23.710  26.057  1.00  0.00     0.173 A 
ATOM     79  C   UNL A   1      42.568  22.578  28.049  1.00  0.00     0.173 A 
ATOM     80  F   UNL A   1      43.660  24.824  25.412  1.00  0.00    -0.203 F 
ATOM     81  C   UNL A   1      43.164  22.523  25.339  1.00  0.00     0.198 A 
ATOM     82  C   UNL A   1      42.477  21.383  27.335  1.00  0.00     0.198 A 
ATOM     83  F   UNL A   1      42.268  22.574  29.356  1.00  0.00    -0.203 F 
ATOM     84  F   UNL A   1      43.417  22.511  24.023  1.00  0.00    -0.200 F 
ATOM     85  C   UNL A   1      42.768  21.359  25.980  1.00  0.00     0.200 A 
ATOM     86  F   UNL A   1      42.107  20.258  27.961  1.00  0.00    -0.200 F 
ATOM     87  F   UNL A   1      42.658  20.215  25.289  1.00  0.00    -0.200 F 
ENDBRANCH  53  77
BRANCH  65  88
ATOM     88  C   UNL A   1      48.233  26.872  30.798  1.00  0.00     0.064 A 
ATOM     89  C   UNL A   1      48.576  26.009  31.848  1.00  0.00     0.173 A 
ATOM     90  C   UNL A   1      49.262  27.311  29.947  1.00  0.00     0.173 A 
ATOM     91  F   UNL A   1      47.634  25.573  32.698  1.00  0.00    -0.203 F 
ATOM     92  C   UNL A   1      49.897  25.616  32.049  1.00  0.00     0.198 A 
ATOM     93  C   UNL A   1      50.575  26.890  30.131  1.00  0.00     0.198 A 
ATOM     94  F   UNL A   1      48.988  28.133  28.923  1.00  0.00    -0.203 F 
ATOM     95  F   UNL A   1      50.208  24.824  33.085  1.00  0.00    -0.200 F 
ATOM     96  C   UNL A   1      50.893  26.048  31.185  1.00  0.00     0.200 A 
ATOM     97  F   UNL A   1      51.532  27.295  29.285  1.00  0.00    -0.200 F 
ATOM     98  F   UNL A   1      52.161  25.654  31.371  1.00  0.00    -0.200 F 
ENDBRANCH  65  88
ENDBRANCH  39  40
ENDBRANCH  31  34
ENDBRANCH  29  30
ENDBRANCH   1  29
TORSDOF 12
ENDMDL
