MODEL 1
REMARK VINA RESULT:     -12.7      0.000      0.000
REMARK SMILES COc1ccc(/C=C2/SC(=S)N(CC(=O)NCCCNC(=O)c3ccc(-c4c5nc(c(-c6c(F)c(F)c(F)c(F)c6F)c6ccc([nH]6)c(-c6c(F)c(F)c(F)c(F)c6F)c6nc(c(-c7c(F)c(F)c(F)c(F)c7F)c7ccc4[nH]7)C=C6)C=C5)cc3)C2=O)cc1[N+](=O)[O-]
REMARK SMILES IDX 17 1 16 2 14 3 15 4 13 6 12 7 7 8 8 9 9 10 86 11 10 12 87 13
REMARK SMILES IDX 11 14 6 15 3 16 4 17 89 18 5 19 88 20 2 21 1 22 90 23 91 24
REMARK SMILES IDX 92 25 18 26 19 27 20 28 21 29 22 31 23 32 24 33 85 34 25 35
REMARK SMILES IDX 84 36 26 37 27 38 28 39 78 40 29 41 83 42 77 43 79 44 30 45
REMARK SMILES IDX 82 46 76 47 75 48 31 50 63 51 43 52 62 53 44 54 47 55 61 56
REMARK SMILES IDX 80 57 45 58 46 59 60 61 81 62 48 63 32 64 33 65 41 66 34 67
REMARK SMILES IDX 35 68 39 69 42 70 36 71 37 72 40 73 38 74 64 75 65 76 73 77
REMARK SMILES IDX 66 78 67 79 71 80 74 81 68 82 69 83 72 84 70 85 49 86 50 87
REMARK SMILES IDX 58 88 51 89 52 90 56 91 59 92 53 93 54 94 57 95 55 96
REMARK H PARENT 16 5 20 30 79 49 47 60
REMARK Flexibility Score: inf
ROOT
ATOM      1  C   UNL A   1      31.510  30.504  26.488  1.00  0.00     0.117 C 
ENDROOT
BRANCH   1   2
ATOM      2  N   UNL A   1      32.837  30.004  26.202  1.00  0.00    -0.354 N 
ATOM      3  C   UNL A   1      33.230  28.773  25.764  1.00  0.00     0.240 C 
ATOM      4  O   UNL A   1      34.368  28.682  25.300  1.00  0.00    -0.273 OA
ATOM      5  H   UNL A   1      33.567  30.650  26.344  1.00  0.00     0.163 HD
BRANCH   3   6
ATOM      6  C   UNL A   1      32.258  27.585  25.723  1.00  0.00     0.227 C 
BRANCH   6   7
ATOM      7  N   UNL A   1      32.184  26.951  24.404  1.00  0.00    -0.283 N 
ATOM      8  C   UNL A   1      33.214  24.104  22.351  1.00  0.00     0.029 C 
ATOM      9  C   UNL A   1      32.733  25.256  22.848  1.00  0.00     0.081 C 
ATOM     10  S   UNL A   1      31.712  26.318  21.953  1.00  0.00    -0.054 SA
ATOM     11  C   UNL A   1      32.966  25.829  24.204  1.00  0.00     0.266 C 
ATOM     12  C   UNL A   1      31.560  27.458  23.288  1.00  0.00     0.148 C 
ATOM     13  O   UNL A   1      33.755  25.378  25.023  1.00  0.00    -0.268 OA
ATOM     14  S   UNL A   1      30.771  28.915  23.110  1.00  0.00    -0.052 S 
BRANCH   8  15
ATOM     15  C   UNL A   1      34.088  23.181  23.085  1.00  0.00    -0.017 A 
ATOM     16  C   UNL A   1      35.799  21.592  24.664  1.00  0.00     0.196 A 
ATOM     17  C   UNL A   1      36.324  22.524  23.763  1.00  0.00     0.054 A 
ATOM     18  C   UNL A   1      34.412  21.464  24.768  1.00  0.00     0.311 A 
ATOM     19  C   UNL A   1      35.476  23.314  22.978  1.00  0.00     0.012 A 
ATOM     20  C   UNL A   1      33.557  22.215  23.945  1.00  0.00     0.098 A 
BRANCH  16  21
ATOM     21  O   UNL A   1      36.710  20.936  25.443  1.00  0.00    -0.490 OA
ATOM     22  C   UNL A   1      37.956  21.626  25.520  1.00  0.00     0.278 C 
ENDBRANCH  16  21
BRANCH  18  23
ATOM     23  N   UNL A   1      33.787  20.612  25.772  1.00  0.00     0.066 N 
ATOM     24  O   UNL A   1      33.394  19.498  25.392  1.00  0.00    -0.258 OA
ATOM     25  O   UNL A   1      33.677  21.043  26.927  1.00  0.00    -0.258 OA
ENDBRANCH  18  23
ENDBRANCH   8  15
ENDBRANCH   6   7
ENDBRANCH   3   6
ENDBRANCH   1   2
BRANCH   1  26
ATOM     26  C   UNL A   1      31.456  32.026  26.533  1.00  0.00     0.042 C 
BRANCH  26  27
ATOM     27  C   UNL A   1      32.623  32.666  27.283  1.00  0.00     0.118 C 
BRANCH  27  28
ATOM     28  N   UNL A   1      32.383  34.067  27.607  1.00  0.00    -0.352 N 
ATOM     29  C   UNL A   1      32.974  34.890  28.534  1.00  0.00     0.251 C 
ATOM     30  H   UNL A   1      31.678  34.496  27.070  1.00  0.00     0.163 HD
ATOM     31  O   UNL A   1      32.479  35.988  28.768  1.00  0.00    -0.269 OA
BRANCH  29  32
ATOM     32  C   UNL A   1      34.181  34.461  29.272  1.00  0.00     0.039 A 
ATOM     33  C   UNL A   1      34.026  33.908  30.547  1.00  0.00     0.014 A 
ATOM     34  C   UNL A   1      35.460  34.619  28.732  1.00  0.00     0.014 A 
ATOM     35  C   UNL A   1      35.140  33.428  31.237  1.00  0.00     0.010 A 
ATOM     36  C   UNL A   1      36.562  34.076  29.389  1.00  0.00     0.010 A 
ATOM     37  C   UNL A   1      36.410  33.457  30.639  1.00  0.00    -0.014 A 
BRANCH  37  38
ATOM     38  C   UNL A   1      37.570  32.776  31.269  1.00  0.00     0.031 A 
ATOM     39  C   UNL A   1      38.218  31.590  30.617  1.00  0.00     0.074 A 
ATOM     40  C   UNL A   1      37.978  33.182  32.488  1.00  0.00     0.049 A 
ATOM     41  N   UNL A   1      39.179  30.821  31.068  1.00  0.00    -0.248 NA
ATOM     42  C   UNL A   1      37.705  31.199  29.297  1.00  0.00     0.031 C 
ATOM     43  C   UNL A   1      37.394  34.291  33.245  1.00  0.00     0.029 A 
ATOM     44  N   UNL A   1      38.963  32.699  33.314  1.00  0.00    -0.354 N 
ATOM     45  C   UNL A   1      39.376  29.852  30.094  1.00  0.00     0.074 A 
ATOM     46  C   UNL A   1      38.407  30.103  29.049  1.00  0.00     0.031 C 
ATOM     47  C   UNL A   1      38.036  34.410  34.417  1.00  0.00     0.029 A 
ATOM     48  C   UNL A   1      39.040  33.356  34.518  1.00  0.00     0.049 A 
ATOM     49  H   UNL A   1      39.555  31.952  33.068  1.00  0.00     0.167 HD
ATOM     50  C   UNL A   1      40.292  28.853  30.073  1.00  0.00     0.037 A 
ATOM     51  C   UNL A   1      39.816  33.124  35.594  1.00  0.00     0.037 A 
ATOM     52  C   UNL A   1      41.259  28.618  31.114  1.00  0.00     0.049 A 
ATOM     53  C   UNL A   1      40.806  31.995  35.555  1.00  0.00     0.074 A 
ATOM     54  C   UNL A   1      42.283  27.687  31.146  1.00  0.00     0.029 A 
ATOM     55  N   UNL A   1      41.312  29.307  32.318  1.00  0.00    -0.354 N 
ATOM     56  N   UNL A   1      41.046  31.139  34.591  1.00  0.00    -0.248 NA
ATOM     57  C   UNL A   1      41.635  31.797  36.752  1.00  0.00     0.031 C 
ATOM     58  C   UNL A   1      42.908  27.763  32.395  1.00  0.00     0.029 A 
ATOM     59  C   UNL A   1      42.318  28.788  33.118  1.00  0.00     0.049 A 
ATOM     60  H   UNL A   1      40.722  30.054  32.567  1.00  0.00     0.167 HD
ATOM     61  C   UNL A   1      42.058  30.312  35.057  1.00  0.00     0.074 A 
ATOM     62  C   UNL A   1      42.406  30.785  36.381  1.00  0.00     0.031 C 
ATOM     63  C   UNL A   1      42.643  29.254  34.443  1.00  0.00     0.037 A 
BRANCH  50  64
ATOM     64  C   UNL A   1      40.283  27.923  28.892  1.00  0.00     0.064 A 
ATOM     65  C   UNL A   1      41.009  28.201  27.723  1.00  0.00     0.173 A 
ATOM     66  C   UNL A   1      39.572  26.715  28.947  1.00  0.00     0.173 A 
ATOM     67  F   UNL A   1      41.703  29.344  27.614  1.00  0.00    -0.203 F 
ATOM     68  C   UNL A   1      40.995  27.321  26.644  1.00  0.00     0.198 A 
ATOM     69  C   UNL A   1      39.587  25.821  27.879  1.00  0.00     0.198 A 
ATOM     70  F   UNL A   1      38.868  26.393  30.043  1.00  0.00    -0.203 F 
ATOM     71  F   UNL A   1      41.653  27.632  25.518  1.00  0.00    -0.200 F 
ATOM     72  C   UNL A   1      40.291  26.129  26.725  1.00  0.00     0.200 A 
ATOM     73  F   UNL A   1      38.920  24.662  27.967  1.00  0.00    -0.200 F 
ATOM     74  F   UNL A   1      40.285  25.280  25.688  1.00  0.00    -0.200 F 
ENDBRANCH  50  64
BRANCH  51  75
ATOM     75  C   UNL A   1      39.670  33.978  36.802  1.00  0.00     0.064 A 
ATOM     76  C   UNL A   1      40.325  35.214  36.898  1.00  0.00     0.173 A 
ATOM     77  C   UNL A   1      38.858  33.585  37.877  1.00  0.00     0.173 A 
ATOM     78  F   UNL A   1      41.127  35.625  35.906  1.00  0.00    -0.203 F 
ATOM     79  C   UNL A   1      40.184  36.016  38.029  1.00  0.00     0.198 A 
ATOM     80  C   UNL A   1      38.694  34.402  38.993  1.00  0.00     0.198 A 
ATOM     81  F   UNL A   1      38.204  32.415  37.832  1.00  0.00    -0.203 F 
ATOM     82  F   UNL A   1      40.855  37.173  38.114  1.00  0.00    -0.200 F 
ATOM     83  C   UNL A   1      39.363  35.613  39.071  1.00  0.00     0.200 A 
ATOM     84  F   UNL A   1      37.883  34.017  39.988  1.00  0.00    -0.200 F 
ATOM     85  F   UNL A   1      39.219  36.392  40.153  1.00  0.00    -0.200 F 
ENDBRANCH  51  75
BRANCH  63  86
ATOM     86  C   UNL A   1      43.723  28.532  35.198  1.00  0.00     0.064 A 
ATOM     87  C   UNL A   1      45.068  28.924  35.109  1.00  0.00     0.173 A 
ATOM     88  C   UNL A   1      43.408  27.465  36.052  1.00  0.00     0.173 A 
ATOM     89  F   UNL A   1      45.426  29.928  34.293  1.00  0.00    -0.203 F 
ATOM     90  C   UNL A   1      46.058  28.260  35.829  1.00  0.00     0.198 A 
ATOM     91  C   UNL A   1      44.395  26.825  36.797  1.00  0.00     0.198 A 
ATOM     92  F   UNL A   1      42.138  27.052  36.179  1.00  0.00    -0.203 F 
ATOM     93  F   UNL A   1      47.341  28.620  35.689  1.00  0.00    -0.200 F 
ATOM     94  C   UNL A   1      45.720  27.217  36.678  1.00  0.00     0.200 A 
ATOM     95  F   UNL A   1      44.064  25.827  37.629  1.00  0.00    -0.200 F 
ATOM     96  F   UNL A   1      46.672  26.586  37.378  1.00  0.00    -0.200 F 
ENDBRANCH  63  86
ENDBRANCH  37  38
ENDBRANCH  29  32
ENDBRANCH  27  28
ENDBRANCH  26  27
ENDBRANCH   1  26
TORSDOF 14
ENDMDL
MODEL 2
REMARK VINA RESULT:     -12.0      6.273     11.313
REMARK SMILES COc1ccc(/C=C2/SC(=S)N(CC(=O)NCCCNC(=O)c3ccc(-c4c5nc(c(-c6c(F)c(F)c(F)c(F)c6F)c6ccc([nH]6)c(-c6c(F)c(F)c(F)c(F)c6F)c6nc(c(-c7c(F)c(F)c(F)c(F)c7F)c7ccc4[nH]7)C=C6)C=C5)cc3)C2=O)cc1[N+](=O)[O-]
REMARK SMILES IDX 17 1 16 2 14 3 15 4 13 6 12 7 7 8 8 9 9 10 86 11 10 12 87 13
REMARK SMILES IDX 11 14 6 15 3 16 4 17 89 18 5 19 88 20 2 21 1 22 90 23 91 24
REMARK SMILES IDX 92 25 18 26 19 27 20 28 21 29 22 31 23 32 24 33 85 34 25 35
REMARK SMILES IDX 84 36 26 37 27 38 28 39 78 40 29 41 83 42 77 43 79 44 30 45
REMARK SMILES IDX 82 46 76 47 75 48 31 50 63 51 43 52 62 53 44 54 47 55 61 56
REMARK SMILES IDX 80 57 45 58 46 59 60 61 81 62 48 63 32 64 33 65 41 66 34 67
REMARK SMILES IDX 35 68 39 69 42 70 36 71 37 72 40 73 38 74 64 75 65 76 73 77
REMARK SMILES IDX 66 78 67 79 71 80 74 81 68 82 69 83 72 84 70 85 49 86 50 87
REMARK SMILES IDX 58 88 51 89 52 90 56 91 59 92 53 93 54 94 57 95 55 96
REMARK H PARENT 16 5 20 30 79 49 47 60
REMARK Flexibility Score: inf
ROOT
ATOM      1  C   UNL A   1      43.106  35.095  32.066  1.00  0.00     0.117 C 
ENDROOT
BRANCH   1   2
ATOM      2  N   UNL A   1      42.214  35.575  33.099  1.00  0.00    -0.354 N 
ATOM      3  C   UNL A   1      41.042  35.046  33.554  1.00  0.00     0.240 C 
ATOM      4  O   UNL A   1      40.626  35.459  34.639  1.00  0.00    -0.273 OA
ATOM      5  H   UNL A   1      42.496  36.409  33.541  1.00  0.00     0.163 HD
BRANCH   3   6
ATOM      6  C   UNL A   1      40.340  33.894  32.821  1.00  0.00     0.227 C 
BRANCH   6   7
ATOM      7  N   UNL A   1      39.189  33.364  33.556  1.00  0.00    -0.283 N 
ATOM      8  C   UNL A   1      35.541  33.180  33.746  1.00  0.00     0.029 C 
ATOM      9  C   UNL A   1      36.869  33.115  33.941  1.00  0.00     0.081 C 
ATOM     10  S   UNL A   1      37.593  32.192  35.203  1.00  0.00    -0.054 SA
ATOM     11  C   UNL A   1      37.938  33.790  33.151  1.00  0.00     0.266 C 
ATOM     12  C   UNL A   1      39.230  32.632  34.720  1.00  0.00     0.148 C 
ATOM     13  O   UNL A   1      37.736  34.621  32.277  1.00  0.00    -0.268 OA
ATOM     14  S   UNL A   1      40.559  32.189  35.623  1.00  0.00    -0.052 S 
BRANCH   8  15
ATOM     15  C   UNL A   1      34.892  33.960  32.685  1.00  0.00    -0.017 A 
ATOM     16  C   UNL A   1      33.443  35.313  30.681  1.00  0.00     0.196 A 
ATOM     17  C   UNL A   1      34.098  34.110  30.397  1.00  0.00     0.054 A 
ATOM     18  C   UNL A   1      33.519  35.831  31.975  1.00  0.00     0.311 A 
ATOM     19  C   UNL A   1      34.818  33.437  31.390  1.00  0.00     0.012 A 
ATOM     20  C   UNL A   1      34.284  35.189  32.962  1.00  0.00     0.098 A 
BRANCH  16  21
ATOM     21  O   UNL A   1      32.698  35.841  29.664  1.00  0.00    -0.490 OA
ATOM     22  C   UNL A   1      33.432  36.783  28.884  1.00  0.00     0.278 C 
ENDBRANCH  16  21
BRANCH  18  23
ATOM     23  N   UNL A   1      32.761  37.006  32.384  1.00  0.00     0.066 N 
ATOM     24  O   UNL A   1      31.594  36.814  32.762  1.00  0.00    -0.258 OA
ATOM     25  O   UNL A   1      33.309  38.114  32.325  1.00  0.00    -0.258 OA
ENDBRANCH  18  23
ENDBRANCH   8  15
ENDBRANCH   6   7
ENDBRANCH   3   6
ENDBRANCH   1   2
BRANCH   1  26
ATOM     26  C   UNL A   1      43.473  36.179  31.060  1.00  0.00     0.042 C 
BRANCH  26  27
ATOM     27  C   UNL A   1      44.695  37.007  31.458  1.00  0.00     0.118 C 
BRANCH  27  28
ATOM     28  N   UNL A   1      45.378  37.588  30.309  1.00  0.00    -0.352 N 
ATOM     29  C   UNL A   1      45.900  37.003  29.182  1.00  0.00     0.251 C 
ATOM     30  H   UNL A   1      45.484  38.566  30.348  1.00  0.00     0.163 HD
ATOM     31  O   UNL A   1      46.608  37.666  28.430  1.00  0.00    -0.269 OA
BRANCH  29  32
ATOM     32  C   UNL A   1      45.643  35.579  28.876  1.00  0.00     0.039 A 
ATOM     33  C   UNL A   1      46.265  34.602  29.660  1.00  0.00     0.014 A 
ATOM     34  C   UNL A   1      44.819  35.199  27.814  1.00  0.00     0.014 A 
ATOM     35  C   UNL A   1      45.985  33.253  29.441  1.00  0.00     0.010 A 
ATOM     36  C   UNL A   1      44.485  33.858  27.642  1.00  0.00     0.010 A 
ATOM     37  C   UNL A   1      45.048  32.873  28.467  1.00  0.00    -0.014 A 
BRANCH  37  38
ATOM     38  C   UNL A   1      44.590  31.464  28.351  1.00  0.00     0.031 A 
ATOM     39  C   UNL A   1      45.373  30.460  27.558  1.00  0.00     0.074 A 
ATOM     40  C   UNL A   1      43.405  31.119  28.895  1.00  0.00     0.049 A 
ATOM     41  N   UNL A   1      45.076  29.215  27.277  1.00  0.00    -0.248 NA
ATOM     42  C   UNL A   1      46.646  30.919  26.983  1.00  0.00     0.031 C 
ATOM     43  C   UNL A   1      42.530  32.021  29.646  1.00  0.00     0.029 A 
ATOM     44  N   UNL A   1      42.723  29.928  28.882  1.00  0.00    -0.354 N 
ATOM     45  C   UNL A   1      46.116  28.748  26.485  1.00  0.00     0.074 A 
ATOM     46  C   UNL A   1      47.029  29.854  26.294  1.00  0.00     0.031 C 
ATOM     47  C   UNL A   1      41.434  31.349  30.030  1.00  0.00     0.029 A 
ATOM     48  C   UNL A   1      41.503  29.988  29.510  1.00  0.00     0.049 A 
ATOM     49  H   UNL A   1      43.075  29.109  28.462  1.00  0.00     0.167 HD
ATOM     50  C   UNL A   1      46.294  27.504  25.977  1.00  0.00     0.037 A 
ATOM     51  C   UNL A   1      40.536  29.059  29.635  1.00  0.00     0.037 A 
ATOM     52  C   UNL A   1      45.383  26.407  26.181  1.00  0.00     0.049 A 
ATOM     53  C   UNL A   1      40.747  27.695  29.041  1.00  0.00     0.074 A 
ATOM     54  C   UNL A   1      45.518  25.088  25.781  1.00  0.00     0.029 A 
ATOM     55  N   UNL A   1      44.158  26.502  26.827  1.00  0.00    -0.354 N 
ATOM     56  N   UNL A   1      41.776  27.236  28.370  1.00  0.00    -0.248 NA
ATOM     57  C   UNL A   1      39.665  26.718  29.220  1.00  0.00     0.031 C 
ATOM     58  C   UNL A   1      44.346  24.404  26.119  1.00  0.00     0.029 A 
ATOM     59  C   UNL A   1      43.506  25.279  26.792  1.00  0.00     0.049 A 
ATOM     60  H   UNL A   1      43.805  27.318  27.249  1.00  0.00     0.167 HD
ATOM     61  C   UNL A   1      41.473  25.919  28.058  1.00  0.00     0.074 A 
ATOM     62  C   UNL A   1      40.174  25.642  28.636  1.00  0.00     0.031 C 
ATOM     63  C   UNL A   1      42.204  25.020  27.354  1.00  0.00     0.037 A 
BRANCH  50  64
ATOM     64  C   UNL A   1      47.514  27.263  25.132  1.00  0.00     0.064 A 
ATOM     65  C   UNL A   1      48.658  26.631  25.643  1.00  0.00     0.173 A 
ATOM     66  C   UNL A   1      47.522  27.633  23.778  1.00  0.00     0.173 A 
ATOM     67  F   UNL A   1      48.707  26.262  26.932  1.00  0.00    -0.203 F 
ATOM     68  C   UNL A   1      49.774  26.409  24.841  1.00  0.00     0.198 A 
ATOM     69  C   UNL A   1      48.627  27.379  22.969  1.00  0.00     0.198 A 
ATOM     70  F   UNL A   1      46.452  28.231  23.234  1.00  0.00    -0.203 F 
ATOM     71  F   UNL A   1      50.875  25.851  25.365  1.00  0.00    -0.200 F 
ATOM     72  C   UNL A   1      49.756  26.776  23.504  1.00  0.00     0.200 A 
ATOM     73  F   UNL A   1      48.600  27.718  21.674  1.00  0.00    -0.200 F 
ATOM     74  F   UNL A   1      50.829  26.554  22.731  1.00  0.00    -0.200 F 
ENDBRANCH  50  64
BRANCH  51  75
ATOM     75  C   UNL A   1      39.276  29.402  30.345  1.00  0.00     0.064 A 
ATOM     76  C   UNL A   1      39.123  29.144  31.714  1.00  0.00     0.173 A 
ATOM     77  C   UNL A   1      38.205  30.013  29.673  1.00  0.00     0.173 A 
ATOM     78  F   UNL A   1      40.109  28.544  32.396  1.00  0.00    -0.203 F 
ATOM     79  C   UNL A   1      37.942  29.470  32.379  1.00  0.00     0.198 A 
ATOM     80  C   UNL A   1      37.039  30.366  30.346  1.00  0.00     0.198 A 
ATOM     81  F   UNL A   1      38.303  30.287  28.363  1.00  0.00    -0.203 F 
ATOM     82  F   UNL A   1      37.807  29.174  33.680  1.00  0.00    -0.200 F 
ATOM     83  C   UNL A   1      36.906  30.088  31.697  1.00  0.00     0.200 A 
ATOM     84  F   UNL A   1      36.048  30.981  29.686  1.00  0.00    -0.200 F 
ATOM     85  F   UNL A   1      35.776  30.412  32.342  1.00  0.00    -0.200 F 
ENDBRANCH  51  75
BRANCH  63  86
ATOM     86  C   UNL A   1      41.616  23.650  27.167  1.00  0.00     0.064 A 
ATOM     87  C   UNL A   1      40.486  23.440  26.361  1.00  0.00     0.173 A 
ATOM     88  C   UNL A   1      42.211  22.529  27.765  1.00  0.00     0.173 A 
ATOM     89  F   UNL A   1      39.869  24.481  25.781  1.00  0.00    -0.203 F 
ATOM     90  C   UNL A   1      39.962  22.163  26.180  1.00  0.00     0.198 A 
ATOM     91  C   UNL A   1      41.705  21.250  27.554  1.00  0.00     0.198 A 
ATOM     92  F   UNL A   1      43.296  22.672  28.541  1.00  0.00    -0.203 F 
ATOM     93  F   UNL A   1      38.853  21.994  25.447  1.00  0.00    -0.200 F 
ATOM     94  C   UNL A   1      40.577  21.068  26.769  1.00  0.00     0.200 A 
ATOM     95  F   UNL A   1      42.309  20.191  28.112  1.00  0.00    -0.200 F 
ATOM     96  F   UNL A   1      40.077  19.839  26.585  1.00  0.00    -0.200 F 
ENDBRANCH  63  86
ENDBRANCH  37  38
ENDBRANCH  29  32
ENDBRANCH  27  28
ENDBRANCH  26  27
ENDBRANCH   1  26
TORSDOF 14
ENDMDL
MODEL 3
REMARK VINA RESULT:     -11.6      0.471      2.015
REMARK SMILES COc1ccc(/C=C2/SC(=S)N(CC(=O)NCCCNC(=O)c3ccc(-c4c5nc(c(-c6c(F)c(F)c(F)c(F)c6F)c6ccc([nH]6)c(-c6c(F)c(F)c(F)c(F)c6F)c6nc(c(-c7c(F)c(F)c(F)c(F)c7F)c7ccc4[nH]7)C=C6)C=C5)cc3)C2=O)cc1[N+](=O)[O-]
REMARK SMILES IDX 17 1 16 2 14 3 15 4 13 6 12 7 7 8 8 9 9 10 86 11 10 12 87 13
REMARK SMILES IDX 11 14 6 15 3 16 4 17 89 18 5 19 88 20 2 21 1 22 90 23 91 24
REMARK SMILES IDX 92 25 18 26 19 27 20 28 21 29 22 31 23 32 24 33 85 34 25 35
REMARK SMILES IDX 84 36 26 37 27 38 28 39 78 40 29 41 83 42 77 43 79 44 30 45
REMARK SMILES IDX 82 46 76 47 75 48 31 50 63 51 43 52 62 53 44 54 47 55 61 56
REMARK SMILES IDX 80 57 45 58 46 59 60 61 81 62 48 63 32 64 33 65 41 66 34 67
REMARK SMILES IDX 35 68 39 69 42 70 36 71 37 72 40 73 38 74 64 75 65 76 73 77
REMARK SMILES IDX 66 78 67 79 71 80 74 81 68 82 69 83 72 84 70 85 49 86 50 87
REMARK SMILES IDX 58 88 51 89 52 90 56 91 59 92 53 93 54 94 57 95 55 96
REMARK H PARENT 16 5 20 30 79 49 47 60
REMARK Flexibility Score: inf
ROOT
ATOM      1  C   UNL A   1      33.882  30.292  27.384  1.00  0.00     0.117 C 
ENDROOT
BRANCH   1   2
ATOM      2  N   UNL A   1      34.408  29.793  26.132  1.00  0.00    -0.354 N 
ATOM      3  C   UNL A   1      33.880  28.882  25.266  1.00  0.00     0.240 C 
ATOM      4  O   UNL A   1      34.356  28.851  24.128  1.00  0.00    -0.273 OA
ATOM      5  H   UNL A   1      35.278  30.170  25.864  1.00  0.00     0.163 HD
BRANCH   3   6
ATOM      6  C   UNL A   1      32.662  28.026  25.640  1.00  0.00     0.227 C 
BRANCH   6   7
ATOM      7  N   UNL A   1      32.163  27.220  24.523  1.00  0.00    -0.283 N 
ATOM      8  C   UNL A   1      32.389  24.026  22.755  1.00  0.00     0.029 C 
ATOM      9  C   UNL A   1      32.135  25.277  23.175  1.00  0.00     0.081 C 
ATOM     10  S   UNL A   1      30.941  26.290  22.456  1.00  0.00    -0.054 SA
ATOM     11  C   UNL A   1      32.795  26.013  24.291  1.00  0.00     0.266 C 
ATOM     12  C   UNL A   1      31.253  27.618  23.572  1.00  0.00     0.148 C 
ATOM     13  O   UNL A   1      33.774  25.612  24.905  1.00  0.00    -0.268 OA
ATOM     14  S   UNL A   1      30.514  29.102  23.395  1.00  0.00    -0.052 S 
BRANCH   8  15
ATOM     15  C   UNL A   1      33.402  23.140  23.342  1.00  0.00    -0.017 A 
ATOM     16  C   UNL A   1      35.404  21.627  24.627  1.00  0.00     0.196 A 
ATOM     17  C   UNL A   1      35.737  22.542  23.623  1.00  0.00     0.054 A 
ATOM     18  C   UNL A   1      34.061  21.477  24.982  1.00  0.00     0.311 A 
ATOM     19  C   UNL A   1      34.745  23.294  22.984  1.00  0.00     0.012 A 
ATOM     20  C   UNL A   1      33.056  22.189  24.308  1.00  0.00     0.098 A 
BRANCH  16  21
ATOM     21  O   UNL A   1      36.455  21.010  25.245  1.00  0.00    -0.490 OA
ATOM     22  C   UNL A   1      37.638  21.806  25.231  1.00  0.00     0.278 C 
ENDBRANCH  16  21
BRANCH  18  23
ATOM     23  N   UNL A   1      33.646  20.643  26.103  1.00  0.00     0.066 N 
ATOM     24  O   UNL A   1      33.712  21.154  27.232  1.00  0.00    -0.258 OA
ATOM     25  O   UNL A   1      33.265  19.489  25.871  1.00  0.00    -0.258 OA
ENDBRANCH  18  23
ENDBRANCH   8  15
ENDBRANCH   6   7
ENDBRANCH   3   6
ENDBRANCH   1   2
BRANCH   1  26
ATOM     26  C   UNL A   1      33.783  31.812  27.412  1.00  0.00     0.042 C 
BRANCH  26  27
ATOM     27  C   UNL A   1      32.359  32.338  27.589  1.00  0.00     0.118 C 
BRANCH  27  28
ATOM     28  N   UNL A   1      32.298  33.794  27.629  1.00  0.00    -0.352 N 
ATOM     29  C   UNL A   1      33.021  34.705  28.359  1.00  0.00     0.251 C 
ATOM     30  H   UNL A   1      31.624  34.191  27.031  1.00  0.00     0.163 HD
ATOM     31  O   UNL A   1      32.667  35.880  28.377  1.00  0.00    -0.269 OA
BRANCH  29  32
ATOM     32  C   UNL A   1      34.202  34.285  29.143  1.00  0.00     0.039 A 
ATOM     33  C   UNL A   1      33.999  33.616  30.354  1.00  0.00     0.014 A 
ATOM     34  C   UNL A   1      35.500  34.565  28.711  1.00  0.00     0.014 A 
ATOM     35  C   UNL A   1      35.094  33.144  31.080  1.00  0.00     0.010 A 
ATOM     36  C   UNL A   1      36.589  34.033  29.399  1.00  0.00     0.010 A 
ATOM     37  C   UNL A   1      36.396  33.299  30.578  1.00  0.00    -0.014 A 
BRANCH  37  38
ATOM     38  C   UNL A   1      37.553  32.636  31.232  1.00  0.00     0.031 A 
ATOM     39  C   UNL A   1      38.232  31.460  30.593  1.00  0.00     0.074 A 
ATOM     40  C   UNL A   1      37.931  33.048  32.458  1.00  0.00     0.049 A 
ATOM     41  N   UNL A   1      39.195  30.706  31.062  1.00  0.00    -0.248 NA
ATOM     42  C   UNL A   1      37.751  31.061  29.262  1.00  0.00     0.031 C 
ATOM     43  C   UNL A   1      37.315  34.148  33.203  1.00  0.00     0.029 A 
ATOM     44  N   UNL A   1      38.906  32.580  33.304  1.00  0.00    -0.354 N 
ATOM     45  C   UNL A   1      39.426  29.740  30.093  1.00  0.00     0.074 A 
ATOM     46  C   UNL A   1      38.474  29.976  29.028  1.00  0.00     0.031 C 
ATOM     47  C   UNL A   1      37.932  34.276  34.387  1.00  0.00     0.029 A 
ATOM     48  C   UNL A   1      38.950  33.238  34.509  1.00  0.00     0.049 A 
ATOM     49  H   UNL A   1      39.515  31.842  33.069  1.00  0.00     0.167 HD
ATOM     50  C   UNL A   1      40.357  28.755  30.090  1.00  0.00     0.037 A 
ATOM     51  C   UNL A   1      39.707  33.017  35.600  1.00  0.00     0.037 A 
ATOM     52  C   UNL A   1      41.307  28.534  31.150  1.00  0.00     0.049 A 
ATOM     53  C   UNL A   1      40.715  31.903  35.581  1.00  0.00     0.074 A 
ATOM     54  C   UNL A   1      42.344  27.619  31.202  1.00  0.00     0.029 A 
ATOM     55  N   UNL A   1      41.326  29.223  32.355  1.00  0.00    -0.354 N 
ATOM     56  N   UNL A   1      40.987  31.051  34.622  1.00  0.00    -0.248 NA
ATOM     57  C   UNL A   1      41.523  31.718  36.794  1.00  0.00     0.031 C 
ATOM     58  C   UNL A   1      42.943  27.704  32.463  1.00  0.00     0.029 A 
ATOM     59  C   UNL A   1      42.324  28.719  33.175  1.00  0.00     0.049 A 
ATOM     60  H   UNL A   1      40.719  29.962  32.592  1.00  0.00     0.167 HD
ATOM     61  C   UNL A   1      42.002  30.239  35.108  1.00  0.00     0.074 A 
ATOM     62  C   UNL A   1      42.317  30.717  36.438  1.00  0.00     0.031 C 
ATOM     63  C   UNL A   1      42.615  29.190  34.506  1.00  0.00     0.037 A 
BRANCH  50  64
ATOM     64  C   UNL A   1      40.386  27.825  28.909  1.00  0.00     0.064 A 
ATOM     65  C   UNL A   1      39.634  26.640  28.880  1.00  0.00     0.173 A 
ATOM     66  C   UNL A   1      41.143  28.146  27.773  1.00  0.00     0.173 A 
ATOM     67  F   UNL A   1      38.896  26.281  29.941  1.00  0.00    -0.203 F 
ATOM     68  C   UNL A   1      39.667  25.796  27.772  1.00  0.00     0.198 A 
ATOM     69  C   UNL A   1      41.148  27.318  26.653  1.00  0.00     0.198 A 
ATOM     70  F   UNL A   1      41.873  29.272  27.741  1.00  0.00    -0.203 F 
ATOM     71  F   UNL A   1      38.983  24.644  27.788  1.00  0.00    -0.200 F 
ATOM     72  C   UNL A   1      40.417  26.139  26.658  1.00  0.00     0.200 A 
ATOM     73  F   UNL A   1      41.859  27.660  25.570  1.00  0.00    -0.200 F 
ATOM     74  F   UNL A   1      40.442  25.330  25.589  1.00  0.00    -0.200 F 
ENDBRANCH  50  64
BRANCH  51  75
ATOM     75  C   UNL A   1      39.525  33.869  36.805  1.00  0.00     0.064 A 
ATOM     76  C   UNL A   1      38.721  33.449  37.873  1.00  0.00     0.173 A 
ATOM     77  C   UNL A   1      40.165  35.112  36.920  1.00  0.00     0.173 A 
ATOM     78  F   UNL A   1      38.072  32.277  37.803  1.00  0.00    -0.203 F 
ATOM     79  C   UNL A   1      38.553  34.246  39.004  1.00  0.00     0.198 A 
ATOM     80  C   UNL A   1      40.022  35.894  38.064  1.00  0.00     0.198 A 
ATOM     81  F   UNL A   1      40.950  35.558  35.928  1.00  0.00    -0.203 F 
ATOM     82  F   UNL A   1      37.746  33.840  39.994  1.00  0.00    -0.200 F 
ATOM     83  C   UNL A   1      39.210  35.464  39.102  1.00  0.00     0.200 A 
ATOM     84  F   UNL A   1      40.675  37.060  38.161  1.00  0.00    -0.200 F 
ATOM     85  F   UNL A   1      39.058  36.224  40.195  1.00  0.00    -0.200 F 
ENDBRANCH  51  75
BRANCH  63  86
ATOM     86  C   UNL A   1      43.691  28.485  35.282  1.00  0.00     0.064 A 
ATOM     87  C   UNL A   1      43.388  27.455  36.187  1.00  0.00     0.173 A 
ATOM     88  C   UNL A   1      45.041  28.811  35.091  1.00  0.00     0.173 A 
ATOM     89  F   UNL A   1      42.110  27.117  36.420  1.00  0.00    -0.203 F 
ATOM     90  C   UNL A   1      44.395  26.796  36.886  1.00  0.00     0.198 A 
ATOM     91  C   UNL A   1      46.048  28.126  35.766  1.00  0.00     0.198 A 
ATOM     92  F   UNL A   1      45.388  29.783  34.234  1.00  0.00    -0.203 F 
ATOM     93  F   UNL A   1      44.077  25.851  37.782  1.00  0.00    -0.200 F 
ATOM     94  C   UNL A   1      45.724  27.126  36.669  1.00  0.00     0.200 A 
ATOM     95  F   UNL A   1      47.333  28.436  35.542  1.00  0.00    -0.200 F 
ATOM     96  F   UNL A   1      46.693  26.482  37.335  1.00  0.00    -0.200 F 
ENDBRANCH  63  86
ENDBRANCH  37  38
ENDBRANCH  29  32
ENDBRANCH  27  28
ENDBRANCH  26  27
ENDBRANCH   1  26
TORSDOF 14
ENDMDL
