MODEL 1
REMARK VINA RESULT:     -11.4      0.000      0.000
REMARK SMILES CN(C(=O)[C@H]1CCCC[C@H]1C(=O)NCCCNC(=O)c1ccc(-c2c3nc(c(-c4c(F)c(F)c(F)c(F)c4F)c4ccc([nH]4)c(-c4c(F)c(F)c(F)c(F)c4F)c4nc(c(-c5c(F)c(F)c(F)c(F)c5F)c5ccc2[nH]5)C=C4)C=C3)cc1)C1CC1
REMARK SMILES IDX 14 1 13 2 11 3 12 4 10 6 5 7 6 8 7 9 9 10 8 11 3 12 4 13
REMARK SMILES IDX 2 14 1 15 83 16 84 17 85 18 15 19 16 20 17 21 18 22 19 24
REMARK SMILES IDX 20 25 21 26 82 27 22 28 81 29 23 30 24 31 25 32 75 33 26 34
REMARK SMILES IDX 80 35 74 36 76 37 27 38 79 39 73 40 72 41 28 43 60 44 40 45
REMARK SMILES IDX 59 46 41 47 44 48 58 49 77 50 42 51 43 52 57 54 78 55 45 56
REMARK SMILES IDX 29 57 30 58 38 59 31 60 32 61 36 62 39 63 33 64 34 65 37 66
REMARK SMILES IDX 35 67 61 68 62 69 70 70 63 71 64 72 68 73 71 74 65 75 66 76
REMARK SMILES IDX 69 77 67 78 46 79 47 80 55 81 48 82 49 83 53 84 56 85 50 86
REMARK SMILES IDX 51 87 54 88 52 89
REMARK H PARENT 13 5 17 23 76 42 44 53
REMARK Flexibility Score: inf
ROOT
ATOM      1  C   UNL A   1      33.711  28.396  22.555  1.00  0.00     0.117 C 
ENDROOT
BRANCH   1   2
ATOM      2  N   UNL A   1      33.107  27.249  21.897  1.00  0.00    -0.356 N 
ATOM      3  C   UNL A   1      33.275  25.916  22.071  1.00  0.00     0.223 C 
ATOM      4  O   UNL A   1      32.929  25.201  21.120  1.00  0.00    -0.275 OA
ATOM      5  H   UNL A   1      32.455  27.485  21.197  1.00  0.00     0.163 HD
BRANCH   3   6
ATOM      6  C   UNL A   1      33.855  25.253  23.320  1.00  0.00     0.091 C 
ATOM      7  C   UNL A   1      32.976  25.355  24.582  1.00  0.00     0.091 C 
ATOM      8  C   UNL A   1      33.762  24.886  25.830  1.00  0.00     0.014 C 
ATOM      9  C   UNL A   1      34.532  23.576  25.639  1.00  0.00     0.001 C 
ATOM     10  C   UNL A   1      34.584  23.920  23.142  1.00  0.00     0.014 C 
ATOM     11  C   UNL A   1      35.405  23.590  24.388  1.00  0.00     0.001 C 
BRANCH   7  12
ATOM     12  C   UNL A   1      31.656  24.571  24.507  1.00  0.00     0.226 C 
ATOM     13  O   UNL A   1      31.717  23.370  24.228  1.00  0.00    -0.275 OA
BRANCH  12  14
ATOM     14  N   UNL A   1      30.441  25.215  24.783  1.00  0.00    -0.343 N 
ATOM     15  C   UNL A   1      29.944  25.535  26.128  1.00  0.00     0.147 C 
BRANCH  14  16
ATOM     16  C   UNL A   1      29.596  25.793  23.732  1.00  0.00     0.084 C 
ATOM     17  C   UNL A   1      28.440  26.746  23.876  1.00  0.00     0.027 C 
ATOM     18  C   UNL A   1      29.749  27.239  23.338  1.00  0.00     0.027 C 
ENDBRANCH  14  16
ENDBRANCH  12  14
ENDBRANCH   7  12
ENDBRANCH   3   6
ENDBRANCH   1   2
BRANCH   1  19
ATOM     19  C   UNL A   1      32.759  28.970  23.595  1.00  0.00     0.042 C 
BRANCH  19  20
ATOM     20  C   UNL A   1      33.341  29.178  24.980  1.00  0.00     0.118 C 
BRANCH  20  21
ATOM     21  N   UNL A   1      32.840  30.390  25.605  1.00  0.00    -0.352 N 
ATOM     22  C   UNL A   1      33.225  31.078  26.726  1.00  0.00     0.251 C 
ATOM     23  H   UNL A   1      32.077  30.794  25.133  1.00  0.00     0.163 HD
ATOM     24  O   UNL A   1      32.465  31.958  27.146  1.00  0.00    -0.269 OA
BRANCH  22  25
ATOM     25  C   UNL A   1      34.494  30.827  27.463  1.00  0.00     0.039 A 
ATOM     26  C   UNL A   1      34.697  29.547  28.000  1.00  0.00     0.014 A 
ATOM     27  C   UNL A   1      35.437  31.818  27.742  1.00  0.00     0.014 A 
ATOM     28  C   UNL A   1      35.828  29.262  28.775  1.00  0.00     0.010 A 
ATOM     29  C   UNL A   1      36.615  31.511  28.435  1.00  0.00     0.010 A 
ATOM     30  C   UNL A   1      36.814  30.236  28.983  1.00  0.00    -0.014 A 
BRANCH  30  31
ATOM     31  C   UNL A   1      38.028  29.951  29.801  1.00  0.00     0.031 A 
ATOM     32  C   UNL A   1      39.108  29.038  29.277  1.00  0.00     0.074 A 
ATOM     33  C   UNL A   1      38.150  30.479  31.035  1.00  0.00     0.049 A 
ATOM     34  N   UNL A   1      40.195  28.610  29.871  1.00  0.00    -0.248 NA
ATOM     35  C   UNL A   1      38.929  28.517  27.912  1.00  0.00     0.031 C 
ATOM     36  C   UNL A   1      37.172  31.356  31.682  1.00  0.00     0.029 A 
ATOM     37  N   UNL A   1      39.147  30.347  31.974  1.00  0.00    -0.354 N 
ATOM     38  C   UNL A   1      40.814  27.757  28.963  1.00  0.00     0.074 A 
ATOM     39  C   UNL A   1      39.957  27.689  27.799  1.00  0.00     0.031 C 
ATOM     40  C   UNL A   1      37.625  31.698  32.898  1.00  0.00     0.029 A 
ATOM     41  C   UNL A   1      38.902  31.034  33.138  1.00  0.00     0.049 A 
ATOM     42  H   UNL A   1      39.959  29.810  31.824  1.00  0.00     0.167 HD
ATOM     43  C   UNL A   1      41.998  27.108  29.077  1.00  0.00     0.037 A 
ATOM     44  C   UNL A   1      39.619  31.112  34.276  1.00  0.00     0.037 A 
ATOM     45  C   UNL A   1      42.872  27.201  30.218  1.00  0.00     0.049 A 
ATOM     46  C   UNL A   1      40.928  30.374  34.382  1.00  0.00     0.074 A 
ATOM     47  C   UNL A   1      44.118  26.624  30.400  1.00  0.00     0.029 A 
ATOM     48  N   UNL A   1      42.594  27.917  31.372  1.00  0.00    -0.354 N 
ATOM     49  N   UNL A   1      41.523  29.613  33.496  1.00  0.00    -0.248 NA
ATOM     50  C   UNL A   1      41.665  30.510  35.646  1.00  0.00     0.031 C 
ATOM     51  C   UNL A   1      44.572  26.955  31.681  1.00  0.00     0.029 A 
ATOM     52  C   UNL A   1      43.633  27.779  32.278  1.00  0.00     0.049 A 
ATOM     53  H   UNL A   1      41.777  28.446  31.525  1.00  0.00     0.167 HD
ATOM     54  C   UNL A   1      42.713  29.204  34.083  1.00  0.00     0.074 A 
ATOM     55  C   UNL A   1      42.764  29.813  35.396  1.00  0.00     0.031 C 
ATOM     56  C   UNL A   1      43.677  28.396  33.578  1.00  0.00     0.037 A 
BRANCH  43  57
ATOM     57  C   UNL A   1      42.427  26.234  27.932  1.00  0.00     0.064 A 
ATOM     58  C   UNL A   1      43.338  26.682  26.964  1.00  0.00     0.173 A 
ATOM     59  C   UNL A   1      41.955  24.916  27.826  1.00  0.00     0.173 A 
ATOM     60  F   UNL A   1      43.814  27.936  27.013  1.00  0.00    -0.203 F 
ATOM     61  C   UNL A   1      43.736  25.855  25.916  1.00  0.00     0.198 A 
ATOM     62  C   UNL A   1      42.380  24.082  26.795  1.00  0.00     0.198 A 
ATOM     63  F   UNL A   1      41.089  24.433  28.731  1.00  0.00    -0.203 F 
ATOM     64  F   UNL A   1      44.569  26.322  24.976  1.00  0.00    -0.200 F 
ATOM     65  C   UNL A   1      43.263  24.554  25.837  1.00  0.00     0.200 A 
ATOM     66  F   UNL A   1      41.932  22.820  26.729  1.00  0.00    -0.200 F 
ATOM     67  F   UNL A   1      43.654  23.757  24.833  1.00  0.00    -0.200 F 
ENDBRANCH  43  57
BRANCH  44  68
ATOM     68  C   UNL A   1      39.119  31.932  35.410  1.00  0.00     0.064 A 
ATOM     69  C   UNL A   1      39.442  33.294  35.511  1.00  0.00     0.173 A 
ATOM     70  C   UNL A   1      38.319  31.374  36.417  1.00  0.00     0.173 A 
ATOM     71  F   UNL A   1      40.225  33.866  34.585  1.00  0.00    -0.203 F 
ATOM     72  C   UNL A   1      38.997  34.060  36.587  1.00  0.00     0.198 A 
ATOM     73  C   UNL A   1      37.850  32.150  37.476  1.00  0.00     0.198 A 
ATOM     74  F   UNL A   1      37.980  30.078  36.365  1.00  0.00    -0.203 F 
ATOM     75  F   UNL A   1      39.358  35.347  36.684  1.00  0.00    -0.200 F 
ATOM     76  C   UNL A   1      38.196  33.489  37.564  1.00  0.00     0.200 A 
ATOM     77  F   UNL A   1      37.066  31.597  38.412  1.00  0.00    -0.200 F 
ATOM     78  F   UNL A   1      37.766  34.227  38.596  1.00  0.00    -0.200 F 
ENDBRANCH  44  68
BRANCH  56  79
ATOM     79  C   UNL A   1      44.889  28.148  34.431  1.00  0.00     0.064 A 
ATOM     80  C   UNL A   1      44.959  27.060  35.313  1.00  0.00     0.173 A 
ATOM     81  C   UNL A   1      46.009  28.988  34.333  1.00  0.00     0.173 A 
ATOM     82  F   UNL A   1      43.910  26.237  35.453  1.00  0.00    -0.203 F 
ATOM     83  C   UNL A   1      46.097  26.836  36.083  1.00  0.00     0.198 A 
ATOM     84  C   UNL A   1      47.156  28.744  35.083  1.00  0.00     0.198 A 
ATOM     85  F   UNL A   1      45.996  30.039  33.500  1.00  0.00    -0.203 F 
ATOM     86  F   UNL A   1      46.125  25.816  36.953  1.00  0.00    -0.200 F 
ATOM     87  C   UNL A   1      47.197  27.672  35.962  1.00  0.00     0.200 A 
ATOM     88  F   UNL A   1      48.223  29.545  34.955  1.00  0.00    -0.200 F 
ATOM     89  F   UNL A   1      48.294  27.449  36.699  1.00  0.00    -0.200 F 
ENDBRANCH  56  79
ENDBRANCH  30  31
ENDBRANCH  22  25
ENDBRANCH  20  21
ENDBRANCH  19  20
ENDBRANCH   1  19
TORSDOF 13
ENDMDL
MODEL 2
REMARK VINA RESULT:     -11.4      2.015      3.527
REMARK SMILES CN(C(=O)[C@H]1CCCC[C@H]1C(=O)NCCCNC(=O)c1ccc(-c2c3nc(c(-c4c(F)c(F)c(F)c(F)c4F)c4ccc([nH]4)c(-c4c(F)c(F)c(F)c(F)c4F)c4nc(c(-c5c(F)c(F)c(F)c(F)c5F)c5ccc2[nH]5)C=C4)C=C3)cc1)C1CC1
REMARK SMILES IDX 14 1 13 2 11 3 12 4 10 6 5 7 6 8 7 9 9 10 8 11 3 12 4 13
REMARK SMILES IDX 2 14 1 15 83 16 84 17 85 18 15 19 16 20 17 21 18 22 19 24
REMARK SMILES IDX 20 25 21 26 82 27 22 28 81 29 23 30 24 31 25 32 75 33 26 34
REMARK SMILES IDX 80 35 74 36 76 37 27 38 79 39 73 40 72 41 28 43 60 44 40 45
REMARK SMILES IDX 59 46 41 47 44 48 58 49 77 50 42 51 43 52 57 54 78 55 45 56
REMARK SMILES IDX 29 57 30 58 38 59 31 60 32 61 36 62 39 63 33 64 34 65 37 66
REMARK SMILES IDX 35 67 61 68 62 69 70 70 63 71 64 72 68 73 71 74 65 75 66 76
REMARK SMILES IDX 69 77 67 78 46 79 47 80 55 81 48 82 49 83 53 84 56 85 50 86
REMARK SMILES IDX 51 87 54 88 52 89
REMARK H PARENT 13 5 17 23 76 42 44 53
REMARK Flexibility Score: inf
ROOT
ATOM      1  C   UNL A   1      31.582  30.184  26.441  1.00  0.00     0.117 C 
ENDROOT
BRANCH   1   2
ATOM      2  N   UNL A   1      32.269  30.087  25.164  1.00  0.00    -0.356 N 
ATOM      3  C   UNL A   1      32.551  29.027  24.367  1.00  0.00     0.223 C 
ATOM      4  O   UNL A   1      33.471  29.194  23.555  1.00  0.00    -0.275 OA
ATOM      5  H   UNL A   1      32.587  30.951  24.812  1.00  0.00     0.163 HD
BRANCH   3   6
ATOM      6  C   UNL A   1      31.840  27.675  24.410  1.00  0.00     0.091 C 
ATOM      7  C   UNL A   1      30.304  27.741  24.299  1.00  0.00     0.091 C 
ATOM      8  C   UNL A   1      29.677  26.361  24.610  1.00  0.00     0.014 C 
ATOM      9  C   UNL A   1      30.362  25.183  23.911  1.00  0.00     0.001 C 
ATOM     10  C   UNL A   1      32.494  26.506  23.673  1.00  0.00     0.014 C 
ATOM     11  C   UNL A   1      31.874  25.181  24.114  1.00  0.00     0.001 C 
BRANCH   7  12
ATOM     12  C   UNL A   1      29.781  28.225  22.938  1.00  0.00     0.226 C 
ATOM     13  O   UNL A   1      30.371  27.836  21.925  1.00  0.00    -0.275 OA
BRANCH  12  14
ATOM     14  N   UNL A   1      28.651  29.053  22.874  1.00  0.00    -0.343 N 
ATOM     15  C   UNL A   1      27.271  28.616  23.125  1.00  0.00     0.147 C 
BRANCH  14  16
ATOM     16  C   UNL A   1      28.744  30.508  22.704  1.00  0.00     0.084 C 
ATOM     17  C   UNL A   1      27.777  31.569  23.153  1.00  0.00     0.027 C 
ATOM     18  C   UNL A   1      29.077  31.394  23.876  1.00  0.00     0.027 C 
ENDBRANCH  14  16
ENDBRANCH  12  14
ENDBRANCH   7  12
ENDBRANCH   3   6
ENDBRANCH   1   2
BRANCH   1  19
ATOM     19  C   UNL A   1      31.430  31.642  26.849  1.00  0.00     0.042 C 
BRANCH  19  20
ATOM     20  C   UNL A   1      32.656  32.514  26.654  1.00  0.00     0.118 C 
BRANCH  20  21
ATOM     21  N   UNL A   1      32.492  33.828  27.251  1.00  0.00    -0.352 N 
ATOM     22  C   UNL A   1      33.028  34.406  28.371  1.00  0.00     0.251 C 
ATOM     23  H   UNL A   1      31.875  34.415  26.757  1.00  0.00     0.163 HD
ATOM     24  O   UNL A   1      32.528  35.467  28.762  1.00  0.00    -0.269 OA
BRANCH  22  25
ATOM     25  C   UNL A   1      34.168  33.835  29.140  1.00  0.00     0.039 A 
ATOM     26  C   UNL A   1      35.463  34.256  28.801  1.00  0.00     0.014 A 
ATOM     27  C   UNL A   1      34.030  32.827  30.096  1.00  0.00     0.014 A 
ATOM     28  C   UNL A   1      36.588  33.701  29.423  1.00  0.00     0.010 A 
ATOM     29  C   UNL A   1      35.146  32.340  30.788  1.00  0.00     0.010 A 
ATOM     30  C   UNL A   1      36.441  32.750  30.443  1.00  0.00    -0.014 A 
BRANCH  30  31
ATOM     31  C   UNL A   1      37.626  32.150  31.122  1.00  0.00     0.031 A 
ATOM     32  C   UNL A   1      38.420  31.058  30.452  1.00  0.00     0.074 A 
ATOM     33  C   UNL A   1      37.972  32.555  32.360  1.00  0.00     0.049 A 
ATOM     34  N   UNL A   1      39.431  30.361  30.913  1.00  0.00    -0.248 NA
ATOM     35  C   UNL A   1      38.009  30.680  29.090  1.00  0.00     0.031 C 
ATOM     36  C   UNL A   1      37.280  33.582  33.139  1.00  0.00     0.029 A 
ATOM     37  N   UNL A   1      38.992  32.145  33.186  1.00  0.00    -0.354 N 
ATOM     38  C   UNL A   1      39.757  29.454  29.911  1.00  0.00     0.074 A 
ATOM     39  C   UNL A   1      38.809  29.654  28.837  1.00  0.00     0.031 C 
ATOM     40  C   UNL A   1      37.904  33.735  34.318  1.00  0.00     0.029 A 
ATOM     41  C   UNL A   1      39.013  32.790  34.398  1.00  0.00     0.049 A 
ATOM     42  H   UNL A   1      39.645  31.452  32.932  1.00  0.00     0.167 HD
ATOM     43  C   UNL A   1      40.769  28.553  29.876  1.00  0.00     0.037 A 
ATOM     44  C   UNL A   1      39.827  32.632  35.461  1.00  0.00     0.037 A 
ATOM     45  C   UNL A   1      41.738  28.374  30.926  1.00  0.00     0.049 A 
ATOM     46  C   UNL A   1      40.938  31.618  35.402  1.00  0.00     0.074 A 
ATOM     47  C   UNL A   1      42.832  27.526  30.956  1.00  0.00     0.029 A 
ATOM     48  N   UNL A   1      41.732  29.057  32.133  1.00  0.00    -0.354 N 
ATOM     49  N   UNL A   1      41.265  30.804  34.428  1.00  0.00    -0.248 NA
ATOM     50  C   UNL A   1      41.796  31.504  36.590  1.00  0.00     0.031 C 
ATOM     51  C   UNL A   1      43.460  27.663  32.198  1.00  0.00     0.029 A 
ATOM     52  C   UNL A   1      42.789  28.633  32.923  1.00  0.00     0.049 A 
ATOM     53  H   UNL A   1      41.073  29.742  32.391  1.00  0.00     0.167 HD
ATOM     54  C   UNL A   1      42.379  30.104  34.873  1.00  0.00     0.074 A 
ATOM     55  C   UNL A   1      42.681  30.599  36.200  1.00  0.00     0.031 C 
ATOM     56  C   UNL A   1      43.086  29.138  34.239  1.00  0.00     0.037 A 
BRANCH  43  57
ATOM     57  C   UNL A   1      40.886  27.683  28.656  1.00  0.00     0.064 A 
ATOM     58  C   UNL A   1      40.136  26.506  28.516  1.00  0.00     0.173 A 
ATOM     59  C   UNL A   1      41.726  28.054  27.594  1.00  0.00     0.173 A 
ATOM     60  F   UNL A   1      39.324  26.101  29.505  1.00  0.00    -0.203 F 
ATOM     61  C   UNL A   1      40.244  25.717  27.373  1.00  0.00     0.198 A 
ATOM     62  C   UNL A   1      41.808  27.279  26.440  1.00  0.00     0.198 A 
ATOM     63  F   UNL A   1      42.459  29.175  27.672  1.00  0.00    -0.203 F 
ATOM     64  F   UNL A   1      39.554  24.572  27.284  1.00  0.00    -0.200 F 
ATOM     65  C   UNL A   1      41.074  26.109  26.333  1.00  0.00     0.200 A 
ATOM     66  F   UNL A   1      42.600  27.667  25.430  1.00  0.00    -0.200 F 
ATOM     67  F   UNL A   1      41.171  25.352  25.231  1.00  0.00    -0.200 F 
ENDBRANCH  43  57
BRANCH  44  68
ATOM     68  C   UNL A   1      39.628  33.467  36.675  1.00  0.00     0.064 A 
ATOM     69  C   UNL A   1      38.755  33.059  37.695  1.00  0.00     0.173 A 
ATOM     70  C   UNL A   1      40.298  34.688  36.838  1.00  0.00     0.173 A 
ATOM     71  F   UNL A   1      38.074  31.911  37.573  1.00  0.00    -0.203 F 
ATOM     72  C   UNL A   1      38.547  33.852  38.821  1.00  0.00     0.198 A 
ATOM     73  C   UNL A   1      40.110  35.464  37.980  1.00  0.00     0.198 A 
ATOM     74  F   UNL A   1      41.145  35.121  35.893  1.00  0.00    -0.203 F 
ATOM     75  F   UNL A   1      37.672  33.461  39.759  1.00  0.00    -0.200 F 
ATOM     76  C   UNL A   1      39.229  35.050  38.966  1.00  0.00     0.200 A 
ATOM     77  F   UNL A   1      40.781  36.616  38.121  1.00  0.00    -0.200 F 
ATOM     78  F   UNL A   1      39.031  35.809  40.052  1.00  0.00    -0.200 F 
ENDBRANCH  44  68
BRANCH  56  79
ATOM     79  C   UNL A   1      44.280  28.572  34.953  1.00  0.00     0.064 A 
ATOM     80  C   UNL A   1      45.549  29.163  34.850  1.00  0.00     0.173 A 
ATOM     81  C   UNL A   1      44.144  27.448  35.782  1.00  0.00     0.173 A 
ATOM     82  F   UNL A   1      45.734  30.230  34.059  1.00  0.00    -0.203 F 
ATOM     83  C   UNL A   1      46.641  28.635  35.533  1.00  0.00     0.198 A 
ATOM     84  C   UNL A   1      45.233  26.941  36.486  1.00  0.00     0.198 A 
ATOM     85  F   UNL A   1      42.952  26.850  35.920  1.00  0.00    -0.203 F 
ATOM     86  F   UNL A   1      47.853  29.188  35.384  1.00  0.00    -0.200 F 
ATOM     87  C   UNL A   1      46.481  27.530  36.356  1.00  0.00     0.200 A 
ATOM     88  F   UNL A   1      45.074  25.881  37.291  1.00  0.00    -0.200 F 
ATOM     89  F   UNL A   1      47.533  27.029  37.018  1.00  0.00    -0.200 F 
ENDBRANCH  56  79
ENDBRANCH  30  31
ENDBRANCH  22  25
ENDBRANCH  20  21
ENDBRANCH  19  20
ENDBRANCH   1  19
TORSDOF 13
ENDMDL
MODEL 3
REMARK VINA RESULT:     -11.3      0.349      2.105
REMARK SMILES CN(C(=O)[C@H]1CCCC[C@H]1C(=O)NCCCNC(=O)c1ccc(-c2c3nc(c(-c4c(F)c(F)c(F)c(F)c4F)c4ccc([nH]4)c(-c4c(F)c(F)c(F)c(F)c4F)c4nc(c(-c5c(F)c(F)c(F)c(F)c5F)c5ccc2[nH]5)C=C4)C=C3)cc1)C1CC1
REMARK SMILES IDX 14 1 13 2 11 3 12 4 10 6 5 7 6 8 7 9 9 10 8 11 3 12 4 13
REMARK SMILES IDX 2 14 1 15 83 16 84 17 85 18 15 19 16 20 17 21 18 22 19 24
REMARK SMILES IDX 20 25 21 26 82 27 22 28 81 29 23 30 24 31 25 32 75 33 26 34
REMARK SMILES IDX 80 35 74 36 76 37 27 38 79 39 73 40 72 41 28 43 60 44 40 45
REMARK SMILES IDX 59 46 41 47 44 48 58 49 77 50 42 51 43 52 57 54 78 55 45 56
REMARK SMILES IDX 29 57 30 58 38 59 31 60 32 61 36 62 39 63 33 64 34 65 37 66
REMARK SMILES IDX 35 67 61 68 62 69 70 70 63 71 64 72 68 73 71 74 65 75 66 76
REMARK SMILES IDX 69 77 67 78 46 79 47 80 55 81 48 82 49 83 53 84 56 85 50 86
REMARK SMILES IDX 51 87 54 88 52 89
REMARK H PARENT 13 5 17 23 76 42 44 53
REMARK Flexibility Score: inf
ROOT
ATOM      1  C   UNL A   1      34.013  28.188  22.668  1.00  0.00     0.117 C 
ENDROOT
BRANCH   1   2
ATOM      2  N   UNL A   1      33.354  27.207  21.822  1.00  0.00    -0.356 N 
ATOM      3  C   UNL A   1      33.406  25.853  21.800  1.00  0.00     0.223 C 
ATOM      4  O   UNL A   1      33.054  25.318  20.740  1.00  0.00    -0.275 OA
ATOM      5  H   UNL A   1      32.760  27.598  21.140  1.00  0.00     0.163 HD
BRANCH   3   6
ATOM      6  C   UNL A   1      33.867  24.967  22.957  1.00  0.00     0.091 C 
ATOM      7  C   UNL A   1      33.053  25.114  24.257  1.00  0.00     0.091 C 
ATOM      8  C   UNL A   1      33.753  24.377  25.423  1.00  0.00     0.014 C 
ATOM      9  C   UNL A   1      34.240  22.966  25.079  1.00  0.00     0.001 C 
ATOM     10  C   UNL A   1      34.308  23.541  22.626  1.00  0.00     0.014 C 
ATOM     11  C   UNL A   1      35.072  22.931  23.801  1.00  0.00     0.001 C 
BRANCH   7  12
ATOM     12  C   UNL A   1      31.601  24.620  24.163  1.00  0.00     0.226 C 
ATOM     13  O   UNL A   1      31.359  23.697  23.378  1.00  0.00    -0.275 OA
BRANCH  12  14
ATOM     14  N   UNL A   1      30.610  25.192  24.973  1.00  0.00    -0.343 N 
ATOM     15  C   UNL A   1      30.194  24.677  26.285  1.00  0.00     0.147 C 
BRANCH  14  16
ATOM     16  C   UNL A   1      29.985  26.483  24.667  1.00  0.00     0.084 C 
ATOM     17  C   UNL A   1      29.929  27.211  23.352  1.00  0.00     0.027 C 
ATOM     18  C   UNL A   1      28.699  26.543  23.885  1.00  0.00     0.027 C 
ENDBRANCH  14  16
ENDBRANCH  12  14
ENDBRANCH   7  12
ENDBRANCH   3   6
ENDBRANCH   1   2
BRANCH   1  19
ATOM     19  C   UNL A   1      32.987  28.932  23.511  1.00  0.00     0.042 C 
BRANCH  19  20
ATOM     20  C   UNL A   1      33.319  29.072  24.985  1.00  0.00     0.118 C 
BRANCH  20  21
ATOM     21  N   UNL A   1      32.833  30.325  25.536  1.00  0.00    -0.352 N 
ATOM     22  C   UNL A   1      33.155  31.020  26.672  1.00  0.00     0.251 C 
ATOM     23  H   UNL A   1      32.139  30.757  24.989  1.00  0.00     0.163 HD
ATOM     24  O   UNL A   1      32.412  31.951  27.003  1.00  0.00    -0.269 OA
BRANCH  22  25
ATOM     25  C   UNL A   1      34.338  30.720  27.526  1.00  0.00     0.039 A 
ATOM     26  C   UNL A   1      35.303  31.726  27.685  1.00  0.00     0.014 A 
ATOM     27  C   UNL A   1      34.593  29.465  28.083  1.00  0.00     0.014 A 
ATOM     28  C   UNL A   1      36.480  31.488  28.404  1.00  0.00     0.010 A 
ATOM     29  C   UNL A   1      35.723  29.254  28.883  1.00  0.00     0.010 A 
ATOM     30  C   UNL A   1      36.694  30.254  29.033  1.00  0.00    -0.014 A 
BRANCH  30  31
ATOM     31  C   UNL A   1      37.939  29.982  29.808  1.00  0.00     0.031 A 
ATOM     32  C   UNL A   1      38.998  29.060  29.258  1.00  0.00     0.074 A 
ATOM     33  C   UNL A   1      38.109  30.531  31.027  1.00  0.00     0.049 A 
ATOM     34  N   UNL A   1      40.108  28.641  29.815  1.00  0.00    -0.248 NA
ATOM     35  C   UNL A   1      38.766  28.516  27.910  1.00  0.00     0.031 C 
ATOM     36  C   UNL A   1      37.158  31.419  31.696  1.00  0.00     0.029 A 
ATOM     37  N   UNL A   1      39.142  30.415  31.928  1.00  0.00    -0.354 N 
ATOM     38  C   UNL A   1      40.691  27.773  28.899  1.00  0.00     0.074 A 
ATOM     39  C   UNL A   1      39.789  27.686  27.771  1.00  0.00     0.031 C 
ATOM     40  C   UNL A   1      37.657  31.782  32.888  1.00  0.00     0.029 A 
ATOM     41  C   UNL A   1      38.943  31.121  33.089  1.00  0.00     0.049 A 
ATOM     42  H   UNL A   1      39.948  29.875  31.756  1.00  0.00     0.167 HD
ATOM     43  C   UNL A   1      41.879  27.126  28.978  1.00  0.00     0.037 A 
ATOM     44  C   UNL A   1      39.704  31.218  34.197  1.00  0.00     0.037 A 
ATOM     45  C   UNL A   1      42.797  27.237  30.082  1.00  0.00     0.049 A 
ATOM     46  C   UNL A   1      41.016  30.482  34.264  1.00  0.00     0.074 A 
ATOM     47  C   UNL A   1      44.049  26.664  30.224  1.00  0.00     0.029 A 
ATOM     48  N   UNL A   1      42.563  27.973  31.233  1.00  0.00    -0.354 N 
ATOM     49  N   UNL A   1      41.577  29.706  33.369  1.00  0.00    -0.248 NA
ATOM     50  C   UNL A   1      41.803  30.640  35.496  1.00  0.00     0.031 C 
ATOM     51  C   UNL A   1      44.553  27.016  31.481  1.00  0.00     0.029 A 
ATOM     52  C   UNL A   1      43.638  27.850  32.100  1.00  0.00     0.049 A 
ATOM     53  H   UNL A   1      41.754  28.505  31.409  1.00  0.00     0.167 HD
ATOM     54  C   UNL A   1      42.789  29.306  33.915  1.00  0.00     0.074 A 
ATOM     55  C   UNL A   1      42.891  29.938  35.215  1.00  0.00     0.031 C 
ATOM     56  C   UNL A   1      43.733  28.490  33.387  1.00  0.00     0.037 A 
BRANCH  43  57
ATOM     57  C   UNL A   1      42.263  26.232  27.832  1.00  0.00     0.064 A 
ATOM     58  C   UNL A   1      41.737  24.938  27.699  1.00  0.00     0.173 A 
ATOM     59  C   UNL A   1      43.132  26.691  26.830  1.00  0.00     0.173 A 
ATOM     60  F   UNL A   1      40.908  24.447  28.633  1.00  0.00    -0.203 F 
ATOM     61  C   UNL A   1      42.092  24.126  26.624  1.00  0.00     0.198 A 
ATOM     62  C   UNL A   1      43.459  25.888  25.740  1.00  0.00     0.198 A 
ATOM     63  F   UNL A   1      43.656  27.924  26.902  1.00  0.00    -0.203 F 
ATOM     64  F   UNL A   1      41.616  22.876  26.545  1.00  0.00    -0.200 F 
ATOM     65  C   UNL A   1      42.946  24.605  25.641  1.00  0.00     0.200 A 
ATOM     66  F   UNL A   1      44.274  26.358  24.785  1.00  0.00    -0.200 F 
ATOM     67  F   UNL A   1      43.280  23.825  24.604  1.00  0.00    -0.200 F 
ENDBRANCH  43  57
BRANCH  44  68
ATOM     68  C   UNL A   1      39.249  32.058  35.335  1.00  0.00     0.064 A 
ATOM     69  C   UNL A   1      38.480  31.511  36.373  1.00  0.00     0.173 A 
ATOM     70  C   UNL A   1      39.565  33.423  35.407  1.00  0.00     0.173 A 
ATOM     71  F   UNL A   1      38.132  30.217  36.336  1.00  0.00    -0.203 F 
ATOM     72  C   UNL A   1      38.030  32.302  37.428  1.00  0.00     0.198 A 
ATOM     73  C   UNL A   1      39.139  34.205  36.478  1.00  0.00     0.198 A 
ATOM     74  F   UNL A   1      40.301  33.993  34.441  1.00  0.00    -0.203 F 
ATOM     75  F   UNL A   1      37.257  31.763  38.382  1.00  0.00    -0.200 F 
ATOM     76  C   UNL A   1      38.365  33.646  37.483  1.00  0.00     0.200 A 
ATOM     77  F   UNL A   1      39.476  35.501  36.534  1.00  0.00    -0.200 F 
ATOM     78  F   UNL A   1      37.935  34.404  38.500  1.00  0.00    -0.200 F 
ENDBRANCH  44  68
BRANCH  56  79
ATOM     79  C   UNL A   1      44.977  28.256  34.195  1.00  0.00     0.064 A 
ATOM     80  C   UNL A   1      46.089  29.106  34.098  1.00  0.00     0.173 A 
ATOM     81  C   UNL A   1      45.040  27.192  35.108  1.00  0.00     0.173 A 
ATOM     82  F   UNL A   1      46.084  30.128  33.230  1.00  0.00    -0.203 F 
ATOM     83  C   UNL A   1      47.228  28.883  34.868  1.00  0.00     0.198 A 
ATOM     84  C   UNL A   1      46.170  26.990  35.897  1.00  0.00     0.198 A 
ATOM     85  F   UNL A   1      44.002  26.354  35.244  1.00  0.00    -0.203 F 
ATOM     86  F   UNL A   1      48.297  29.680  34.725  1.00  0.00    -0.200 F 
ATOM     87  C   UNL A   1      47.264  27.832  35.771  1.00  0.00     0.200 A 
ATOM     88  F   UNL A   1      46.198  25.981  36.779  1.00  0.00    -0.200 F 
ATOM     89  F   UNL A   1      48.359  27.625  36.517  1.00  0.00    -0.200 F 
ENDBRANCH  56  79
ENDBRANCH  30  31
ENDBRANCH  22  25
ENDBRANCH  20  21
ENDBRANCH  19  20
ENDBRANCH   1  19
TORSDOF 13
ENDMDL
