MODEL 1
REMARK VINA RESULT:     -11.8      0.000      0.000
REMARK SMILES CN(C)S(=O)(=O)c1ccc(N(CC(=O)NCCCNC(=O)c2ccc(-c3c4nc(c(-c5c(F)c(F)c(F)c(F)c5F)c5ccc([nH]5)c(-c5c(F)c(F)c(F)c(F)c5F)c5nc(c(-c6c(F)c(F)c(F)c(F)c6F)c6ccc3[nH]6)C=C5)C=C4)cc2)C(C)(C)C)cc1
REMARK SMILES IDX 16 1 15 2 13 3 14 4 12 6 11 7 10 8 7 9 8 10 90 11 9 12 89 13
REMARK SMILES IDX 4 14 5 15 6 16 2 17 1 18 3 19 85 20 86 21 87 22 88 23 17 24
REMARK SMILES IDX 18 25 19 26 20 27 21 29 22 30 23 31 84 32 24 33 83 34 25 35
REMARK SMILES IDX 26 36 27 37 77 38 28 39 82 40 76 41 78 42 29 43 81 44 75 45
REMARK SMILES IDX 74 46 30 48 62 49 42 50 61 51 43 52 46 53 60 54 79 55 44 56
REMARK SMILES IDX 45 57 59 59 80 60 47 61 31 62 32 63 40 64 33 65 34 66 38 67
REMARK SMILES IDX 41 68 35 69 36 70 39 71 37 72 63 73 64 74 72 75 65 76 66 77
REMARK SMILES IDX 70 78 73 79 67 80 68 81 71 82 69 83 48 84 49 85 57 86 50 87
REMARK SMILES IDX 51 88 55 89 58 90 52 91 53 92 56 93 54 94
REMARK H PARENT 15 5 19 28 78 47 46 58
REMARK Flexibility Score: inf
ROOT
ATOM      1  C   UNL A   1      31.533  30.863  25.884  1.00  0.00     0.117 C 
ENDROOT
BRANCH   1   2
ATOM      2  N   UNL A   1      31.962  29.850  26.824  1.00  0.00    -0.354 N 
ATOM      3  C   UNL A   1      32.837  28.819  26.643  1.00  0.00     0.239 C 
ATOM      4  O   UNL A   1      33.169  28.188  27.652  1.00  0.00    -0.273 OA
ATOM      5  H   UNL A   1      31.566  29.914  27.722  1.00  0.00     0.163 HD
BRANCH   3   6
ATOM      6  C   UNL A   1      33.453  28.510  25.267  1.00  0.00     0.217 C 
BRANCH   6   7
ATOM      7  N   UNL A   1      32.868  27.331  24.550  1.00  0.00    -0.357 N 
BRANCH   7   8
ATOM      8  C   UNL A   1      33.246  26.031  24.947  1.00  0.00     0.038 A 
ATOM      9  C   UNL A   1      33.958  23.321  25.693  1.00  0.00     0.082 A 
ATOM     10  C   UNL A   1      34.768  24.065  24.845  1.00  0.00     0.024 A 
ATOM     11  C   UNL A   1      32.819  23.919  26.199  1.00  0.00     0.024 A 
ATOM     12  C   UNL A   1      34.425  25.390  24.510  1.00  0.00     0.027 A 
ATOM     13  C   UNL A   1      32.475  25.228  25.810  1.00  0.00     0.027 A 
BRANCH   9  14
ATOM     14  S   UNL A   1      34.454  21.667  26.126  1.00  0.00     0.242 S 
ATOM     15  O   UNL A   1      33.833  21.345  27.395  1.00  0.00    -0.207 OA
ATOM     16  O   UNL A   1      35.892  21.619  25.970  1.00  0.00    -0.207 OA
BRANCH  14  17
ATOM     17  N   UNL A   1      33.793  20.621  24.928  1.00  0.00    -0.204 NA
ATOM     18  C   UNL A   1      34.546  19.343  24.823  1.00  0.00     0.124 C 
ATOM     19  C   UNL A   1      32.334  20.368  24.997  1.00  0.00     0.124 C 
ENDBRANCH  14  17
ENDBRANCH   9  14
ENDBRANCH   7   8
BRANCH   7  20
ATOM     20  C   UNL A   1      31.722  27.605  23.580  1.00  0.00     0.032 C 
ATOM     21  C   UNL A   1      30.363  27.588  24.316  1.00  0.00     0.034 C 
ATOM     22  C   UNL A   1      31.972  28.908  22.783  1.00  0.00     0.034 C 
ATOM     23  C   UNL A   1      31.552  26.532  22.467  1.00  0.00     0.034 C 
ENDBRANCH   7  20
ENDBRANCH   6   7
ENDBRANCH   3   6
ENDBRANCH   1   2
BRANCH   1  24
ATOM     24  C   UNL A   1      31.288  32.217  26.537  1.00  0.00     0.042 C 
BRANCH  24  25
ATOM     25  C   UNL A   1      32.510  32.786  27.251  1.00  0.00     0.118 C 
BRANCH  25  26
ATOM     26  N   UNL A   1      32.342  34.186  27.616  1.00  0.00    -0.352 N 
ATOM     27  C   UNL A   1      33.004  34.933  28.558  1.00  0.00     0.251 C 
ATOM     28  H   UNL A   1      31.651  34.669  27.110  1.00  0.00     0.163 HD
ATOM     29  O   UNL A   1      32.600  36.057  28.843  1.00  0.00    -0.269 OA
BRANCH  27  30
ATOM     30  C   UNL A   1      34.194  34.388  29.246  1.00  0.00     0.039 A 
ATOM     31  C   UNL A   1      34.030  33.756  30.482  1.00  0.00     0.014 A 
ATOM     32  C   UNL A   1      35.472  34.538  28.700  1.00  0.00     0.014 A 
ATOM     33  C   UNL A   1      35.138  33.222  31.145  1.00  0.00     0.010 A 
ATOM     34  C   UNL A   1      36.568  33.959  29.335  1.00  0.00     0.010 A 
ATOM     35  C   UNL A   1      36.413  33.299  30.563  1.00  0.00    -0.014 A 
BRANCH  35  36
ATOM     36  C   UNL A   1      37.606  32.708  31.221  1.00  0.00     0.031 A 
ATOM     37  C   UNL A   1      38.338  31.575  30.561  1.00  0.00     0.074 A 
ATOM     38  C   UNL A   1      37.969  33.126  32.449  1.00  0.00     0.049 A 
ATOM     39  N   UNL A   1      39.296  30.818  31.035  1.00  0.00    -0.248 NA
ATOM     40  C   UNL A   1      37.919  31.226  29.194  1.00  0.00     0.031 C 
ATOM     41  C   UNL A   1      37.320  34.195  33.209  1.00  0.00     0.029 A 
ATOM     42  N   UNL A   1      38.962  32.678  33.287  1.00  0.00    -0.354 N 
ATOM     43  C   UNL A   1      39.566  29.885  30.043  1.00  0.00     0.074 A 
ATOM     44  C   UNL A   1      38.660  30.154  28.947  1.00  0.00     0.031 C 
ATOM     45  C   UNL A   1      37.927  34.319  34.399  1.00  0.00     0.029 A 
ATOM     46  C   UNL A   1      38.982  33.316  34.504  1.00  0.00     0.049 A 
ATOM     47  H   UNL A   1      39.597  31.969  33.040  1.00  0.00     0.167 HD
ATOM     48  C   UNL A   1      40.493  28.898  30.045  1.00  0.00     0.037 A 
ATOM     49  C   UNL A   1      39.751  33.099  35.588  1.00  0.00     0.037 A 
ATOM     50  C   UNL A   1      41.431  28.668  31.111  1.00  0.00     0.049 A 
ATOM     51  C   UNL A   1      40.792  32.012  35.550  1.00  0.00     0.074 A 
ATOM     52  C   UNL A   1      42.463  27.747  31.167  1.00  0.00     0.029 A 
ATOM     53  N   UNL A   1      41.455  29.372  32.305  1.00  0.00    -0.354 N 
ATOM     54  N   UNL A   1      41.077  31.175  34.583  1.00  0.00    -0.248 NA
ATOM     55  C   UNL A   1      41.620  31.842  36.753  1.00  0.00     0.031 C 
ATOM     56  C   UNL A   1      43.092  27.872  32.409  1.00  0.00     0.029 A 
ATOM     57  C   UNL A   1      42.475  28.894  33.111  1.00  0.00     0.049 A 
ATOM     58  H   UNL A   1      40.839  30.101  32.545  1.00  0.00     0.167 HD
ATOM     59  C   UNL A   1      42.135  30.404  35.046  1.00  0.00     0.074 A 
ATOM     60  C   UNL A   1      42.447  30.875  36.378  1.00  0.00     0.031 C 
ATOM     61  C   UNL A   1      42.790  29.396  34.422  1.00  0.00     0.037 A 
BRANCH  48  62
ATOM     62  C   UNL A   1      40.550  27.987  28.857  1.00  0.00     0.064 A 
ATOM     63  C   UNL A   1      39.801  26.803  28.803  1.00  0.00     0.173 A 
ATOM     64  C   UNL A   1      41.307  28.341  27.730  1.00  0.00     0.173 A 
ATOM     65  F   UNL A   1      39.070  26.418  29.859  1.00  0.00    -0.203 F 
ATOM     66  C   UNL A   1      39.818  25.999  27.666  1.00  0.00     0.198 A 
ATOM     67  C   UNL A   1      41.303  27.546  26.587  1.00  0.00     0.198 A 
ATOM     68  F   UNL A   1      42.036  29.467  27.731  1.00  0.00    -0.203 F 
ATOM     69  F   UNL A   1      39.116  24.858  27.645  1.00  0.00    -0.200 F 
ATOM     70  C   UNL A   1      40.560  26.376  26.556  1.00  0.00     0.200 A 
ATOM     71  F   UNL A   1      42.012  27.918  25.512  1.00  0.00    -0.200 F 
ATOM     72  F   UNL A   1      40.563  25.608  25.458  1.00  0.00    -0.200 F 
ENDBRANCH  48  62
BRANCH  49  73
ATOM     73  C   UNL A   1      39.573  33.928  36.808  1.00  0.00     0.064 A 
ATOM     74  C   UNL A   1      38.785  33.474  37.875  1.00  0.00     0.173 A 
ATOM     75  C   UNL A   1      40.163  35.194  36.923  1.00  0.00     0.173 A 
ATOM     76  F   UNL A   1      38.183  32.278  37.802  1.00  0.00    -0.203 F 
ATOM     77  C   UNL A   1      38.573  34.267  39.000  1.00  0.00     0.198 A 
ATOM     78  C   UNL A   1      39.972  35.976  38.061  1.00  0.00     0.198 A 
ATOM     79  F   UNL A   1      40.931  35.671  35.932  1.00  0.00    -0.203 F 
ATOM     80  F   UNL A   1      37.775  33.831  39.985  1.00  0.00    -0.200 F 
ATOM     81  C   UNL A   1      39.169  35.516  39.094  1.00  0.00     0.200 A 
ATOM     82  F   UNL A   1      40.562  37.175  38.154  1.00  0.00    -0.200 F 
ATOM     83  F   UNL A   1      38.964  36.279  40.176  1.00  0.00    -0.200 F 
ENDBRANCH  49  73
BRANCH  61  84
ATOM     84  C   UNL A   1      43.939  28.767  35.148  1.00  0.00     0.064 A 
ATOM     85  C   UNL A   1      45.242  29.276  35.041  1.00  0.00     0.173 A 
ATOM     86  C   UNL A   1      43.723  27.678  36.006  1.00  0.00     0.173 A 
ATOM     87  F   UNL A   1      45.499  30.306  34.221  1.00  0.00    -0.203 F 
ATOM     88  C   UNL A   1      46.290  28.705  35.757  1.00  0.00     0.198 A 
ATOM     89  C   UNL A   1      44.770  27.126  36.737  1.00  0.00     0.198 A 
ATOM     90  F   UNL A   1      42.494  27.161  36.144  1.00  0.00    -0.203 F 
ATOM     91  F   UNL A   1      47.534  29.185  35.616  1.00  0.00    -0.200 F 
ATOM     92  C   UNL A   1      46.053  27.637  36.610  1.00  0.00     0.200 A 
ATOM     93  F   UNL A   1      44.538  26.101  37.568  1.00  0.00    -0.200 F 
ATOM     94  F   UNL A   1      47.062  27.097  37.306  1.00  0.00    -0.200 F 
ENDBRANCH  61  84
ENDBRANCH  35  36
ENDBRANCH  27  30
ENDBRANCH  25  26
ENDBRANCH  24  25
ENDBRANCH   1  24
TORSDOF 15
ENDMDL
MODEL 2
REMARK VINA RESULT:     -11.7      5.482     11.283
REMARK SMILES CN(C)S(=O)(=O)c1ccc(N(CC(=O)NCCCNC(=O)c2ccc(-c3c4nc(c(-c5c(F)c(F)c(F)c(F)c5F)c5ccc([nH]5)c(-c5c(F)c(F)c(F)c(F)c5F)c5nc(c(-c6c(F)c(F)c(F)c(F)c6F)c6ccc3[nH]6)C=C5)C=C4)cc2)C(C)(C)C)cc1
REMARK SMILES IDX 16 1 15 2 13 3 14 4 12 6 11 7 10 8 7 9 8 10 90 11 9 12 89 13
REMARK SMILES IDX 4 14 5 15 6 16 2 17 1 18 3 19 85 20 86 21 87 22 88 23 17 24
REMARK SMILES IDX 18 25 19 26 20 27 21 29 22 30 23 31 84 32 24 33 83 34 25 35
REMARK SMILES IDX 26 36 27 37 77 38 28 39 82 40 76 41 78 42 29 43 81 44 75 45
REMARK SMILES IDX 74 46 30 48 62 49 42 50 61 51 43 52 46 53 60 54 79 55 44 56
REMARK SMILES IDX 45 57 59 59 80 60 47 61 31 62 32 63 40 64 33 65 34 66 38 67
REMARK SMILES IDX 41 68 35 69 36 70 39 71 37 72 63 73 64 74 72 75 65 76 66 77
REMARK SMILES IDX 70 78 73 79 67 80 68 81 71 82 69 83 48 84 49 85 57 86 50 87
REMARK SMILES IDX 51 88 55 89 58 90 52 91 53 92 56 93 54 94
REMARK H PARENT 15 5 19 28 78 47 46 58
REMARK Flexibility Score: inf
ROOT
ATOM      1  C   UNL A   1      36.736  20.469  25.001  1.00  0.00     0.117 C 
ENDROOT
BRANCH   1   2
ATOM      2  N   UNL A   1      37.063  21.871  24.868  1.00  0.00    -0.354 N 
ATOM      3  C   UNL A   1      36.495  22.953  25.476  1.00  0.00     0.239 C 
ATOM      4  O   UNL A   1      37.066  24.039  25.325  1.00  0.00    -0.273 OA
ATOM      5  H   UNL A   1      37.801  22.075  24.249  1.00  0.00     0.163 HD
BRANCH   3   6
ATOM      6  C   UNL A   1      35.258  22.818  26.380  1.00  0.00     0.217 C 
BRANCH   6   7
ATOM      7  N   UNL A   1      33.942  23.087  25.715  1.00  0.00    -0.357 N 
BRANCH   7   8
ATOM      8  C   UNL A   1      33.648  24.400  25.287  1.00  0.00     0.038 A 
ATOM      9  C   UNL A   1      32.954  27.060  24.366  1.00  0.00     0.082 A 
ATOM     10  C   UNL A   1      32.734  26.680  25.684  1.00  0.00     0.024 A 
ATOM     11  C   UNL A   1      33.543  26.146  23.513  1.00  0.00     0.024 A 
ATOM     12  C   UNL A   1      33.099  25.393  26.126  1.00  0.00     0.027 A 
ATOM     13  C   UNL A   1      33.854  24.850  23.969  1.00  0.00     0.027 A 
BRANCH   9  14
ATOM     14  S   UNL A   1      32.520  28.711  23.862  1.00  0.00     0.242 S 
ATOM     15  O   UNL A   1      33.143  28.952  22.576  1.00  0.00    -0.207 OA
ATOM     16  O   UNL A   1      32.800  29.570  24.994  1.00  0.00    -0.207 OA
BRANCH  14  17
ATOM     17  N   UNL A   1      30.813  28.730  23.641  1.00  0.00    -0.204 NA
ATOM     18  C   UNL A   1      30.231  30.078  23.876  1.00  0.00     0.124 C 
ATOM     19  C   UNL A   1      30.299  28.149  22.376  1.00  0.00     0.124 C 
ENDBRANCH  14  17
ENDBRANCH   9  14
ENDBRANCH   7   8
BRANCH   7  20
ATOM     20  C   UNL A   1      33.092  21.878  25.337  1.00  0.00     0.032 C 
ATOM     21  C   UNL A   1      33.352  21.460  23.872  1.00  0.00     0.034 C 
ATOM     22  C   UNL A   1      33.292  20.724  26.348  1.00  0.00     0.034 C 
ATOM     23  C   UNL A   1      31.558  22.130  25.381  1.00  0.00     0.034 C 
ENDBRANCH   7  20
ENDBRANCH   6   7
ENDBRANCH   3   6
ENDBRANCH   1   2
BRANCH   1  24
ATOM     24  C   UNL A   1      37.959  19.563  24.945  1.00  0.00     0.042 C 
BRANCH  24  25
ATOM     25  C   UNL A   1      39.139  20.069  25.768  1.00  0.00     0.118 C 
BRANCH  25  26
ATOM     26  N   UNL A   1      40.194  19.075  25.903  1.00  0.00    -0.352 N 
ATOM     27  C   UNL A   1      41.541  19.246  26.108  1.00  0.00     0.251 C 
ATOM     28  H   UNL A   1      39.897  18.139  25.838  1.00  0.00     0.163 HD
ATOM     29  O   UNL A   1      42.300  18.286  26.019  1.00  0.00    -0.269 OA
BRANCH  27  30
ATOM     30  C   UNL A   1      42.087  20.584  26.422  1.00  0.00     0.039 A 
ATOM     31  C   UNL A   1      42.486  21.414  25.370  1.00  0.00     0.014 A 
ATOM     32  C   UNL A   1      42.249  21.003  27.745  1.00  0.00     0.014 A 
ATOM     33  C   UNL A   1      42.994  22.687  25.640  1.00  0.00     0.010 A 
ATOM     34  C   UNL A   1      42.705  22.291  28.012  1.00  0.00     0.010 A 
ATOM     35  C   UNL A   1      43.084  23.144  26.963  1.00  0.00    -0.014 A 
BRANCH  35  36
ATOM     36  C   UNL A   1      43.582  24.506  27.285  1.00  0.00     0.031 A 
ATOM     37  C   UNL A   1      42.628  25.548  27.795  1.00  0.00     0.074 A 
ATOM     38  C   UNL A   1      44.864  24.828  27.028  1.00  0.00     0.049 A 
ATOM     39  N   UNL A   1      42.822  26.830  27.982  1.00  0.00    -0.248 NA
ATOM     40  C   UNL A   1      41.263  25.096  28.111  1.00  0.00     0.031 C 
ATOM     41  C   UNL A   1      45.880  23.915  26.503  1.00  0.00     0.029 A 
ATOM     42  N   UNL A   1      45.526  26.026  27.151  1.00  0.00    -0.354 N 
ATOM     43  C   UNL A   1      41.600  27.340  28.399  1.00  0.00     0.074 A 
ATOM     44  C   UNL A   1      40.663  26.238  28.421  1.00  0.00     0.031 C 
ATOM     45  C   UNL A   1      47.033  24.584  26.345  1.00  0.00     0.029 A 
ATOM     46  C   UNL A   1      46.830  25.980  26.721  1.00  0.00     0.049 A 
ATOM     47  H   UNL A   1      45.106  26.839  27.512  1.00  0.00     0.167 HD
ATOM     48  C   UNL A   1      41.292  28.613  28.741  1.00  0.00     0.037 A 
ATOM     49  C   UNL A   1      47.749  26.959  26.622  1.00  0.00     0.037 A 
ATOM     50  C   UNL A   1      42.238  29.696  28.774  1.00  0.00     0.049 A 
ATOM     51  C   UNL A   1      47.384  28.360  27.037  1.00  0.00     0.074 A 
ATOM     52  C   UNL A   1      42.039  31.002  29.189  1.00  0.00     0.029 A 
ATOM     53  N   UNL A   1      43.564  29.596  28.384  1.00  0.00    -0.354 N 
ATOM     54  N   UNL A   1      46.242  28.817  27.486  1.00  0.00    -0.248 NA
ATOM     55  C   UNL A   1      48.439  29.379  26.933  1.00  0.00     0.031 C 
ATOM     56  C   UNL A   1      43.238  31.702  29.020  1.00  0.00     0.029 A 
ATOM     57  C   UNL A   1      44.192  30.822  28.534  1.00  0.00     0.049 A 
ATOM     58  H   UNL A   1      43.996  28.777  28.050  1.00  0.00     0.167 HD
ATOM     59  C   UNL A   1      46.448  30.164  27.749  1.00  0.00     0.074 A 
ATOM     60  C   UNL A   1      47.827  30.452  27.415  1.00  0.00     0.031 C 
ATOM     61  C   UNL A   1      45.573  31.082  28.225  1.00  0.00     0.037 A 
BRANCH  48  62
ATOM     62  C   UNL A   1      39.873  28.916  29.115  1.00  0.00     0.064 A 
ATOM     63  C   UNL A   1      38.927  29.302  28.155  1.00  0.00     0.173 A 
ATOM     64  C   UNL A   1      39.438  28.744  30.438  1.00  0.00     0.173 A 
ATOM     65  F   UNL A   1      39.297  29.488  26.880  1.00  0.00    -0.203 F 
ATOM     66  C   UNL A   1      37.598  29.519  28.509  1.00  0.00     0.198 A 
ATOM     67  C   UNL A   1      38.104  28.940  30.784  1.00  0.00     0.198 A 
ATOM     68  F   UNL A   1      40.304  28.370  31.392  1.00  0.00    -0.203 F 
ATOM     69  F   UNL A   1      36.716  29.914  27.581  1.00  0.00    -0.200 F 
ATOM     70  C   UNL A   1      37.186  29.328  29.820  1.00  0.00     0.200 A 
ATOM     71  F   UNL A   1      37.706  28.745  32.048  1.00  0.00    -0.200 F 
ATOM     72  F   UNL A   1      35.903  29.523  30.156  1.00  0.00    -0.200 F 
ENDBRANCH  48  62
BRANCH  49  73
ATOM     73  C   UNL A   1      49.110  26.656  26.110  1.00  0.00     0.064 A 
ATOM     74  C   UNL A   1      49.448  26.911  24.774  1.00  0.00     0.173 A 
ATOM     75  C   UNL A   1      50.090  26.084  26.935  1.00  0.00     0.173 A 
ATOM     76  F   UNL A   1      48.537  27.437  23.942  1.00  0.00    -0.203 F 
ATOM     77  C   UNL A   1      50.706  26.583  24.274  1.00  0.00     0.198 A 
ATOM     78  C   UNL A   1      51.357  25.781  26.441  1.00  0.00     0.198 A 
ATOM     79  F   UNL A   1      49.819  25.826  28.222  1.00  0.00    -0.203 F 
ATOM     80  F   UNL A   1      50.988  26.792  22.981  1.00  0.00    -0.200 F 
ATOM     81  C   UNL A   1      51.661  26.021  25.109  1.00  0.00     0.200 A 
ATOM     82  F   UNL A   1      52.282  25.253  27.253  1.00  0.00    -0.200 F 
ATOM     83  F   UNL A   1      52.871  25.705  24.628  1.00  0.00    -0.200 F 
ENDBRANCH  49  73
BRANCH  61  84
ATOM     84  C   UNL A   1      46.088  32.468  28.463  1.00  0.00     0.064 A 
ATOM     85  C   UNL A   1      46.675  32.834  29.682  1.00  0.00     0.173 A 
ATOM     86  C   UNL A   1      46.045  33.424  27.436  1.00  0.00     0.173 A 
ATOM     87  F   UNL A   1      46.724  31.959  30.697  1.00  0.00    -0.203 F 
ATOM     88  C   UNL A   1      47.188  34.114  29.870  1.00  0.00     0.198 A 
ATOM     89  C   UNL A   1      46.580  34.695  27.621  1.00  0.00     0.198 A 
ATOM     90  F   UNL A   1      45.498  33.118  26.251  1.00  0.00    -0.203 F 
ATOM     91  F   UNL A   1      47.716  34.455  31.054  1.00  0.00    -0.200 F 
ATOM     92  C   UNL A   1      47.148  35.040  28.837  1.00  0.00     0.200 A 
ATOM     93  F   UNL A   1      46.549  35.585  26.620  1.00  0.00    -0.200 F 
ATOM     94  F   UNL A   1      47.651  36.269  29.018  1.00  0.00    -0.200 F 
ENDBRANCH  61  84
ENDBRANCH  35  36
ENDBRANCH  27  30
ENDBRANCH  25  26
ENDBRANCH  24  25
ENDBRANCH   1  24
TORSDOF 15
ENDMDL
MODEL 3
REMARK VINA RESULT:     -11.5      4.073      8.435
REMARK SMILES CN(C)S(=O)(=O)c1ccc(N(CC(=O)NCCCNC(=O)c2ccc(-c3c4nc(c(-c5c(F)c(F)c(F)c(F)c5F)c5ccc([nH]5)c(-c5c(F)c(F)c(F)c(F)c5F)c5nc(c(-c6c(F)c(F)c(F)c(F)c6F)c6ccc3[nH]6)C=C5)C=C4)cc2)C(C)(C)C)cc1
REMARK SMILES IDX 16 1 15 2 13 3 14 4 12 6 11 7 10 8 7 9 8 10 90 11 9 12 89 13
REMARK SMILES IDX 4 14 5 15 6 16 2 17 1 18 3 19 85 20 86 21 87 22 88 23 17 24
REMARK SMILES IDX 18 25 19 26 20 27 21 29 22 30 23 31 84 32 24 33 83 34 25 35
REMARK SMILES IDX 26 36 27 37 77 38 28 39 82 40 76 41 78 42 29 43 81 44 75 45
REMARK SMILES IDX 74 46 30 48 62 49 42 50 61 51 43 52 46 53 60 54 79 55 44 56
REMARK SMILES IDX 45 57 59 59 80 60 47 61 31 62 32 63 40 64 33 65 34 66 38 67
REMARK SMILES IDX 41 68 35 69 36 70 39 71 37 72 63 73 64 74 72 75 65 76 66 77
REMARK SMILES IDX 70 78 73 79 67 80 68 81 71 82 69 83 48 84 49 85 57 86 50 87
REMARK SMILES IDX 51 88 55 89 58 90 52 91 53 92 56 93 54 94
REMARK H PARENT 15 5 19 28 78 47 46 58
REMARK Flexibility Score: inf
ROOT
ATOM      1  C   UNL A   1      34.666  22.968  23.998  1.00  0.00     0.117 C 
ENDROOT
BRANCH   1   2
ATOM      2  N   UNL A   1      34.606  24.041  23.030  1.00  0.00    -0.354 N 
ATOM      3  C   UNL A   1      33.621  24.962  22.820  1.00  0.00     0.239 C 
ATOM      4  O   UNL A   1      33.880  25.886  22.042  1.00  0.00    -0.273 OA
ATOM      5  H   UNL A   1      35.389  24.119  22.438  1.00  0.00     0.163 HD
BRANCH   3   6
ATOM      6  C   UNL A   1      32.285  24.907  23.581  1.00  0.00     0.217 C 
BRANCH   6   7
ATOM      7  N   UNL A   1      31.974  26.107  24.423  1.00  0.00    -0.357 N 
BRANCH   7   8
ATOM      8  C   UNL A   1      31.074  27.075  23.929  1.00  0.00     0.038 A 
ATOM      9  C   UNL A   1      29.250  29.036  22.817  1.00  0.00     0.082 A 
ATOM     10  C   UNL A   1      28.788  27.808  23.275  1.00  0.00     0.024 A 
ATOM     11  C   UNL A   1      30.599  29.310  22.936  1.00  0.00     0.024 A 
ATOM     12  C   UNL A   1      29.680  26.874  23.837  1.00  0.00     0.027 A 
ATOM     13  C   UNL A   1      31.476  28.339  23.457  1.00  0.00     0.027 A 
BRANCH   9  14
ATOM     14  S   UNL A   1      28.081  30.204  22.157  1.00  0.00     0.242 S 
ATOM     15  O   UNL A   1      26.929  30.210  23.035  1.00  0.00    -0.207 OA
ATOM     16  O   UNL A   1      27.940  29.891  20.750  1.00  0.00    -0.207 OA
BRANCH  14  17
ATOM     17  N   UNL A   1      28.826  31.754  22.243  1.00  0.00    -0.204 NA
ATOM     18  C   UNL A   1      28.293  32.690  21.218  1.00  0.00     0.124 C 
ATOM     19  C   UNL A   1      28.863  32.401  23.577  1.00  0.00     0.124 C 
ENDBRANCH  14  17
ENDBRANCH   9  14
ENDBRANCH   7   8
BRANCH   7  20
ATOM     20  C   UNL A   1      32.476  26.095  25.864  1.00  0.00     0.032 C 
ATOM     21  C   UNL A   1      33.942  26.580  25.939  1.00  0.00     0.034 C 
ATOM     22  C   UNL A   1      31.520  26.885  26.789  1.00  0.00     0.034 C 
ATOM     23  C   UNL A   1      32.521  24.684  26.518  1.00  0.00     0.034 C 
ENDBRANCH   7  20
ENDBRANCH   6   7
ENDBRANCH   3   6
ENDBRANCH   1   2
BRANCH   1  24
ATOM     24  C   UNL A   1      35.454  23.335  25.249  1.00  0.00     0.042 C 
BRANCH  24  25
ATOM     25  C   UNL A   1      36.894  23.752  24.969  1.00  0.00     0.118 C 
BRANCH  25  26
ATOM     26  N   UNL A   1      37.856  22.724  25.342  1.00  0.00    -0.352 N 
ATOM     27  C   UNL A   1      39.054  22.840  26.002  1.00  0.00     0.251 C 
ATOM     28  H   UNL A   1      37.609  21.807  25.082  1.00  0.00     0.163 HD
ATOM     29  O   UNL A   1      39.811  21.876  26.071  1.00  0.00    -0.269 OA
BRANCH  27  30
ATOM     30  C   UNL A   1      39.447  24.124  26.621  1.00  0.00     0.039 A 
ATOM     31  C   UNL A   1      39.076  24.377  27.945  1.00  0.00     0.014 A 
ATOM     32  C   UNL A   1      40.137  25.095  25.889  1.00  0.00     0.014 A 
ATOM     33  C   UNL A   1      39.446  25.578  28.556  1.00  0.00     0.010 A 
ATOM     34  C   UNL A   1      40.551  26.268  26.514  1.00  0.00     0.010 A 
ATOM     35  C   UNL A   1      40.209  26.522  27.851  1.00  0.00    -0.014 A 
BRANCH  35  36
ATOM     36  C   UNL A   1      40.652  27.791  28.481  1.00  0.00     0.031 A 
ATOM     37  C   UNL A   1      42.069  27.930  28.963  1.00  0.00     0.074 A 
ATOM     38  C   UNL A   1      39.761  28.776  28.705  1.00  0.00     0.049 A 
ATOM     39  N   UNL A   1      42.612  28.884  29.677  1.00  0.00    -0.248 NA
ATOM     40  C   UNL A   1      42.993  26.837  28.619  1.00  0.00     0.031 C 
ATOM     41  C   UNL A   1      38.351  28.749  28.314  1.00  0.00     0.029 A 
ATOM     42  N   UNL A   1      39.906  29.985  29.342  1.00  0.00    -0.354 N 
ATOM     43  C   UNL A   1      43.925  28.489  29.899  1.00  0.00     0.074 A 
ATOM     44  C   UNL A   1      44.094  27.201  29.262  1.00  0.00     0.031 C 
ATOM     45  C   UNL A   1      37.760  29.884  28.722  1.00  0.00     0.029 A 
ATOM     46  C   UNL A   1      38.737  30.701  29.435  1.00  0.00     0.049 A 
ATOM     47  H   UNL A   1      40.765  30.306  29.699  1.00  0.00     0.167 HD
ATOM     48  C   UNL A   1      44.900  29.147  30.567  1.00  0.00     0.037 A 
ATOM     49  C   UNL A   1      38.480  31.873  30.045  1.00  0.00     0.037 A 
ATOM     50  C   UNL A   1      44.746  30.453  31.151  1.00  0.00     0.049 A 
ATOM     51  C   UNL A   1      39.594  32.595  30.757  1.00  0.00     0.074 A 
ATOM     52  C   UNL A   1      45.702  31.237  31.774  1.00  0.00     0.029 A 
ATOM     53  N   UNL A   1      43.560  31.170  31.175  1.00  0.00    -0.354 N 
ATOM     54  N   UNL A   1      40.845  32.238  30.909  1.00  0.00    -0.248 NA
ATOM     55  C   UNL A   1      39.259  33.884  31.380  1.00  0.00     0.031 C 
ATOM     56  C   UNL A   1      45.086  32.416  32.204  1.00  0.00     0.029 A 
ATOM     57  C   UNL A   1      43.757  32.381  31.817  1.00  0.00     0.049 A 
ATOM     58  H   UNL A   1      42.705  30.864  30.794  1.00  0.00     0.167 HD
ATOM     59  C   UNL A   1      41.453  33.269  31.612  1.00  0.00     0.074 A 
ATOM     60  C   UNL A   1      40.435  34.270  31.853  1.00  0.00     0.031 C 
ATOM     61  C   UNL A   1      42.739  33.377  32.021  1.00  0.00     0.037 A 
BRANCH  48  62
ATOM     62  C   UNL A   1      46.232  28.475  30.706  1.00  0.00     0.064 A 
ATOM     63  C   UNL A   1      47.267  28.697  29.786  1.00  0.00     0.173 A 
ATOM     64  C   UNL A   1      46.500  27.656  31.814  1.00  0.00     0.173 A 
ATOM     65  F   UNL A   1      47.056  29.463  28.706  1.00  0.00    -0.203 F 
ATOM     66  C   UNL A   1      48.518  28.113  29.963  1.00  0.00     0.198 A 
ATOM     67  C   UNL A   1      47.759  27.093  32.000  1.00  0.00     0.198 A 
ATOM     68  F   UNL A   1      45.544  27.419  32.725  1.00  0.00    -0.203 F 
ATOM     69  F   UNL A   1      49.485  28.316  29.058  1.00  0.00    -0.200 F 
ATOM     70  C   UNL A   1      48.766  27.320  31.074  1.00  0.00     0.200 A 
ATOM     71  F   UNL A   1      48.000  26.337  33.080  1.00  0.00    -0.200 F 
ATOM     72  F   UNL A   1      49.976  26.771  31.251  1.00  0.00    -0.200 F 
ENDBRANCH  48  62
BRANCH  49  73
ATOM     73  C   UNL A   1      37.111  32.447  30.013  1.00  0.00     0.064 A 
ATOM     74  C   UNL A   1      36.672  33.195  28.912  1.00  0.00     0.173 A 
ATOM     75  C   UNL A   1      36.224  32.282  31.087  1.00  0.00     0.173 A 
ATOM     76  F   UNL A   1      37.492  33.397  27.870  1.00  0.00    -0.203 F 
ATOM     77  C   UNL A   1      35.407  33.779  28.897  1.00  0.00     0.198 A 
ATOM     78  C   UNL A   1      34.949  32.844  31.059  1.00  0.00     0.198 A 
ATOM     79  F   UNL A   1      36.595  31.571  32.161  1.00  0.00    -0.203 F 
ATOM     80  F   UNL A   1      35.030  34.530  27.853  1.00  0.00    -0.200 F 
ATOM     81  C   UNL A   1      34.545  33.600  29.969  1.00  0.00     0.200 A 
ATOM     82  F   UNL A   1      34.114  32.657  32.090  1.00  0.00    -0.200 F 
ATOM     83  F   UNL A   1      33.329  34.162  29.954  1.00  0.00    -0.200 F 
ENDBRANCH  49  73
BRANCH  61  84
ATOM     84  C   UNL A   1      43.135  34.638  32.726  1.00  0.00     0.064 A 
ATOM     85  C   UNL A   1      43.112  34.736  34.125  1.00  0.00     0.173 A 
ATOM     86  C   UNL A   1      43.599  35.742  31.993  1.00  0.00     0.173 A 
ATOM     87  F   UNL A   1      42.661  33.713  34.865  1.00  0.00    -0.203 F 
ATOM     88  C   UNL A   1      43.525  35.902  34.764  1.00  0.00     0.198 A 
ATOM     89  C   UNL A   1      44.033  36.896  32.638  1.00  0.00     0.198 A 
ATOM     90  F   UNL A   1      43.645  35.692  30.654  1.00  0.00    -0.203 F 
ATOM     91  F   UNL A   1      43.464  35.989  36.100  1.00  0.00    -0.200 F 
ATOM     92  C   UNL A   1      43.993  36.977  34.021  1.00  0.00     0.200 A 
ATOM     93  F   UNL A   1      44.494  37.929  31.920  1.00  0.00    -0.200 F 
ATOM     94  F   UNL A   1      44.399  38.094  34.640  1.00  0.00    -0.200 F 
ENDBRANCH  61  84
ENDBRANCH  35  36
ENDBRANCH  27  30
ENDBRANCH  25  26
ENDBRANCH  24  25
ENDBRANCH   1  24
TORSDOF 15
ENDMDL
