MODEL 1
REMARK VINA RESULT:     -12.3      0.000      0.000
REMARK SMILES C[C@@H](c1ccncc1)N1C[C@@H](C(=O)NCCCNC(=O)c2ccc(-c3c4nc(c(-c5c(F)c(F)c(F)c(F)c5F)c5ccc([nH]5)c(-c5c(F)c(F)c(F)c(F)c5F)c5nc(c(-c6c(F)c(F)c(F)c(F)c6F)c6ccc3[nH]6)C=C5)C=C4)cc2)CC1=O
REMARK SMILES IDX 16 1 15 2 14 3 12 4 13 5 11 7 9 8 10 9 85 10 84 11 86 12
REMARK SMILES IDX 2 13 1 14 3 15 4 16 8 17 5 18 7 19 6 20 17 21 18 22 19 23
REMARK SMILES IDX 20 25 21 26 22 27 83 28 23 29 82 30 24 31 25 32 26 33 76 34
REMARK SMILES IDX 27 35 81 36 75 37 77 38 28 39 80 40 74 41 73 42 29 44 61 45
REMARK SMILES IDX 41 46 60 47 42 48 45 49 59 50 78 51 43 52 44 53 58 55 79 56
REMARK SMILES IDX 46 57 30 58 31 59 39 60 32 61 33 62 37 63 40 64 34 65 35 66
REMARK SMILES IDX 38 67 36 68 62 69 63 70 71 71 64 72 65 73 69 74 72 75 66 76
REMARK SMILES IDX 67 77 70 78 68 79 47 80 48 81 56 82 49 83 50 84 54 85 57 86
REMARK SMILES IDX 51 87 52 88 55 89 53 90
REMARK H PARENT 14 6 18 24 77 43 45 54
REMARK Flexibility Score: inf
ROOT
ATOM      1  C   UNL A   1      38.427  19.572  24.966  1.00  0.00     0.042 C 
ENDROOT
BRANCH   1   2
ATOM      2  C   UNL A   1      37.633  20.817  24.589  1.00  0.00     0.117 C 
BRANCH   2   3
ATOM      3  N   UNL A   1      38.123  22.009  25.263  1.00  0.00    -0.356 N 
ATOM      4  C   UNL A   1      37.494  23.138  25.680  1.00  0.00     0.225 C 
ATOM      5  O   UNL A   1      38.184  23.991  26.245  1.00  0.00    -0.275 OA
ATOM      6  H   UNL A   1      39.088  21.994  25.454  1.00  0.00     0.163 HD
BRANCH   4   7
ATOM      7  C   UNL A   1      36.009  23.370  25.495  1.00  0.00     0.107 C 
ATOM      8  N   UNL A   1      34.185  21.926  25.041  1.00  0.00    -0.335 N 
ATOM      9  C   UNL A   1      35.172  22.238  26.053  1.00  0.00     0.134 C 
ATOM     10  C   UNL A   1      34.368  22.677  23.891  1.00  0.00     0.223 C 
ATOM     11  C   UNL A   1      35.574  23.562  24.055  1.00  0.00     0.115 C 
ATOM     12  O   UNL A   1      33.693  22.659  22.872  1.00  0.00    -0.275 OA
BRANCH   8  13
ATOM     13  C   UNL A   1      33.097  20.961  25.312  1.00  0.00     0.112 C 
ATOM     14  C   UNL A   1      31.681  21.555  25.266  1.00  0.00     0.036 C 
BRANCH  13  15
ATOM     15  C   UNL A   1      33.237  19.692  24.471  1.00  0.00    -0.023 A 
ATOM     16  C   UNL A   1      32.302  19.420  23.460  1.00  0.00     0.026 A 
ATOM     17  C   UNL A   1      34.267  18.763  24.656  1.00  0.00     0.026 A 
ATOM     18  C   UNL A   1      32.412  18.250  22.725  1.00  0.00     0.111 A 
ATOM     19  C   UNL A   1      34.314  17.635  23.847  1.00  0.00     0.111 A 
ATOM     20  N   UNL A   1      33.401  17.352  22.896  1.00  0.00    -0.265 NA
ENDBRANCH  13  15
ENDBRANCH   8  13
ENDBRANCH   4   7
ENDBRANCH   2   3
ENDBRANCH   1   2
BRANCH   1  21
ATOM     21  C   UNL A   1      39.465  19.793  26.060  1.00  0.00     0.118 C 
BRANCH  21  22
ATOM     22  N   UNL A   1      40.625  18.925  25.923  1.00  0.00    -0.352 N 
ATOM     23  C   UNL A   1      41.967  19.202  26.002  1.00  0.00     0.251 C 
ATOM     24  H   UNL A   1      40.412  17.981  25.743  1.00  0.00     0.163 HD
ATOM     25  O   UNL A   1      42.777  18.337  25.679  1.00  0.00    -0.269 OA
BRANCH  23  26
ATOM     26  C   UNL A   1      42.454  20.528  26.446  1.00  0.00     0.039 A 
ATOM     27  C   UNL A   1      42.925  21.418  25.476  1.00  0.00     0.014 A 
ATOM     28  C   UNL A   1      42.490  20.892  27.793  1.00  0.00     0.014 A 
ATOM     29  C   UNL A   1      43.367  22.687  25.851  1.00  0.00     0.010 A 
ATOM     30  C   UNL A   1      42.844  22.191  28.158  1.00  0.00     0.010 A 
ATOM     31  C   UNL A   1      43.289  23.104  27.191  1.00  0.00    -0.014 A 
BRANCH  31  32
ATOM     32  C   UNL A   1      43.646  24.496  27.568  1.00  0.00     0.031 A 
ATOM     33  C   UNL A   1      45.078  24.953  27.588  1.00  0.00     0.074 A 
ATOM     34  C   UNL A   1      42.665  25.350  27.921  1.00  0.00     0.049 A 
ATOM     35  N   UNL A   1      45.565  26.139  27.860  1.00  0.00    -0.248 NA
ATOM     36  C   UNL A   1      46.104  23.942  27.286  1.00  0.00     0.031 C 
ATOM     37  C   UNL A   1      41.243  25.011  28.006  1.00  0.00     0.029 A 
ATOM     38  N   UNL A   1      42.709  26.676  28.268  1.00  0.00    -0.354 N 
ATOM     39  C   UNL A   1      46.945  26.016  27.763  1.00  0.00     0.074 A 
ATOM     40  C   UNL A   1      47.224  24.627  27.471  1.00  0.00     0.031 C 
ATOM     41  C   UNL A   1      40.547  26.109  28.337  1.00  0.00     0.029 A 
ATOM     42  C   UNL A   1      41.474  27.220  28.525  1.00  0.00     0.049 A 
ATOM     43  H   UNL A   1      43.546  27.191  28.326  1.00  0.00     0.167 HD
ATOM     44  C   UNL A   1      47.891  26.979  27.882  1.00  0.00     0.037 A 
ATOM     45  C   UNL A   1      41.125  28.473  28.872  1.00  0.00     0.037 A 
ATOM     46  C   UNL A   1      47.609  28.363  28.168  1.00  0.00     0.049 A 
ATOM     47  C   UNL A   1      42.197  29.520  28.998  1.00  0.00     0.074 A 
ATOM     48  C   UNL A   1      48.493  29.426  28.254  1.00  0.00     0.029 A 
ATOM     49  N   UNL A   1      46.346  28.877  28.424  1.00  0.00    -0.354 N 
ATOM     50  N   UNL A   1      43.491  29.410  28.820  1.00  0.00    -0.248 NA
ATOM     51  C   UNL A   1      41.754  30.873  29.361  1.00  0.00     0.031 C 
ATOM     52  C   UNL A   1      47.773  30.567  28.621  1.00  0.00     0.029 A 
ATOM     53  C   UNL A   1      46.431  30.235  28.697  1.00  0.00     0.049 A 
ATOM     54  H   UNL A   1      45.512  28.354  28.413  1.00  0.00     0.167 HD
ATOM     55  C   UNL A   1      44.014  30.680  29.027  1.00  0.00     0.074 A 
ATOM     56  C   UNL A   1      42.891  31.550  29.309  1.00  0.00     0.031 C 
ATOM     57  C   UNL A   1      45.307  31.089  28.989  1.00  0.00     0.037 A 
BRANCH  44  58
ATOM     58  C   UNL A   1      49.328  26.568  27.704  1.00  0.00     0.064 A 
ATOM     59  C   UNL A   1      49.895  26.402  26.431  1.00  0.00     0.173 A 
ATOM     60  C   UNL A   1      50.160  26.380  28.819  1.00  0.00     0.173 A 
ATOM     61  F   UNL A   1      49.144  26.560  25.330  1.00  0.00    -0.203 F 
ATOM     62  C   UNL A   1      51.230  26.032  26.281  1.00  0.00     0.198 A 
ATOM     63  C   UNL A   1      51.502  26.044  28.664  1.00  0.00     0.198 A 
ATOM     64  F   UNL A   1      49.674  26.531  30.060  1.00  0.00    -0.203 F 
ATOM     65  F   UNL A   1      51.734  25.828  25.056  1.00  0.00    -0.200 F 
ATOM     66  C   UNL A   1      52.034  25.862  27.397  1.00  0.00     0.200 A 
ATOM     67  F   UNL A   1      52.283  25.895  29.745  1.00  0.00    -0.200 F 
ATOM     68  F   UNL A   1      53.321  25.516  27.251  1.00  0.00    -0.200 F 
ENDBRANCH  44  58
BRANCH  45  69
ATOM     69  C   UNL A   1      39.694  28.813  29.096  1.00  0.00     0.064 A 
ATOM     70  C   UNL A   1      39.106  28.663  30.359  1.00  0.00     0.173 A 
ATOM     71  C   UNL A   1      38.884  29.282  28.051  1.00  0.00     0.173 A 
ATOM     72  F   UNL A   1      39.833  28.199  31.386  1.00  0.00    -0.203 F 
ATOM     73  C   UNL A   1      37.756  28.943  30.563  1.00  0.00     0.198 A 
ATOM     74  C   UNL A   1      37.544  29.595  28.264  1.00  0.00     0.198 A 
ATOM     75  F   UNL A   1      39.399  29.450  26.825  1.00  0.00    -0.203 F 
ATOM     76  F   UNL A   1      37.206  28.737  31.768  1.00  0.00    -0.200 F 
ATOM     77  C   UNL A   1      36.977  29.414  29.517  1.00  0.00     0.200 A 
ATOM     78  F   UNL A   1      36.801  30.067  27.255  1.00  0.00    -0.200 F 
ATOM     79  F   UNL A   1      35.681  29.687  29.714  1.00  0.00    -0.200 F 
ENDBRANCH  45  69
BRANCH  57  80
ATOM     80  C   UNL A   1      45.565  32.548  29.240  1.00  0.00     0.064 A 
ATOM     81  C   UNL A   1      45.829  33.043  30.527  1.00  0.00     0.173 A 
ATOM     82  C   UNL A   1      45.539  33.469  28.180  1.00  0.00     0.173 A 
ATOM     83  F   UNL A   1      45.854  32.210  31.579  1.00  0.00    -0.203 F 
ATOM     84  C   UNL A   1      46.002  34.407  30.751  1.00  0.00     0.198 A 
ATOM     85  C   UNL A   1      45.752  34.826  28.401  1.00  0.00     0.198 A 
ATOM     86  F   UNL A   1      45.302  33.051  26.927  1.00  0.00    -0.203 F 
ATOM     87  F   UNL A   1      46.172  34.862  31.999  1.00  0.00    -0.200 F 
ATOM     88  C   UNL A   1      45.967  35.296  29.687  1.00  0.00     0.200 A 
ATOM     89  F   UNL A   1      45.735  35.682  27.370  1.00  0.00    -0.200 F 
ATOM     90  F   UNL A   1      46.127  36.609  29.905  1.00  0.00    -0.200 F 
ENDBRANCH  57  80
ENDBRANCH  31  32
ENDBRANCH  23  26
ENDBRANCH  21  22
ENDBRANCH   1  21
TORSDOF 12
ENDMDL
MODEL 2
REMARK VINA RESULT:     -12.3      6.356     11.322
REMARK SMILES C[C@@H](c1ccncc1)N1C[C@@H](C(=O)NCCCNC(=O)c2ccc(-c3c4nc(c(-c5c(F)c(F)c(F)c(F)c5F)c5ccc([nH]5)c(-c5c(F)c(F)c(F)c(F)c5F)c5nc(c(-c6c(F)c(F)c(F)c(F)c6F)c6ccc3[nH]6)C=C5)C=C4)cc2)CC1=O
REMARK SMILES IDX 16 1 15 2 14 3 12 4 13 5 11 7 9 8 10 9 85 10 84 11 86 12
REMARK SMILES IDX 2 13 1 14 3 15 4 16 8 17 5 18 7 19 6 20 17 21 18 22 19 23
REMARK SMILES IDX 20 25 21 26 22 27 83 28 23 29 82 30 24 31 25 32 26 33 76 34
REMARK SMILES IDX 27 35 81 36 75 37 77 38 28 39 80 40 74 41 73 42 29 44 61 45
REMARK SMILES IDX 41 46 60 47 42 48 45 49 59 50 78 51 43 52 44 53 58 55 79 56
REMARK SMILES IDX 46 57 30 58 31 59 39 60 32 61 33 62 37 63 40 64 34 65 35 66
REMARK SMILES IDX 38 67 36 68 62 69 63 70 71 71 64 72 65 73 69 74 72 75 66 76
REMARK SMILES IDX 67 77 70 78 68 79 47 80 48 81 56 82 49 83 50 84 54 85 57 86
REMARK SMILES IDX 51 87 52 88 55 89 53 90
REMARK H PARENT 14 6 18 24 77 43 45 54
REMARK Flexibility Score: inf
ROOT
ATOM      1  C   UNL A   1      31.458  32.091  26.788  1.00  0.00     0.042 C 
ENDROOT
BRANCH   1   2
ATOM      2  C   UNL A   1      31.656  30.585  26.909  1.00  0.00     0.117 C 
BRANCH   2   3
ATOM      3  N   UNL A   1      33.010  30.237  27.310  1.00  0.00    -0.356 N 
ATOM      4  C   UNL A   1      33.818  29.201  26.969  1.00  0.00     0.225 C 
ATOM      5  O   UNL A   1      34.945  29.176  27.472  1.00  0.00    -0.275 OA
ATOM      6  H   UNL A   1      33.416  30.871  27.944  1.00  0.00     0.163 HD
BRANCH   4   7
ATOM      7  C   UNL A   1      33.400  28.112  26.003  1.00  0.00     0.107 C 
ATOM      8  N   UNL A   1      31.724  27.982  24.332  1.00  0.00    -0.335 N 
ATOM      9  C   UNL A   1      32.956  28.665  24.665  1.00  0.00     0.134 C 
ATOM     10  C   UNL A   1      31.311  27.134  25.347  1.00  0.00     0.223 C 
ATOM     11  C   UNL A   1      32.274  27.225  26.500  1.00  0.00     0.115 C 
ATOM     12  O   UNL A   1      30.327  26.410  25.363  1.00  0.00    -0.275 OA
BRANCH   8  13
ATOM     13  C   UNL A   1      31.084  28.168  23.011  1.00  0.00     0.112 C 
ATOM     14  C   UNL A   1      31.028  26.905  22.138  1.00  0.00     0.036 C 
BRANCH  13  15
ATOM     15  C   UNL A   1      29.733  28.873  23.125  1.00  0.00    -0.023 A 
ATOM     16  C   UNL A   1      29.687  30.256  23.362  1.00  0.00     0.026 A 
ATOM     17  C   UNL A   1      28.509  28.204  23.005  1.00  0.00     0.026 A 
ATOM     18  C   UNL A   1      28.459  30.885  23.501  1.00  0.00     0.111 A 
ATOM     19  C   UNL A   1      27.329  28.926  23.126  1.00  0.00     0.111 A 
ATOM     20  N   UNL A   1      27.278  30.248  23.385  1.00  0.00    -0.265 NA
ENDBRANCH  13  15
ENDBRANCH   8  13
ENDBRANCH   4   7
ENDBRANCH   2   3
ENDBRANCH   1   2
BRANCH   1  21
ATOM     21  C   UNL A   1      32.722  32.913  27.008  1.00  0.00     0.118 C 
BRANCH  21  22
ATOM     22  N   UNL A   1      32.457  34.204  27.626  1.00  0.00    -0.352 N 
ATOM     23  C   UNL A   1      33.034  34.813  28.713  1.00  0.00     0.251 C 
ATOM     24  H   UNL A   1      31.745  34.727  27.193  1.00  0.00     0.163 HD
ATOM     25  O   UNL A   1      32.528  35.838  29.164  1.00  0.00    -0.269 OA
BRANCH  23  26
ATOM     26  C   UNL A   1      34.237  34.246  29.364  1.00  0.00     0.039 A 
ATOM     27  C   UNL A   1      34.058  33.403  30.463  1.00  0.00     0.014 A 
ATOM     28  C   UNL A   1      35.528  34.560  28.936  1.00  0.00     0.014 A 
ATOM     29  C   UNL A   1      35.165  32.827  31.087  1.00  0.00     0.010 A 
ATOM     30  C   UNL A   1      36.629  33.914  29.500  1.00  0.00     0.010 A 
ATOM     31  C   UNL A   1      36.460  33.041  30.584  1.00  0.00    -0.014 A 
BRANCH  31  32
ATOM     32  C   UNL A   1      37.624  32.331  31.175  1.00  0.00     0.031 A 
ATOM     33  C   UNL A   1      38.121  32.667  32.554  1.00  0.00     0.074 A 
ATOM     34  C   UNL A   1      38.254  31.388  30.447  1.00  0.00     0.049 A 
ATOM     35  N   UNL A   1      39.101  32.125  33.235  1.00  0.00    -0.248 NA
ATOM     36  C   UNL A   1      37.449  33.773  33.253  1.00  0.00     0.031 C 
ATOM     37  C   UNL A   1      37.911  31.016  29.073  1.00  0.00     0.029 A 
ATOM     38  N   UNL A   1      39.308  30.567  30.757  1.00  0.00    -0.354 N 
ATOM     39  C   UNL A   1      39.161  32.821  34.436  1.00  0.00     0.074 A 
ATOM     40  C   UNL A   1      38.162  33.866  34.366  1.00  0.00     0.031 C 
ATOM     41  C   UNL A   1      38.707  30.013  28.675  1.00  0.00     0.029 A 
ATOM     42  C   UNL A   1      39.643  29.696  29.749  1.00  0.00     0.049 A 
ATOM     43  H   UNL A   1      39.780  30.598  31.621  1.00  0.00     0.167 HD
ATOM     44  C   UNL A   1      39.958  32.593  35.508  1.00  0.00     0.037 A 
ATOM     45  C   UNL A   1      40.595  28.745  29.696  1.00  0.00     0.037 A 
ATOM     46  C   UNL A   1      40.947  31.548  35.576  1.00  0.00     0.049 A 
ATOM     47  C   UNL A   1      41.466  28.516  30.900  1.00  0.00     0.074 A 
ATOM     48  C   UNL A   1      41.767  31.200  36.637  1.00  0.00     0.029 A 
ATOM     49  N   UNL A   1      41.259  30.684  34.535  1.00  0.00    -0.354 N 
ATOM     50  N   UNL A   1      41.455  29.125  32.061  1.00  0.00    -0.248 NA
ATOM     51  C   UNL A   1      42.474  27.454  30.788  1.00  0.00     0.031 C 
ATOM     52  C   UNL A   1      42.614  30.169  36.218  1.00  0.00     0.029 A 
ATOM     53  C   UNL A   1      42.279  29.825  34.919  1.00  0.00     0.049 A 
ATOM     54  H   UNL A   1      40.822  30.683  33.653  1.00  0.00     0.167 HD
ATOM     55  C   UNL A   1      42.436  28.507  32.825  1.00  0.00     0.074 A 
ATOM     56  C   UNL A   1      42.997  27.453  32.006  1.00  0.00     0.031 C 
ATOM     57  C   UNL A   1      42.839  28.788  34.090  1.00  0.00     0.037 A 
BRANCH  44  58
ATOM     58  C   UNL A   1      39.794  33.495  36.701  1.00  0.00     0.064 A 
ATOM     59  C   UNL A   1      40.516  34.693  36.824  1.00  0.00     0.173 A 
ATOM     60  C   UNL A   1      38.875  33.180  37.714  1.00  0.00     0.173 A 
ATOM     61  F   UNL A   1      41.415  35.040  35.891  1.00  0.00    -0.203 F 
ATOM     62  C   UNL A   1      40.346  35.524  37.930  1.00  0.00     0.198 A 
ATOM     63  C   UNL A   1      38.684  34.030  38.800  1.00  0.00     0.198 A 
ATOM     64  F   UNL A   1      38.153  32.052  37.646  1.00  0.00    -0.203 F 
ATOM     65  F   UNL A   1      41.086  36.635  38.050  1.00  0.00    -0.200 F 
ATOM     66  C   UNL A   1      39.425  35.197  38.912  1.00  0.00     0.200 A 
ATOM     67  F   UNL A   1      37.780  33.720  39.741  1.00  0.00    -0.200 F 
ATOM     68  F   UNL A   1      39.256  36.002  39.970  1.00  0.00    -0.200 F 
ENDBRANCH  44  58
BRANCH  45  69
ATOM     69  C   UNL A   1      40.755  27.920  28.468  1.00  0.00     0.064 A 
ATOM     70  C   UNL A   1      41.573  28.348  27.413  1.00  0.00     0.173 A 
ATOM     71  C   UNL A   1      40.087  26.696  28.320  1.00  0.00     0.173 A 
ATOM     72  F   UNL A   1      42.219  29.520  27.498  1.00  0.00    -0.203 F 
ATOM     73  C   UNL A   1      41.694  27.597  26.246  1.00  0.00     0.198 A 
ATOM     74  C   UNL A   1      40.236  25.929  27.167  1.00  0.00     0.198 A 
ATOM     75  F   UNL A   1      39.297  26.238  29.302  1.00  0.00    -0.203 F 
ATOM     76  F   UNL A   1      42.439  28.056  25.230  1.00  0.00    -0.200 F 
ATOM     77  C   UNL A   1      41.031  26.385  26.126  1.00  0.00     0.200 A 
ATOM     78  F   UNL A   1      39.607  24.751  27.064  1.00  0.00    -0.200 F 
ATOM     79  F   UNL A   1      41.150  25.661  25.005  1.00  0.00    -0.200 F 
ENDBRANCH  45  69
BRANCH  57  80
ATOM     80  C   UNL A   1      43.925  27.922  34.665  1.00  0.00     0.064 A 
ATOM     81  C   UNL A   1      45.282  28.268  34.556  1.00  0.00     0.173 A 
ATOM     82  C   UNL A   1      43.608  26.724  35.324  1.00  0.00     0.173 A 
ATOM     83  F   UNL A   1      45.643  29.396  33.925  1.00  0.00    -0.203 F 
ATOM     84  C   UNL A   1      46.279  27.423  35.038  1.00  0.00     0.198 A 
ATOM     85  C   UNL A   1      44.606  25.902  35.840  1.00  0.00     0.198 A 
ATOM     86  F   UNL A   1      42.328  26.349  35.466  1.00  0.00    -0.203 F 
ATOM     87  F   UNL A   1      47.568  27.737  34.850  1.00  0.00    -0.200 F 
ATOM     88  C   UNL A   1      45.940  26.243  35.682  1.00  0.00     0.200 A 
ATOM     89  F   UNL A   1      44.275  24.770  36.477  1.00  0.00    -0.200 F 
ATOM     90  F   UNL A   1      46.900  25.427  36.138  1.00  0.00    -0.200 F 
ENDBRANCH  57  80
ENDBRANCH  31  32
ENDBRANCH  23  26
ENDBRANCH  21  22
ENDBRANCH   1  21
TORSDOF 12
ENDMDL
MODEL 3
REMARK VINA RESULT:     -12.3      6.355     11.280
REMARK SMILES C[C@@H](c1ccncc1)N1C[C@@H](C(=O)NCCCNC(=O)c2ccc(-c3c4nc(c(-c5c(F)c(F)c(F)c(F)c5F)c5ccc([nH]5)c(-c5c(F)c(F)c(F)c(F)c5F)c5nc(c(-c6c(F)c(F)c(F)c(F)c6F)c6ccc3[nH]6)C=C5)C=C4)cc2)CC1=O
REMARK SMILES IDX 16 1 15 2 14 3 12 4 13 5 11 7 9 8 10 9 85 10 84 11 86 12
REMARK SMILES IDX 2 13 1 14 3 15 4 16 8 17 5 18 7 19 6 20 17 21 18 22 19 23
REMARK SMILES IDX 20 25 21 26 22 27 83 28 23 29 82 30 24 31 25 32 26 33 76 34
REMARK SMILES IDX 27 35 81 36 75 37 77 38 28 39 80 40 74 41 73 42 29 44 61 45
REMARK SMILES IDX 41 46 60 47 42 48 45 49 59 50 78 51 43 52 44 53 58 55 79 56
REMARK SMILES IDX 46 57 30 58 31 59 39 60 32 61 33 62 37 63 40 64 34 65 35 66
REMARK SMILES IDX 38 67 36 68 62 69 63 70 71 71 64 72 65 73 69 74 72 75 66 76
REMARK SMILES IDX 67 77 70 78 68 79 47 80 48 81 56 82 49 83 50 84 54 85 57 86
REMARK SMILES IDX 51 87 52 88 55 89 53 90
REMARK H PARENT 14 6 18 24 77 43 45 54
REMARK Flexibility Score: inf
ROOT
ATOM      1  C   UNL A   1      31.421  32.098  26.847  1.00  0.00     0.042 C 
ENDROOT
BRANCH   1   2
ATOM      2  C   UNL A   1      31.646  30.591  26.879  1.00  0.00     0.117 C 
BRANCH   2   3
ATOM      3  N   UNL A   1      32.981  30.243  27.339  1.00  0.00    -0.356 N 
ATOM      4  C   UNL A   1      33.808  29.214  27.023  1.00  0.00     0.225 C 
ATOM      5  O   UNL A   1      34.910  29.185  27.578  1.00  0.00    -0.275 OA
ATOM      6  H   UNL A   1      33.354  30.868  28.001  1.00  0.00     0.163 HD
BRANCH   4   7
ATOM      7  C   UNL A   1      33.440  28.137  26.023  1.00  0.00     0.107 C 
ATOM      8  N   UNL A   1      31.767  27.979  24.352  1.00  0.00    -0.335 N 
ATOM      9  C   UNL A   1      32.966  28.710  24.704  1.00  0.00     0.134 C 
ATOM     10  C   UNL A   1      31.400  27.080  25.340  1.00  0.00     0.223 C 
ATOM     11  C   UNL A   1      32.361  27.181  26.494  1.00  0.00     0.115 C 
ATOM     12  O   UNL A   1      30.452  26.308  25.334  1.00  0.00    -0.275 OA
BRANCH   8  13
ATOM     13  C   UNL A   1      31.115  28.175  23.038  1.00  0.00     0.112 C 
ATOM     14  C   UNL A   1      31.017  26.910  22.171  1.00  0.00     0.036 C 
BRANCH  13  15
ATOM     15  C   UNL A   1      29.783  28.913  23.167  1.00  0.00    -0.023 A 
ATOM     16  C   UNL A   1      28.578  28.203  23.045  1.00  0.00     0.026 A 
ATOM     17  C   UNL A   1      29.693  30.290  23.402  1.00  0.00     0.026 A 
ATOM     18  C   UNL A   1      27.373  28.883  23.126  1.00  0.00     0.111 A 
ATOM     19  C   UNL A   1      28.439  30.878  23.501  1.00  0.00     0.111 A 
ATOM     20  N   UNL A   1      27.278  30.207  23.354  1.00  0.00    -0.265 NA
ENDBRANCH  13  15
ENDBRANCH   8  13
ENDBRANCH   4   7
ENDBRANCH   2   3
ENDBRANCH   1   2
BRANCH   1  21
ATOM     21  C   UNL A   1      32.687  32.929  27.017  1.00  0.00     0.118 C 
BRANCH  21  22
ATOM     22  N   UNL A   1      32.436  34.227  27.626  1.00  0.00    -0.352 N 
ATOM     23  C   UNL A   1      33.023  34.840  28.705  1.00  0.00     0.251 C 
ATOM     24  H   UNL A   1      31.726  34.752  27.193  1.00  0.00     0.163 HD
ATOM     25  O   UNL A   1      32.528  35.872  29.150  1.00  0.00    -0.269 OA
BRANCH  23  26
ATOM     26  C   UNL A   1      34.225  34.268  29.354  1.00  0.00     0.039 A 
ATOM     27  C   UNL A   1      34.044  33.425  30.454  1.00  0.00     0.014 A 
ATOM     28  C   UNL A   1      35.517  34.578  28.926  1.00  0.00     0.014 A 
ATOM     29  C   UNL A   1      35.150  32.845  31.076  1.00  0.00     0.010 A 
ATOM     30  C   UNL A   1      36.616  33.927  29.488  1.00  0.00     0.010 A 
ATOM     31  C   UNL A   1      36.445  33.055  30.572  1.00  0.00    -0.014 A 
BRANCH  31  32
ATOM     32  C   UNL A   1      37.607  32.340  31.162  1.00  0.00     0.031 A 
ATOM     33  C   UNL A   1      38.102  32.668  32.543  1.00  0.00     0.074 A 
ATOM     34  C   UNL A   1      38.238  31.401  30.429  1.00  0.00     0.049 A 
ATOM     35  N   UNL A   1      39.080  32.121  33.224  1.00  0.00    -0.248 NA
ATOM     36  C   UNL A   1      37.428  33.770  33.248  1.00  0.00     0.031 C 
ATOM     37  C   UNL A   1      37.897  31.037  29.052  1.00  0.00     0.029 A 
ATOM     38  N   UNL A   1      39.291  30.577  30.737  1.00  0.00    -0.354 N 
ATOM     39  C   UNL A   1      39.137  32.810  34.428  1.00  0.00     0.074 A 
ATOM     40  C   UNL A   1      38.140  33.857  34.363  1.00  0.00     0.031 C 
ATOM     41  C   UNL A   1      38.694  30.035  28.651  1.00  0.00     0.029 A 
ATOM     42  C   UNL A   1      39.628  29.712  29.725  1.00  0.00     0.049 A 
ATOM     43  H   UNL A   1      39.761  30.603  31.602  1.00  0.00     0.167 HD
ATOM     44  C   UNL A   1      39.931  32.576  35.501  1.00  0.00     0.037 A 
ATOM     45  C   UNL A   1      40.579  28.761  29.669  1.00  0.00     0.037 A 
ATOM     46  C   UNL A   1      40.920  31.529  35.565  1.00  0.00     0.049 A 
ATOM     47  C   UNL A   1      41.447  28.524  30.873  1.00  0.00     0.074 A 
ATOM     48  C   UNL A   1      41.737  31.174  36.626  1.00  0.00     0.029 A 
ATOM     49  N   UNL A   1      41.234  30.671  34.520  1.00  0.00    -0.354 N 
ATOM     50  N   UNL A   1      41.434  29.126  32.037  1.00  0.00    -0.248 NA
ATOM     51  C   UNL A   1      42.455  27.462  30.758  1.00  0.00     0.031 C 
ATOM     52  C   UNL A   1      42.584  30.145  36.203  1.00  0.00     0.029 A 
ATOM     53  C   UNL A   1      42.252  29.809  34.902  1.00  0.00     0.049 A 
ATOM     54  H   UNL A   1      40.798  30.675  33.637  1.00  0.00     0.167 HD
ATOM     55  C   UNL A   1      42.413  28.502  32.800  1.00  0.00     0.074 A 
ATOM     56  C   UNL A   1      42.975  27.453  31.976  1.00  0.00     0.031 C 
ATOM     57  C   UNL A   1      42.813  28.776  34.067  1.00  0.00     0.037 A 
BRANCH  44  58
ATOM     58  C   UNL A   1      39.766  33.471  36.699  1.00  0.00     0.064 A 
ATOM     59  C   UNL A   1      38.867  33.162  37.732  1.00  0.00     0.173 A 
ATOM     60  C   UNL A   1      40.545  34.630  36.837  1.00  0.00     0.173 A 
ATOM     61  F   UNL A   1      38.090  32.071  37.649  1.00  0.00    -0.203 F 
ATOM     62  C   UNL A   1      38.732  33.995  38.841  1.00  0.00     0.198 A 
ATOM     63  C   UNL A   1      40.432  35.442  37.963  1.00  0.00     0.198 A 
ATOM     64  F   UNL A   1      41.425  34.972  35.884  1.00  0.00    -0.203 F 
ATOM     65  F   UNL A   1      37.829  33.705  39.788  1.00  0.00    -0.200 F 
ATOM     66  C   UNL A   1      39.520  35.128  38.960  1.00  0.00     0.200 A 
ATOM     67  F   UNL A   1      41.207  36.530  38.084  1.00  0.00    -0.200 F 
ATOM     68  F   UNL A   1      39.396  35.924  40.031  1.00  0.00    -0.200 F 
ENDBRANCH  44  58
BRANCH  45  69
ATOM     69  C   UNL A   1      40.741  27.943  28.436  1.00  0.00     0.064 A 
ATOM     70  C   UNL A   1      40.090  26.709  28.298  1.00  0.00     0.173 A 
ATOM     71  C   UNL A   1      41.558  28.370  27.379  1.00  0.00     0.173 A 
ATOM     72  F   UNL A   1      39.313  26.247  29.289  1.00  0.00    -0.203 F 
ATOM     73  C   UNL A   1      40.270  25.923  27.162  1.00  0.00     0.198 A 
ATOM     74  C   UNL A   1      41.710  27.599  26.230  1.00  0.00     0.198 A 
ATOM     75  F   UNL A   1      42.199  29.546  27.458  1.00  0.00    -0.203 F 
ATOM     76  F   UNL A   1      39.679  24.722  27.080  1.00  0.00    -0.200 F 
ATOM     77  C   UNL A   1      41.075  26.370  26.126  1.00  0.00     0.200 A 
ATOM     78  F   UNL A   1      42.475  28.045  25.224  1.00  0.00    -0.200 F 
ATOM     79  F   UNL A   1      41.246  25.616  25.033  1.00  0.00    -0.200 F 
ENDBRANCH  45  69
BRANCH  57  80
ATOM     80  C   UNL A   1      43.897  27.906  34.640  1.00  0.00     0.064 A 
ATOM     81  C   UNL A   1      43.610  26.689  35.278  1.00  0.00     0.173 A 
ATOM     82  C   UNL A   1      45.243  28.299  34.560  1.00  0.00     0.173 A 
ATOM     83  F   UNL A   1      42.340  26.270  35.394  1.00  0.00    -0.203 F 
ATOM     84  C   UNL A   1      44.620  25.927  35.860  1.00  0.00     0.198 A 
ATOM     85  C   UNL A   1      46.254  27.515  35.107  1.00  0.00     0.198 A 
ATOM     86  F   UNL A   1      45.577  29.448  33.952  1.00  0.00    -0.203 F 
ATOM     87  F   UNL A   1      44.311  24.811  36.532  1.00  0.00    -0.200 F 
ATOM     88  C   UNL A   1      45.941  26.339  35.771  1.00  0.00     0.200 A 
ATOM     89  F   UNL A   1      47.532  27.906  35.005  1.00  0.00    -0.200 F 
ATOM     90  F   UNL A   1      46.912  25.609  36.337  1.00  0.00    -0.200 F 
ENDBRANCH  57  80
ENDBRANCH  31  32
ENDBRANCH  23  26
ENDBRANCH  21  22
ENDBRANCH   1  21
TORSDOF 12
ENDMDL
