MODEL 1
REMARK VINA RESULT:     -11.6      0.000      0.000
REMARK SMILES CC(=O)N[C@@H](CCC(=O)NCCCNC(=O)c1ccc(-c2c3nc(c(-c4c(F)c(F)c(F)c(F)c4F)c4ccc([nH]4)c(-c4c(F)c(F)c(F)c(F)c4F)c4nc(c(-c5c(F)c(F)c(F)c(F)c5F)c5ccc2[nH]5)C=C4)C=C3)cc1)Cc1nc(C)ccc1O
REMARK SMILES IDX 8 1 9 2 10 3 7 5 6 6 5 7 4 8 1 9 2 10 3 11 80 13 81 14 82 15
REMARK SMILES IDX 87 16 83 17 86 18 84 19 85 20 88 21 11 23 12 24 13 25 14 26
REMARK SMILES IDX 15 27 16 29 17 30 18 31 79 32 19 33 78 34 20 35 21 36 22 37
REMARK SMILES IDX 72 38 23 39 77 40 71 41 73 42 24 43 76 44 70 45 69 46 25 48
REMARK SMILES IDX 57 49 37 50 56 51 38 52 41 53 55 54 74 55 39 56 40 57 54 59
REMARK SMILES IDX 75 60 42 61 26 62 27 63 35 64 28 65 29 66 33 67 36 68 30 69
REMARK SMILES IDX 31 70 34 71 32 72 58 73 59 74 67 75 60 76 61 77 65 78 68 79
REMARK SMILES IDX 62 80 63 81 66 82 64 83 43 84 44 85 52 86 45 87 46 88 50 89
REMARK SMILES IDX 53 90 47 91 48 92 51 93 49 94
REMARK H PARENT 10 4 4 12 88 22 14 28 73 47 41 58
REMARK Flexibility Score: inf
ROOT
ATOM      1  C   UNL A   1      32.904  29.079  27.143  1.00  0.00     0.220 C 
ATOM      2  O   UNL A   1      34.084  28.825  27.393  1.00  0.00    -0.275 OA
ATOM      3  N   UNL A   1      32.636  30.176  26.386  1.00  0.00    -0.356 N 
ATOM      4  H   UNL A   1      33.432  30.609  26.002  1.00  0.00     0.163 HD
ENDROOT
BRANCH   1   5
ATOM      5  C   UNL A   1      31.792  28.165  27.612  1.00  0.00     0.102 C 
BRANCH   5   6
ATOM      6  C   UNL A   1      31.144  27.332  26.487  1.00  0.00     0.035 C 
BRANCH   6   7
ATOM      7  C   UNL A   1      31.999  26.199  25.865  1.00  0.00     0.088 C 
BRANCH   7   8
ATOM      8  N   UNL A   1      31.898  26.235  24.403  1.00  0.00    -0.353 N 
ATOM      9  C   UNL A   1      33.882  27.638  23.976  1.00  0.00     0.114 C 
ATOM     10  C   UNL A   1      32.721  26.821  23.490  1.00  0.00     0.217 C 
ATOM     11  O   UNL A   1      32.486  26.674  22.289  1.00  0.00    -0.275 OA
ATOM     12  H   UNL A   1      31.119  25.766  24.025  1.00  0.00     0.163 HD
ENDBRANCH   7   8
BRANCH   7  13
ATOM     13  C   UNL A   1      31.686  24.823  26.501  1.00  0.00     0.085 C 
BRANCH  13  14
ATOM     14  C   UNL A   1      32.839  23.849  26.517  1.00  0.00     0.084 A 
ATOM     15  N   UNL A   1      33.916  24.197  25.764  1.00  0.00    -0.254 NA
ATOM     16  C   UNL A   1      32.833  22.686  27.269  1.00  0.00     0.137 A 
ATOM     17  C   UNL A   1      35.014  23.412  25.761  1.00  0.00     0.038 A 
ATOM     18  C   UNL A   1      33.969  21.883  27.273  1.00  0.00     0.050 A 
ATOM     19  C   UNL A   1      36.180  23.890  24.951  1.00  0.00     0.067 C 
ATOM     20  C   UNL A   1      35.079  22.249  26.511  1.00  0.00     0.027 A 
BRANCH  16  21
ATOM     21  O   UNL A   1      31.741  22.349  28.012  1.00  0.00    -0.506 OA
ATOM     22  H   UNL A   1      31.258  23.012  28.462  1.00  0.00     0.293 HD
ENDBRANCH  16  21
ENDBRANCH  13  14
ENDBRANCH   7  13
ENDBRANCH   6   7
ENDBRANCH   5   6
ENDBRANCH   1   5
BRANCH   3  23
ATOM     23  C   UNL A   1      31.381  30.825  26.043  1.00  0.00     0.117 C 
BRANCH  23  24
ATOM     24  C   UNL A   1      31.323  32.284  26.494  1.00  0.00     0.042 C 
BRANCH  24  25
ATOM     25  C   UNL A   1      32.567  32.806  27.245  1.00  0.00     0.118 C 
BRANCH  25  26
ATOM     26  N   UNL A   1      32.419  34.201  27.625  1.00  0.00    -0.352 N 
ATOM     27  C   UNL A   1      32.962  34.966  28.624  1.00  0.00     0.251 C 
ATOM     28  H   UNL A   1      31.799  34.700  27.046  1.00  0.00     0.163 HD
ATOM     29  O   UNL A   1      32.446  36.071  28.813  1.00  0.00    -0.269 OA
BRANCH  27  30
ATOM     30  C   UNL A   1      34.131  34.596  29.480  1.00  0.00     0.039 A 
ATOM     31  C   UNL A   1      35.391  34.600  28.854  1.00  0.00     0.014 A 
ATOM     32  C   UNL A   1      34.035  34.051  30.763  1.00  0.00     0.014 A 
ATOM     33  C   UNL A   1      36.519  34.032  29.464  1.00  0.00     0.010 A 
ATOM     34  C   UNL A   1      35.176  33.494  31.387  1.00  0.00     0.010 A 
ATOM     35  C   UNL A   1      36.420  33.439  30.727  1.00  0.00    -0.014 A 
BRANCH  35  36
ATOM     36  C   UNL A   1      37.571  32.655  31.276  1.00  0.00     0.031 A 
ATOM     37  C   UNL A   1      38.130  32.990  32.637  1.00  0.00     0.074 A 
ATOM     38  C   UNL A   1      38.100  31.606  30.615  1.00  0.00     0.049 A 
ATOM     39  N   UNL A   1      39.111  32.424  33.300  1.00  0.00    -0.248 NA
ATOM     40  C   UNL A   1      37.486  34.101  33.352  1.00  0.00     0.031 C 
ATOM     41  C   UNL A   1      37.628  31.100  29.333  1.00  0.00     0.029 A 
ATOM     42  N   UNL A   1      39.150  30.775  30.935  1.00  0.00    -0.354 N 
ATOM     43  C   UNL A   1      39.200  33.105  34.507  1.00  0.00     0.074 A 
ATOM     44  C   UNL A   1      38.199  34.152  34.468  1.00  0.00     0.031 C 
ATOM     45  C   UNL A   1      38.393  30.060  28.960  1.00  0.00     0.029 A 
ATOM     46  C   UNL A   1      39.422  29.831  29.975  1.00  0.00     0.049 A 
ATOM     47  H   UNL A   1      39.658  30.850  31.775  1.00  0.00     0.167 HD
ATOM     48  C   UNL A   1      40.024  32.878  35.561  1.00  0.00     0.037 A 
ATOM     49  C   UNL A   1      40.387  28.891  29.909  1.00  0.00     0.037 A 
ATOM     50  C   UNL A   1      41.025  31.844  35.623  1.00  0.00     0.049 A 
ATOM     51  C   UNL A   1      41.366  28.727  31.044  1.00  0.00     0.074 A 
ATOM     52  C   UNL A   1      41.882  31.534  36.666  1.00  0.00     0.029 A 
ATOM     53  N   UNL A   1      41.317  30.958  34.597  1.00  0.00    -0.354 N 
ATOM     54  N   UNL A   1      41.418  29.358  32.189  1.00  0.00    -0.248 NA
ATOM     55  C   UNL A   1      42.416  27.709  30.876  1.00  0.00     0.031 C 
ATOM     56  C   UNL A   1      42.728  30.497  36.252  1.00  0.00     0.029 A 
ATOM     57  C   UNL A   1      42.364  30.126  34.969  1.00  0.00     0.049 A 
ATOM     58  H   UNL A   1      40.849  30.925  33.731  1.00  0.00     0.167 HD
ATOM     59  C   UNL A   1      42.476  28.792  32.892  1.00  0.00     0.074 A 
ATOM     60  C   UNL A   1      43.039  27.764  32.044  1.00  0.00     0.031 C 
ATOM     61  C   UNL A   1      42.927  29.097  34.134  1.00  0.00     0.037 A 
BRANCH  48  62
ATOM     62  C   UNL A   1      39.891  33.797  36.740  1.00  0.00     0.064 A 
ATOM     63  C   UNL A   1      39.035  33.503  37.812  1.00  0.00     0.173 A 
ATOM     64  C   UNL A   1      40.642  34.981  36.804  1.00  0.00     0.173 A 
ATOM     65  F   UNL A   1      38.292  32.387  37.795  1.00  0.00    -0.203 F 
ATOM     66  C   UNL A   1      38.907  34.380  38.886  1.00  0.00     0.198 A 
ATOM     67  C   UNL A   1      40.533  35.840  37.894  1.00  0.00     0.198 A 
ATOM     68  F   UNL A   1      41.485  35.302  35.811  1.00  0.00    -0.203 F 
ATOM     69  F   UNL A   1      38.042  34.105  39.873  1.00  0.00    -0.200 F 
ATOM     70  C   UNL A   1      39.657  35.545  38.928  1.00  0.00     0.200 A 
ATOM     71  F   UNL A   1      41.268  36.959  37.939  1.00  0.00    -0.200 F 
ATOM     72  F   UNL A   1      39.530  36.389  39.961  1.00  0.00    -0.200 F 
ENDBRANCH  48  62
BRANCH  49  73
ATOM     73  C   UNL A   1      40.477  28.007  28.717  1.00  0.00     0.064 A 
ATOM     74  C   UNL A   1      39.808  26.776  28.678  1.00  0.00     0.173 A 
ATOM     75  C   UNL A   1      41.245  28.370  27.602  1.00  0.00     0.173 A 
ATOM     76  F   UNL A   1      39.084  26.375  29.734  1.00  0.00    -0.203 F 
ATOM     77  C   UNL A   1      39.912  25.936  27.571  1.00  0.00     0.198 A 
ATOM     78  C   UNL A   1      41.331  27.539  26.487  1.00  0.00     0.198 A 
ATOM     79  F   UNL A   1      41.907  29.537  27.592  1.00  0.00    -0.203 F 
ATOM     80  F   UNL A   1      39.291  24.749  27.574  1.00  0.00    -0.200 F 
ATOM     81  C   UNL A   1      40.669  26.321  26.474  1.00  0.00     0.200 A 
ATOM     82  F   UNL A   1      42.055  27.920  25.426  1.00  0.00    -0.200 F 
ATOM     83  F   UNL A   1      40.763  25.516  25.408  1.00  0.00    -0.200 F 
ENDBRANCH  49  73
BRANCH  61  84
ATOM     84  C   UNL A   1      44.069  28.286  34.681  1.00  0.00     0.064 A 
ATOM     85  C   UNL A   1      45.401  28.701  34.546  1.00  0.00     0.173 A 
ATOM     86  C   UNL A   1      43.822  27.097  35.387  1.00  0.00     0.173 A 
ATOM     87  F   UNL A   1      45.695  29.819  33.866  1.00  0.00    -0.203 F 
ATOM     88  C   UNL A   1      46.445  27.946  35.079  1.00  0.00     0.198 A 
ATOM     89  C   UNL A   1      44.866  26.359  35.941  1.00  0.00     0.198 A 
ATOM     90  F   UNL A   1      42.565  26.655  35.548  1.00  0.00    -0.203 F 
ATOM     91  F   UNL A   1      47.714  28.341  34.901  1.00  0.00    -0.200 F 
ATOM     92  C   UNL A   1      46.177  26.782  35.782  1.00  0.00     0.200 A 
ATOM     93  F   UNL A   1      44.603  25.240  36.629  1.00  0.00    -0.200 F 
ATOM     94  F   UNL A   1      47.182  26.061  36.299  1.00  0.00    -0.200 F 
ENDBRANCH  61  84
ENDBRANCH  35  36
ENDBRANCH  27  30
ENDBRANCH  25  26
ENDBRANCH  24  25
ENDBRANCH  23  24
ENDBRANCH   3  23
TORSDOF 16
ENDMDL
MODEL 2
REMARK VINA RESULT:     -11.6      1.228      7.512
REMARK SMILES CC(=O)N[C@@H](CCC(=O)NCCCNC(=O)c1ccc(-c2c3nc(c(-c4c(F)c(F)c(F)c(F)c4F)c4ccc([nH]4)c(-c4c(F)c(F)c(F)c(F)c4F)c4nc(c(-c5c(F)c(F)c(F)c(F)c5F)c5ccc2[nH]5)C=C4)C=C3)cc1)Cc1nc(C)ccc1O
REMARK SMILES IDX 8 1 9 2 10 3 7 5 6 6 5 7 4 8 1 9 2 10 3 11 80 13 81 14 82 15
REMARK SMILES IDX 87 16 83 17 86 18 84 19 85 20 88 21 11 23 12 24 13 25 14 26
REMARK SMILES IDX 15 27 16 29 17 30 18 31 79 32 19 33 78 34 20 35 21 36 22 37
REMARK SMILES IDX 72 38 23 39 77 40 71 41 73 42 24 43 76 44 70 45 69 46 25 48
REMARK SMILES IDX 57 49 37 50 56 51 38 52 41 53 55 54 74 55 39 56 40 57 54 59
REMARK SMILES IDX 75 60 42 61 26 62 27 63 35 64 28 65 29 66 33 67 36 68 30 69
REMARK SMILES IDX 31 70 34 71 32 72 58 73 59 74 67 75 60 76 61 77 65 78 68 79
REMARK SMILES IDX 62 80 63 81 66 82 64 83 43 84 44 85 52 86 45 87 46 88 50 89
REMARK SMILES IDX 53 90 47 91 48 92 51 93 49 94
REMARK H PARENT 10 4 4 12 88 22 14 28 73 47 41 58
REMARK Flexibility Score: inf
ROOT
ATOM      1  C   UNL A   1      31.024  28.935  24.007  1.00  0.00     0.220 C 
ATOM      2  O   UNL A   1      30.814  29.025  22.796  1.00  0.00    -0.275 OA
ATOM      3  N   UNL A   1      31.307  30.076  24.691  1.00  0.00    -0.356 N 
ATOM      4  H   UNL A   1      31.200  30.901  24.165  1.00  0.00     0.163 HD
ENDROOT
BRANCH   1   5
ATOM      5  C   UNL A   1      30.912  27.605  24.723  1.00  0.00     0.102 C 
BRANCH   5   6
ATOM      6  C   UNL A   1      30.472  26.438  23.816  1.00  0.00     0.035 C 
BRANCH   6   7
ATOM      7  C   UNL A   1      31.511  25.317  23.552  1.00  0.00     0.088 C 
BRANCH   7   8
ATOM      8  N   UNL A   1      31.802  25.227  22.118  1.00  0.00    -0.353 N 
ATOM      9  C   UNL A   1      33.644  26.867  22.058  1.00  0.00     0.114 C 
ATOM     10  C   UNL A   1      32.763  25.855  21.386  1.00  0.00     0.217 C 
ATOM     11  O   UNL A   1      32.879  25.584  20.190  1.00  0.00    -0.275 OA
ATOM     12  H   UNL A   1      31.215  24.622  21.609  1.00  0.00     0.163 HD
ENDBRANCH   7   8
BRANCH   7  13
ATOM     13  C   UNL A   1      31.100  23.981  24.215  1.00  0.00     0.085 C 
BRANCH  13  14
ATOM     14  C   UNL A   1      32.230  23.004  24.436  1.00  0.00     0.084 A 
ATOM     15  N   UNL A   1      33.407  23.317  23.833  1.00  0.00    -0.254 NA
ATOM     16  C   UNL A   1      32.103  21.872  25.226  1.00  0.00     0.137 A 
ATOM     17  C   UNL A   1      34.486  22.527  24.020  1.00  0.00     0.038 A 
ATOM     18  C   UNL A   1      33.220  21.066  25.426  1.00  0.00     0.050 A 
ATOM     19  C   UNL A   1      35.762  22.967  23.368  1.00  0.00     0.067 C 
ATOM     20  C   UNL A   1      34.431  21.396  24.818  1.00  0.00     0.027 A 
BRANCH  16  21
ATOM     21  O   UNL A   1      30.913  21.570  25.816  1.00  0.00    -0.506 OA
ATOM     22  H   UNL A   1      30.897  21.211  26.681  1.00  0.00     0.293 HD
ENDBRANCH  16  21
ENDBRANCH  13  14
ENDBRANCH   7  13
ENDBRANCH   6   7
ENDBRANCH   5   6
ENDBRANCH   1   5
BRANCH   3  23
ATOM     23  C   UNL A   1      31.739  30.294  26.062  1.00  0.00     0.117 C 
BRANCH  23  24
ATOM     24  C   UNL A   1      31.541  31.737  26.525  1.00  0.00     0.042 C 
BRANCH  24  25
ATOM     25  C   UNL A   1      32.707  32.353  27.327  1.00  0.00     0.118 C 
BRANCH  25  26
ATOM     26  N   UNL A   1      32.513  33.776  27.551  1.00  0.00    -0.352 N 
ATOM     27  C   UNL A   1      33.003  34.657  28.479  1.00  0.00     0.251 C 
ATOM     28  H   UNL A   1      31.903  34.193  26.901  1.00  0.00     0.163 HD
ATOM     29  O   UNL A   1      32.455  35.762  28.531  1.00  0.00    -0.269 OA
BRANCH  27  30
ATOM     30  C   UNL A   1      34.148  34.412  29.408  1.00  0.00     0.039 A 
ATOM     31  C   UNL A   1      35.424  34.329  28.820  1.00  0.00     0.014 A 
ATOM     32  C   UNL A   1      34.019  34.052  30.752  1.00  0.00     0.014 A 
ATOM     33  C   UNL A   1      36.534  33.853  29.531  1.00  0.00     0.010 A 
ATOM     34  C   UNL A   1      35.142  33.589  31.477  1.00  0.00     0.010 A 
ATOM     35  C   UNL A   1      36.402  33.443  30.862  1.00  0.00    -0.014 A 
BRANCH  35  36
ATOM     36  C   UNL A   1      37.537  32.744  31.545  1.00  0.00     0.031 A 
ATOM     37  C   UNL A   1      38.202  31.563  30.883  1.00  0.00     0.074 A 
ATOM     38  C   UNL A   1      38.032  33.172  32.723  1.00  0.00     0.049 A 
ATOM     39  N   UNL A   1      39.208  30.830  31.299  1.00  0.00    -0.248 NA
ATOM     40  C   UNL A   1      37.672  31.165  29.572  1.00  0.00     0.031 C 
ATOM     41  C   UNL A   1      37.562  34.341  33.455  1.00  0.00     0.029 A 
ATOM     42  N   UNL A   1      39.046  32.673  33.510  1.00  0.00    -0.354 N 
ATOM     43  C   UNL A   1      39.433  29.890  30.302  1.00  0.00     0.074 A 
ATOM     44  C   UNL A   1      38.433  30.121  29.279  1.00  0.00     0.031 C 
ATOM     45  C   UNL A   1      38.266  34.462  34.593  1.00  0.00     0.029 A 
ATOM     46  C   UNL A   1      39.234  33.369  34.679  1.00  0.00     0.049 A 
ATOM     47  H   UNL A   1      39.585  31.889  33.258  1.00  0.00     0.167 HD
ATOM     48  C   UNL A   1      40.391  28.931  30.228  1.00  0.00     0.037 A 
ATOM     49  C   UNL A   1      40.083  33.157  35.706  1.00  0.00     0.037 A 
ATOM     50  C   UNL A   1      41.395  28.683  31.230  1.00  0.00     0.049 A 
ATOM     51  C   UNL A   1      41.066  32.015  35.656  1.00  0.00     0.074 A 
ATOM     52  C   UNL A   1      42.416  27.747  31.217  1.00  0.00     0.029 A 
ATOM     53  N   UNL A   1      41.502  29.365  32.433  1.00  0.00    -0.354 N 
ATOM     54  N   UNL A   1      41.286  31.155  34.694  1.00  0.00    -0.248 NA
ATOM     55  C   UNL A   1      41.926  31.825  36.835  1.00  0.00     0.031 C 
ATOM     56  C   UNL A   1      43.106  27.825  32.433  1.00  0.00     0.029 A 
ATOM     57  C   UNL A   1      42.547  28.845  33.184  1.00  0.00     0.049 A 
ATOM     58  H   UNL A   1      40.921  30.109  32.713  1.00  0.00     0.167 HD
ATOM     59  C   UNL A   1      42.329  30.348  35.133  1.00  0.00     0.074 A 
ATOM     60  C   UNL A   1      42.701  30.821  36.449  1.00  0.00     0.031 C 
ATOM     61  C   UNL A   1      42.928  29.314  34.491  1.00  0.00     0.037 A 
BRANCH  48  62
ATOM     62  C   UNL A   1      40.378  28.047  29.014  1.00  0.00     0.064 A 
ATOM     63  C   UNL A   1      39.651  26.847  28.983  1.00  0.00     0.173 A 
ATOM     64  C   UNL A   1      41.091  28.415  27.863  1.00  0.00     0.173 A 
ATOM     65  F   UNL A   1      38.959  26.450  30.061  1.00  0.00    -0.203 F 
ATOM     66  C   UNL A   1      39.670  26.029  27.857  1.00  0.00     0.198 A 
ATOM     67  C   UNL A   1      41.084  27.607  26.729  1.00  0.00     0.198 A 
ATOM     68  F   UNL A   1      41.791  29.558  27.836  1.00  0.00    -0.203 F 
ATOM     69  F   UNL A   1      39.014  24.860  27.869  1.00  0.00    -0.200 F 
ATOM     70  C   UNL A   1      40.384  26.411  26.731  1.00  0.00     0.200 A 
ATOM     71  F   UNL A   1      41.762  27.984  25.636  1.00  0.00    -0.200 F 
ATOM     72  F   UNL A   1      40.404  25.619  25.649  1.00  0.00    -0.200 F 
ENDBRANCH  48  62
BRANCH  49  73
ATOM     73  C   UNL A   1      40.053  34.060  36.887  1.00  0.00     0.064 A 
ATOM     74  C   UNL A   1      40.843  35.217  36.931  1.00  0.00     0.173 A 
ATOM     75  C   UNL A   1      39.246  33.776  37.997  1.00  0.00     0.173 A 
ATOM     76  F   UNL A   1      41.653  35.514  35.904  1.00  0.00    -0.203 F 
ATOM     77  C   UNL A   1      40.835  36.051  38.048  1.00  0.00     0.198 A 
ATOM     78  C   UNL A   1      39.222  34.621  39.104  1.00  0.00     0.198 A 
ATOM     79  F   UNL A   1      38.473  32.679  38.004  1.00  0.00    -0.203 F 
ATOM     80  F   UNL A   1      41.626  37.131  38.081  1.00  0.00    -0.200 F 
ATOM     81  C   UNL A   1      40.019  35.756  39.131  1.00  0.00     0.200 A 
ATOM     82  F   UNL A   1      38.425  34.338  40.143  1.00  0.00    -0.200 F 
ATOM     83  F   UNL A   1      40.007  36.561  40.201  1.00  0.00    -0.200 F 
ENDBRANCH  49  73
BRANCH  61  84
ATOM     84  C   UNL A   1      44.080  28.636  35.180  1.00  0.00     0.064 A 
ATOM     85  C   UNL A   1      43.890  27.534  36.026  1.00  0.00     0.173 A 
ATOM     86  C   UNL A   1      45.396  29.072  34.958  1.00  0.00     0.173 A 
ATOM     87  F   UNL A   1      42.653  27.087  36.286  1.00  0.00    -0.203 F 
ATOM     88  C   UNL A   1      44.973  26.905  36.638  1.00  0.00     0.198 A 
ATOM     89  C   UNL A   1      46.478  28.425  35.552  1.00  0.00     0.198 A 
ATOM     90  F   UNL A   1      45.635  30.121  34.156  1.00  0.00    -0.203 F 
ATOM     91  F   UNL A   1      44.764  25.879  37.475  1.00  0.00    -0.200 F 
ATOM     92  C   UNL A   1      46.265  27.346  36.395  1.00  0.00     0.200 A 
ATOM     93  F   UNL A   1      47.726  28.846  35.307  1.00  0.00    -0.200 F 
ATOM     94  F   UNL A   1      47.305  26.735  36.981  1.00  0.00    -0.200 F 
ENDBRANCH  61  84
ENDBRANCH  35  36
ENDBRANCH  27  30
ENDBRANCH  25  26
ENDBRANCH  24  25
ENDBRANCH  23  24
ENDBRANCH   3  23
TORSDOF 16
ENDMDL
MODEL 3
REMARK VINA RESULT:     -11.6      4.833      8.890
REMARK SMILES CC(=O)N[C@@H](CCC(=O)NCCCNC(=O)c1ccc(-c2c3nc(c(-c4c(F)c(F)c(F)c(F)c4F)c4ccc([nH]4)c(-c4c(F)c(F)c(F)c(F)c4F)c4nc(c(-c5c(F)c(F)c(F)c(F)c5F)c5ccc2[nH]5)C=C4)C=C3)cc1)Cc1nc(C)ccc1O
REMARK SMILES IDX 8 1 9 2 10 3 7 5 6 6 5 7 4 8 1 9 2 10 3 11 80 13 81 14 82 15
REMARK SMILES IDX 87 16 83 17 86 18 84 19 85 20 88 21 11 23 12 24 13 25 14 26
REMARK SMILES IDX 15 27 16 29 17 30 18 31 79 32 19 33 78 34 20 35 21 36 22 37
REMARK SMILES IDX 72 38 23 39 77 40 71 41 73 42 24 43 76 44 70 45 69 46 25 48
REMARK SMILES IDX 57 49 37 50 56 51 38 52 41 53 55 54 74 55 39 56 40 57 54 59
REMARK SMILES IDX 75 60 42 61 26 62 27 63 35 64 28 65 29 66 33 67 36 68 30 69
REMARK SMILES IDX 31 70 34 71 32 72 58 73 59 74 67 75 60 76 61 77 65 78 68 79
REMARK SMILES IDX 62 80 63 81 66 82 64 83 43 84 44 85 52 86 45 87 46 88 50 89
REMARK SMILES IDX 53 90 47 91 48 92 51 93 49 94
REMARK H PARENT 10 4 4 12 88 22 14 28 73 47 41 58
REMARK Flexibility Score: inf
ROOT
ATOM      1  C   UNL A   1      32.802  20.639  24.777  1.00  0.00     0.220 C 
ATOM      2  O   UNL A   1      31.724  20.608  25.373  1.00  0.00    -0.275 OA
ATOM      3  N   UNL A   1      33.868  20.025  25.357  1.00  0.00    -0.356 N 
ATOM      4  H   UNL A   1      33.646  19.500  26.160  1.00  0.00     0.163 HD
ENDROOT
BRANCH   1   5
ATOM      5  C   UNL A   1      32.924  21.289  23.415  1.00  0.00     0.102 C 
BRANCH   5   6
ATOM      6  C   UNL A   1      31.852  22.360  23.129  1.00  0.00     0.035 C 
BRANCH   6   7
ATOM      7  C   UNL A   1      32.051  23.751  23.784  1.00  0.00     0.088 C 
BRANCH   7   8
ATOM      8  N   UNL A   1      31.415  23.783  25.105  1.00  0.00    -0.353 N 
ATOM      9  C   UNL A   1      33.474  23.969  26.451  1.00  0.00     0.114 C 
ATOM     10  C   UNL A   1      31.979  23.920  26.336  1.00  0.00     0.217 C 
ATOM     11  O   UNL A   1      31.249  23.989  27.326  1.00  0.00    -0.275 OA
ATOM     12  H   UNL A   1      30.435  23.693  25.100  1.00  0.00     0.163 HD
ENDBRANCH   7   8
BRANCH   7  13
ATOM     13  C   UNL A   1      31.633  24.900  22.836  1.00  0.00     0.085 C 
BRANCH  13  14
ATOM     14  C   UNL A   1      32.233  26.247  23.161  1.00  0.00     0.084 A 
ATOM     15  N   UNL A   1      31.777  26.839  24.296  1.00  0.00    -0.254 NA
ATOM     16  C   UNL A   1      33.213  26.842  22.381  1.00  0.00     0.137 A 
ATOM     17  C   UNL A   1      32.297  28.020  24.691  1.00  0.00     0.038 A 
ATOM     18  C   UNL A   1      33.756  28.054  22.798  1.00  0.00     0.050 A 
ATOM     19  C   UNL A   1      31.782  28.582  25.982  1.00  0.00     0.067 C 
ATOM     20  C   UNL A   1      33.296  28.654  23.970  1.00  0.00     0.027 A 
BRANCH  16  21
ATOM     21  O   UNL A   1      33.653  26.238  21.243  1.00  0.00    -0.506 OA
ATOM     22  H   UNL A   1      34.563  26.042  21.138  1.00  0.00     0.293 HD
ENDBRANCH  16  21
ENDBRANCH  13  14
ENDBRANCH   7  13
ENDBRANCH   6   7
ENDBRANCH   5   6
ENDBRANCH   1   5
BRANCH   3  23
ATOM     23  C   UNL A   1      35.278  20.004  25.002  1.00  0.00     0.117 C 
BRANCH  23  24
ATOM     24  C   UNL A   1      36.016  21.272  25.429  1.00  0.00     0.042 C 
BRANCH  24  25
ATOM     25  C   UNL A   1      37.418  21.474  24.816  1.00  0.00     0.118 C 
BRANCH  25  26
ATOM     26  N   UNL A   1      38.397  20.577  25.407  1.00  0.00    -0.352 N 
ATOM     27  C   UNL A   1      39.546  20.782  26.127  1.00  0.00     0.251 C 
ATOM     28  H   UNL A   1      38.194  19.626  25.260  1.00  0.00     0.163 HD
ATOM     29  O   UNL A   1      40.278  19.801  26.285  1.00  0.00    -0.269 OA
BRANCH  27  30
ATOM     30  C   UNL A   1      39.974  22.069  26.755  1.00  0.00     0.039 A 
ATOM     31  C   UNL A   1      39.464  23.247  26.178  1.00  0.00     0.014 A 
ATOM     32  C   UNL A   1      40.988  22.189  27.709  1.00  0.00     0.014 A 
ATOM     33  C   UNL A   1      39.981  24.510  26.500  1.00  0.00     0.010 A 
ATOM     34  C   UNL A   1      41.498  23.465  28.050  1.00  0.00     0.010 A 
ATOM     35  C   UNL A   1      41.030  24.634  27.417  1.00  0.00    -0.014 A 
BRANCH  35  36
ATOM     36  C   UNL A   1      41.712  25.955  27.598  1.00  0.00     0.031 A 
ATOM     37  C   UNL A   1      41.007  27.074  28.324  1.00  0.00     0.074 A 
ATOM     38  C   UNL A   1      42.976  26.168  27.180  1.00  0.00     0.049 A 
ATOM     39  N   UNL A   1      41.427  28.286  28.599  1.00  0.00    -0.248 NA
ATOM     40  C   UNL A   1      39.654  26.782  28.817  1.00  0.00     0.031 C 
ATOM     41  C   UNL A   1      43.824  25.173  26.537  1.00  0.00     0.029 A 
ATOM     42  N   UNL A   1      43.767  27.293  27.238  1.00  0.00    -0.354 N 
ATOM     43  C   UNL A   1      40.396  28.899  29.299  1.00  0.00     0.074 A 
ATOM     44  C   UNL A   1      39.315  27.937  29.371  1.00  0.00     0.031 C 
ATOM     45  C   UNL A   1      45.010  25.730  26.239  1.00  0.00     0.029 A 
ATOM     46  C   UNL A   1      45.003  27.132  26.660  1.00  0.00     0.049 A 
ATOM     47  H   UNL A   1      43.474  28.136  27.654  1.00  0.00     0.167 HD
ATOM     48  C   UNL A   1      40.351  30.139  29.847  1.00  0.00     0.037 A 
ATOM     49  C   UNL A   1      46.016  28.005  26.483  1.00  0.00     0.037 A 
ATOM     50  C   UNL A   1      41.412  31.111  29.789  1.00  0.00     0.049 A 
ATOM     51  C   UNL A   1      45.902  29.416  27.002  1.00  0.00     0.074 A 
ATOM     52  C   UNL A   1      41.452  32.380  30.343  1.00  0.00     0.029 A 
ATOM     53  N   UNL A   1      42.618  30.932  29.129  1.00  0.00    -0.354 N 
ATOM     54  N   UNL A   1      44.933  29.969  27.687  1.00  0.00    -0.248 NA
ATOM     55  C   UNL A   1      47.031  30.319  26.729  1.00  0.00     0.031 C 
ATOM     56  C   UNL A   1      42.658  32.988  29.972  1.00  0.00     0.029 A 
ATOM     57  C   UNL A   1      43.392  32.079  29.231  1.00  0.00     0.049 A 
ATOM     58  H   UNL A   1      42.886  30.110  28.657  1.00  0.00     0.167 HD
ATOM     59  C   UNL A   1      45.349  31.268  27.959  1.00  0.00     0.074 A 
ATOM     60  C   UNL A   1      46.660  31.421  27.366  1.00  0.00     0.031 C 
ATOM     61  C   UNL A   1      44.700  32.238  28.649  1.00  0.00     0.037 A 
BRANCH  48  62
ATOM     62  C   UNL A   1      39.080  30.529  30.545  1.00  0.00     0.064 A 
ATOM     63  C   UNL A   1      38.931  30.398  31.934  1.00  0.00     0.173 A 
ATOM     64  C   UNL A   1      38.003  31.055  29.816  1.00  0.00     0.173 A 
ATOM     65  F   UNL A   1      39.930  29.895  32.674  1.00  0.00    -0.203 F 
ATOM     66  C   UNL A   1      37.737  30.742  32.561  1.00  0.00     0.198 A 
ATOM     67  C   UNL A   1      36.821  31.425  30.451  1.00  0.00     0.198 A 
ATOM     68  F   UNL A   1      38.098  31.213  28.487  1.00  0.00    -0.203 F 
ATOM     69  F   UNL A   1      37.598  30.556  33.881  1.00  0.00    -0.200 F 
ATOM     70  C   UNL A   1      36.684  31.258  31.820  1.00  0.00     0.200 A 
ATOM     71  F   UNL A   1      35.809  31.936  29.735  1.00  0.00    -0.200 F 
ATOM     72  F   UNL A   1      35.534  31.585  32.425  1.00  0.00    -0.200 F 
ENDBRANCH  48  62
BRANCH  49  73
ATOM     73  C   UNL A   1      47.252  27.569  25.782  1.00  0.00     0.064 A 
ATOM     74  C   UNL A   1      48.335  27.034  26.493  1.00  0.00     0.173 A 
ATOM     75  C   UNL A   1      47.380  27.694  24.392  1.00  0.00     0.173 A 
ATOM     76  F   UNL A   1      48.270  26.923  27.828  1.00  0.00    -0.203 F 
ATOM     77  C   UNL A   1      49.504  26.649  25.840  1.00  0.00     0.198 A 
ATOM     78  C   UNL A   1      48.540  27.287  23.737  1.00  0.00     0.198 A 
ATOM     79  F   UNL A   1      46.372  28.202  23.667  1.00  0.00    -0.203 F 
ATOM     80  F   UNL A   1      50.538  26.174  26.546  1.00  0.00    -0.200 F 
ATOM     81  C   UNL A   1      49.603  26.770  24.461  1.00  0.00     0.200 A 
ATOM     82  F   UNL A   1      48.627  27.397  22.404  1.00  0.00    -0.200 F 
ATOM     83  F   UNL A   1      50.725  26.393  23.833  1.00  0.00    -0.200 F 
ENDBRANCH  49  73
BRANCH  61  84
ATOM     84  C   UNL A   1      45.407  33.551  28.841  1.00  0.00     0.064 A 
ATOM     85  C   UNL A   1      46.272  33.773  29.922  1.00  0.00     0.173 A 
ATOM     86  C   UNL A   1      45.245  34.588  27.908  1.00  0.00     0.173 A 
ATOM     87  F   UNL A   1      46.449  32.823  30.851  1.00  0.00    -0.203 F 
ATOM     88  C   UNL A   1      46.935  34.991  30.071  1.00  0.00     0.198 A 
ATOM     89  C   UNL A   1      45.929  35.794  28.047  1.00  0.00     0.198 A 
ATOM     90  F   UNL A   1      44.431  34.428  26.854  1.00  0.00    -0.203 F 
ATOM     91  F   UNL A   1      47.725  35.194  31.135  1.00  0.00    -0.200 F 
ATOM     92  C   UNL A   1      46.769  35.996  29.131  1.00  0.00     0.200 A 
ATOM     93  F   UNL A   1      45.776  36.760  27.131  1.00  0.00    -0.200 F 
ATOM     94  F   UNL A   1      47.413  37.163  29.274  1.00  0.00    -0.200 F 
ENDBRANCH  61  84
ENDBRANCH  35  36
ENDBRANCH  27  30
ENDBRANCH  25  26
ENDBRANCH  24  25
ENDBRANCH  23  24
ENDBRANCH   3  23
TORSDOF 16
ENDMDL
