MODEL 1
REMARK VINA RESULT:     -13.3      0.000      0.000
REMARK SMILES O=CN[C@@H](CCS[C@@H]1CCO[C@]2(CCOC2)C1)C(=O)NCCCNC(=O)c1ccc(-c2c3nc(c(-c4c(F)c(F)c(F)c(F)c4F)c4ccc([nH]4)c(-c4c(F)c(F)c(F)c(F)c4F)c4nc(c(-c5c(F)c(F)c(F)c(F)c5F)c5ccc2[nH]5)C=C4)C=C3)cc1
REMARK SMILES IDX 21 1 20 2 18 3 19 4 4 6 3 7 1 8 2 9 5 11 6 12 7 13 8 14 9 15
REMARK SMILES IDX 17 16 10 17 12 18 11 19 13 20 16 21 14 22 15 23 22 24 23 25
REMARK SMILES IDX 24 26 25 27 26 29 27 30 28 31 89 32 29 33 88 34 30 35 31 36
REMARK SMILES IDX 32 37 82 38 33 39 87 40 81 41 83 42 34 43 86 44 80 45 79 46
REMARK SMILES IDX 35 48 67 49 47 50 66 51 48 52 51 53 65 54 84 55 49 56 50 57
REMARK SMILES IDX 64 59 85 60 52 61 36 62 37 63 45 64 38 65 39 66 43 67 46 68
REMARK SMILES IDX 40 69 41 70 44 71 42 72 68 73 69 74 77 75 70 76 71 77 75 78
REMARK SMILES IDX 78 79 72 80 73 81 76 82 74 83 53 84 54 85 62 86 55 87 56 88
REMARK SMILES IDX 60 89 63 90 57 91 58 92 61 93 59 94
REMARK H PARENT 20 5 3 10 24 28 83 47 51 58
REMARK Flexibility Score: inf
ROOT
ATOM      1  C   UNL A   1      35.277  21.172  25.432  1.00  0.00     0.117 C 
ENDROOT
BRANCH   1   2
ATOM      2  N   UNL A   1      34.140  20.334  25.826  1.00  0.00    -0.354 N 
ATOM      3  C   UNL A   1      33.437  19.218  25.426  1.00  0.00     0.242 C 
ATOM      4  O   UNL A   1      32.531  18.724  26.084  1.00  0.00    -0.273 OA
ATOM      5  H   UNL A   1      33.745  20.687  26.655  1.00  0.00     0.163 HD
BRANCH   3   6
ATOM      6  C   UNL A   1      33.854  18.333  24.333  1.00  0.00     0.171 C 
BRANCH   6   7
ATOM      7  N   UNL A   1      34.680  17.367  25.007  1.00  0.00    -0.347 N 
ATOM      8  O   UNL A   1      34.973  15.082  25.004  1.00  0.00    -0.279 OA
ATOM      9  C   UNL A   1      34.229  16.047  24.987  1.00  0.00     0.337 C 
ATOM     10  H   UNL A   1      35.517  17.624  25.458  1.00  0.00     0.164 HD
ENDBRANCH   6   7
BRANCH   6  11
ATOM     11  C   UNL A   1      32.531  18.202  23.632  1.00  0.00     0.046 C 
BRANCH  11  12
ATOM     12  C   UNL A   1      32.161  19.536  22.735  1.00  0.00     0.072 C 
BRANCH  12  13
ATOM     13  S   UNL A   1      32.152  21.654  22.882  1.00  0.00    -0.158 SA
BRANCH  13  14
ATOM     14  C   UNL A   1      31.999  22.762  24.689  1.00  0.00     0.052 C 
ATOM     15  C   UNL A   1      31.292  22.220  25.942  1.00  0.00     0.043 C 
ATOM     16  C   UNL A   1      32.160  24.339  24.804  1.00  0.00     0.052 C 
ATOM     17  C   UNL A   1      30.218  23.169  26.530  1.00  0.00     0.162 C 
ATOM     18  C   UNL A   1      31.075  25.188  25.541  1.00  0.00     0.095 C 
ATOM     19  O   UNL A   1      30.687  24.498  26.728  1.00  0.00    -0.372 OA
ATOM     20  C   UNL A   1      29.903  25.836  24.762  1.00  0.00     0.066 C 
ATOM     21  C   UNL A   1      31.706  26.527  25.994  1.00  0.00     0.195 C 
ATOM     22  C   UNL A   1      30.408  27.183  24.242  1.00  0.00     0.163 C 
ATOM     23  O   UNL A   1      31.683  27.394  24.851  1.00  0.00    -0.378 OA
ENDBRANCH  13  14
ENDBRANCH  12  13
ENDBRANCH  11  12
ENDBRANCH   6  11
ENDBRANCH   3   6
ENDBRANCH   1   2
BRANCH   1  24
ATOM     24  C   UNL A   1      36.559  20.384  25.001  1.00  0.00     0.042 C 
BRANCH  24  25
ATOM     25  C   UNL A   1      37.940  21.086  25.008  1.00  0.00     0.118 C 
BRANCH  25  26
ATOM     26  N   UNL A   1      38.947  20.310  25.719  1.00  0.00    -0.352 N 
ATOM     27  C   UNL A   1      40.036  20.591  26.504  1.00  0.00     0.251 C 
ATOM     28  H   UNL A   1      38.813  19.341  25.608  1.00  0.00     0.163 HD
ATOM     29  O   UNL A   1      40.779  19.637  26.750  1.00  0.00    -0.269 OA
BRANCH  27  30
ATOM     30  C   UNL A   1      40.420  21.912  27.083  1.00  0.00     0.039 A 
ATOM     31  C   UNL A   1      39.973  23.045  26.380  1.00  0.00     0.014 A 
ATOM     32  C   UNL A   1      41.393  22.103  28.069  1.00  0.00     0.014 A 
ATOM     33  C   UNL A   1      40.490  24.328  26.633  1.00  0.00     0.010 A 
ATOM     34  C   UNL A   1      41.892  23.408  28.344  1.00  0.00     0.010 A 
ATOM     35  C   UNL A   1      41.464  24.539  27.619  1.00  0.00    -0.014 A 
BRANCH  35  36
ATOM     36  C   UNL A   1      42.012  25.928  27.843  1.00  0.00     0.031 A 
ATOM     37  C   UNL A   1      43.360  26.357  27.298  1.00  0.00     0.074 A 
ATOM     38  C   UNL A   1      41.283  26.854  28.505  1.00  0.00     0.049 A 
ATOM     39  N   UNL A   1      43.965  27.522  27.384  1.00  0.00    -0.248 NA
ATOM     40  C   UNL A   1      44.133  25.343  26.570  1.00  0.00     0.031 C 
ATOM     41  C   UNL A   1      39.967  26.617  29.097  1.00  0.00     0.029 A 
ATOM     42  N   UNL A   1      41.536  28.180  28.787  1.00  0.00    -0.354 N 
ATOM     43  C   UNL A   1      45.191  27.376  26.740  1.00  0.00     0.074 A 
ATOM     44  C   UNL A   1      45.256  25.998  26.298  1.00  0.00     0.031 C 
ATOM     45  C   UNL A   1      39.520  27.757  29.649  1.00  0.00     0.029 A 
ATOM     46  C   UNL A   1      40.530  28.802  29.490  1.00  0.00     0.049 A 
ATOM     47  H   UNL A   1      42.362  28.640  28.511  1.00  0.00     0.167 HD
ATOM     48  C   UNL A   1      46.166  28.298  26.520  1.00  0.00     0.037 A 
ATOM     49  C   UNL A   1      40.424  30.060  29.969  1.00  0.00     0.037 A 
ATOM     50  C   UNL A   1      46.112  29.682  26.928  1.00  0.00     0.049 A 
ATOM     51  C   UNL A   1      41.531  31.057  29.737  1.00  0.00     0.074 A 
ATOM     52  C   UNL A   1      47.038  30.688  26.696  1.00  0.00     0.029 A 
ATOM     53  N   UNL A   1      45.080  30.259  27.653  1.00  0.00    -0.354 N 
ATOM     54  N   UNL A   1      42.656  30.910  29.083  1.00  0.00    -0.248 NA
ATOM     55  C   UNL A   1      41.348  32.402  30.309  1.00  0.00     0.031 C 
ATOM     56  C   UNL A   1      46.595  31.855  27.327  1.00  0.00     0.029 A 
ATOM     57  C   UNL A   1      45.363  31.596  27.900  1.00  0.00     0.049 A 
ATOM     58  H   UNL A   1      44.268  29.789  27.949  1.00  0.00     0.167 HD
ATOM     59  C   UNL A   1      43.297  32.142  29.140  1.00  0.00     0.074 A 
ATOM     60  C   UNL A   1      42.430  33.034  29.876  1.00  0.00     0.031 C 
ATOM     61  C   UNL A   1      44.500  32.495  28.624  1.00  0.00     0.037 A 
BRANCH  48  62
ATOM     62  C   UNL A   1      47.411  27.842  25.801  1.00  0.00     0.064 A 
ATOM     63  C   UNL A   1      48.540  27.385  26.496  1.00  0.00     0.173 A 
ATOM     64  C   UNL A   1      47.449  27.801  24.397  1.00  0.00     0.173 A 
ATOM     65  F   UNL A   1      48.558  27.396  27.837  1.00  0.00    -0.203 F 
ATOM     66  C   UNL A   1      49.673  26.944  25.815  1.00  0.00     0.198 A 
ATOM     67  C   UNL A   1      48.570  27.328  23.720  1.00  0.00     0.198 A 
ATOM     68  F   UNL A   1      46.389  28.201  23.679  1.00  0.00    -0.203 F 
ATOM     69  F   UNL A   1      50.759  26.560  26.503  1.00  0.00    -0.200 F 
ATOM     70  C   UNL A   1      49.686  26.909  24.429  1.00  0.00     0.200 A 
ATOM     71  F   UNL A   1      48.572  27.274  22.381  1.00  0.00    -0.200 F 
ATOM     72  F   UNL A   1      50.774  26.478  23.777  1.00  0.00    -0.200 F 
ENDBRANCH  48  62
BRANCH  49  73
ATOM     73  C   UNL A   1      39.207  30.466  30.729  1.00  0.00     0.064 A 
ATOM     74  C   UNL A   1      39.116  30.262  32.113  1.00  0.00     0.173 A 
ATOM     75  C   UNL A   1      38.102  31.038  30.081  1.00  0.00     0.173 A 
ATOM     76  F   UNL A   1      40.131  29.685  32.774  1.00  0.00    -0.203 F 
ATOM     77  C   UNL A   1      37.961  30.598  32.817  1.00  0.00     0.198 A 
ATOM     78  C   UNL A   1      36.960  31.405  30.792  1.00  0.00     0.198 A 
ATOM     79  F   UNL A   1      38.133  31.247  28.758  1.00  0.00    -0.203 F 
ATOM     80  F   UNL A   1      37.881  30.341  34.130  1.00  0.00    -0.200 F 
ATOM     81  C   UNL A   1      36.887  31.177  32.158  1.00  0.00     0.200 A 
ATOM     82  F   UNL A   1      35.929  31.973  30.153  1.00  0.00    -0.200 F 
ATOM     83  F   UNL A   1      35.779  31.504  32.836  1.00  0.00    -0.200 F 
ENDBRANCH  49  73
BRANCH  61  84
ATOM     84  C   UNL A   1      44.944  33.922  28.796  1.00  0.00     0.064 A 
ATOM     85  C   UNL A   1      45.731  34.328  29.886  1.00  0.00     0.173 A 
ATOM     86  C   UNL A   1      44.609  34.893  27.839  1.00  0.00     0.173 A 
ATOM     87  F   UNL A   1      46.069  33.447  30.840  1.00  0.00    -0.203 F 
ATOM     88  C   UNL A   1      46.141  35.653  30.023  1.00  0.00     0.198 A 
ATOM     89  C   UNL A   1      45.047  36.210  27.962  1.00  0.00     0.198 A 
ATOM     90  F   UNL A   1      43.864  34.562  26.774  1.00  0.00    -0.203 F 
ATOM     91  F   UNL A   1      46.850  36.025  31.098  1.00  0.00    -0.200 F 
ATOM     92  C   UNL A   1      45.806  36.591  29.057  1.00  0.00     0.200 A 
ATOM     93  F   UNL A   1      44.734  37.110  27.021  1.00  0.00    -0.200 F 
ATOM     94  F   UNL A   1      46.208  37.862  29.187  1.00  0.00    -0.200 F 
ENDBRANCH  61  84
ENDBRANCH  35  36
ENDBRANCH  27  30
ENDBRANCH  25  26
ENDBRANCH  24  25
ENDBRANCH   1  24
TORSDOF 15
ENDMDL
MODEL 2
REMARK VINA RESULT:     -13.0      4.693      7.877
REMARK SMILES O=CN[C@@H](CCS[C@@H]1CCO[C@]2(CCOC2)C1)C(=O)NCCCNC(=O)c1ccc(-c2c3nc(c(-c4c(F)c(F)c(F)c(F)c4F)c4ccc([nH]4)c(-c4c(F)c(F)c(F)c(F)c4F)c4nc(c(-c5c(F)c(F)c(F)c(F)c5F)c5ccc2[nH]5)C=C4)C=C3)cc1
REMARK SMILES IDX 21 1 20 2 18 3 19 4 4 6 3 7 1 8 2 9 5 11 6 12 7 13 8 14 9 15
REMARK SMILES IDX 17 16 10 17 12 18 11 19 13 20 16 21 14 22 15 23 22 24 23 25
REMARK SMILES IDX 24 26 25 27 26 29 27 30 28 31 89 32 29 33 88 34 30 35 31 36
REMARK SMILES IDX 32 37 82 38 33 39 87 40 81 41 83 42 34 43 86 44 80 45 79 46
REMARK SMILES IDX 35 48 67 49 47 50 66 51 48 52 51 53 65 54 84 55 49 56 50 57
REMARK SMILES IDX 64 59 85 60 52 61 36 62 37 63 45 64 38 65 39 66 43 67 46 68
REMARK SMILES IDX 40 69 41 70 44 71 42 72 68 73 69 74 77 75 70 76 71 77 75 78
REMARK SMILES IDX 78 79 72 80 73 81 76 82 74 83 53 84 54 85 62 86 55 87 56 88
REMARK SMILES IDX 60 89 63 90 57 91 58 92 61 93 59 94
REMARK H PARENT 20 5 3 10 24 28 83 47 51 58
REMARK Flexibility Score: inf
ROOT
ATOM      1  C   UNL A   1      32.676  29.337  24.333  1.00  0.00     0.117 C 
ENDROOT
BRANCH   1   2
ATOM      2  N   UNL A   1      31.649  29.645  23.332  1.00  0.00    -0.354 N 
ATOM      3  C   UNL A   1      30.824  29.030  22.416  1.00  0.00     0.242 C 
ATOM      4  O   UNL A   1      29.981  29.632  21.762  1.00  0.00    -0.273 OA
ATOM      5  H   UNL A   1      31.497  30.617  23.307  1.00  0.00     0.163 HD
BRANCH   3   6
ATOM      6  C   UNL A   1      30.653  27.577  22.308  1.00  0.00     0.171 C 
BRANCH   6   7
ATOM      7  N   UNL A   1      32.000  27.117  22.098  1.00  0.00    -0.347 N 
ATOM      8  O   UNL A   1      33.121  25.762  20.610  1.00  0.00    -0.279 OA
ATOM      9  C   UNL A   1      32.146  25.975  21.310  1.00  0.00     0.337 C 
ATOM     10  H   UNL A   1      32.775  27.581  22.489  1.00  0.00     0.164 HD
ENDBRANCH   6   7
BRANCH   6  11
ATOM     11  C   UNL A   1      29.694  27.377  23.448  1.00  0.00     0.046 C 
BRANCH  11  12
ATOM     12  C   UNL A   1      29.823  25.876  24.121  1.00  0.00     0.072 C 
BRANCH  12  13
ATOM     13  S   UNL A   1      30.341  24.945  25.957  1.00  0.00    -0.158 SA
BRANCH  13  14
ATOM     14  C   UNL A   1      32.080  23.771  26.295  1.00  0.00     0.052 C 
ATOM     15  C   UNL A   1      33.504  24.348  26.214  1.00  0.00     0.043 C 
ATOM     16  C   UNL A   1      32.137  22.186  26.205  1.00  0.00     0.052 C 
ATOM     17  C   UNL A   1      34.461  23.558  25.287  1.00  0.00     0.162 C 
ATOM     18  C   UNL A   1      33.236  21.487  25.341  1.00  0.00     0.095 C 
ATOM     19  O   UNL A   1      34.476  22.159  25.553  1.00  0.00    -0.372 OA
ATOM     20  C   UNL A   1      32.962  21.092  23.868  1.00  0.00     0.066 C 
ATOM     21  C   UNL A   1      33.427  20.037  25.847  1.00  0.00     0.195 C 
ATOM     22  C   UNL A   1      32.301  19.713  23.896  1.00  0.00     0.163 C 
ATOM     23  O   UNL A   1      32.384  19.257  25.247  1.00  0.00    -0.378 OA
ENDBRANCH  13  14
ENDBRANCH  12  13
ENDBRANCH  11  12
ENDBRANCH   6  11
ENDBRANCH   3   6
ENDBRANCH   1   2
BRANCH   1  24
ATOM     24  C   UNL A   1      32.175  28.501  25.558  1.00  0.00     0.042 C 
BRANCH  24  25
ATOM     25  C   UNL A   1      31.786  29.214  26.877  1.00  0.00     0.118 C 
BRANCH  25  26
ATOM     26  N   UNL A   1      31.946  30.659  26.788  1.00  0.00    -0.352 N 
ATOM     27  C   UNL A   1      32.903  31.569  27.158  1.00  0.00     0.251 C 
ATOM     28  H   UNL A   1      31.174  31.091  26.355  1.00  0.00     0.163 HD
ATOM     29  O   UNL A   1      32.564  32.755  27.101  1.00  0.00    -0.269 OA
BRANCH  27  30
ATOM     30  C   UNL A   1      34.293  31.287  27.622  1.00  0.00     0.039 A 
ATOM     31  C   UNL A   1      34.553  29.961  28.012  1.00  0.00     0.014 A 
ATOM     32  C   UNL A   1      35.238  32.260  27.960  1.00  0.00     0.014 A 
ATOM     33  C   UNL A   1      35.708  29.612  28.734  1.00  0.00     0.010 A 
ATOM     34  C   UNL A   1      36.423  31.898  28.665  1.00  0.00     0.010 A 
ATOM     35  C   UNL A   1      36.669  30.573  29.079  1.00  0.00    -0.014 A 
BRANCH  35  36
ATOM     36  C   UNL A   1      37.883  30.162  29.877  1.00  0.00     0.031 A 
ATOM     37  C   UNL A   1      38.939  29.234  29.311  1.00  0.00     0.074 A 
ATOM     38  C   UNL A   1      38.086  30.655  31.119  1.00  0.00     0.049 A 
ATOM     39  N   UNL A   1      40.054  28.800  29.859  1.00  0.00    -0.248 NA
ATOM     40  C   UNL A   1      38.710  28.717  27.955  1.00  0.00     0.031 C 
ATOM     41  C   UNL A   1      37.176  31.558  31.821  1.00  0.00     0.029 A 
ATOM     42  N   UNL A   1      39.124  30.475  32.011  1.00  0.00    -0.354 N 
ATOM     43  C   UNL A   1      40.645  27.951  28.928  1.00  0.00     0.074 A 
ATOM     44  C   UNL A   1      39.747  27.905  27.791  1.00  0.00     0.031 C 
ATOM     45  C   UNL A   1      37.701  31.871  33.017  1.00  0.00     0.029 A 
ATOM     46  C   UNL A   1      38.966  31.162  33.193  1.00  0.00     0.049 A 
ATOM     47  H   UNL A   1      39.905  29.907  31.819  1.00  0.00     0.167 HD
ATOM     48  C   UNL A   1      41.828  27.283  28.996  1.00  0.00     0.037 A 
ATOM     49  C   UNL A   1      39.737  31.214  34.301  1.00  0.00     0.037 A 
ATOM     50  C   UNL A   1      42.751  27.334  30.105  1.00  0.00     0.049 A 
ATOM     51  C   UNL A   1      41.029  30.442  34.365  1.00  0.00     0.074 A 
ATOM     52  C   UNL A   1      43.991  26.726  30.226  1.00  0.00     0.029 A 
ATOM     53  N   UNL A   1      42.539  28.029  31.287  1.00  0.00    -0.354 N 
ATOM     54  N   UNL A   1      41.591  29.688  33.454  1.00  0.00    -0.248 NA
ATOM     55  C   UNL A   1      41.801  30.535  35.617  1.00  0.00     0.031 C 
ATOM     56  C   UNL A   1      44.502  27.006  31.498  1.00  0.00     0.029 A 
ATOM     57  C   UNL A   1      43.610  27.839  32.149  1.00  0.00     0.049 A 
ATOM     58  H   UNL A   1      41.744  28.575  31.485  1.00  0.00     0.167 HD
ATOM     59  C   UNL A   1      42.786  29.243  34.007  1.00  0.00     0.074 A 
ATOM     60  C   UNL A   1      42.881  29.825  35.327  1.00  0.00     0.031 C 
ATOM     61  C   UNL A   1      43.719  28.423  33.462  1.00  0.00     0.037 A 
BRANCH  48  62
ATOM     62  C   UNL A   1      42.207  26.410  27.827  1.00  0.00     0.064 A 
ATOM     63  C   UNL A   1      43.103  26.847  26.839  1.00  0.00     0.173 A 
ATOM     64  C   UNL A   1      41.719  25.096  27.729  1.00  0.00     0.173 A 
ATOM     65  F   UNL A   1      43.605  28.089  26.885  1.00  0.00    -0.203 F 
ATOM     66  C   UNL A   1      43.462  26.017  25.779  1.00  0.00     0.198 A 
ATOM     67  C   UNL A   1      42.107  24.259  26.686  1.00  0.00     0.198 A 
ATOM     68  F   UNL A   1      40.879  24.615  28.658  1.00  0.00    -0.203 F 
ATOM     69  F   UNL A   1      44.280  26.476  24.820  1.00  0.00    -0.200 F 
ATOM     70  C   UNL A   1      42.970  24.723  25.705  1.00  0.00     0.200 A 
ATOM     71  F   UNL A   1      41.648  23.001  26.629  1.00  0.00    -0.200 F 
ATOM     72  F   UNL A   1      43.323  23.926  24.688  1.00  0.00    -0.200 F 
ENDBRANCH  48  62
BRANCH  49  73
ATOM     73  C   UNL A   1      39.306  32.039  35.466  1.00  0.00     0.064 A 
ATOM     74  C   UNL A   1      38.481  31.505  36.467  1.00  0.00     0.173 A 
ATOM     75  C   UNL A   1      39.687  33.383  35.586  1.00  0.00     0.173 A 
ATOM     76  F   UNL A   1      38.060  30.234  36.381  1.00  0.00    -0.203 F 
ATOM     77  C   UNL A   1      38.040  32.287  37.532  1.00  0.00     0.198 A 
ATOM     78  C   UNL A   1      39.272  34.156  36.670  1.00  0.00     0.198 A 
ATOM     79  F   UNL A   1      40.466  33.947  34.653  1.00  0.00    -0.203 F 
ATOM     80  F   UNL A   1      37.208  31.767  38.445  1.00  0.00    -0.200 F 
ATOM     81  C   UNL A   1      38.442  33.610  37.637  1.00  0.00     0.200 A 
ATOM     82  F   UNL A   1      39.671  35.431  36.773  1.00  0.00    -0.200 F 
ATOM     83  F   UNL A   1      38.021  34.362  38.664  1.00  0.00    -0.200 F 
ENDBRANCH  49  73
BRANCH  61  84
ATOM     84  C   UNL A   1      44.953  28.131  34.271  1.00  0.00     0.064 A 
ATOM     85  C   UNL A   1      45.037  27.016  35.119  1.00  0.00     0.173 A 
ATOM     86  C   UNL A   1      46.082  28.958  34.169  1.00  0.00     0.173 A 
ATOM     87  F   UNL A   1      43.983  26.199  35.267  1.00  0.00    -0.203 F 
ATOM     88  C   UNL A   1      46.194  26.756  35.853  1.00  0.00     0.198 A 
ATOM     89  C   UNL A   1      47.248  28.678  34.880  1.00  0.00     0.198 A 
ATOM     90  F   UNL A   1      46.062  30.035  33.370  1.00  0.00    -0.203 F 
ATOM     91  F   UNL A   1      46.232  25.712  36.693  1.00  0.00    -0.200 F 
ATOM     92  C   UNL A   1      47.301  27.582  35.726  1.00  0.00     0.200 A 
ATOM     93  F   UNL A   1      48.321  29.470  34.745  1.00  0.00    -0.200 F 
ATOM     94  F   UNL A   1      48.414  27.326  36.427  1.00  0.00    -0.200 F 
ENDBRANCH  61  84
ENDBRANCH  35  36
ENDBRANCH  27  30
ENDBRANCH  25  26
ENDBRANCH  24  25
ENDBRANCH   1  24
TORSDOF 15
ENDMDL
MODEL 3
REMARK VINA RESULT:     -13.0      4.551     10.275
REMARK SMILES O=CN[C@@H](CCS[C@@H]1CCO[C@]2(CCOC2)C1)C(=O)NCCCNC(=O)c1ccc(-c2c3nc(c(-c4c(F)c(F)c(F)c(F)c4F)c4ccc([nH]4)c(-c4c(F)c(F)c(F)c(F)c4F)c4nc(c(-c5c(F)c(F)c(F)c(F)c5F)c5ccc2[nH]5)C=C4)C=C3)cc1
REMARK SMILES IDX 21 1 20 2 18 3 19 4 4 6 3 7 1 8 2 9 5 11 6 12 7 13 8 14 9 15
REMARK SMILES IDX 17 16 10 17 12 18 11 19 13 20 16 21 14 22 15 23 22 24 23 25
REMARK SMILES IDX 24 26 25 27 26 29 27 30 28 31 89 32 29 33 88 34 30 35 31 36
REMARK SMILES IDX 32 37 82 38 33 39 87 40 81 41 83 42 34 43 86 44 80 45 79 46
REMARK SMILES IDX 35 48 67 49 47 50 66 51 48 52 51 53 65 54 84 55 49 56 50 57
REMARK SMILES IDX 64 59 85 60 52 61 36 62 37 63 45 64 38 65 39 66 43 67 46 68
REMARK SMILES IDX 40 69 41 70 44 71 42 72 68 73 69 74 77 75 70 76 71 77 75 78
REMARK SMILES IDX 78 79 72 80 73 81 76 82 74 83 53 84 54 85 62 86 55 87 56 88
REMARK SMILES IDX 60 89 63 90 57 91 58 92 61 93 59 94
REMARK H PARENT 20 5 3 10 24 28 83 47 51 58
REMARK Flexibility Score: inf
ROOT
ATOM      1  C   UNL A   1      32.741  27.855  24.345  1.00  0.00     0.117 C 
ENDROOT
BRANCH   1   2
ATOM      2  N   UNL A   1      31.831  26.720  24.528  1.00  0.00    -0.354 N 
ATOM      3  C   UNL A   1      31.832  25.345  24.610  1.00  0.00     0.242 C 
ATOM      4  O   UNL A   1      30.830  24.687  24.862  1.00  0.00    -0.273 OA
ATOM      5  H   UNL A   1      30.909  27.052  24.624  1.00  0.00     0.163 HD
BRANCH   3   6
ATOM      6  C   UNL A   1      33.047  24.527  24.687  1.00  0.00     0.171 C 
BRANCH   6   7
ATOM      7  N   UNL A   1      33.726  24.855  23.462  1.00  0.00    -0.347 N 
ATOM      8  O   UNL A   1      33.268  24.828  21.205  1.00  0.00    -0.279 OA
ATOM      9  C   UNL A   1      33.204  24.292  22.297  1.00  0.00     0.337 C 
ATOM     10  H   UNL A   1      34.514  25.445  23.447  1.00  0.00     0.164 HD
ENDBRANCH   6   7
BRANCH   6  11
ATOM     11  C   UNL A   1      33.401  24.782  26.126  1.00  0.00     0.046 C 
BRANCH  11  12
ATOM     12  C   UNL A   1      33.974  23.432  26.881  1.00  0.00     0.072 C 
BRANCH  12  13
ATOM     13  S   UNL A   1      34.772  21.518  26.425  1.00  0.00    -0.158 SA
BRANCH  13  14
ATOM     14  C   UNL A   1      34.284  20.356  24.713  1.00  0.00     0.052 C 
ATOM     15  C   UNL A   1      33.244  20.803  23.672  1.00  0.00     0.043 C 
ATOM     16  C   UNL A   1      34.557  18.798  24.565  1.00  0.00     0.052 C 
ATOM     17  C   UNL A   1      32.151  19.747  23.368  1.00  0.00     0.162 C 
ATOM     18  C   UNL A   1      33.408  17.838  24.120  1.00  0.00     0.095 C 
ATOM     19  O   UNL A   1      32.679  18.461  23.064  1.00  0.00    -0.372 OA
ATOM     20  C   UNL A   1      32.528  17.108  25.165  1.00  0.00     0.066 C 
ATOM     21  C   UNL A   1      34.029  16.550  23.528  1.00  0.00     0.195 C 
ATOM     22  C   UNL A   1      33.266  15.824  25.546  1.00  0.00     0.163 C 
ATOM     23  O   UNL A   1      34.368  15.713  24.643  1.00  0.00    -0.378 OA
ENDBRANCH  13  14
ENDBRANCH  12  13
ENDBRANCH  11  12
ENDBRANCH   6  11
ENDBRANCH   3   6
ENDBRANCH   1   2
BRANCH   1  24
ATOM     24  C   UNL A   1      32.167  29.241  24.793  1.00  0.00     0.042 C 
BRANCH  24  25
ATOM     25  C   UNL A   1      31.990  29.557  26.299  1.00  0.00     0.118 C 
BRANCH  25  26
ATOM     26  N   UNL A   1      32.080  30.985  26.574  1.00  0.00    -0.352 N 
ATOM     27  C   UNL A   1      32.975  31.814  27.201  1.00  0.00     0.251 C 
ATOM     28  H   UNL A   1      31.304  31.479  26.223  1.00  0.00     0.163 HD
ATOM     29  O   UNL A   1      32.578  32.963  27.419  1.00  0.00    -0.269 OA
BRANCH  27  30
ATOM     30  C   UNL A   1      34.359  31.481  27.649  1.00  0.00     0.039 A 
ATOM     31  C   UNL A   1      34.580  30.143  28.021  1.00  0.00     0.014 A 
ATOM     32  C   UNL A   1      35.338  32.420  27.988  1.00  0.00     0.014 A 
ATOM     33  C   UNL A   1      35.730  29.749  28.728  1.00  0.00     0.010 A 
ATOM     34  C   UNL A   1      36.517  32.012  28.677  1.00  0.00     0.010 A 
ATOM     35  C   UNL A   1      36.725  30.675  29.075  1.00  0.00    -0.014 A 
BRANCH  35  36
ATOM     36  C   UNL A   1      37.932  30.216  29.855  1.00  0.00     0.031 A 
ATOM     37  C   UNL A   1      38.169  30.639  31.292  1.00  0.00     0.074 A 
ATOM     38  C   UNL A   1      38.825  29.366  29.300  1.00  0.00     0.049 A 
ATOM     39  N   UNL A   1      39.147  30.315  32.110  1.00  0.00    -0.248 NA
ATOM     40  C   UNL A   1      37.183  31.552  31.884  1.00  0.00     0.031 C 
ATOM     41  C   UNL A   1      38.757  28.857  27.931  1.00  0.00     0.029 A 
ATOM     42  N   UNL A   1      39.959  28.773  29.815  1.00  0.00    -0.354 N 
ATOM     43  C   UNL A   1      38.905  30.994  33.300  1.00  0.00     0.074 A 
ATOM     44  C   UNL A   1      37.704  31.776  33.084  1.00  0.00     0.031 C 
ATOM     45  C   UNL A   1      39.783  28.016  27.722  1.00  0.00     0.029 A 
ATOM     46  C   UNL A   1      40.610  27.951  28.924  1.00  0.00     0.049 A 
ATOM     47  H   UNL A   1      40.273  28.924  30.736  1.00  0.00     0.167 HD
ATOM     48  C   UNL A   1      39.600  30.965  34.468  1.00  0.00     0.037 A 
ATOM     49  C   UNL A   1      41.748  27.233  29.044  1.00  0.00     0.037 A 
ATOM     50  C   UNL A   1      40.783  30.174  34.715  1.00  0.00     0.049 A 
ATOM     51  C   UNL A   1      42.517  27.239  30.340  1.00  0.00     0.074 A 
ATOM     52  C   UNL A   1      41.512  30.053  35.888  1.00  0.00     0.029 A 
ATOM     53  N   UNL A   1      41.414  29.372  33.776  1.00  0.00    -0.354 N 
ATOM     54  N   UNL A   1      42.242  27.848  31.466  1.00  0.00    -0.248 NA
ATOM     55  C   UNL A   1      43.759  26.447  30.382  1.00  0.00     0.031 C 
ATOM     56  C   UNL A   1      42.613  29.224  35.644  1.00  0.00     0.029 A 
ATOM     57  C   UNL A   1      42.537  28.779  34.337  1.00  0.00     0.049 A 
ATOM     58  H   UNL A   1      41.111  29.244  32.848  1.00  0.00     0.167 HD
ATOM     59  C   UNL A   1      43.252  27.493  32.352  1.00  0.00     0.074 A 
ATOM     60  C   UNL A   1      44.139  26.600  31.642  1.00  0.00     0.031 C 
ATOM     61  C   UNL A   1      43.422  27.879  33.640  1.00  0.00     0.037 A 
BRANCH  48  62
ATOM     62  C   UNL A   1      39.106  31.832  35.599  1.00  0.00     0.064 A 
ATOM     63  C   UNL A   1      38.241  31.337  36.586  1.00  0.00     0.173 A 
ATOM     64  C   UNL A   1      39.556  33.157  35.731  1.00  0.00     0.173 A 
ATOM     65  F   UNL A   1      37.785  30.078  36.514  1.00  0.00    -0.203 F 
ATOM     66  C   UNL A   1      37.814  32.145  37.638  1.00  0.00     0.198 A 
ATOM     67  C   UNL A   1      39.153  33.950  36.803  1.00  0.00     0.198 A 
ATOM     68  F   UNL A   1      40.404  33.677  34.832  1.00  0.00    -0.203 F 
ATOM     69  F   UNL A   1      36.947  31.663  38.541  1.00  0.00    -0.200 F 
ATOM     70  C   UNL A   1      38.275  33.448  37.750  1.00  0.00     0.200 A 
ATOM     71  F   UNL A   1      39.618  35.202  36.921  1.00  0.00    -0.200 F 
ATOM     72  F   UNL A   1      37.868  34.220  38.766  1.00  0.00    -0.200 F 
ENDBRANCH  48  62
BRANCH  49  73
ATOM     73  C   UNL A   1      42.245  26.432  27.889  1.00  0.00     0.064 A 
ATOM     74  C   UNL A   1      43.173  26.966  26.983  1.00  0.00     0.173 A 
ATOM     75  C   UNL A   1      41.780  25.130  27.653  1.00  0.00     0.173 A 
ATOM     76  F   UNL A   1      43.623  28.220  27.144  1.00  0.00    -0.203 F 
ATOM     77  C   UNL A   1      43.604  26.235  25.877  1.00  0.00     0.198 A 
ATOM     78  C   UNL A   1      42.237  24.387  26.565  1.00  0.00     0.198 A 
ATOM     79  F   UNL A   1      40.886  24.575  28.482  1.00  0.00    -0.203 F 
ATOM     80  F   UNL A   1      44.449  26.789  24.998  1.00  0.00    -0.200 F 
ATOM     81  C   UNL A   1      43.142  24.943  25.673  1.00  0.00     0.200 A 
ATOM     82  F   UNL A   1      41.796  23.136  26.377  1.00  0.00    -0.200 F 
ATOM     83  F   UNL A   1      43.559  24.239  24.612  1.00  0.00    -0.200 F 
ENDBRANCH  49  73
BRANCH  61  84
ATOM     84  C   UNL A   1      44.593  27.307  34.394  1.00  0.00     0.064 A 
ATOM     85  C   UNL A   1      44.504  26.091  35.089  1.00  0.00     0.173 A 
ATOM     86  C   UNL A   1      45.832  27.966  34.390  1.00  0.00     0.173 A 
ATOM     87  F   UNL A   1      43.341  25.425  35.139  1.00  0.00    -0.203 F 
ATOM     88  C   UNL A   1      45.603  25.572  35.772  1.00  0.00     0.198 A 
ATOM     89  C   UNL A   1      46.937  27.429  35.048  1.00  0.00     0.198 A 
ATOM     90  F   UNL A   1      45.977  29.130  33.738  1.00  0.00    -0.203 F 
ATOM     91  F   UNL A   1      45.479  24.433  36.469  1.00  0.00    -0.200 F 
ATOM     92  C   UNL A   1      46.820  26.237  35.745  1.00  0.00     0.200 A 
ATOM     93  F   UNL A   1      48.114  28.067  35.008  1.00  0.00    -0.200 F 
ATOM     94  F   UNL A   1      47.877  25.732  36.396  1.00  0.00    -0.200 F 
ENDBRANCH  61  84
ENDBRANCH  35  36
ENDBRANCH  27  30
ENDBRANCH  25  26
ENDBRANCH  24  25
ENDBRANCH   1  24
TORSDOF 15
ENDMDL
