MODEL 1
REMARK VINA RESULT:     -13.4      0.000      0.000
REMARK SMILES CC(C)Cc1cc2c(cc1Cl)C=C(C(=O)NCCCNC(=O)c1ccc(-c3c4nc(c(-c5c(F)c(F)c(F)c(F)c5F)c5ccc([nH]5)c(-c5c(F)c(F)c(F)c(F)c5F)c5nc(c(-c6c(F)c(F)c(F)c(F)c6F)c6ccc3[nH]6)C=C5)C=C4)cc1)[C@@H](C(F)(F)F)O2
REMARK SMILES IDX 18 1 17 2 16 3 14 4 15 5 13 7 5 8 6 9 10 10 7 11 9 12 11 13
REMARK SMILES IDX 8 14 91 15 12 16 86 17 4 18 2 19 1 20 3 21 87 22 88 23 89 24
REMARK SMILES IDX 90 25 19 26 20 27 21 28 22 30 23 31 24 32 85 33 25 34 84 35
REMARK SMILES IDX 26 36 27 37 28 38 78 39 29 40 83 41 77 42 79 43 30 44 82 45
REMARK SMILES IDX 76 46 75 47 31 49 63 50 43 51 62 52 44 53 47 54 61 55 80 56
REMARK SMILES IDX 45 57 46 58 60 60 81 61 48 62 32 63 33 64 41 65 34 66 35 67
REMARK SMILES IDX 39 68 42 69 36 70 37 71 40 72 38 73 64 74 65 75 73 76 66 77
REMARK SMILES IDX 67 78 71 79 74 80 68 81 69 82 72 83 70 84 49 85 50 86 58 87
REMARK SMILES IDX 51 88 52 89 56 90 59 91 53 92 54 93 57 94 55 95
REMARK H PARENT 16 6 20 29 79 48 47 59
REMARK Flexibility Score: inf
ROOT
ATOM      1  C   UNL A   1      31.479  32.117  26.670  1.00  0.00     0.042 C 
ENDROOT
BRANCH   1   2
ATOM      2  C   UNL A   1      31.683  30.633  26.406  1.00  0.00     0.118 C 
BRANCH   2   3
ATOM      3  N   UNL A   1      31.357  30.278  25.033  1.00  0.00    -0.352 N 
ATOM      4  C   UNL A   1      31.315  29.157  24.279  1.00  0.00     0.251 C 
ATOM      5  O   UNL A   1      31.002  29.338  23.097  1.00  0.00    -0.270 OA
ATOM      6  H   UNL A   1      31.096  31.071  24.511  1.00  0.00     0.163 HD
BRANCH   4   7
ATOM      7  C   UNL A   1      31.606  27.778  24.764  1.00  0.00     0.067 C 
ATOM      8  C   UNL A   1      33.925  23.499  26.115  1.00  0.00    -0.025 A 
ATOM      9  C   UNL A   1      32.607  23.979  26.209  1.00  0.00     0.052 A 
ATOM     10  C   UNL A   1      34.918  24.369  25.633  1.00  0.00     0.045 A 
ATOM     11  C   UNL A   1      32.291  25.272  25.797  1.00  0.00     0.128 A 
ATOM     12  C   UNL A   1      34.596  25.671  25.231  1.00  0.00     0.032 A 
ATOM     13  Cl  UNL A   1      36.574  23.891  25.499  1.00  0.00    -0.084 Cl
ATOM     14  C   UNL A   1      33.276  26.122  25.303  1.00  0.00     0.019 A 
ATOM     15  O   UNL A   1      30.990  25.661  25.937  1.00  0.00    -0.475 OA
ATOM     16  C   UNL A   1      32.911  27.469  24.886  1.00  0.00     0.025 C 
ATOM     17  C   UNL A   1      30.556  26.744  25.066  1.00  0.00     0.314 C 
BRANCH   8  18
ATOM     18  C   UNL A   1      34.188  22.060  26.501  1.00  0.00     0.040 C 
BRANCH  18  19
ATOM     19  C   UNL A   1      34.193  21.095  25.296  1.00  0.00    -0.013 C 
ATOM     20  C   UNL A   1      35.569  20.468  25.053  1.00  0.00     0.008 C 
ATOM     21  C   UNL A   1      33.157  19.990  25.511  1.00  0.00     0.008 C 
ENDBRANCH  18  19
ENDBRANCH   8  18
BRANCH  17  22
ATOM     22  C   UNL A   1      29.918  26.142  23.798  1.00  0.00     0.429 C 
ATOM     23  F   UNL A   1      30.747  26.301  22.737  1.00  0.00    -0.167 F 
ATOM     24  F   UNL A   1      29.691  24.812  23.909  1.00  0.00    -0.167 F 
ATOM     25  F   UNL A   1      28.738  26.717  23.482  1.00  0.00    -0.167 F 
ENDBRANCH  17  22
ENDBRANCH   4   7
ENDBRANCH   2   3
ENDBRANCH   1   2
BRANCH   1  26
ATOM     26  C   UNL A   1      32.716  32.776  27.267  1.00  0.00     0.118 C 
BRANCH  26  27
ATOM     27  N   UNL A   1      32.472  34.165  27.652  1.00  0.00    -0.352 N 
ATOM     28  C   UNL A   1      33.023  34.924  28.658  1.00  0.00     0.251 C 
ATOM     29  H   UNL A   1      31.804  34.633  27.103  1.00  0.00     0.163 HD
ATOM     30  O   UNL A   1      32.515  36.000  28.959  1.00  0.00    -0.269 OA
BRANCH  28  31
ATOM     31  C   UNL A   1      34.210  34.439  29.390  1.00  0.00     0.039 A 
ATOM     32  C   UNL A   1      35.488  34.630  28.866  1.00  0.00     0.014 A 
ATOM     33  C   UNL A   1      34.046  33.787  30.615  1.00  0.00     0.014 A 
ATOM     34  C   UNL A   1      36.572  33.997  29.454  1.00  0.00     0.010 A 
ATOM     35  C   UNL A   1      35.159  33.243  31.265  1.00  0.00     0.010 A 
ATOM     36  C   UNL A   1      36.423  33.294  30.660  1.00  0.00    -0.014 A 
BRANCH  36  37
ATOM     37  C   UNL A   1      37.607  32.617  31.249  1.00  0.00     0.031 A 
ATOM     38  C   UNL A   1      38.063  32.943  32.646  1.00  0.00     0.074 A 
ATOM     39  C   UNL A   1      38.217  31.640  30.550  1.00  0.00     0.049 A 
ATOM     40  N   UNL A   1      39.054  32.429  33.331  1.00  0.00    -0.248 NA
ATOM     41  C   UNL A   1      37.316  33.983  33.371  1.00  0.00     0.031 C 
ATOM     42  C   UNL A   1      37.853  31.225  29.193  1.00  0.00     0.029 A 
ATOM     43  N   UNL A   1      39.239  30.792  30.891  1.00  0.00    -0.354 N 
ATOM     44  C   UNL A   1      39.063  33.096  34.549  1.00  0.00     0.074 A 
ATOM     45  C   UNL A   1      37.996  34.071  34.507  1.00  0.00     0.031 C 
ATOM     46  C   UNL A   1      38.586  30.158  28.848  1.00  0.00     0.029 A 
ATOM     47  C   UNL A   1      39.523  29.858  29.925  1.00  0.00     0.049 A 
ATOM     48  H   UNL A   1      39.724  30.848  31.747  1.00  0.00     0.167 HD
ATOM     49  C   UNL A   1      39.882  32.902  35.610  1.00  0.00     0.037 A 
ATOM     50  C   UNL A   1      40.442  28.875  29.902  1.00  0.00     0.037 A 
ATOM     51  C   UNL A   1      40.917  31.904  35.663  1.00  0.00     0.049 A 
ATOM     52  C   UNL A   1      41.355  28.704  31.083  1.00  0.00     0.074 A 
ATOM     53  C   UNL A   1      41.786  31.618  36.703  1.00  0.00     0.029 A 
ATOM     54  N   UNL A   1      41.217  31.021  34.637  1.00  0.00    -0.354 N 
ATOM     55  N   UNL A   1      41.359  29.352  32.222  1.00  0.00    -0.248 NA
ATOM     56  C   UNL A   1      42.400  27.678  30.967  1.00  0.00     0.031 C 
ATOM     57  C   UNL A   1      42.634  30.586  36.292  1.00  0.00     0.029 A 
ATOM     58  C   UNL A   1      42.269  30.202  35.012  1.00  0.00     0.049 A 
ATOM     59  H   UNL A   1      40.751  30.983  33.770  1.00  0.00     0.167 HD
ATOM     60  C   UNL A   1      42.404  28.815  32.959  1.00  0.00     0.074 A 
ATOM     61  C   UNL A   1      42.993  27.768  32.150  1.00  0.00     0.031 C 
ATOM     62  C   UNL A   1      42.843  29.168  34.191  1.00  0.00     0.037 A 
BRANCH  49  63
ATOM     63  C   UNL A   1      39.702  33.785  36.809  1.00  0.00     0.064 A 
ATOM     64  C   UNL A   1      40.287  35.058  36.879  1.00  0.00     0.173 A 
ATOM     65  C   UNL A   1      38.870  33.386  37.866  1.00  0.00     0.173 A 
ATOM     66  F   UNL A   1      41.102  35.481  35.900  1.00  0.00    -0.203 F 
ATOM     67  C   UNL A   1      40.053  35.895  37.966  1.00  0.00     0.198 A 
ATOM     68  C   UNL A   1      38.619  34.235  38.941  1.00  0.00     0.198 A 
ATOM     69  F   UNL A   1      38.283  32.181  37.845  1.00  0.00    -0.203 F 
ATOM     70  F   UNL A   1      40.643  37.097  38.025  1.00  0.00    -0.200 F 
ATOM     71  C   UNL A   1      39.212  35.488  38.991  1.00  0.00     0.200 A 
ATOM     72  F   UNL A   1      37.797  33.844  39.925  1.00  0.00    -0.200 F 
ATOM     73  F   UNL A   1      38.973  36.301  40.029  1.00  0.00    -0.200 F 
ENDBRANCH  49  63
BRANCH  50  74
ATOM     74  C   UNL A   1      40.542  27.988  28.715  1.00  0.00     0.064 A 
ATOM     75  C   UNL A   1      39.841  26.777  28.660  1.00  0.00     0.173 A 
ATOM     76  C   UNL A   1      41.316  28.347  27.601  1.00  0.00     0.173 A 
ATOM     77  F   UNL A   1      39.104  26.381  29.709  1.00  0.00    -0.203 F 
ATOM     78  C   UNL A   1      39.913  25.956  27.537  1.00  0.00     0.198 A 
ATOM     79  C   UNL A   1      41.364  27.539  26.468  1.00  0.00     0.198 A 
ATOM     80  F   UNL A   1      42.004  29.498  27.604  1.00  0.00    -0.203 F 
ATOM     81  F   UNL A   1      39.257  24.787  27.521  1.00  0.00    -0.200 F 
ATOM     82  C   UNL A   1      40.666  26.342  26.439  1.00  0.00     0.200 A 
ATOM     83  F   UNL A   1      42.080  27.925  25.403  1.00  0.00    -0.200 F 
ATOM     84  F   UNL A   1      40.723  25.558  25.353  1.00  0.00    -0.200 F 
ENDBRANCH  50  74
BRANCH  62  85
ATOM     85  C   UNL A   1      44.016  28.416  34.743  1.00  0.00     0.064 A 
ATOM     86  C   UNL A   1      45.322  28.903  34.599  1.00  0.00     0.173 A 
ATOM     87  C   UNL A   1      43.827  27.236  35.476  1.00  0.00     0.173 A 
ATOM     88  F   UNL A   1      45.552  30.021  33.894  1.00  0.00    -0.203 F 
ATOM     89  C   UNL A   1      46.401  28.228  35.161  1.00  0.00     0.198 A 
ATOM     90  C   UNL A   1      44.906  26.576  36.057  1.00  0.00     0.198 A 
ATOM     91  F   UNL A   1      42.594  26.735  35.646  1.00  0.00    -0.203 F 
ATOM     92  F   UNL A   1      47.645  28.693  34.985  1.00  0.00    -0.200 F 
ATOM     93  C   UNL A   1      46.192  27.070  35.896  1.00  0.00     0.200 A 
ATOM     94  F   UNL A   1      44.700  25.465  36.777  1.00  0.00    -0.200 F 
ATOM     95  F   UNL A   1      47.230  26.429  36.447  1.00  0.00    -0.200 F 
ENDBRANCH  62  85
ENDBRANCH  36  37
ENDBRANCH  28  31
ENDBRANCH  26  27
ENDBRANCH   1  26
TORSDOF 13
ENDMDL
MODEL 2
REMARK VINA RESULT:     -13.4      0.100      1.190
REMARK SMILES CC(C)Cc1cc2c(cc1Cl)C=C(C(=O)NCCCNC(=O)c1ccc(-c3c4nc(c(-c5c(F)c(F)c(F)c(F)c5F)c5ccc([nH]5)c(-c5c(F)c(F)c(F)c(F)c5F)c5nc(c(-c6c(F)c(F)c(F)c(F)c6F)c6ccc3[nH]6)C=C5)C=C4)cc1)[C@@H](C(F)(F)F)O2
REMARK SMILES IDX 18 1 17 2 16 3 14 4 15 5 13 7 5 8 6 9 10 10 7 11 9 12 11 13
REMARK SMILES IDX 8 14 91 15 12 16 86 17 4 18 2 19 1 20 3 21 87 22 88 23 89 24
REMARK SMILES IDX 90 25 19 26 20 27 21 28 22 30 23 31 24 32 85 33 25 34 84 35
REMARK SMILES IDX 26 36 27 37 28 38 78 39 29 40 83 41 77 42 79 43 30 44 82 45
REMARK SMILES IDX 76 46 75 47 31 49 63 50 43 51 62 52 44 53 47 54 61 55 80 56
REMARK SMILES IDX 45 57 46 58 60 60 81 61 48 62 32 63 33 64 41 65 34 66 35 67
REMARK SMILES IDX 39 68 42 69 36 70 37 71 40 72 38 73 64 74 65 75 73 76 66 77
REMARK SMILES IDX 67 78 71 79 74 80 68 81 69 82 72 83 70 84 49 85 50 86 58 87
REMARK SMILES IDX 51 88 52 89 56 90 59 91 53 92 54 93 57 94 55 95
REMARK H PARENT 16 6 20 29 79 48 47 59
REMARK Flexibility Score: inf
ROOT
ATOM      1  C   UNL A   1      31.468  32.070  26.779  1.00  0.00     0.042 C 
ENDROOT
BRANCH   1   2
ATOM      2  C   UNL A   1      31.715  30.600  26.472  1.00  0.00     0.118 C 
BRANCH   2   3
ATOM      3  N   UNL A   1      31.348  30.264  25.105  1.00  0.00    -0.352 N 
ATOM      4  C   UNL A   1      31.272  29.152  24.340  1.00  0.00     0.251 C 
ATOM      5  O   UNL A   1      30.931  29.349  23.169  1.00  0.00    -0.270 OA
ATOM      6  H   UNL A   1      31.083  31.066  24.598  1.00  0.00     0.163 HD
BRANCH   4   7
ATOM      7  C   UNL A   1      31.560  27.764  24.803  1.00  0.00     0.067 C 
ATOM      8  C   UNL A   1      33.872  23.471  26.121  1.00  0.00    -0.025 A 
ATOM      9  C   UNL A   1      32.550  23.942  26.192  1.00  0.00     0.052 A 
ATOM     10  C   UNL A   1      34.871  24.357  25.683  1.00  0.00     0.045 A 
ATOM     11  C   UNL A   1      32.235  25.241  25.800  1.00  0.00     0.128 A 
ATOM     12  C   UNL A   1      34.551  25.666  25.301  1.00  0.00     0.032 A 
ATOM     13  Cl  UNL A   1      36.533  23.892  25.582  1.00  0.00    -0.084 Cl
ATOM     14  C   UNL A   1      33.227  26.108  25.349  1.00  0.00     0.019 A 
ATOM     15  O   UNL A   1      30.929  25.619  25.915  1.00  0.00    -0.475 OA
ATOM     16  C   UNL A   1      32.864  27.461  24.952  1.00  0.00     0.025 C 
ATOM     17  C   UNL A   1      30.509  26.718  25.057  1.00  0.00     0.314 C 
BRANCH   8  18
ATOM     18  C   UNL A   1      34.134  22.026  26.483  1.00  0.00     0.040 C 
BRANCH  18  19
ATOM     19  C   UNL A   1      34.120  21.078  25.264  1.00  0.00    -0.013 C 
ATOM     20  C   UNL A   1      35.498  20.477  24.973  1.00  0.00     0.008 C 
ATOM     21  C   UNL A   1      33.108  19.954  25.493  1.00  0.00     0.008 C 
ENDBRANCH  18  19
ENDBRANCH   8  18
BRANCH  17  22
ATOM     22  C   UNL A   1      29.908  26.140  23.760  1.00  0.00     0.429 C 
ATOM     23  F   UNL A   1      28.679  26.669  23.539  1.00  0.00    -0.167 F 
ATOM     24  F   UNL A   1      30.651  26.428  22.666  1.00  0.00    -0.167 F 
ATOM     25  F   UNL A   1      29.771  24.797  23.800  1.00  0.00    -0.167 F 
ENDBRANCH  17  22
ENDBRANCH   4   7
ENDBRANCH   2   3
ENDBRANCH   1   2
BRANCH   1  26
ATOM     26  C   UNL A   1      32.738  32.797  27.201  1.00  0.00     0.118 C 
BRANCH  26  27
ATOM     27  N   UNL A   1      32.477  34.176  27.610  1.00  0.00    -0.352 N 
ATOM     28  C   UNL A   1      33.013  34.921  28.633  1.00  0.00     0.251 C 
ATOM     29  H   UNL A   1      31.809  34.647  27.063  1.00  0.00     0.163 HD
ATOM     30  O   UNL A   1      32.492  35.987  28.950  1.00  0.00    -0.269 OA
BRANCH  28  31
ATOM     31  C   UNL A   1      34.199  34.434  29.366  1.00  0.00     0.039 A 
ATOM     32  C   UNL A   1      35.478  34.643  28.853  1.00  0.00     0.014 A 
ATOM     33  C   UNL A   1      34.032  33.763  30.580  1.00  0.00     0.014 A 
ATOM     34  C   UNL A   1      36.564  34.009  29.439  1.00  0.00     0.010 A 
ATOM     35  C   UNL A   1      35.144  33.217  31.230  1.00  0.00     0.010 A 
ATOM     36  C   UNL A   1      36.412  33.287  30.634  1.00  0.00    -0.014 A 
BRANCH  36  37
ATOM     37  C   UNL A   1      37.597  32.610  31.221  1.00  0.00     0.031 A 
ATOM     38  C   UNL A   1      38.053  32.935  32.618  1.00  0.00     0.074 A 
ATOM     39  C   UNL A   1      38.208  31.636  30.519  1.00  0.00     0.049 A 
ATOM     40  N   UNL A   1      39.046  32.420  33.302  1.00  0.00    -0.248 NA
ATOM     41  C   UNL A   1      37.305  33.972  33.346  1.00  0.00     0.031 C 
ATOM     42  C   UNL A   1      37.843  31.223  29.162  1.00  0.00     0.029 A 
ATOM     43  N   UNL A   1      39.231  30.788  30.858  1.00  0.00    -0.354 N 
ATOM     44  C   UNL A   1      39.055  33.084  34.521  1.00  0.00     0.074 A 
ATOM     45  C   UNL A   1      37.987  34.058  34.481  1.00  0.00     0.031 C 
ATOM     46  C   UNL A   1      38.578  30.158  28.814  1.00  0.00     0.029 A 
ATOM     47  C   UNL A   1      39.516  29.856  29.890  1.00  0.00     0.049 A 
ATOM     48  H   UNL A   1      39.716  30.843  31.713  1.00  0.00     0.167 HD
ATOM     49  C   UNL A   1      39.874  32.890  35.581  1.00  0.00     0.037 A 
ATOM     50  C   UNL A   1      40.436  28.875  29.864  1.00  0.00     0.037 A 
ATOM     51  C   UNL A   1      40.911  31.893  35.632  1.00  0.00     0.049 A 
ATOM     52  C   UNL A   1      41.349  28.702  31.044  1.00  0.00     0.074 A 
ATOM     53  C   UNL A   1      41.780  31.606  36.670  1.00  0.00     0.029 A 
ATOM     54  N   UNL A   1      41.211  31.012  34.603  1.00  0.00    -0.354 N 
ATOM     55  N   UNL A   1      41.354  29.348  32.184  1.00  0.00    -0.248 NA
ATOM     56  C   UNL A   1      42.396  27.678  30.926  1.00  0.00     0.031 C 
ATOM     57  C   UNL A   1      42.630  30.575  36.257  1.00  0.00     0.029 A 
ATOM     58  C   UNL A   1      42.265  30.193  34.976  1.00  0.00     0.049 A 
ATOM     59  H   UNL A   1      40.745  30.975  33.736  1.00  0.00     0.167 HD
ATOM     60  C   UNL A   1      42.400  28.811  32.920  1.00  0.00     0.074 A 
ATOM     61  C   UNL A   1      42.990  27.766  32.109  1.00  0.00     0.031 C 
ATOM     62  C   UNL A   1      42.839  29.161  34.152  1.00  0.00     0.037 A 
BRANCH  49  63
ATOM     63  C   UNL A   1      39.694  33.770  36.782  1.00  0.00     0.064 A 
ATOM     64  C   UNL A   1      40.282  35.041  36.855  1.00  0.00     0.173 A 
ATOM     65  C   UNL A   1      38.860  33.370  37.836  1.00  0.00     0.173 A 
ATOM     66  F   UNL A   1      41.099  35.465  35.879  1.00  0.00    -0.203 F 
ATOM     67  C   UNL A   1      40.048  35.876  37.945  1.00  0.00     0.198 A 
ATOM     68  C   UNL A   1      38.609  34.216  38.914  1.00  0.00     0.198 A 
ATOM     69  F   UNL A   1      38.271  32.166  37.812  1.00  0.00    -0.203 F 
ATOM     70  F   UNL A   1      40.639  37.077  38.007  1.00  0.00    -0.200 F 
ATOM     71  C   UNL A   1      39.204  35.468  38.968  1.00  0.00     0.200 A 
ATOM     72  F   UNL A   1      37.784  33.824  39.895  1.00  0.00    -0.200 F 
ATOM     73  F   UNL A   1      38.965  36.279  40.007  1.00  0.00    -0.200 F 
ENDBRANCH  49  63
BRANCH  50  74
ATOM     74  C   UNL A   1      40.535  27.990  28.675  1.00  0.00     0.064 A 
ATOM     75  C   UNL A   1      39.851  26.769  28.627  1.00  0.00     0.173 A 
ATOM     76  C   UNL A   1      41.293  28.361  27.554  1.00  0.00     0.173 A 
ATOM     77  F   UNL A   1      39.131  26.363  29.682  1.00  0.00    -0.203 F 
ATOM     78  C   UNL A   1      39.923  25.950  27.502  1.00  0.00     0.198 A 
ATOM     79  C   UNL A   1      41.341  27.554  26.419  1.00  0.00     0.198 A 
ATOM     80  F   UNL A   1      41.965  29.521  27.551  1.00  0.00    -0.203 F 
ATOM     81  F   UNL A   1      39.284  24.772  27.492  1.00  0.00    -0.200 F 
ATOM     82  C   UNL A   1      40.660  26.348  26.396  1.00  0.00     0.200 A 
ATOM     83  F   UNL A   1      42.041  27.951  25.348  1.00  0.00    -0.200 F 
ATOM     84  F   UNL A   1      40.716  25.566  25.310  1.00  0.00    -0.200 F 
ENDBRANCH  50  74
BRANCH  62  85
ATOM     85  C   UNL A   1      44.013  28.410  34.702  1.00  0.00     0.064 A 
ATOM     86  C   UNL A   1      43.842  27.209  35.405  1.00  0.00     0.173 A 
ATOM     87  C   UNL A   1      45.320  28.860  34.471  1.00  0.00     0.173 A 
ATOM     88  F   UNL A   1      42.609  26.748  35.662  1.00  0.00    -0.203 F 
ATOM     89  C   UNL A   1      44.940  26.490  35.866  1.00  0.00     0.198 A 
ATOM     90  C   UNL A   1      46.417  28.126  34.913  1.00  0.00     0.198 A 
ATOM     91  F   UNL A   1      45.534  30.001  33.798  1.00  0.00    -0.203 F 
ATOM     92  F   UNL A   1      44.754  25.360  36.562  1.00  0.00    -0.200 F 
ATOM     93  C   UNL A   1      46.226  26.944  35.613  1.00  0.00     0.200 A 
ATOM     94  F   UNL A   1      47.658  28.561  34.656  1.00  0.00    -0.200 F 
ATOM     95  F   UNL A   1      47.282  26.244  36.046  1.00  0.00    -0.200 F 
ENDBRANCH  62  85
ENDBRANCH  36  37
ENDBRANCH  28  31
ENDBRANCH  26  27
ENDBRANCH   1  26
TORSDOF 13
ENDMDL
MODEL 3
REMARK VINA RESULT:     -13.2      5.492     10.553
REMARK SMILES CC(C)Cc1cc2c(cc1Cl)C=C(C(=O)NCCCNC(=O)c1ccc(-c3c4nc(c(-c5c(F)c(F)c(F)c(F)c5F)c5ccc([nH]5)c(-c5c(F)c(F)c(F)c(F)c5F)c5nc(c(-c6c(F)c(F)c(F)c(F)c6F)c6ccc3[nH]6)C=C5)C=C4)cc1)[C@@H](C(F)(F)F)O2
REMARK SMILES IDX 18 1 17 2 16 3 14 4 15 5 13 7 5 8 6 9 10 10 7 11 9 12 11 13
REMARK SMILES IDX 8 14 91 15 12 16 86 17 4 18 2 19 1 20 3 21 87 22 88 23 89 24
REMARK SMILES IDX 90 25 19 26 20 27 21 28 22 30 23 31 24 32 85 33 25 34 84 35
REMARK SMILES IDX 26 36 27 37 28 38 78 39 29 40 83 41 77 42 79 43 30 44 82 45
REMARK SMILES IDX 76 46 75 47 31 49 63 50 43 51 62 52 44 53 47 54 61 55 80 56
REMARK SMILES IDX 45 57 46 58 60 60 81 61 48 62 32 63 33 64 41 65 34 66 35 67
REMARK SMILES IDX 39 68 42 69 36 70 37 71 40 72 38 73 64 74 65 75 73 76 66 77
REMARK SMILES IDX 67 78 71 79 74 80 68 81 69 82 72 83 70 84 49 85 50 86 58 87
REMARK SMILES IDX 51 88 52 89 56 90 59 91 53 92 54 93 57 94 55 95
REMARK H PARENT 16 6 20 29 79 48 47 59
REMARK Flexibility Score: inf
ROOT
ATOM      1  C   UNL A   1      37.808  19.836  24.992  1.00  0.00     0.042 C 
ENDROOT
BRANCH   1   2
ATOM      2  C   UNL A   1      36.608  20.729  25.271  1.00  0.00     0.118 C 
BRANCH   2   3
ATOM      3  N   UNL A   1      35.364  20.117  24.829  1.00  0.00    -0.352 N 
ATOM      4  C   UNL A   1      34.065  20.475  24.715  1.00  0.00     0.251 C 
ATOM      5  O   UNL A   1      33.315  19.582  24.306  1.00  0.00    -0.270 OA
ATOM      6  H   UNL A   1      35.508  19.189  24.532  1.00  0.00     0.163 HD
BRANCH   4   7
ATOM      7  C   UNL A   1      33.508  21.820  25.034  1.00  0.00     0.067 C 
ATOM      8  C   UNL A   1      32.380  26.743  24.972  1.00  0.00    -0.025 A 
ATOM      9  C   UNL A   1      31.937  25.638  25.719  1.00  0.00     0.052 A 
ATOM     10  C   UNL A   1      33.275  26.515  23.913  1.00  0.00     0.045 A 
ATOM     11  C   UNL A   1      32.404  24.357  25.439  1.00  0.00     0.128 A 
ATOM     12  C   UNL A   1      33.733  25.222  23.629  1.00  0.00     0.032 A 
ATOM     13  Cl  UNL A   1      33.865  27.795  22.913  1.00  0.00    -0.084 Cl
ATOM     14  C   UNL A   1      33.305  24.139  24.400  1.00  0.00     0.019 A 
ATOM     15  O   UNL A   1      31.910  23.340  26.205  1.00  0.00    -0.475 OA
ATOM     16  C   UNL A   1      33.770  22.785  24.132  1.00  0.00     0.025 C 
ATOM     17  C   UNL A   1      32.740  22.146  26.285  1.00  0.00     0.314 C 
BRANCH   8  18
ATOM     18  C   UNL A   1      31.898  28.118  25.379  1.00  0.00     0.040 C 
BRANCH  18  19
ATOM     19  C   UNL A   1      32.455  28.582  26.742  1.00  0.00    -0.013 C 
ATOM     20  C   UNL A   1      33.982  28.501  26.810  1.00  0.00     0.008 C 
ATOM     21  C   UNL A   1      32.004  30.017  27.025  1.00  0.00     0.008 C 
ENDBRANCH  18  19
ENDBRANCH   8  18
BRANCH  17  22
ATOM     22  C   UNL A   1      33.636  22.242  27.536  1.00  0.00     0.429 C 
ATOM     23  F   UNL A   1      34.276  21.064  27.745  1.00  0.00    -0.167 F 
ATOM     24  F   UNL A   1      34.600  23.185  27.417  1.00  0.00    -0.167 F 
ATOM     25  F   UNL A   1      32.941  22.531  28.657  1.00  0.00    -0.167 F 
ENDBRANCH  17  22
ENDBRANCH   4   7
ENDBRANCH   2   3
ENDBRANCH   1   2
BRANCH   1  26
ATOM     26  C   UNL A   1      39.067  20.316  25.701  1.00  0.00     0.118 C 
BRANCH  26  27
ATOM     27  N   UNL A   1      40.074  19.263  25.817  1.00  0.00    -0.352 N 
ATOM     28  C   UNL A   1      41.427  19.341  26.049  1.00  0.00     0.251 C 
ATOM     29  H   UNL A   1      39.727  18.349  25.709  1.00  0.00     0.163 HD
ATOM     30  O   UNL A   1      42.134  18.351  25.881  1.00  0.00    -0.269 OA
BRANCH  28  31
ATOM     31  C   UNL A   1      42.035  20.616  26.480  1.00  0.00     0.039 A 
ATOM     32  C   UNL A   1      42.114  20.936  27.835  1.00  0.00     0.014 A 
ATOM     33  C   UNL A   1      42.533  21.502  25.521  1.00  0.00     0.014 A 
ATOM     34  C   UNL A   1      42.496  22.213  28.216  1.00  0.00     0.010 A 
ATOM     35  C   UNL A   1      43.023  22.750  25.918  1.00  0.00     0.010 A 
ATOM     36  C   UNL A   1      42.955  23.138  27.264  1.00  0.00    -0.014 A 
BRANCH  36  37
ATOM     37  C   UNL A   1      43.341  24.501  27.712  1.00  0.00     0.031 A 
ATOM     38  C   UNL A   1      44.782  24.933  27.703  1.00  0.00     0.074 A 
ATOM     39  C   UNL A   1      42.373  25.379  28.044  1.00  0.00     0.049 A 
ATOM     40  N   UNL A   1      45.297  26.093  28.029  1.00  0.00    -0.248 NA
ATOM     41  C   UNL A   1      45.780  23.939  27.277  1.00  0.00     0.031 C 
ATOM     42  C   UNL A   1      40.941  25.078  28.074  1.00  0.00     0.029 A 
ATOM     43  N   UNL A   1      42.439  26.707  28.378  1.00  0.00    -0.354 N 
ATOM     44  C   UNL A   1      46.671  25.959  27.872  1.00  0.00     0.074 A 
ATOM     45  C   UNL A   1      46.918  24.600  27.445  1.00  0.00     0.031 C 
ATOM     46  C   UNL A   1      40.260  26.203  28.334  1.00  0.00     0.029 A 
ATOM     47  C   UNL A   1      41.208  27.287  28.563  1.00  0.00     0.049 A 
ATOM     48  H   UNL A   1      43.287  27.197  28.477  1.00  0.00     0.167 HD
ATOM     49  C   UNL A   1      47.635  26.891  28.057  1.00  0.00     0.037 A 
ATOM     50  C   UNL A   1      40.877  28.550  28.891  1.00  0.00     0.037 A 
ATOM     51  C   UNL A   1      47.382  28.254  28.445  1.00  0.00     0.049 A 
ATOM     52  C   UNL A   1      41.971  29.554  29.117  1.00  0.00     0.074 A 
ATOM     53  C   UNL A   1      48.293  29.278  28.638  1.00  0.00     0.029 A 
ATOM     54  N   UNL A   1      46.124  28.786  28.687  1.00  0.00    -0.354 N 
ATOM     55  N   UNL A   1      43.266  29.408  28.978  1.00  0.00    -0.248 NA
ATOM     56  C   UNL A   1      41.559  30.892  29.564  1.00  0.00     0.031 C 
ATOM     57  C   UNL A   1      47.589  30.420  29.032  1.00  0.00     0.029 A 
ATOM     58  C   UNL A   1      46.237  30.119  29.046  1.00  0.00     0.049 A 
ATOM     59  H   UNL A   1      45.277  28.289  28.616  1.00  0.00     0.167 HD
ATOM     60  C   UNL A   1      43.824  30.631  29.319  1.00  0.00     0.074 A 
ATOM     61  C   UNL A   1      42.726  31.517  29.644  1.00  0.00     0.031 C 
ATOM     62  C   UNL A   1      45.131  30.983  29.369  1.00  0.00     0.037 A 
BRANCH  49  63
ATOM     63  C   UNL A   1      49.062  26.480  27.848  1.00  0.00     0.064 A 
ATOM     64  C   UNL A   1      49.618  26.382  26.564  1.00  0.00     0.173 A 
ATOM     65  C   UNL A   1      49.905  26.258  28.947  1.00  0.00     0.173 A 
ATOM     66  F   UNL A   1      48.850  26.571  25.480  1.00  0.00    -0.203 F 
ATOM     67  C   UNL A   1      50.963  26.069  26.388  1.00  0.00     0.198 A 
ATOM     68  C   UNL A   1      51.255  25.968  28.769  1.00  0.00     0.198 A 
ATOM     69  F   UNL A   1      49.424  26.344  30.196  1.00  0.00    -0.203 F 
ATOM     70  F   UNL A   1      51.468  25.955  25.152  1.00  0.00    -0.200 F 
ATOM     71  C   UNL A   1      51.783  25.872  27.490  1.00  0.00     0.200 A 
ATOM     72  F   UNL A   1      52.048  25.790  29.835  1.00  0.00    -0.200 F 
ATOM     73  F   UNL A   1      53.081  25.588  27.319  1.00  0.00    -0.200 F 
ENDBRANCH  49  63
BRANCH  50  74
ATOM     74  C   UNL A   1      39.446  28.924  29.028  1.00  0.00     0.064 A 
ATOM     75  C   UNL A   1      38.796  28.838  30.266  1.00  0.00     0.173 A 
ATOM     76  C   UNL A   1      38.709  29.399  27.934  1.00  0.00     0.173 A 
ATOM     77  F   UNL A   1      39.453  28.371  31.337  1.00  0.00    -0.203 F 
ATOM     78  C   UNL A   1      37.461  29.212  30.403  1.00  0.00     0.198 A 
ATOM     79  C   UNL A   1      37.383  29.798  28.078  1.00  0.00     0.198 A 
ATOM     80  F   UNL A   1      39.287  29.500  26.728  1.00  0.00    -0.203 F 
ATOM     81  F   UNL A   1      36.852  29.094  31.591  1.00  0.00    -0.200 F 
ATOM     82  C   UNL A   1      36.759  29.701  29.311  1.00  0.00     0.200 A 
ATOM     83  F   UNL A   1      36.714  30.285  27.023  1.00  0.00    -0.200 F 
ATOM     84  F   UNL A   1      35.479  30.073  29.447  1.00  0.00    -0.200 F 
ENDBRANCH  50  74
BRANCH  62  85
ATOM     85  C   UNL A   1      45.449  32.386  29.789  1.00  0.00     0.064 A 
ATOM     86  C   UNL A   1      45.482  33.432  28.858  1.00  0.00     0.173 A 
ATOM     87  C   UNL A   1      45.658  32.695  31.140  1.00  0.00     0.173 A 
ATOM     88  F   UNL A   1      45.301  33.180  27.553  1.00  0.00    -0.203 F 
ATOM     89  C   UNL A   1      45.725  34.741  29.263  1.00  0.00     0.198 A 
ATOM     90  C   UNL A   1      45.877  34.009  31.546  1.00  0.00     0.198 A 
ATOM     91  F   UNL A   1      45.630  31.727  32.069  1.00  0.00    -0.203 F 
ATOM     92  F   UNL A   1      45.783  35.723  28.354  1.00  0.00    -0.200 F 
ATOM     93  C   UNL A   1      45.914  35.029  30.607  1.00  0.00     0.200 A 
ATOM     94  F   UNL A   1      46.048  34.286  32.846  1.00  0.00    -0.200 F 
ATOM     95  F   UNL A   1      46.135  36.291  30.998  1.00  0.00    -0.200 F 
ENDBRANCH  62  85
ENDBRANCH  36  37
ENDBRANCH  28  31
ENDBRANCH  26  27
ENDBRANCH   1  26
TORSDOF 13
ENDMDL
