MODEL 1
REMARK VINA RESULT:     -12.7      0.000      0.000
REMARK SMILES CCC[C@H](NC(=O)c1cc2ccccc2[nH]1)C(=O)NCCCNC(=O)c1ccc(-c2c3nc(c(-c4c(F)c(F)c(F)c(F)c4F)c4ccc([nH]4)c(-c4c(F)c(F)c(F)c(F)c4F)c4nc(c(-c5c(F)c(F)c(F)c(F)c5F)c5ccc2[nH]5)C=C4)C=C3)cc1
REMARK SMILES IDX 21 1 20 2 19 3 17 4 18 5 4 7 3 8 2 9 1 10 5 11 6 12 7 14
REMARK SMILES IDX 8 15 9 16 16 17 10 18 15 19 11 21 14 22 12 23 13 24 22 25
REMARK SMILES IDX 23 26 24 27 25 29 26 30 27 31 88 32 28 33 87 34 29 35 30 36
REMARK SMILES IDX 31 37 81 38 32 39 86 40 80 41 82 42 33 43 85 44 79 45 78 46
REMARK SMILES IDX 34 48 66 49 46 50 65 51 47 52 50 53 64 54 83 55 48 56 49 57
REMARK SMILES IDX 63 59 84 60 51 61 35 62 36 63 44 64 37 65 38 66 42 67 45 68
REMARK SMILES IDX 39 69 40 70 43 71 41 72 67 73 68 74 76 75 69 76 70 77 74 78
REMARK SMILES IDX 77 79 71 80 72 81 75 82 73 83 52 84 53 85 61 86 54 87 55 88
REMARK SMILES IDX 59 89 62 90 56 91 57 92 60 93 58 94
REMARK H PARENT 19 6 5 13 16 20 23 28 82 47 50 58
REMARK Flexibility Score: inf
ROOT
ATOM      1  C   UNL A   1      31.548  32.173  26.617  1.00  0.00     0.042 C 
ENDROOT
BRANCH   1   2
ATOM      2  C   UNL A   1      31.735  30.678  26.400  1.00  0.00     0.117 C 
BRANCH   2   3
ATOM      3  N   UNL A   1      32.974  30.215  26.974  1.00  0.00    -0.354 N 
ATOM      4  C   UNL A   1      33.685  29.093  26.679  1.00  0.00     0.242 C 
ATOM      5  O   UNL A   1      34.756  28.940  27.274  1.00  0.00    -0.273 OA
ATOM      6  H   UNL A   1      33.359  30.789  27.674  1.00  0.00     0.163 HD
BRANCH   4   7
ATOM      7  C   UNL A   1      33.259  28.097  25.565  1.00  0.00     0.171 C 
BRANCH   7   8
ATOM      8  C   UNL A   1      33.283  26.658  26.084  1.00  0.00     0.035 C 
BRANCH   8   9
ATOM      9  C   UNL A   1      31.988  25.866  25.874  1.00  0.00    -0.001 C 
ATOM     10  C   UNL A   1      30.753  26.722  26.130  1.00  0.00     0.004 C 
ENDBRANCH   8   9
ENDBRANCH   7   8
BRANCH   7  11
ATOM     11  N   UNL A   1      33.812  28.361  24.210  1.00  0.00    -0.339 N 
ATOM     12  C   UNL A   1      33.388  28.561  22.920  1.00  0.00     0.268 C 
ATOM     13  H   UNL A   1      34.794  28.405  24.252  1.00  0.00     0.164 HD
ATOM     14  O   UNL A   1      34.265  28.580  22.056  1.00  0.00    -0.268 OA
BRANCH  12  15
ATOM     15  C   UNL A   1      31.994  28.658  22.584  1.00  0.00     0.105 A 
ATOM     16  C   UNL A   1      31.013  27.680  22.681  1.00  0.00     0.042 A 
ATOM     17  N   UNL A   1      31.350  29.713  21.980  1.00  0.00    -0.351 N 
ATOM     18  C   UNL A   1      29.763  28.359  22.708  1.00  0.00     0.000 A 
ATOM     19  C   UNL A   1      30.017  29.671  22.320  1.00  0.00     0.046 A 
ATOM     20  H   UNL A   1      31.774  30.386  21.401  1.00  0.00     0.167 HD
ATOM     21  C   UNL A   1      28.458  28.004  23.091  1.00  0.00     0.010 A 
ATOM     22  C   UNL A   1      29.042  30.672  22.321  1.00  0.00     0.026 A 
ATOM     23  C   UNL A   1      27.474  29.000  23.136  1.00  0.00     0.001 A 
ATOM     24  C   UNL A   1      27.767  30.313  22.766  1.00  0.00     0.002 A 
ENDBRANCH  12  15
ENDBRANCH   7  11
ENDBRANCH   4   7
ENDBRANCH   2   3
ENDBRANCH   1   2
BRANCH   1  25
ATOM     25  C   UNL A   1      32.773  32.834  27.227  1.00  0.00     0.118 C 
BRANCH  25  26
ATOM     26  N   UNL A   1      32.502  34.212  27.632  1.00  0.00    -0.352 N 
ATOM     27  C   UNL A   1      33.036  34.955  28.658  1.00  0.00     0.251 C 
ATOM     28  H   UNL A   1      31.833  34.682  27.084  1.00  0.00     0.163 HD
ATOM     29  O   UNL A   1      32.531  36.026  28.966  1.00  0.00    -0.269 OA
BRANCH  27  30
ATOM     30  C   UNL A   1      34.208  34.448  29.401  1.00  0.00     0.039 A 
ATOM     31  C   UNL A   1      34.009  33.771  30.607  1.00  0.00     0.014 A 
ATOM     32  C   UNL A   1      35.500  34.644  28.910  1.00  0.00     0.014 A 
ATOM     33  C   UNL A   1      35.103  33.228  31.283  1.00  0.00     0.010 A 
ATOM     34  C   UNL A   1      36.574  34.020  29.530  1.00  0.00     0.010 A 
ATOM     35  C   UNL A   1      36.389  33.315  30.729  1.00  0.00    -0.014 A 
BRANCH  35  36
ATOM     36  C   UNL A   1      37.573  32.713  31.390  1.00  0.00     0.031 A 
ATOM     37  C   UNL A   1      38.289  31.572  30.720  1.00  0.00     0.074 A 
ATOM     38  C   UNL A   1      37.948  33.130  32.614  1.00  0.00     0.049 A 
ATOM     39  N   UNL A   1      39.236  30.798  31.187  1.00  0.00    -0.248 NA
ATOM     40  C   UNL A   1      37.859  31.235  29.353  1.00  0.00     0.031 C 
ATOM     41  C   UNL A   1      37.312  34.206  33.376  1.00  0.00     0.029 A 
ATOM     42  N   UNL A   1      38.946  32.683  33.444  1.00  0.00    -0.354 N 
ATOM     43  C   UNL A   1      39.502  29.881  30.178  1.00  0.00     0.074 A 
ATOM     44  C   UNL A   1      38.573  30.147  29.103  1.00  0.00     0.031 C 
ATOM     45  C   UNL A   1      37.945  34.346  34.554  1.00  0.00     0.029 A 
ATOM     46  C   UNL A   1      38.997  33.338  34.650  1.00  0.00     0.049 A 
ATOM     47  H   UNL A   1      39.568  31.961  33.197  1.00  0.00     0.167 HD
ATOM     48  C   UNL A   1      40.457  28.923  30.139  1.00  0.00     0.037 A 
ATOM     49  C   UNL A   1      39.790  33.132  35.718  1.00  0.00     0.037 A 
ATOM     50  C   UNL A   1      41.394  28.677  31.201  1.00  0.00     0.049 A 
ATOM     51  C   UNL A   1      40.820  32.034  35.660  1.00  0.00     0.074 A 
ATOM     52  C   UNL A   1      42.410  27.741  31.257  1.00  0.00     0.029 A 
ATOM     53  N   UNL A   1      41.432  29.385  32.394  1.00  0.00    -0.354 N 
ATOM     54  N   UNL A   1      41.087  31.197  34.687  1.00  0.00    -0.248 NA
ATOM     55  C   UNL A   1      41.663  31.852  36.851  1.00  0.00     0.031 C 
ATOM     56  C   UNL A   1      43.043  27.858  32.498  1.00  0.00     0.029 A 
ATOM     57  C   UNL A   1      42.454  28.902  33.193  1.00  0.00     0.049 A 
ATOM     58  H   UNL A   1      40.824  30.120  32.636  1.00  0.00     0.167 HD
ATOM     59  C   UNL A   1      42.156  30.427  35.127  1.00  0.00     0.074 A 
ATOM     60  C   UNL A   1      42.493  30.899  36.453  1.00  0.00     0.031 C 
ATOM     61  C   UNL A   1      42.799  29.417  34.492  1.00  0.00     0.037 A 
BRANCH  48  62
ATOM     62  C   UNL A   1      40.554  28.087  28.896  1.00  0.00     0.064 A 
ATOM     63  C   UNL A   1      39.841  26.885  28.770  1.00  0.00     0.173 A 
ATOM     64  C   UNL A   1      41.323  28.511  27.803  1.00  0.00     0.173 A 
ATOM     65  F   UNL A   1      39.102  26.428  29.792  1.00  0.00    -0.203 F 
ATOM     66  C   UNL A   1      39.912  26.127  27.605  1.00  0.00     0.198 A 
ATOM     67  C   UNL A   1      41.367  27.766  26.627  1.00  0.00     0.198 A 
ATOM     68  F   UNL A   1      42.021  29.654  27.868  1.00  0.00    -0.203 F 
ATOM     69  F   UNL A   1      39.259  24.960  27.526  1.00  0.00    -0.200 F 
ATOM     70  C   UNL A   1      40.667  26.573  26.531  1.00  0.00     0.200 A 
ATOM     71  F   UNL A   1      42.086  28.205  25.584  1.00  0.00    -0.200 F 
ATOM     72  F   UNL A   1      40.724  25.849  25.404  1.00  0.00    -0.200 F 
ENDBRANCH  48  62
BRANCH  49  73
ATOM     73  C   UNL A   1      39.659  33.979  36.935  1.00  0.00     0.064 A 
ATOM     74  C   UNL A   1      38.882  33.558  38.023  1.00  0.00     0.173 A 
ATOM     75  C   UNL A   1      40.259  35.244  37.017  1.00  0.00     0.173 A 
ATOM     76  F   UNL A   1      38.271  32.364  37.987  1.00  0.00    -0.203 F 
ATOM     77  C   UNL A   1      38.674  34.385  39.125  1.00  0.00     0.198 A 
ATOM     78  C   UNL A   1      40.079  36.057  38.134  1.00  0.00     0.198 A 
ATOM     79  F   UNL A   1      41.018  35.696  36.007  1.00  0.00    -0.203 F 
ATOM     80  F   UNL A   1      37.865  33.985  40.117  1.00  0.00    -0.200 F 
ATOM     81  C   UNL A   1      39.274  35.633  39.180  1.00  0.00     0.200 A 
ATOM     82  F   UNL A   1      40.671  37.257  38.190  1.00  0.00    -0.200 F 
ATOM     83  F   UNL A   1      39.063  36.434  40.234  1.00  0.00    -0.200 F 
ENDBRANCH  49  73
BRANCH  61  84
ATOM     84  C   UNL A   1      43.982  28.806  35.186  1.00  0.00     0.064 A 
ATOM     85  C   UNL A   1      45.284  29.291  34.999  1.00  0.00     0.173 A 
ATOM     86  C   UNL A   1      43.795  27.756  36.098  1.00  0.00     0.173 A 
ATOM     87  F   UNL A   1      45.516  30.284  34.128  1.00  0.00    -0.203 F 
ATOM     88  C   UNL A   1      46.359  28.730  35.682  1.00  0.00     0.198 A 
ATOM     89  C   UNL A   1      44.868  27.219  36.804  1.00  0.00     0.198 A 
ATOM     90  F   UNL A   1      42.567  27.262  36.318  1.00  0.00    -0.203 F 
ATOM     91  F   UNL A   1      47.601  29.178  35.454  1.00  0.00    -0.200 F 
ATOM     92  C   UNL A   1      46.149  27.702  36.590  1.00  0.00     0.200 A 
ATOM     93  F   UNL A   1      44.660  26.238  37.693  1.00  0.00    -0.200 F 
ATOM     94  F   UNL A   1      47.184  27.174  37.257  1.00  0.00    -0.200 F 
ENDBRANCH  61  84
ENDBRANCH  35  36
ENDBRANCH  27  30
ENDBRANCH  25  26
ENDBRANCH   1  25
TORSDOF 14
ENDMDL
MODEL 2
REMARK VINA RESULT:     -12.6      0.349      1.677
REMARK SMILES CCC[C@H](NC(=O)c1cc2ccccc2[nH]1)C(=O)NCCCNC(=O)c1ccc(-c2c3nc(c(-c4c(F)c(F)c(F)c(F)c4F)c4ccc([nH]4)c(-c4c(F)c(F)c(F)c(F)c4F)c4nc(c(-c5c(F)c(F)c(F)c(F)c5F)c5ccc2[nH]5)C=C4)C=C3)cc1
REMARK SMILES IDX 21 1 20 2 19 3 17 4 18 5 4 7 3 8 2 9 1 10 5 11 6 12 7 14
REMARK SMILES IDX 8 15 9 16 16 17 10 18 15 19 11 21 14 22 12 23 13 24 22 25
REMARK SMILES IDX 23 26 24 27 25 29 26 30 27 31 88 32 28 33 87 34 29 35 30 36
REMARK SMILES IDX 31 37 81 38 32 39 86 40 80 41 82 42 33 43 85 44 79 45 78 46
REMARK SMILES IDX 34 48 66 49 46 50 65 51 47 52 50 53 64 54 83 55 48 56 49 57
REMARK SMILES IDX 63 59 84 60 51 61 35 62 36 63 44 64 37 65 38 66 42 67 45 68
REMARK SMILES IDX 39 69 40 70 43 71 41 72 67 73 68 74 76 75 69 76 70 77 74 78
REMARK SMILES IDX 77 79 71 80 72 81 75 82 73 83 52 84 53 85 61 86 54 87 55 88
REMARK SMILES IDX 59 89 62 90 56 91 57 92 60 93 58 94
REMARK H PARENT 19 6 5 13 16 20 23 28 82 47 50 58
REMARK Flexibility Score: inf
ROOT
ATOM      1  C   UNL A   1      31.479  32.208  26.666  1.00  0.00     0.042 C 
ENDROOT
BRANCH   1   2
ATOM      2  C   UNL A   1      31.680  30.721  26.416  1.00  0.00     0.117 C 
BRANCH   2   3
ATOM      3  N   UNL A   1      32.924  30.256  26.980  1.00  0.00    -0.354 N 
ATOM      4  C   UNL A   1      33.631  29.133  26.683  1.00  0.00     0.242 C 
ATOM      5  O   UNL A   1      34.706  28.979  27.270  1.00  0.00    -0.273 OA
ATOM      6  H   UNL A   1      33.315  30.832  27.677  1.00  0.00     0.163 HD
BRANCH   4   7
ATOM      7  C   UNL A   1      33.193  28.135  25.575  1.00  0.00     0.171 C 
BRANCH   7   8
ATOM      8  C   UNL A   1      33.181  26.701  26.109  1.00  0.00     0.035 C 
BRANCH   8   9
ATOM      9  C   UNL A   1      34.014  25.697  25.305  1.00  0.00    -0.001 C 
ATOM     10  C   UNL A   1      33.796  24.267  25.786  1.00  0.00     0.004 C 
ENDBRANCH   8   9
ENDBRANCH   7   8
BRANCH   7  11
ATOM     11  N   UNL A   1      33.766  28.372  24.223  1.00  0.00    -0.339 N 
ATOM     12  C   UNL A   1      33.360  28.559  22.926  1.00  0.00     0.268 C 
ATOM     13  H   UNL A   1      34.748  28.404  24.276  1.00  0.00     0.164 HD
ATOM     14  O   UNL A   1      34.246  28.554  22.072  1.00  0.00    -0.268 OA
BRANCH  12  15
ATOM     15  C   UNL A   1      31.971  28.670  22.572  1.00  0.00     0.105 A 
ATOM     16  C   UNL A   1      30.961  27.729  22.733  1.00  0.00     0.042 A 
ATOM     17  N   UNL A   1      31.361  29.693  21.886  1.00  0.00    -0.351 N 
ATOM     18  C   UNL A   1      29.731  28.442  22.699  1.00  0.00     0.000 A 
ATOM     19  C   UNL A   1      30.025  29.714  22.217  1.00  0.00     0.046 A 
ATOM     20  H   UNL A   1      31.807  30.310  21.261  1.00  0.00     0.167 HD
ATOM     21  C   UNL A   1      28.415  28.153  23.097  1.00  0.00     0.010 A 
ATOM     22  C   UNL A   1      29.079  30.739  22.135  1.00  0.00     0.026 A 
ATOM     23  C   UNL A   1      27.459  29.177  23.060  1.00  0.00     0.001 A 
ATOM     24  C   UNL A   1      27.791  30.450  22.595  1.00  0.00     0.002 A 
ENDBRANCH  12  15
ENDBRANCH   7  11
ENDBRANCH   4   7
ENDBRANCH   2   3
ENDBRANCH   1   2
BRANCH   1  25
ATOM     25  C   UNL A   1      32.711  32.876  27.253  1.00  0.00     0.118 C 
BRANCH  25  26
ATOM     26  N   UNL A   1      32.449  34.262  27.636  1.00  0.00    -0.352 N 
ATOM     27  C   UNL A   1      32.992  35.021  28.645  1.00  0.00     0.251 C 
ATOM     28  H   UNL A   1      31.777  34.725  27.084  1.00  0.00     0.163 HD
ATOM     29  O   UNL A   1      32.494  36.098  28.938  1.00  0.00    -0.269 OA
BRANCH  27  30
ATOM     30  C   UNL A   1      34.167  34.522  29.389  1.00  0.00     0.039 A 
ATOM     31  C   UNL A   1      33.977  33.908  30.630  1.00  0.00     0.014 A 
ATOM     32  C   UNL A   1      35.453  34.663  28.864  1.00  0.00     0.014 A 
ATOM     33  C   UNL A   1      35.072  33.372  31.310  1.00  0.00     0.010 A 
ATOM     34  C   UNL A   1      36.526  34.044  29.493  1.00  0.00     0.010 A 
ATOM     35  C   UNL A   1      36.349  33.402  30.728  1.00  0.00    -0.014 A 
BRANCH  35  36
ATOM     36  C   UNL A   1      37.532  32.804  31.394  1.00  0.00     0.031 A 
ATOM     37  C   UNL A   1      38.233  31.642  30.746  1.00  0.00     0.074 A 
ATOM     38  C   UNL A   1      37.920  33.245  32.606  1.00  0.00     0.049 A 
ATOM     39  N   UNL A   1      39.176  30.869  31.223  1.00  0.00    -0.248 NA
ATOM     40  C   UNL A   1      37.789  31.277  29.389  1.00  0.00     0.031 C 
ATOM     41  C   UNL A   1      37.299  34.344  33.348  1.00  0.00     0.029 A 
ATOM     42  N   UNL A   1      38.920  32.808  33.438  1.00  0.00    -0.354 N 
ATOM     43  C   UNL A   1      39.426  29.927  30.233  1.00  0.00     0.074 A 
ATOM     44  C   UNL A   1      38.492  30.178  29.159  1.00  0.00     0.031 C 
ATOM     45  C   UNL A   1      37.941  34.504  34.517  1.00  0.00     0.029 A 
ATOM     46  C   UNL A   1      38.984  33.490  34.629  1.00  0.00     0.049 A 
ATOM     47  H   UNL A   1      39.533  32.074  33.203  1.00  0.00     0.167 HD
ATOM     48  C   UNL A   1      40.372  28.960  30.209  1.00  0.00     0.037 A 
ATOM     49  C   UNL A   1      39.784  33.300  35.696  1.00  0.00     0.037 A 
ATOM     50  C   UNL A   1      41.315  28.730  31.270  1.00  0.00     0.049 A 
ATOM     51  C   UNL A   1      40.803  32.191  35.656  1.00  0.00     0.074 A 
ATOM     52  C   UNL A   1      42.322  27.785  31.340  1.00  0.00     0.029 A 
ATOM     53  N   UNL A   1      41.367  29.463  32.446  1.00  0.00    -0.354 N 
ATOM     54  N   UNL A   1      41.056  31.330  34.700  1.00  0.00    -0.248 NA
ATOM     55  C   UNL A   1      41.653  32.028  36.844  1.00  0.00     0.031 C 
ATOM     56  C   UNL A   1      42.965  27.925  32.574  1.00  0.00     0.029 A 
ATOM     57  C   UNL A   1      42.391  28.990  33.249  1.00  0.00     0.049 A 
ATOM     58  H   UNL A   1      40.768  30.209  32.676  1.00  0.00     0.167 HD
ATOM     59  C   UNL A   1      42.120  30.561  35.150  1.00  0.00     0.074 A 
ATOM     60  C   UNL A   1      42.471  31.059  36.462  1.00  0.00     0.031 C 
ATOM     61  C   UNL A   1      42.750  29.531  34.534  1.00  0.00     0.037 A 
BRANCH  48  62
ATOM     62  C   UNL A   1      40.452  28.095  28.985  1.00  0.00     0.064 A 
ATOM     63  C   UNL A   1      39.713  26.907  28.884  1.00  0.00     0.173 A 
ATOM     64  C   UNL A   1      41.233  28.478  27.885  1.00  0.00     0.173 A 
ATOM     65  F   UNL A   1      38.962  26.489  29.913  1.00  0.00    -0.203 F 
ATOM     66  C   UNL A   1      39.769  26.122  27.736  1.00  0.00     0.198 A 
ATOM     67  C   UNL A   1      41.262  27.706  26.725  1.00  0.00     0.198 A 
ATOM     68  F   UNL A   1      41.957  29.606  27.927  1.00  0.00    -0.203 F 
ATOM     69  F   UNL A   1      39.090  24.969  27.680  1.00  0.00    -0.200 F 
ATOM     70  C   UNL A   1      40.536  26.528  26.653  1.00  0.00     0.200 A 
ATOM     71  F   UNL A   1      41.993  28.107  25.675  1.00  0.00    -0.200 F 
ATOM     72  F   UNL A   1      40.579  25.778  25.543  1.00  0.00    -0.200 F 
ENDBRANCH  48  62
BRANCH  49  73
ATOM     73  C   UNL A   1      39.669  34.176  36.894  1.00  0.00     0.064 A 
ATOM     74  C   UNL A   1      40.409  35.363  36.990  1.00  0.00     0.173 A 
ATOM     75  C   UNL A   1      38.864  33.822  37.987  1.00  0.00     0.173 A 
ATOM     76  F   UNL A   1      41.209  35.736  35.979  1.00  0.00    -0.203 F 
ATOM     77  C   UNL A   1      40.382  36.139  38.147  1.00  0.00     0.198 A 
ATOM     78  C   UNL A   1      38.812  34.617  39.130  1.00  0.00     0.198 A 
ATOM     79  F   UNL A   1      38.131  32.700  37.948  1.00  0.00    -0.203 F 
ATOM     80  F   UNL A   1      41.157  37.229  38.237  1.00  0.00    -0.200 F 
ATOM     81  C   UNL A   1      39.583  35.766  39.216  1.00  0.00     0.200 A 
ATOM     82  F   UNL A   1      38.027  34.260  40.156  1.00  0.00    -0.200 F 
ATOM     83  F   UNL A   1      39.567  36.505  40.333  1.00  0.00    -0.200 F 
ENDBRANCH  49  73
BRANCH  61  84
ATOM     84  C   UNL A   1      43.932  28.925  35.233  1.00  0.00     0.064 A 
ATOM     85  C   UNL A   1      43.793  27.870  36.145  1.00  0.00     0.173 A 
ATOM     86  C   UNL A   1      45.229  29.373  34.936  1.00  0.00     0.173 A 
ATOM     87  F   UNL A   1      42.574  27.416  36.473  1.00  0.00    -0.203 F 
ATOM     88  C   UNL A   1      44.909  27.301  36.754  1.00  0.00     0.198 A 
ATOM     89  C   UNL A   1      46.344  28.780  35.521  1.00  0.00     0.198 A 
ATOM     90  F   UNL A   1      45.415  30.374  34.062  1.00  0.00    -0.203 F 
ATOM     91  F   UNL A   1      44.751  26.325  37.657  1.00  0.00    -0.200 F 
ATOM     92  C   UNL A   1      46.183  27.750  36.434  1.00  0.00     0.200 A 
ATOM     93  F   UNL A   1      47.573  29.203  35.197  1.00  0.00    -0.200 F 
ATOM     94  F   UNL A   1      47.255  27.190  37.009  1.00  0.00    -0.200 F 
ENDBRANCH  61  84
ENDBRANCH  35  36
ENDBRANCH  27  30
ENDBRANCH  25  26
ENDBRANCH   1  25
TORSDOF 14
ENDMDL
MODEL 3
REMARK VINA RESULT:     -12.4      0.827      7.409
REMARK SMILES CCC[C@H](NC(=O)c1cc2ccccc2[nH]1)C(=O)NCCCNC(=O)c1ccc(-c2c3nc(c(-c4c(F)c(F)c(F)c(F)c4F)c4ccc([nH]4)c(-c4c(F)c(F)c(F)c(F)c4F)c4nc(c(-c5c(F)c(F)c(F)c(F)c5F)c5ccc2[nH]5)C=C4)C=C3)cc1
REMARK SMILES IDX 21 1 20 2 19 3 17 4 18 5 4 7 3 8 2 9 1 10 5 11 6 12 7 14
REMARK SMILES IDX 8 15 9 16 16 17 10 18 15 19 11 21 14 22 12 23 13 24 22 25
REMARK SMILES IDX 23 26 24 27 25 29 26 30 27 31 88 32 28 33 87 34 29 35 30 36
REMARK SMILES IDX 31 37 81 38 32 39 86 40 80 41 82 42 33 43 85 44 79 45 78 46
REMARK SMILES IDX 34 48 66 49 46 50 65 51 47 52 50 53 64 54 83 55 48 56 49 57
REMARK SMILES IDX 63 59 84 60 51 61 35 62 36 63 44 64 37 65 38 66 42 67 45 68
REMARK SMILES IDX 39 69 40 70 43 71 41 72 67 73 68 74 76 75 69 76 70 77 74 78
REMARK SMILES IDX 77 79 71 80 72 81 75 82 73 83 52 84 53 85 61 86 54 87 55 88
REMARK SMILES IDX 59 89 62 90 56 91 57 92 60 93 58 94
REMARK H PARENT 19 6 5 13 16 20 23 28 82 47 50 58
REMARK Flexibility Score: inf
ROOT
ATOM      1  C   UNL A   1      31.444  32.303  26.883  1.00  0.00     0.042 C 
ENDROOT
BRANCH   1   2
ATOM      2  C   UNL A   1      31.676  30.856  26.473  1.00  0.00     0.117 C 
BRANCH   2   3
ATOM      3  N   UNL A   1      32.904  30.342  27.029  1.00  0.00    -0.354 N 
ATOM      4  C   UNL A   1      33.562  29.191  26.729  1.00  0.00     0.242 C 
ATOM      5  O   UNL A   1      34.635  28.995  27.308  1.00  0.00    -0.273 OA
ATOM      6  H   UNL A   1      33.323  30.903  27.722  1.00  0.00     0.163 HD
BRANCH   4   7
ATOM      7  C   UNL A   1      33.077  28.210  25.626  1.00  0.00     0.171 C 
BRANCH   7   8
ATOM      8  C   UNL A   1      32.984  26.782  26.170  1.00  0.00     0.035 C 
BRANCH   8   9
ATOM      9  C   UNL A   1      34.031  25.806  25.624  1.00  0.00    -0.001 C 
ATOM     10  C   UNL A   1      33.687  24.360  25.964  1.00  0.00     0.004 C 
ENDBRANCH   8   9
ENDBRANCH   7   8
BRANCH   7  11
ATOM     11  N   UNL A   1      33.668  28.405  24.275  1.00  0.00    -0.339 N 
ATOM     12  C   UNL A   1      33.280  28.575  22.970  1.00  0.00     0.268 C 
ATOM     13  H   UNL A   1      34.650  28.416  24.337  1.00  0.00     0.164 HD
ATOM     14  O   UNL A   1      34.174  28.532  22.126  1.00  0.00    -0.268 OA
BRANCH  12  15
ATOM     15  C   UNL A   1      31.897  28.711  22.600  1.00  0.00     0.105 A 
ATOM     16  C   UNL A   1      30.883  27.766  22.689  1.00  0.00     0.042 A 
ATOM     17  N   UNL A   1      31.302  29.775  21.964  1.00  0.00    -0.351 N 
ATOM     18  C   UNL A   1      29.655  28.484  22.675  1.00  0.00     0.000 A 
ATOM     19  C   UNL A   1      29.961  29.781  22.272  1.00  0.00     0.046 A 
ATOM     20  H   UNL A   1      31.760  30.424  21.383  1.00  0.00     0.167 HD
ATOM     21  C   UNL A   1      28.332  28.178  23.034  1.00  0.00     0.010 A 
ATOM     22  C   UNL A   1      29.019  30.812  22.234  1.00  0.00     0.026 A 
ATOM     23  C   UNL A   1      27.379  29.205  23.039  1.00  0.00     0.001 A 
ATOM     24  C   UNL A   1      27.723  30.502  22.654  1.00  0.00     0.002 A 
ENDBRANCH  12  15
ENDBRANCH   7  11
ENDBRANCH   4   7
ENDBRANCH   2   3
ENDBRANCH   1   2
BRANCH   1  25
ATOM     25  C   UNL A   1      32.736  33.093  27.003  1.00  0.00     0.118 C 
BRANCH  25  26
ATOM     26  N   UNL A   1      32.524  34.389  27.645  1.00  0.00    -0.352 N 
ATOM     27  C   UNL A   1      33.062  34.905  28.799  1.00  0.00     0.251 C 
ATOM     28  H   UNL A   1      31.897  34.986  27.176  1.00  0.00     0.163 HD
ATOM     29  O   UNL A   1      32.604  35.929  29.284  1.00  0.00    -0.269 OA
BRANCH  27  30
ATOM     30  C   UNL A   1      34.183  34.208  29.464  1.00  0.00     0.039 A 
ATOM     31  C   UNL A   1      33.907  33.291  30.482  1.00  0.00     0.014 A 
ATOM     32  C   UNL A   1      35.502  34.461  29.085  1.00  0.00     0.014 A 
ATOM     33  C   UNL A   1      34.952  32.576  31.069  1.00  0.00     0.010 A 
ATOM     34  C   UNL A   1      36.529  33.680  29.600  1.00  0.00     0.010 A 
ATOM     35  C   UNL A   1      36.266  32.737  30.605  1.00  0.00    -0.014 A 
BRANCH  35  36
ATOM     36  C   UNL A   1      37.401  31.965  31.169  1.00  0.00     0.031 A 
ATOM     37  C   UNL A   1      37.903  32.295  32.547  1.00  0.00     0.074 A 
ATOM     38  C   UNL A   1      38.025  31.036  30.419  1.00  0.00     0.049 A 
ATOM     39  N   UNL A   1      38.973  31.865  33.167  1.00  0.00    -0.248 NA
ATOM     40  C   UNL A   1      37.114  33.269  33.321  1.00  0.00     0.031 C 
ATOM     41  C   UNL A   1      37.649  30.651  29.058  1.00  0.00     0.029 A 
ATOM     42  N   UNL A   1      39.124  30.260  30.690  1.00  0.00    -0.354 N 
ATOM     43  C   UNL A   1      38.988  32.522  34.391  1.00  0.00     0.074 A 
ATOM     44  C   UNL A   1      37.864  33.430  34.402  1.00  0.00     0.031 C 
ATOM     45  C   UNL A   1      38.492  29.702  28.619  1.00  0.00     0.029 A 
ATOM     46  C   UNL A   1      39.496  29.448  29.648  1.00  0.00     0.049 A 
ATOM     47  H   UNL A   1      39.600  30.284  31.552  1.00  0.00     0.167 HD
ATOM     48  C   UNL A   1      39.844  32.358  35.426  1.00  0.00     0.037 A 
ATOM     49  C   UNL A   1      40.544  28.608  29.531  1.00  0.00     0.037 A 
ATOM     50  C   UNL A   1      40.947  31.435  35.419  1.00  0.00     0.049 A 
ATOM     51  C   UNL A   1      41.502  28.475  30.686  1.00  0.00     0.074 A 
ATOM     52  C   UNL A   1      41.866  31.182  36.420  1.00  0.00     0.029 A 
ATOM     53  N   UNL A   1      41.271  30.607  34.355  1.00  0.00    -0.354 N 
ATOM     54  N   UNL A   1      41.485  29.072  31.853  1.00  0.00    -0.248 NA
ATOM     55  C   UNL A   1      42.627  27.544  30.510  1.00  0.00     0.031 C 
ATOM     56  C   UNL A   1      42.769  30.223  35.950  1.00  0.00     0.029 A 
ATOM     57  C   UNL A   1      42.380  29.842  34.676  1.00  0.00     0.049 A 
ATOM     58  H   UNL A   1      40.786  30.568  33.499  1.00  0.00     0.167 HD
ATOM     59  C   UNL A   1      42.561  28.557  32.563  1.00  0.00     0.074 A 
ATOM     60  C   UNL A   1      43.208  27.591  31.699  1.00  0.00     0.031 C 
ATOM     61  C   UNL A   1      42.979  28.856  33.817  1.00  0.00     0.037 A 
BRANCH  48  62
ATOM     62  C   UNL A   1      39.606  33.174  36.662  1.00  0.00     0.064 A 
ATOM     63  C   UNL A   1      40.264  34.396  36.866  1.00  0.00     0.173 A 
ATOM     64  C   UNL A   1      38.677  32.761  37.629  1.00  0.00     0.173 A 
ATOM     65  F   UNL A   1      41.172  34.830  35.979  1.00  0.00    -0.203 F 
ATOM     66  C   UNL A   1      40.019  35.163  38.001  1.00  0.00     0.198 A 
ATOM     67  C   UNL A   1      38.411  33.546  38.748  1.00  0.00     0.198 A 
ATOM     68  F   UNL A   1      38.017  31.602  37.483  1.00  0.00    -0.203 F 
ATOM     69  F   UNL A   1      40.694  36.305  38.195  1.00  0.00    -0.200 F 
ATOM     70  C   UNL A   1      39.086  34.742  38.936  1.00  0.00     0.200 A 
ATOM     71  F   UNL A   1      37.499  33.145  39.644  1.00  0.00    -0.200 F 
ATOM     72  F   UNL A   1      38.840  35.489  40.022  1.00  0.00    -0.200 F 
ENDBRANCH  48  62
BRANCH  49  73
ATOM     73  C   UNL A   1      40.749  27.821  28.285  1.00  0.00     0.064 A 
ATOM     74  C   UNL A   1      40.211  26.532  28.153  1.00  0.00     0.173 A 
ATOM     75  C   UNL A   1      41.527  28.311  27.227  1.00  0.00     0.173 A 
ATOM     76  F   UNL A   1      39.475  26.010  29.146  1.00  0.00    -0.203 F 
ATOM     77  C   UNL A   1      40.479  25.750  27.032  1.00  0.00     0.198 A 
ATOM     78  C   UNL A   1      41.766  27.541  26.090  1.00  0.00     0.198 A 
ATOM     79  F   UNL A   1      42.063  29.539  27.297  1.00  0.00    -0.203 F 
ATOM     80  F   UNL A   1      40.012  24.495  26.967  1.00  0.00    -0.200 F 
ATOM     81  C   UNL A   1      41.255  26.255  26.001  1.00  0.00     0.200 A 
ATOM     82  F   UNL A   1      42.506  28.038  25.090  1.00  0.00    -0.200 F 
ATOM     83  F   UNL A   1      41.523  25.497  24.928  1.00  0.00    -0.200 F 
ENDBRANCH  49  73
BRANCH  61  84
ATOM     84  C   UNL A   1      44.142  28.079  34.362  1.00  0.00     0.064 A 
ATOM     85  C   UNL A   1      45.459  28.550  34.269  1.00  0.00     0.173 A 
ATOM     86  C   UNL A   1      43.922  26.870  35.041  1.00  0.00     0.173 A 
ATOM     87  F   UNL A   1      45.722  29.693  33.618  1.00  0.00    -0.203 F 
ATOM     88  C   UNL A   1      46.516  27.827  34.815  1.00  0.00     0.198 A 
ATOM     89  C   UNL A   1      44.977  26.167  35.614  1.00  0.00     0.198 A 
ATOM     90  F   UNL A   1      42.678  26.381  35.165  1.00  0.00    -0.203 F 
ATOM     91  F   UNL A   1      47.772  28.274  34.675  1.00  0.00    -0.200 F 
ATOM     92  C   UNL A   1      46.274  26.642  35.495  1.00  0.00     0.200 A 
ATOM     93  F   UNL A   1      44.738  25.032  36.285  1.00  0.00    -0.200 F 
ATOM     94  F   UNL A   1      47.291  25.957  36.032  1.00  0.00    -0.200 F 
ENDBRANCH  61  84
ENDBRANCH  35  36
ENDBRANCH  27  30
ENDBRANCH  25  26
ENDBRANCH   1  25
TORSDOF 14
ENDMDL
