MODEL 1
REMARK VINA RESULT:     -13.5      0.000      0.000
REMARK SMILES CCc1cc(C(=O)c2[nH]c3cc(Cl)ccc3c2CC(=O)NCCCNC(=O)c2ccc(-c3c4nc(c(-c5c(F)c(F)c(F)c(F)c5F)c5ccc([nH]5)c(-c5c(F)c(F)c(F)c(F)c5F)c5nc(c(-c6c(F)c(F)c(F)c(F)c6F)c6ccc3[nH]6)C=C5)C=C4)cc2)ncc1Cl
REMARK SMILES IDX 22 1 21 2 19 3 20 4 18 6 17 7 8 8 9 9 10 10 16 12 11 13
REMARK SMILES IDX 15 14 12 15 14 16 13 17 6 18 7 19 5 20 3 21 4 22 93 23 92 24
REMARK SMILES IDX 94 25 91 26 2 27 1 28 23 29 24 30 25 31 26 32 27 34 28 35
REMARK SMILES IDX 29 36 90 37 30 38 89 39 31 40 32 41 33 42 83 43 34 44 88 45
REMARK SMILES IDX 82 46 84 47 35 48 87 49 81 50 80 51 36 53 68 54 48 55 67 56
REMARK SMILES IDX 49 57 52 58 66 59 85 60 50 61 51 62 65 64 86 65 53 66 37 67
REMARK SMILES IDX 38 68 46 69 39 70 40 71 44 72 47 73 41 74 42 75 45 76 43 77
REMARK SMILES IDX 69 78 70 79 78 80 71 81 72 82 76 83 79 84 73 85 74 86 77 87
REMARK SMILES IDX 75 88 54 89 55 90 63 91 56 92 57 93 61 94 64 95 58 96 59 97
REMARK SMILES IDX 62 98 60 99
REMARK H PARENT 21 5 9 11 25 33 84 52 52 63
REMARK Flexibility Score: inf
ROOT
ATOM      1  C   UNL A   1      32.565  27.114  26.505  1.00  0.00     0.117 C 
ENDROOT
BRANCH   1   2
ATOM      2  N   UNL A   1      31.599  26.082  26.832  1.00  0.00    -0.356 N 
ATOM      3  C   UNL A   1      31.662  24.733  26.631  1.00  0.00     0.224 C 
ATOM      4  O   UNL A   1      30.759  24.029  27.087  1.00  0.00    -0.275 OA
ATOM      5  H   UNL A   1      30.774  26.402  27.264  1.00  0.00     0.163 HD
BRANCH   3   6
ATOM      6  C   UNL A   1      32.853  24.108  25.930  1.00  0.00     0.138 C 
BRANCH   6   7
ATOM      7  C   UNL A   1      32.558  23.561  24.563  1.00  0.00    -0.002 A 
ATOM      8  C   UNL A   1      32.294  24.273  23.398  1.00  0.00     0.093 A 
ATOM      9  N   UNL A   1      32.143  23.364  22.378  1.00  0.00    -0.351 N 
ATOM     10  C   UNL A   1      32.211  22.081  22.859  1.00  0.00     0.048 A 
ATOM     11  H   UNL A   1      32.004  23.601  21.432  1.00  0.00     0.167 HD
ATOM     12  C   UNL A   1      32.467  22.168  24.226  1.00  0.00     0.004 A 
ATOM     13  C   UNL A   1      32.083  20.862  22.183  1.00  0.00     0.047 A 
ATOM     14  C   UNL A   1      32.599  20.969  24.960  1.00  0.00     0.012 A 
ATOM     15  C   UNL A   1      32.221  19.693  22.935  1.00  0.00     0.043 A 
ATOM     16  C   UNL A   1      32.475  19.738  24.302  1.00  0.00     0.021 A 
ATOM     17  Cl  UNL A   1      32.077  18.167  22.149  1.00  0.00    -0.084 Cl
BRANCH   8  18
ATOM     18  C   UNL A   1      32.255  25.706  23.162  1.00  0.00     0.227 C 
ATOM     19  O   UNL A   1      33.272  26.317  22.852  1.00  0.00    -0.285 OA
BRANCH  18  20
ATOM     20  C   UNL A   1      30.907  26.397  23.200  1.00  0.00     0.113 A 
ATOM     21  C   UNL A   1      29.481  28.336  22.851  1.00  0.00    -0.026 A 
ATOM     22  C   UNL A   1      30.727  27.698  22.714  1.00  0.00     0.037 A 
ATOM     23  C   UNL A   1      28.438  27.597  23.431  1.00  0.00     0.062 A 
ATOM     24  C   UNL A   1      28.698  26.305  23.873  1.00  0.00     0.132 A 
ATOM     25  Cl  UNL A   1      26.845  28.228  23.623  1.00  0.00    -0.082 Cl
ATOM     26  N   UNL A   1      29.905  25.699  23.788  1.00  0.00    -0.251 NA
BRANCH  21  27
ATOM     27  C   UNL A   1      29.247  29.759  22.382  1.00  0.00     0.034 C 
ATOM     28  C   UNL A   1      29.147  30.835  23.461  1.00  0.00     0.009 C 
ENDBRANCH  21  27
ENDBRANCH  18  20
ENDBRANCH   8  18
ENDBRANCH   6   7
ENDBRANCH   3   6
ENDBRANCH   1   2
BRANCH   1  29
ATOM     29  C   UNL A   1      31.928  28.433  26.069  1.00  0.00     0.042 C 
BRANCH  29  30
ATOM     30  C   UNL A   1      32.911  29.503  25.601  1.00  0.00     0.118 C 
BRANCH  30  31
ATOM     31  N   UNL A   1      32.502  30.844  25.987  1.00  0.00    -0.352 N 
ATOM     32  C   UNL A   1      33.007  31.689  26.943  1.00  0.00     0.251 C 
ATOM     33  H   UNL A   1      31.738  31.204  25.480  1.00  0.00     0.163 HD
ATOM     34  O   UNL A   1      32.399  32.720  27.218  1.00  0.00    -0.269 OA
BRANCH  32  35
ATOM     35  C   UNL A   1      34.268  31.382  27.660  1.00  0.00     0.039 A 
ATOM     36  C   UNL A   1      34.473  30.069  28.103  1.00  0.00     0.014 A 
ATOM     37  C   UNL A   1      35.198  32.375  27.982  1.00  0.00     0.014 A 
ATOM     38  C   UNL A   1      35.625  29.742  28.825  1.00  0.00     0.010 A 
ATOM     39  C   UNL A   1      36.362  32.044  28.679  1.00  0.00     0.010 A 
ATOM     40  C   UNL A   1      36.583  30.725  29.108  1.00  0.00    -0.014 A 
BRANCH  40  41
ATOM     41  C   UNL A   1      37.809  30.394  29.873  1.00  0.00     0.031 A 
ATOM     42  C   UNL A   1      38.859  29.506  29.272  1.00  0.00     0.074 A 
ATOM     43  C   UNL A   1      37.971  30.869  31.122  1.00  0.00     0.049 A 
ATOM     44  N   UNL A   1      39.930  28.999  29.830  1.00  0.00    -0.248 NA
ATOM     45  C   UNL A   1      38.675  29.129  27.863  1.00  0.00     0.031 C 
ATOM     46  C   UNL A   1      37.032  31.742  31.825  1.00  0.00     0.029 A 
ATOM     47  N   UNL A   1      38.989  30.676  32.021  1.00  0.00    -0.354 N 
ATOM     48  C   UNL A   1      40.524  28.210  28.855  1.00  0.00     0.074 A 
ATOM     49  C   UNL A   1      39.711  28.325  27.662  1.00  0.00     0.031 C 
ATOM     50  C   UNL A   1      37.524  32.020  33.044  1.00  0.00     0.029 A 
ATOM     51  C   UNL A   1      38.798  31.326  33.213  1.00  0.00     0.049 A 
ATOM     52  H   UNL A   1      39.780  30.122  31.830  1.00  0.00     0.167 HD
ATOM     53  C   UNL A   1      41.637  27.448  28.953  1.00  0.00     0.037 A 
ATOM     54  C   UNL A   1      39.561  31.352  34.321  1.00  0.00     0.037 A 
ATOM     55  C   UNL A   1      42.472  27.351  30.118  1.00  0.00     0.049 A 
ATOM     56  C   UNL A   1      40.837  30.564  34.373  1.00  0.00     0.074 A 
ATOM     57  C   UNL A   1      43.600  26.573  30.316  1.00  0.00     0.029 A 
ATOM     58  N   UNL A   1      42.280  28.080  31.281  1.00  0.00    -0.354 N 
ATOM     59  N   UNL A   1      41.352  29.770  33.469  1.00  0.00    -0.248 NA
ATOM     60  C   UNL A   1      41.631  30.670  35.606  1.00  0.00     0.031 C 
ATOM     61  C   UNL A   1      44.099  26.841  31.598  1.00  0.00     0.029 A 
ATOM     62  C   UNL A   1      43.280  27.786  32.193  1.00  0.00     0.049 A 
ATOM     63  H   UNL A   1      41.542  28.713  31.436  1.00  0.00     0.167 HD
ATOM     64  C   UNL A   1      42.521  29.272  34.024  1.00  0.00     0.074 A 
ATOM     65  C   UNL A   1      42.651  29.865  35.338  1.00  0.00     0.031 C 
ATOM     66  C   UNL A   1      43.399  28.389  33.492  1.00  0.00     0.037 A 
BRANCH  53  67
ATOM     67  C   UNL A   1      42.004  26.629  27.758  1.00  0.00     0.064 A 
ATOM     68  C   UNL A   1      42.938  27.088  26.822  1.00  0.00     0.173 A 
ATOM     69  C   UNL A   1      41.435  25.362  27.567  1.00  0.00     0.173 A 
ATOM     70  F   UNL A   1      43.496  28.300  26.963  1.00  0.00    -0.203 F 
ATOM     71  C   UNL A   1      43.289  26.306  25.726  1.00  0.00     0.198 A 
ATOM     72  C   UNL A   1      41.793  24.580  26.472  1.00  0.00     0.198 A 
ATOM     73  F   UNL A   1      40.533  24.887  28.438  1.00  0.00    -0.203 F 
ATOM     74  F   UNL A   1      44.175  26.765  24.832  1.00  0.00    -0.200 F 
ATOM     75  C   UNL A   1      42.718  25.053  25.554  1.00  0.00     0.200 A 
ATOM     76  F   UNL A   1      41.238  23.372  26.304  1.00  0.00    -0.200 F 
ATOM     77  F   UNL A   1      43.056  24.301  24.497  1.00  0.00    -0.200 F 
ENDBRANCH  53  67
BRANCH  54  78
ATOM     78  C   UNL A   1      39.127  32.157  35.483  1.00  0.00     0.064 A 
ATOM     79  C   UNL A   1      38.359  31.583  36.503  1.00  0.00     0.173 A 
ATOM     80  C   UNL A   1      39.482  33.506  35.598  1.00  0.00     0.173 A 
ATOM     81  F   UNL A   1      37.987  30.297  36.419  1.00  0.00    -0.203 F 
ATOM     82  C   UNL A   1      37.959  32.335  37.604  1.00  0.00     0.198 A 
ATOM     83  C   UNL A   1      39.085  34.256  36.701  1.00  0.00     0.198 A 
ATOM     84  F   UNL A   1      40.212  34.093  34.638  1.00  0.00    -0.203 F 
ATOM     85  F   UNL A   1      37.215  31.770  38.564  1.00  0.00    -0.200 F 
ATOM     86  C   UNL A   1      38.325  33.671  37.703  1.00  0.00     0.200 A 
ATOM     87  F   UNL A   1      39.438  35.545  36.795  1.00  0.00    -0.200 F 
ATOM     88  F   UNL A   1      37.939  34.394  38.762  1.00  0.00    -0.200 F 
ENDBRANCH  54  78
BRANCH  66  89
ATOM     89  C   UNL A   1      44.573  28.010  34.334  1.00  0.00     0.064 A 
ATOM     90  C   UNL A   1      45.763  28.747  34.278  1.00  0.00     0.173 A 
ATOM     91  C   UNL A   1      44.501  26.927  35.221  1.00  0.00     0.173 A 
ATOM     92  F   UNL A   1      45.876  29.784  33.434  1.00  0.00    -0.203 F 
ATOM     93  C   UNL A   1      46.847  28.410  35.084  1.00  0.00     0.198 A 
ATOM     94  C   UNL A   1      45.588  26.594  36.025  1.00  0.00     0.198 A 
ATOM     95  F   UNL A   1      43.384  26.189  35.296  1.00  0.00    -0.203 F 
ATOM     96  F   UNL A   1      47.982  29.121  35.009  1.00  0.00    -0.200 F 
ATOM     97  C   UNL A   1      46.757  27.336  35.957  1.00  0.00     0.200 A 
ATOM     98  F   UNL A   1      45.505  25.551  36.862  1.00  0.00    -0.200 F 
ATOM     99  F   UNL A   1      47.805  27.009  36.727  1.00  0.00    -0.200 F 
ENDBRANCH  66  89
ENDBRANCH  40  41
ENDBRANCH  32  35
ENDBRANCH  30  31
ENDBRANCH  29  30
ENDBRANCH   1  29
TORSDOF 14
ENDMDL
MODEL 2
REMARK VINA RESULT:     -13.3      0.177      1.570
REMARK SMILES CCc1cc(C(=O)c2[nH]c3cc(Cl)ccc3c2CC(=O)NCCCNC(=O)c2ccc(-c3c4nc(c(-c5c(F)c(F)c(F)c(F)c5F)c5ccc([nH]5)c(-c5c(F)c(F)c(F)c(F)c5F)c5nc(c(-c6c(F)c(F)c(F)c(F)c6F)c6ccc3[nH]6)C=C5)C=C4)cc2)ncc1Cl
REMARK SMILES IDX 22 1 21 2 19 3 20 4 18 6 17 7 8 8 9 9 10 10 16 12 11 13
REMARK SMILES IDX 15 14 12 15 14 16 13 17 6 18 7 19 5 20 3 21 4 22 93 23 92 24
REMARK SMILES IDX 94 25 91 26 2 27 1 28 23 29 24 30 25 31 26 32 27 34 28 35
REMARK SMILES IDX 29 36 90 37 30 38 89 39 31 40 32 41 33 42 83 43 34 44 88 45
REMARK SMILES IDX 82 46 84 47 35 48 87 49 81 50 80 51 36 53 68 54 48 55 67 56
REMARK SMILES IDX 49 57 52 58 66 59 85 60 50 61 51 62 65 64 86 65 53 66 37 67
REMARK SMILES IDX 38 68 46 69 39 70 40 71 44 72 47 73 41 74 42 75 45 76 43 77
REMARK SMILES IDX 69 78 70 79 78 80 71 81 72 82 76 83 79 84 73 85 74 86 77 87
REMARK SMILES IDX 75 88 54 89 55 90 63 91 56 92 57 93 61 94 64 95 58 96 59 97
REMARK SMILES IDX 62 98 60 99
REMARK H PARENT 21 5 9 11 25 33 84 52 52 63
REMARK Flexibility Score: inf
ROOT
ATOM      1  C   UNL A   1      32.658  27.139  26.545  1.00  0.00     0.117 C 
ENDROOT
BRANCH   1   2
ATOM      2  N   UNL A   1      31.691  26.105  26.859  1.00  0.00    -0.356 N 
ATOM      3  C   UNL A   1      31.749  24.759  26.636  1.00  0.00     0.224 C 
ATOM      4  O   UNL A   1      30.846  24.050  27.084  1.00  0.00    -0.275 OA
ATOM      5  H   UNL A   1      30.870  26.420  27.301  1.00  0.00     0.163 HD
BRANCH   3   6
ATOM      6  C   UNL A   1      32.934  24.143  25.917  1.00  0.00     0.138 C 
BRANCH   6   7
ATOM      7  C   UNL A   1      32.619  23.576  24.563  1.00  0.00    -0.002 A 
ATOM      8  C   UNL A   1      32.341  24.271  23.390  1.00  0.00     0.093 A 
ATOM      9  N   UNL A   1      32.173  23.347  22.387  1.00  0.00    -0.351 N 
ATOM     10  C   UNL A   1      32.244  22.070  22.886  1.00  0.00     0.048 A 
ATOM     11  H   UNL A   1      32.022  23.570  21.440  1.00  0.00     0.167 HD
ATOM     12  C   UNL A   1      32.520  22.178  24.248  1.00  0.00     0.004 A 
ATOM     13  C   UNL A   1      32.104  20.841  22.231  1.00  0.00     0.047 A 
ATOM     14  C   UNL A   1      32.659  20.990  24.998  1.00  0.00     0.012 A 
ATOM     15  C   UNL A   1      32.249  19.684  22.999  1.00  0.00     0.043 A 
ATOM     16  C   UNL A   1      32.522  19.750  24.361  1.00  0.00     0.021 A 
ATOM     17  Cl  UNL A   1      32.091  18.147  22.239  1.00  0.00    -0.084 Cl
BRANCH   8  18
ATOM     18  C   UNL A   1      32.301  25.700  23.133  1.00  0.00     0.227 C 
ATOM     19  O   UNL A   1      33.312  26.301  22.787  1.00  0.00    -0.285 OA
BRANCH  18  20
ATOM     20  C   UNL A   1      30.958  26.398  23.195  1.00  0.00     0.113 A 
ATOM     21  C   UNL A   1      29.566  28.387  23.047  1.00  0.00    -0.026 A 
ATOM     22  C   UNL A   1      30.814  27.757  22.889  1.00  0.00     0.037 A 
ATOM     23  C   UNL A   1      28.488  27.588  23.460  1.00  0.00     0.062 A 
ATOM     24  C   UNL A   1      28.714  26.243  23.728  1.00  0.00     0.132 A 
ATOM     25  Cl  UNL A   1      26.891  28.210  23.652  1.00  0.00    -0.082 Cl
ATOM     26  N   UNL A   1      29.921  25.639  23.623  1.00  0.00    -0.251 NA
BRANCH  21  27
ATOM     27  C   UNL A   1      29.368  29.865  22.772  1.00  0.00     0.034 C 
ATOM     28  C   UNL A   1      28.719  30.239  21.442  1.00  0.00     0.009 C 
ENDBRANCH  21  27
ENDBRANCH  18  20
ENDBRANCH   8  18
ENDBRANCH   6   7
ENDBRANCH   3   6
ENDBRANCH   1   2
BRANCH   1  29
ATOM     29  C   UNL A   1      32.024  28.454  26.092  1.00  0.00     0.042 C 
BRANCH  29  30
ATOM     30  C   UNL A   1      33.010  29.522  25.627  1.00  0.00     0.118 C 
BRANCH  30  31
ATOM     31  N   UNL A   1      32.607  30.863  26.021  1.00  0.00    -0.352 N 
ATOM     32  C   UNL A   1      33.115  31.699  26.984  1.00  0.00     0.251 C 
ATOM     33  H   UNL A   1      31.847  31.230  25.514  1.00  0.00     0.163 HD
ATOM     34  O   UNL A   1      32.511  32.731  27.264  1.00  0.00    -0.269 OA
BRANCH  32  35
ATOM     35  C   UNL A   1      34.371  31.380  27.702  1.00  0.00     0.039 A 
ATOM     36  C   UNL A   1      34.526  30.089  28.224  1.00  0.00     0.014 A 
ATOM     37  C   UNL A   1      35.349  32.348  27.950  1.00  0.00     0.014 A 
ATOM     38  C   UNL A   1      35.673  29.756  28.949  1.00  0.00     0.010 A 
ATOM     39  C   UNL A   1      36.509  32.008  28.651  1.00  0.00     0.010 A 
ATOM     40  C   UNL A   1      36.678  30.711  29.158  1.00  0.00    -0.014 A 
BRANCH  40  41
ATOM     41  C   UNL A   1      37.900  30.372  29.926  1.00  0.00     0.031 A 
ATOM     42  C   UNL A   1      38.954  29.491  29.322  1.00  0.00     0.074 A 
ATOM     43  C   UNL A   1      38.055  30.835  31.180  1.00  0.00     0.049 A 
ATOM     44  N   UNL A   1      40.022  28.980  29.880  1.00  0.00    -0.248 NA
ATOM     45  C   UNL A   1      38.778  29.129  27.908  1.00  0.00     0.031 C 
ATOM     46  C   UNL A   1      37.111  31.700  31.887  1.00  0.00     0.029 A 
ATOM     47  N   UNL A   1      39.068  30.633  32.084  1.00  0.00    -0.354 N 
ATOM     48  C   UNL A   1      40.622  28.201  28.901  1.00  0.00     0.074 A 
ATOM     49  C   UNL A   1      39.815  28.327  27.705  1.00  0.00     0.031 C 
ATOM     50  C   UNL A   1      37.597  31.966  33.112  1.00  0.00     0.029 A 
ATOM     51  C   UNL A   1      38.871  31.271  33.281  1.00  0.00     0.049 A 
ATOM     52  H   UNL A   1      39.861  30.081  31.890  1.00  0.00     0.167 HD
ATOM     53  C   UNL A   1      41.735  27.438  28.997  1.00  0.00     0.037 A 
ATOM     54  C   UNL A   1      39.628  31.286  34.393  1.00  0.00     0.037 A 
ATOM     55  C   UNL A   1      42.564  27.330  30.166  1.00  0.00     0.049 A 
ATOM     56  C   UNL A   1      40.904  30.499  34.444  1.00  0.00     0.074 A 
ATOM     57  C   UNL A   1      43.692  26.551  30.362  1.00  0.00     0.029 A 
ATOM     58  N   UNL A   1      42.365  28.047  31.335  1.00  0.00    -0.354 N 
ATOM     59  N   UNL A   1      41.425  29.714  33.534  1.00  0.00    -0.248 NA
ATOM     60  C   UNL A   1      41.692  30.592  35.683  1.00  0.00     0.031 C 
ATOM     61  C   UNL A   1      44.183  26.806  31.648  1.00  0.00     0.029 A 
ATOM     62  C   UNL A   1      43.361  27.745  32.249  1.00  0.00     0.049 A 
ATOM     63  H   UNL A   1      41.625  28.678  31.492  1.00  0.00     0.167 HD
ATOM     64  C   UNL A   1      42.591  29.211  34.091  1.00  0.00     0.074 A 
ATOM     65  C   UNL A   1      42.713  29.791  35.412  1.00  0.00     0.031 C 
ATOM     66  C   UNL A   1      43.472  28.335  33.555  1.00  0.00     0.037 A 
BRANCH  53  67
ATOM     67  C   UNL A   1      42.108  26.631  27.795  1.00  0.00     0.064 A 
ATOM     68  C   UNL A   1      43.035  27.108  26.861  1.00  0.00     0.173 A 
ATOM     69  C   UNL A   1      41.555  25.359  27.598  1.00  0.00     0.173 A 
ATOM     70  F   UNL A   1      43.579  28.325  27.008  1.00  0.00    -0.203 F 
ATOM     71  C   UNL A   1      43.393  26.337  25.759  1.00  0.00     0.198 A 
ATOM     72  C   UNL A   1      41.919  24.588  26.497  1.00  0.00     0.198 A 
ATOM     73  F   UNL A   1      40.660  24.868  28.467  1.00  0.00    -0.203 F 
ATOM     74  F   UNL A   1      44.272  26.812  24.866  1.00  0.00    -0.200 F 
ATOM     75  C   UNL A   1      42.836  25.078  25.580  1.00  0.00     0.200 A 
ATOM     76  F   UNL A   1      41.377  23.375  26.322  1.00  0.00    -0.200 F 
ATOM     77  F   UNL A   1      43.181  24.338  24.517  1.00  0.00    -0.200 F 
ENDBRANCH  53  67
BRANCH  54  78
ATOM     78  C   UNL A   1      39.187  32.080  35.561  1.00  0.00     0.064 A 
ATOM     79  C   UNL A   1      39.563  33.421  35.696  1.00  0.00     0.173 A 
ATOM     80  C   UNL A   1      38.375  31.515  36.551  1.00  0.00     0.173 A 
ATOM     81  F   UNL A   1      40.354  33.992  34.776  1.00  0.00    -0.203 F 
ATOM     82  C   UNL A   1      39.140  34.174  36.788  1.00  0.00     0.198 A 
ATOM     83  C   UNL A   1      37.948  32.269  37.639  1.00  0.00     0.198 A 
ATOM     84  F   UNL A   1      37.999  30.230  36.459  1.00  0.00    -0.203 F 
ATOM     85  F   UNL A   1      39.520  35.453  36.905  1.00  0.00    -0.200 F 
ATOM     86  C   UNL A   1      38.330  33.598  37.757  1.00  0.00     0.200 A 
ATOM     87  F   UNL A   1      37.168  31.711  38.575  1.00  0.00    -0.200 F 
ATOM     88  F   UNL A   1      37.924  34.322  38.808  1.00  0.00    -0.200 F 
ENDBRANCH  54  78
BRANCH  66  89
ATOM     89  C   UNL A   1      44.642  27.947  34.399  1.00  0.00     0.064 A 
ATOM     90  C   UNL A   1      44.578  26.831  35.244  1.00  0.00     0.173 A 
ATOM     91  C   UNL A   1      45.840  28.672  34.343  1.00  0.00     0.173 A 
ATOM     92  F   UNL A   1      43.446  26.117  35.334  1.00  0.00    -0.203 F 
ATOM     93  C   UNL A   1      45.678  26.453  36.008  1.00  0.00     0.198 A 
ATOM     94  C   UNL A   1      46.938  28.291  35.108  1.00  0.00     0.198 A 
ATOM     95  F   UNL A   1      45.938  29.753  33.555  1.00  0.00    -0.203 F 
ATOM     96  F   UNL A   1      45.595  25.389  36.818  1.00  0.00    -0.200 F 
ATOM     97  C   UNL A   1      46.856  27.182  35.938  1.00  0.00     0.200 A 
ATOM     98  F   UNL A   1      48.073  29.000  35.049  1.00  0.00    -0.200 F 
ATOM     99  F   UNL A   1      47.913  26.821  36.680  1.00  0.00    -0.200 F 
ENDBRANCH  66  89
ENDBRANCH  40  41
ENDBRANCH  32  35
ENDBRANCH  30  31
ENDBRANCH  29  30
ENDBRANCH   1  29
TORSDOF 14
ENDMDL
MODEL 3
REMARK VINA RESULT:     -13.3      0.464      7.255
REMARK SMILES CCc1cc(C(=O)c2[nH]c3cc(Cl)ccc3c2CC(=O)NCCCNC(=O)c2ccc(-c3c4nc(c(-c5c(F)c(F)c(F)c(F)c5F)c5ccc([nH]5)c(-c5c(F)c(F)c(F)c(F)c5F)c5nc(c(-c6c(F)c(F)c(F)c(F)c6F)c6ccc3[nH]6)C=C5)C=C4)cc2)ncc1Cl
REMARK SMILES IDX 22 1 21 2 19 3 20 4 18 6 17 7 8 8 9 9 10 10 16 12 11 13
REMARK SMILES IDX 15 14 12 15 14 16 13 17 6 18 7 19 5 20 3 21 4 22 93 23 92 24
REMARK SMILES IDX 94 25 91 26 2 27 1 28 23 29 24 30 25 31 26 32 27 34 28 35
REMARK SMILES IDX 29 36 90 37 30 38 89 39 31 40 32 41 33 42 83 43 34 44 88 45
REMARK SMILES IDX 82 46 84 47 35 48 87 49 81 50 80 51 36 53 68 54 48 55 67 56
REMARK SMILES IDX 49 57 52 58 66 59 85 60 50 61 51 62 65 64 86 65 53 66 37 67
REMARK SMILES IDX 38 68 46 69 39 70 40 71 44 72 47 73 41 74 42 75 45 76 43 77
REMARK SMILES IDX 69 78 70 79 78 80 71 81 72 82 76 83 79 84 73 85 74 86 77 87
REMARK SMILES IDX 75 88 54 89 55 90 63 91 56 92 57 93 61 94 64 95 58 96 59 97
REMARK SMILES IDX 62 98 60 99
REMARK H PARENT 21 5 9 11 25 33 84 52 52 63
REMARK Flexibility Score: inf
ROOT
ATOM      1  C   UNL A   1      32.546  27.117  26.496  1.00  0.00     0.117 C 
ENDROOT
BRANCH   1   2
ATOM      2  N   UNL A   1      31.597  26.078  26.849  1.00  0.00    -0.356 N 
ATOM      3  C   UNL A   1      31.682  24.725  26.686  1.00  0.00     0.224 C 
ATOM      4  O   UNL A   1      30.789  24.019  27.158  1.00  0.00    -0.275 OA
ATOM      5  H   UNL A   1      30.766  26.396  27.271  1.00  0.00     0.163 HD
BRANCH   3   6
ATOM      6  C   UNL A   1      32.885  24.102  26.004  1.00  0.00     0.138 C 
BRANCH   6   7
ATOM      7  C   UNL A   1      32.604  23.521  24.648  1.00  0.00    -0.002 A 
ATOM      8  C   UNL A   1      32.351  24.204  23.462  1.00  0.00     0.093 A 
ATOM      9  N   UNL A   1      32.211  23.271  22.464  1.00  0.00    -0.351 N 
ATOM     10  C   UNL A   1      32.274  21.999  22.976  1.00  0.00     0.048 A 
ATOM     11  H   UNL A   1      32.081  23.484  21.511  1.00  0.00     0.167 HD
ATOM     12  C   UNL A   1      32.517  22.120  24.344  1.00  0.00     0.004 A 
ATOM     13  C   UNL A   1      32.154  20.764  22.329  1.00  0.00     0.047 A 
ATOM     14  C   UNL A   1      32.643  20.939  25.107  1.00  0.00     0.012 A 
ATOM     15  C   UNL A   1      32.286  19.614  23.111  1.00  0.00     0.043 A 
ATOM     16  C   UNL A   1      32.526  19.693  24.479  1.00  0.00     0.021 A 
ATOM     17  Cl  UNL A   1      32.151  18.070  22.361  1.00  0.00    -0.084 Cl
BRANCH   8  18
ATOM     18  C   UNL A   1      32.313  25.631  23.192  1.00  0.00     0.227 C 
ATOM     19  O   UNL A   1      33.329  26.232  22.860  1.00  0.00    -0.285 OA
BRANCH  18  20
ATOM     20  C   UNL A   1      30.966  26.325  23.220  1.00  0.00     0.113 A 
ATOM     21  C   UNL A   1      29.543  28.259  22.836  1.00  0.00    -0.026 A 
ATOM     22  C   UNL A   1      30.787  27.616  22.708  1.00  0.00     0.037 A 
ATOM     23  C   UNL A   1      28.501  27.534  23.435  1.00  0.00     0.062 A 
ATOM     24  C   UNL A   1      28.760  26.251  23.903  1.00  0.00     0.132 A 
ATOM     25  Cl  UNL A   1      26.910  28.173  23.619  1.00  0.00    -0.082 Cl
ATOM     26  N   UNL A   1      29.965  25.642  23.825  1.00  0.00    -0.251 NA
BRANCH  21  27
ATOM     27  C   UNL A   1      29.310  29.673  22.338  1.00  0.00     0.034 C 
ATOM     28  C   UNL A   1      29.330  30.785  23.383  1.00  0.00     0.009 C 
ENDBRANCH  21  27
ENDBRANCH  18  20
ENDBRANCH   8  18
ENDBRANCH   6   7
ENDBRANCH   3   6
ENDBRANCH   1   2
BRANCH   1  29
ATOM     29  C   UNL A   1      31.889  28.425  26.057  1.00  0.00     0.042 C 
BRANCH  29  30
ATOM     30  C   UNL A   1      32.846  29.474  25.498  1.00  0.00     0.118 C 
BRANCH  30  31
ATOM     31  N   UNL A   1      32.529  30.818  25.954  1.00  0.00    -0.352 N 
ATOM     32  C   UNL A   1      33.094  31.578  26.947  1.00  0.00     0.251 C 
ATOM     33  H   UNL A   1      31.788  31.253  25.472  1.00  0.00     0.163 HD
ATOM     34  O   UNL A   1      32.557  32.631  27.278  1.00  0.00    -0.269 OA
BRANCH  32  35
ATOM     35  C   UNL A   1      34.335  31.152  27.637  1.00  0.00     0.039 A 
ATOM     36  C   UNL A   1      34.406  29.838  28.118  1.00  0.00     0.014 A 
ATOM     37  C   UNL A   1      35.381  32.042  27.897  1.00  0.00     0.014 A 
ATOM     38  C   UNL A   1      35.537  29.405  28.817  1.00  0.00     0.010 A 
ATOM     39  C   UNL A   1      36.524  31.603  28.570  1.00  0.00     0.010 A 
ATOM     40  C   UNL A   1      36.609  30.282  29.038  1.00  0.00    -0.014 A 
BRANCH  40  41
ATOM     41  C   UNL A   1      37.814  29.837  29.777  1.00  0.00     0.031 A 
ATOM     42  C   UNL A   1      38.069  30.328  31.172  1.00  0.00     0.074 A 
ATOM     43  C   UNL A   1      38.697  29.010  29.189  1.00  0.00     0.049 A 
ATOM     44  N   UNL A   1      39.125  30.157  31.927  1.00  0.00    -0.248 NA
ATOM     45  C   UNL A   1      37.002  31.124  31.796  1.00  0.00     0.031 C 
ATOM     46  C   UNL A   1      38.571  28.456  27.841  1.00  0.00     0.029 A 
ATOM     47  N   UNL A   1      39.881  28.496  29.654  1.00  0.00    -0.354 N 
ATOM     48  C   UNL A   1      38.870  30.860  33.096  1.00  0.00     0.074 A 
ATOM     49  C   UNL A   1      37.548  31.438  32.964  1.00  0.00     0.031 C 
ATOM     50  C   UNL A   1      39.631  27.668  27.592  1.00  0.00     0.029 A 
ATOM     51  C   UNL A   1      40.517  27.682  28.753  1.00  0.00     0.049 A 
ATOM     52  H   UNL A   1      40.239  28.693  30.550  1.00  0.00     0.167 HD
ATOM     53  C   UNL A   1      39.671  31.021  34.174  1.00  0.00     0.037 A 
ATOM     54  C   UNL A   1      41.689  27.028  28.850  1.00  0.00     0.037 A 
ATOM     55  C   UNL A   1      40.970  30.426  34.333  1.00  0.00     0.049 A 
ATOM     56  C   UNL A   1      42.521  27.155  30.092  1.00  0.00     0.074 A 
ATOM     57  C   UNL A   1      41.867  30.566  35.379  1.00  0.00     0.029 A 
ATOM     58  N   UNL A   1      41.547  29.553  33.425  1.00  0.00    -0.354 N 
ATOM     59  N   UNL A   1      42.298  27.875  31.162  1.00  0.00    -0.248 NA
ATOM     60  C   UNL A   1      43.773  26.384  30.133  1.00  0.00     0.031 C 
ATOM     61  C   UNL A   1      42.985  29.767  35.108  1.00  0.00     0.029 A 
ATOM     62  C   UNL A   1      42.779  29.130  33.896  1.00  0.00     0.049 A 
ATOM     63  H   UNL A   1      41.142  29.275  32.572  1.00  0.00     0.167 HD
ATOM     64  C   UNL A   1      43.382  27.657  31.998  1.00  0.00     0.074 A 
ATOM     65  C   UNL A   1      44.257  26.723  31.320  1.00  0.00     0.031 C 
ATOM     66  C   UNL A   1      43.634  28.196  33.214  1.00  0.00     0.037 A 
BRANCH  53  67
ATOM     67  C   UNL A   1      39.167  31.907  35.267  1.00  0.00     0.064 A 
ATOM     68  C   UNL A   1      38.442  31.387  36.345  1.00  0.00     0.173 A 
ATOM     69  C   UNL A   1      39.440  33.282  35.245  1.00  0.00     0.173 A 
ATOM     70  F   UNL A   1      38.151  30.079  36.397  1.00  0.00    -0.203 F 
ATOM     71  C   UNL A   1      37.999  32.219  37.369  1.00  0.00     0.198 A 
ATOM     72  C   UNL A   1      38.999  34.110  36.273  1.00  0.00     0.198 A 
ATOM     73  F   UNL A   1      40.127  33.819  34.227  1.00  0.00    -0.203 F 
ATOM     74  F   UNL A   1      37.294  31.709  38.389  1.00  0.00    -0.200 F 
ATOM     75  C   UNL A   1      38.279  33.578  37.333  1.00  0.00     0.200 A 
ATOM     76  F   UNL A   1      39.266  35.422  36.236  1.00  0.00    -0.200 F 
ATOM     77  F   UNL A   1      37.850  34.378  38.320  1.00  0.00    -0.200 F 
ENDBRANCH  53  67
BRANCH  54  78
ATOM     78  C   UNL A   1      42.149  26.191  27.719  1.00  0.00     0.064 A 
ATOM     79  C   UNL A   1      43.071  26.690  26.791  1.00  0.00     0.173 A 
ATOM     80  C   UNL A   1      41.685  24.881  27.557  1.00  0.00     0.173 A 
ATOM     81  F   UNL A   1      43.525  27.946  26.904  1.00  0.00    -0.203 F 
ATOM     82  C   UNL A   1      43.514  25.901  25.733  1.00  0.00     0.198 A 
ATOM     83  C   UNL A   1      42.133  24.092  26.502  1.00  0.00     0.198 A 
ATOM     84  F   UNL A   1      40.796  24.371  28.423  1.00  0.00    -0.203 F 
ATOM     85  F   UNL A   1      44.388  26.399  24.848  1.00  0.00    -0.200 F 
ATOM     86  C   UNL A   1      43.047  24.601  25.591  1.00  0.00     0.200 A 
ATOM     87  F   UNL A   1      41.679  22.838  26.366  1.00  0.00    -0.200 F 
ATOM     88  F   UNL A   1      43.473  23.843  24.573  1.00  0.00    -0.200 F 
ENDBRANCH  54  78
BRANCH  66  89
ATOM     89  C   UNL A   1      44.905  27.793  33.885  1.00  0.00     0.064 A 
ATOM     90  C   UNL A   1      44.947  26.675  34.729  1.00  0.00     0.173 A 
ATOM     91  C   UNL A   1      46.092  28.505  33.664  1.00  0.00     0.173 A 
ATOM     92  F   UNL A   1      43.830  25.974  34.976  1.00  0.00    -0.203 F 
ATOM     93  C   UNL A   1      46.138  26.283  35.332  1.00  0.00     0.198 A 
ATOM     94  C   UNL A   1      47.282  28.109  34.268  1.00  0.00     0.198 A 
ATOM     95  F   UNL A   1      46.092  29.587  32.872  1.00  0.00    -0.203 F 
ATOM     96  F   UNL A   1      46.157  25.217  36.145  1.00  0.00    -0.200 F 
ATOM     97  C   UNL A   1      47.304  26.999  35.100  1.00  0.00     0.200 A 
ATOM     98  F   UNL A   1      48.405  28.805  34.052  1.00  0.00    -0.200 F 
ATOM     99  F   UNL A   1      48.449  26.623  35.686  1.00  0.00    -0.200 F 
ENDBRANCH  66  89
ENDBRANCH  40  41
ENDBRANCH  32  35
ENDBRANCH  30  31
ENDBRANCH  29  30
ENDBRANCH   1  29
TORSDOF 14
ENDMDL
