MODEL 1
REMARK VINA RESULT:     -14.8      0.000      0.000
REMARK SMILES C[C@H](NC(=O)c1cccc(NC(=O)c2ccccc2C(=O)NCCCNC(=O)c2ccc(-c3c4nc(c(-c5c(F)c(F)c(F)c(F)c5F)c5ccc([nH]5)c(-c5c(F)c(F)c(F)c(F)c5F)c5nc(c(-c6c(F)c(F)c(F)c(F)c6F)c6ccc3[nH]6)C=C5)C=C4)cc2)c1)c1ccccc1
REMARK SMILES IDX 20 1 21 2 22 3 19 5 14 6 15 7 16 8 18 9 17 10 12 11 11 12
REMARK SMILES IDX 13 14 10 15 6 16 7 17 92 18 8 19 9 20 4 21 3 22 5 24 2 25
REMARK SMILES IDX 1 26 93 27 94 28 98 29 95 30 97 31 96 32 23 33 24 34 25 35
REMARK SMILES IDX 26 36 27 37 28 39 29 40 30 41 91 42 31 43 90 44 32 45 33 46
REMARK SMILES IDX 34 47 84 48 35 49 89 50 83 51 85 52 36 53 88 54 82 55 81 56
REMARK SMILES IDX 37 58 69 59 49 60 68 61 50 62 53 63 67 64 86 65 51 66 52 67
REMARK SMILES IDX 66 69 87 70 54 71 38 72 39 73 47 74 40 75 41 76 45 77 48 78
REMARK SMILES IDX 42 79 43 80 46 81 44 82 70 83 71 84 79 85 72 86 73 87 77 88
REMARK SMILES IDX 80 89 74 90 75 91 78 92 76 93 55 94 56 95 64 96 57 97 58 98
REMARK SMILES IDX 62 99 65 100 59 101 60 102 63 103 61 104
REMARK H PARENT 22 4 11 13 3 23 26 38 85 57 53 68
REMARK Flexibility Score: inf
ROOT
ATOM      1  C   UNL A   1      32.878  29.166  24.710  1.00  0.00     0.252 C 
ATOM      2  O   UNL A   1      33.888  28.960  24.036  1.00  0.00    -0.269 OA
ATOM      3  N   UNL A   1      32.978  30.040  25.753  1.00  0.00    -0.352 N 
ATOM      4  H   UNL A   1      33.880  30.410  25.891  1.00  0.00     0.163 HD
ENDROOT
BRANCH   1   5
ATOM      5  C   UNL A   1      31.657  28.381  24.425  1.00  0.00     0.052 A 
ATOM      6  C   UNL A   1      31.166  27.289  25.154  1.00  0.00     0.052 A 
ATOM      7  C   UNL A   1      30.023  26.611  24.688  1.00  0.00     0.014 A 
ATOM      8  C   UNL A   1      29.324  27.062  23.568  1.00  0.00     0.001 A 
ATOM      9  C   UNL A   1      30.917  28.847  23.318  1.00  0.00     0.014 A 
ATOM     10  C   UNL A   1      29.758  28.197  22.896  1.00  0.00     0.001 A 
BRANCH   6  11
ATOM     11  C   UNL A   1      31.765  26.717  26.377  1.00  0.00     0.256 C 
ATOM     12  N   UNL A   1      32.656  25.670  26.391  1.00  0.00    -0.322 N 
ATOM     13  H   UNL A   1      32.841  25.321  27.292  1.00  0.00     0.170 HD
ATOM     14  O   UNL A   1      31.381  27.176  27.456  1.00  0.00    -0.269 OA
BRANCH  12  15
ATOM     15  C   UNL A   1      33.351  25.001  25.374  1.00  0.00     0.042 A 
ATOM     16  C   UNL A   1      34.610  23.034  24.742  1.00  0.00     0.041 A 
ATOM     17  C   UNL A   1      34.614  23.458  23.411  1.00  0.00     0.014 A 
ATOM     18  C   UNL A   1      34.031  23.828  25.735  1.00  0.00     0.040 A 
ATOM     19  C   UNL A   1      34.014  24.666  23.069  1.00  0.00     0.003 A 
ATOM     20  C   UNL A   1      33.390  25.437  24.050  1.00  0.00     0.026 A 
BRANCH  16  21
ATOM     21  C   UNL A   1      35.302  21.777  25.058  1.00  0.00     0.251 C 
ATOM     22  N   UNL A   1      34.689  20.558  24.970  1.00  0.00    -0.346 N 
ATOM     23  H   UNL A   1      35.331  19.813  25.034  1.00  0.00     0.164 HD
ATOM     24  O   UNL A   1      36.499  21.836  25.335  1.00  0.00    -0.269 OA
BRANCH  22  25
ATOM     25  C   UNL A   1      33.315  20.094  24.805  1.00  0.00     0.109 C 
ATOM     26  C   UNL A   1      32.522  20.635  23.620  1.00  0.00     0.036 C 
BRANCH  25  27
ATOM     27  C   UNL A   1      33.303  18.570  24.743  1.00  0.00    -0.026 A 
ATOM     28  C   UNL A   1      32.621  17.820  25.716  1.00  0.00     0.006 A 
ATOM     29  C   UNL A   1      34.006  17.887  23.739  1.00  0.00     0.006 A 
ATOM     30  C   UNL A   1      32.681  16.426  25.717  1.00  0.00     0.000 A 
ATOM     31  C   UNL A   1      34.057  16.491  23.735  1.00  0.00     0.000 A 
ATOM     32  C   UNL A   1      33.405  15.762  24.730  1.00  0.00     0.000 A 
ENDBRANCH  25  27
ENDBRANCH  22  25
ENDBRANCH  16  21
ENDBRANCH  12  15
ENDBRANCH   6  11
ENDBRANCH   1   5
BRANCH   3  33
ATOM     33  C   UNL A   1      31.985  30.518  26.693  1.00  0.00     0.118 C 
BRANCH  33  34
ATOM     34  C   UNL A   1      31.800  32.024  26.659  1.00  0.00     0.042 C 
BRANCH  34  35
ATOM     35  C   UNL A   1      32.851  32.810  27.435  1.00  0.00     0.118 C 
BRANCH  35  36
ATOM     36  N   UNL A   1      32.484  34.191  27.737  1.00  0.00    -0.352 N 
ATOM     37  C   UNL A   1      33.013  35.082  28.650  1.00  0.00     0.251 C 
ATOM     38  H   UNL A   1      31.738  34.546  27.201  1.00  0.00     0.163 HD
ATOM     39  O   UNL A   1      32.528  36.193  28.783  1.00  0.00    -0.269 OA
BRANCH  37  40
ATOM     40  C   UNL A   1      34.139  34.647  29.503  1.00  0.00     0.039 A 
ATOM     41  C   UNL A   1      33.876  34.188  30.796  1.00  0.00     0.014 A 
ATOM     42  C   UNL A   1      35.426  34.584  28.979  1.00  0.00     0.014 A 
ATOM     43  C   UNL A   1      34.882  33.524  31.506  1.00  0.00     0.010 A 
ATOM     44  C   UNL A   1      36.382  33.817  29.631  1.00  0.00     0.010 A 
ATOM     45  C   UNL A   1      36.115  33.259  30.893  1.00  0.00    -0.014 A 
BRANCH  45  46
ATOM     46  C   UNL A   1      37.153  32.388  31.508  1.00  0.00     0.031 A 
ATOM     47  C   UNL A   1      37.644  32.699  32.895  1.00  0.00     0.074 A 
ATOM     48  C   UNL A   1      37.761  31.429  30.779  1.00  0.00     0.049 A 
ATOM     49  N   UNL A   1      38.716  32.278  33.513  1.00  0.00    -0.248 NA
ATOM     50  C   UNL A   1      36.848  33.668  33.666  1.00  0.00     0.031 C 
ATOM     51  C   UNL A   1      37.420  31.054  29.405  1.00  0.00     0.029 A 
ATOM     52  N   UNL A   1      38.820  30.610  31.088  1.00  0.00    -0.354 N 
ATOM     53  C   UNL A   1      38.759  32.980  34.710  1.00  0.00     0.074 A 
ATOM     54  C   UNL A   1      37.626  33.880  34.717  1.00  0.00     0.031 C 
ATOM     55  C   UNL A   1      38.238  30.069  28.999  1.00  0.00     0.029 A 
ATOM     56  C   UNL A   1      39.198  29.781  30.059  1.00  0.00     0.049 A 
ATOM     57  H   UNL A   1      39.268  30.617  31.965  1.00  0.00     0.167 HD
ATOM     58  C   UNL A   1      39.653  32.871  35.721  1.00  0.00     0.037 A 
ATOM     59  C   UNL A   1      40.215  28.902  29.972  1.00  0.00     0.037 A 
ATOM     60  C   UNL A   1      40.724  31.914  35.747  1.00  0.00     0.049 A 
ATOM     61  C   UNL A   1      41.154  28.747  31.138  1.00  0.00     0.074 A 
ATOM     62  C   UNL A   1      41.634  31.663  36.758  1.00  0.00     0.029 A 
ATOM     63  N   UNL A   1      41.013  31.030  34.717  1.00  0.00    -0.354 N 
ATOM     64  N   UNL A   1      41.167  29.395  32.278  1.00  0.00    -0.248 NA
ATOM     65  C   UNL A   1      42.220  27.745  31.007  1.00  0.00     0.031 C 
ATOM     66  C   UNL A   1      42.486  30.639  36.334  1.00  0.00     0.029 A 
ATOM     67  C   UNL A   1      42.085  30.230  35.073  1.00  0.00     0.049 A 
ATOM     68  H   UNL A   1      40.528  30.979  33.862  1.00  0.00     0.167 HD
ATOM     69  C   UNL A   1      42.216  28.857  33.011  1.00  0.00     0.074 A 
ATOM     70  C   UNL A   1      42.817  27.827  32.189  1.00  0.00     0.031 C 
ATOM     71  C   UNL A   1      42.642  29.186  34.253  1.00  0.00     0.037 A 
BRANCH  58  72
ATOM     72  C   UNL A   1      39.497  33.801  36.888  1.00  0.00     0.064 A 
ATOM     73  C   UNL A   1      38.786  33.429  38.038  1.00  0.00     0.173 A 
ATOM     74  C   UNL A   1      40.085  35.074  36.862  1.00  0.00     0.173 A 
ATOM     75  F   UNL A   1      38.193  32.228  38.105  1.00  0.00    -0.203 F 
ATOM     76  C   UNL A   1      38.638  34.311  39.105  1.00  0.00     0.198 A 
ATOM     77  C   UNL A   1      39.964  35.942  37.944  1.00  0.00     0.198 A 
ATOM     78  F   UNL A   1      40.782  35.478  35.789  1.00  0.00    -0.203 F 
ATOM     79  F   UNL A   1      37.905  33.955  40.169  1.00  0.00    -0.200 F 
ATOM     80  C   UNL A   1      39.232  35.563  39.061  1.00  0.00     0.200 A 
ATOM     81  F   UNL A   1      40.547  37.147  37.905  1.00  0.00    -0.200 F 
ATOM     82  F   UNL A   1      39.091  36.409  40.090  1.00  0.00    -0.200 F 
ENDBRANCH  58  72
BRANCH  59  83
ATOM     83  C   UNL A   1      40.389  28.080  28.746  1.00  0.00     0.064 A 
ATOM     84  C   UNL A   1      41.169  28.549  27.678  1.00  0.00     0.173 A 
ATOM     85  C   UNL A   1      39.787  26.822  28.611  1.00  0.00     0.173 A 
ATOM     86  F   UNL A   1      41.747  29.756  27.753  1.00  0.00    -0.203 F 
ATOM     87  C   UNL A   1      41.322  27.800  26.515  1.00  0.00     0.198 A 
ATOM     88  C   UNL A   1      39.962  26.061  27.456  1.00  0.00     0.198 A 
ATOM     89  F   UNL A   1      39.038  26.325  29.606  1.00  0.00    -0.203 F 
ATOM     90  F   UNL A   1      42.037  28.290  25.493  1.00  0.00    -0.200 F 
ATOM     91  C   UNL A   1      40.724  26.554  26.406  1.00  0.00     0.200 A 
ATOM     92  F   UNL A   1      39.392  24.853  27.359  1.00  0.00    -0.200 F 
ATOM     93  F   UNL A   1      40.872  25.831  25.287  1.00  0.00    -0.200 F 
ENDBRANCH  59  83
BRANCH  71  94
ATOM     94  C   UNL A   1      43.772  28.391  34.833  1.00  0.00     0.064 A 
ATOM     95  C   UNL A   1      43.547  27.196  35.528  1.00  0.00     0.173 A 
ATOM     96  C   UNL A   1      45.099  28.791  34.613  1.00  0.00     0.173 A 
ATOM     97  F   UNL A   1      42.294  26.782  35.774  1.00  0.00    -0.203 F 
ATOM     98  C   UNL A   1      44.614  26.430  35.989  1.00  0.00     0.198 A 
ATOM     99  C   UNL A   1      46.162  28.011  35.056  1.00  0.00     0.198 A 
ATOM    100  F   UNL A   1      45.361  29.926  33.946  1.00  0.00    -0.203 F 
ATOM    101  F   UNL A   1      44.379  25.299  36.672  1.00  0.00    -0.200 F 
ATOM    102  C   UNL A   1      45.918  26.832  35.744  1.00  0.00     0.200 A 
ATOM    103  F   UNL A   1      47.421  28.395  34.808  1.00  0.00    -0.200 F 
ATOM    104  F   UNL A   1      46.944  26.083  36.172  1.00  0.00    -0.200 F 
ENDBRANCH  71  94
ENDBRANCH  45  46
ENDBRANCH  37  40
ENDBRANCH  35  36
ENDBRANCH  34  35
ENDBRANCH  33  34
ENDBRANCH   3  33
TORSDOF 15
ENDMDL
MODEL 2
REMARK VINA RESULT:     -14.5      0.632      7.010
REMARK SMILES C[C@H](NC(=O)c1cccc(NC(=O)c2ccccc2C(=O)NCCCNC(=O)c2ccc(-c3c4nc(c(-c5c(F)c(F)c(F)c(F)c5F)c5ccc([nH]5)c(-c5c(F)c(F)c(F)c(F)c5F)c5nc(c(-c6c(F)c(F)c(F)c(F)c6F)c6ccc3[nH]6)C=C5)C=C4)cc2)c1)c1ccccc1
REMARK SMILES IDX 20 1 21 2 22 3 19 5 14 6 15 7 16 8 18 9 17 10 12 11 11 12
REMARK SMILES IDX 13 14 10 15 6 16 7 17 92 18 8 19 9 20 4 21 3 22 5 24 2 25
REMARK SMILES IDX 1 26 93 27 94 28 98 29 95 30 97 31 96 32 23 33 24 34 25 35
REMARK SMILES IDX 26 36 27 37 28 39 29 40 30 41 91 42 31 43 90 44 32 45 33 46
REMARK SMILES IDX 34 47 84 48 35 49 89 50 83 51 85 52 36 53 88 54 82 55 81 56
REMARK SMILES IDX 37 58 69 59 49 60 68 61 50 62 53 63 67 64 86 65 51 66 52 67
REMARK SMILES IDX 66 69 87 70 54 71 38 72 39 73 47 74 40 75 41 76 45 77 48 78
REMARK SMILES IDX 42 79 43 80 46 81 44 82 70 83 71 84 79 85 72 86 73 87 77 88
REMARK SMILES IDX 80 89 74 90 75 91 78 92 76 93 55 94 56 95 64 96 57 97 58 98
REMARK SMILES IDX 62 99 65 100 59 101 60 102 63 103 61 104
REMARK H PARENT 22 4 11 13 3 23 26 38 85 57 53 68
REMARK Flexibility Score: inf
ROOT
ATOM      1  C   UNL A   1      32.613  29.004  24.204  1.00  0.00     0.252 C 
ATOM      2  O   UNL A   1      33.513  28.756  23.400  1.00  0.00    -0.269 OA
ATOM      3  N   UNL A   1      32.832  29.996  25.116  1.00  0.00    -0.352 N 
ATOM      4  H   UNL A   1      33.723  30.409  25.063  1.00  0.00     0.163 HD
ENDROOT
BRANCH   1   5
ATOM      5  C   UNL A   1      31.406  28.150  24.210  1.00  0.00     0.052 A 
ATOM      6  C   UNL A   1      31.115  27.105  25.098  1.00  0.00     0.052 A 
ATOM      7  C   UNL A   1      29.945  26.345  24.904  1.00  0.00     0.014 A 
ATOM      8  C   UNL A   1      29.031  26.672  23.901  1.00  0.00     0.001 A 
ATOM      9  C   UNL A   1      30.453  28.491  23.226  1.00  0.00     0.014 A 
ATOM     10  C   UNL A   1      29.274  27.762  23.077  1.00  0.00     0.001 A 
BRANCH   6  11
ATOM     11  C   UNL A   1      31.955  26.663  26.229  1.00  0.00     0.256 C 
ATOM     12  N   UNL A   1      32.894  25.663  26.157  1.00  0.00    -0.322 N 
ATOM     13  H   UNL A   1      33.258  25.397  27.032  1.00  0.00     0.170 HD
ATOM     14  O   UNL A   1      31.743  27.192  27.324  1.00  0.00    -0.269 OA
BRANCH  12  15
ATOM     15  C   UNL A   1      33.436  24.944  25.081  1.00  0.00     0.042 A 
ATOM     16  C   UNL A   1      34.604  22.951  24.365  1.00  0.00     0.041 A 
ATOM     17  C   UNL A   1      34.404  23.307  23.029  1.00  0.00     0.014 A 
ATOM     18  C   UNL A   1      34.174  23.792  25.393  1.00  0.00     0.040 A 
ATOM     19  C   UNL A   1      33.749  24.495  22.722  1.00  0.00     0.003 A 
ATOM     20  C   UNL A   1      33.271  25.313  23.746  1.00  0.00     0.026 A 
BRANCH  16  21
ATOM     21  C   UNL A   1      35.348  21.712  24.636  1.00  0.00     0.251 C 
ATOM     22  N   UNL A   1      34.745  20.486  24.674  1.00  0.00    -0.346 N 
ATOM     23  H   UNL A   1      35.399  19.750  24.682  1.00  0.00     0.164 HD
ATOM     24  O   UNL A   1      36.570  21.792  24.753  1.00  0.00    -0.269 OA
BRANCH  22  25
ATOM     25  C   UNL A   1      33.367  20.005  24.706  1.00  0.00     0.109 C 
ATOM     26  C   UNL A   1      32.440  20.435  23.575  1.00  0.00     0.036 C 
BRANCH  25  27
ATOM     27  C   UNL A   1      33.368  18.482  24.781  1.00  0.00    -0.026 A 
ATOM     28  C   UNL A   1      34.119  17.720  23.869  1.00  0.00     0.006 A 
ATOM     29  C   UNL A   1      32.586  17.809  25.733  1.00  0.00     0.006 A 
ATOM     30  C   UNL A   1      34.053  16.327  23.875  1.00  0.00     0.000 A 
ATOM     31  C   UNL A   1      32.529  16.413  25.744  1.00  0.00     0.000 A 
ATOM     32  C   UNL A   1      33.253  15.674  24.808  1.00  0.00     0.000 A 
ENDBRANCH  25  27
ENDBRANCH  22  25
ENDBRANCH  16  21
ENDBRANCH  12  15
ENDBRANCH   6  11
ENDBRANCH   1   5
BRANCH   3  33
ATOM     33  C   UNL A   1      31.978  30.545  26.148  1.00  0.00     0.118 C 
BRANCH  33  34
ATOM     34  C   UNL A   1      32.711  30.832  27.445  1.00  0.00     0.042 C 
BRANCH  34  35
ATOM     35  C   UNL A   1      33.629  32.048  27.399  1.00  0.00     0.118 C 
BRANCH  35  36
ATOM     36  N   UNL A   1      32.967  33.327  27.647  1.00  0.00    -0.352 N 
ATOM     37  C   UNL A   1      33.249  34.321  28.563  1.00  0.00     0.251 C 
ATOM     38  H   UNL A   1      32.193  33.510  27.066  1.00  0.00     0.163 HD
ATOM     39  O   UNL A   1      32.537  35.308  28.645  1.00  0.00    -0.269 OA
BRANCH  37  40
ATOM     40  C   UNL A   1      34.393  34.143  29.482  1.00  0.00     0.039 A 
ATOM     41  C   UNL A   1      34.204  33.446  30.678  1.00  0.00     0.014 A 
ATOM     42  C   UNL A   1      35.664  34.560  29.101  1.00  0.00     0.014 A 
ATOM     43  C   UNL A   1      35.318  33.036  31.417  1.00  0.00     0.010 A 
ATOM     44  C   UNL A   1      36.769  34.046  29.765  1.00  0.00     0.010 A 
ATOM     45  C   UNL A   1      36.610  33.258  30.919  1.00  0.00    -0.014 A 
BRANCH  45  46
ATOM     46  C   UNL A   1      37.829  32.677  31.545  1.00  0.00     0.031 A 
ATOM     47  C   UNL A   1      38.539  31.546  30.855  1.00  0.00     0.074 A 
ATOM     48  C   UNL A   1      38.205  33.050  32.786  1.00  0.00     0.049 A 
ATOM     49  N   UNL A   1      39.422  30.706  31.327  1.00  0.00    -0.248 NA
ATOM     50  C   UNL A   1      38.152  31.288  29.458  1.00  0.00     0.031 C 
ATOM     51  C   UNL A   1      37.576  34.099  33.592  1.00  0.00     0.029 A 
ATOM     52  N   UNL A   1      39.196  32.561  33.603  1.00  0.00    -0.354 N 
ATOM     53  C   UNL A   1      39.642  29.783  30.313  1.00  0.00     0.074 A 
ATOM     54  C   UNL A   1      38.774  30.145  29.213  1.00  0.00     0.031 C 
ATOM     55  C   UNL A   1      38.207  34.188  34.773  1.00  0.00     0.029 A 
ATOM     56  C   UNL A   1      39.246  33.167  34.836  1.00  0.00     0.049 A 
ATOM     57  H   UNL A   1      39.812  31.843  33.331  1.00  0.00     0.167 HD
ATOM     58  C   UNL A   1      40.504  28.739  30.294  1.00  0.00     0.037 A 
ATOM     59  C   UNL A   1      40.028  32.914  35.903  1.00  0.00     0.037 A 
ATOM     60  C   UNL A   1      41.425  28.438  31.354  1.00  0.00     0.049 A 
ATOM     61  C   UNL A   1      41.030  31.793  35.830  1.00  0.00     0.074 A 
ATOM     62  C   UNL A   1      42.398  27.455  31.400  1.00  0.00     0.029 A 
ATOM     63  N   UNL A   1      41.503  29.137  32.550  1.00  0.00    -0.354 N 
ATOM     64  N   UNL A   1      41.250  30.945  34.855  1.00  0.00    -0.248 NA
ATOM     65  C   UNL A   1      41.887  31.588  37.007  1.00  0.00     0.031 C 
ATOM     66  C   UNL A   1      43.053  27.548  32.632  1.00  0.00     0.029 A 
ATOM     67  C   UNL A   1      42.511  28.609  33.338  1.00  0.00     0.049 A 
ATOM     68  H   UNL A   1      40.928  29.895  32.801  1.00  0.00     0.167 HD
ATOM     69  C   UNL A   1      42.290  30.133  35.283  1.00  0.00     0.074 A 
ATOM     70  C   UNL A   1      42.661  30.587  36.607  1.00  0.00     0.031 C 
ATOM     71  C   UNL A   1      42.886  29.102  34.637  1.00  0.00     0.037 A 
BRANCH  58  72
ATOM     72  C   UNL A   1      40.498  27.857  29.080  1.00  0.00     0.064 A 
ATOM     73  C   UNL A   1      39.684  26.719  28.999  1.00  0.00     0.173 A 
ATOM     74  C   UNL A   1      41.305  28.167  27.975  1.00  0.00     0.173 A 
ATOM     75  F   UNL A   1      38.905  26.372  30.036  1.00  0.00    -0.203 F 
ATOM     76  C   UNL A   1      39.703  25.902  27.872  1.00  0.00     0.198 A 
ATOM     77  C   UNL A   1      41.298  27.367  26.836  1.00  0.00     0.198 A 
ATOM     78  F   UNL A   1      42.099  29.249  27.998  1.00  0.00    -0.203 F 
ATOM     79  F   UNL A   1      38.960  24.788  27.842  1.00  0.00    -0.200 F 
ATOM     80  C   UNL A   1      40.504  26.230  26.789  1.00  0.00     0.200 A 
ATOM     81  F   UNL A   1      42.064  27.691  25.785  1.00  0.00    -0.200 F 
ATOM     82  F   UNL A   1      40.519  25.445  25.703  1.00  0.00    -0.200 F 
ENDBRANCH  58  72
BRANCH  59  83
ATOM     83  C   UNL A   1      39.918  33.753  37.125  1.00  0.00     0.064 A 
ATOM     84  C   UNL A   1      40.711  34.900  37.276  1.00  0.00     0.173 A 
ATOM     85  C   UNL A   1      39.029  33.433  38.160  1.00  0.00     0.173 A 
ATOM     86  F   UNL A   1      41.592  35.234  36.322  1.00  0.00    -0.203 F 
ATOM     87  C   UNL A   1      40.634  35.683  38.425  1.00  0.00     0.198 A 
ATOM     88  C   UNL A   1      38.934  34.232  39.299  1.00  0.00     0.198 A 
ATOM     89  F   UNL A   1      38.243  32.351  38.061  1.00  0.00    -0.203 F 
ATOM     90  F   UNL A   1      41.435  36.749  38.563  1.00  0.00    -0.200 F 
ATOM     91  C   UNL A   1      39.742  35.352  39.434  1.00  0.00     0.200 A 
ATOM     92  F   UNL A   1      38.063  33.916  40.267  1.00  0.00    -0.200 F 
ATOM     93  F   UNL A   1      39.666  36.105  40.539  1.00  0.00    -0.200 F 
ENDBRANCH  59  83
BRANCH  71  94
ATOM     94  C   UNL A   1      44.040  28.431  35.316  1.00  0.00     0.064 A 
ATOM     95  C   UNL A   1      45.356  28.880  35.144  1.00  0.00     0.173 A 
ATOM     96  C   UNL A   1      43.811  27.378  36.215  1.00  0.00     0.173 A 
ATOM     97  F   UNL A   1      45.623  29.875  34.284  1.00  0.00    -0.203 F 
ATOM     98  C   UNL A   1      46.405  28.295  35.847  1.00  0.00     0.198 A 
ATOM     99  C   UNL A   1      44.859  26.810  36.932  1.00  0.00     0.198 A 
ATOM    100  F   UNL A   1      42.566  26.919  36.415  1.00  0.00    -0.203 F 
ATOM    101  F   UNL A   1      47.661  28.724  35.654  1.00  0.00    -0.200 F 
ATOM    102  C   UNL A   1      46.155  27.269  36.747  1.00  0.00     0.200 A 
ATOM    103  F   UNL A   1      44.615  25.828  37.809  1.00  0.00    -0.200 F 
ATOM    104  F   UNL A   1      47.165  26.719  37.436  1.00  0.00    -0.200 F 
ENDBRANCH  71  94
ENDBRANCH  45  46
ENDBRANCH  37  40
ENDBRANCH  35  36
ENDBRANCH  34  35
ENDBRANCH  33  34
ENDBRANCH   3  33
TORSDOF 15
ENDMDL
MODEL 3
REMARK VINA RESULT:     -14.5      5.270     11.364
REMARK SMILES C[C@H](NC(=O)c1cccc(NC(=O)c2ccccc2C(=O)NCCCNC(=O)c2ccc(-c3c4nc(c(-c5c(F)c(F)c(F)c(F)c5F)c5ccc([nH]5)c(-c5c(F)c(F)c(F)c(F)c5F)c5nc(c(-c6c(F)c(F)c(F)c(F)c6F)c6ccc3[nH]6)C=C5)C=C4)cc2)c1)c1ccccc1
REMARK SMILES IDX 20 1 21 2 22 3 19 5 14 6 15 7 16 8 18 9 17 10 12 11 11 12
REMARK SMILES IDX 13 14 10 15 6 16 7 17 92 18 8 19 9 20 4 21 3 22 5 24 2 25
REMARK SMILES IDX 1 26 93 27 94 28 98 29 95 30 97 31 96 32 23 33 24 34 25 35
REMARK SMILES IDX 26 36 27 37 28 39 29 40 30 41 91 42 31 43 90 44 32 45 33 46
REMARK SMILES IDX 34 47 84 48 35 49 89 50 83 51 85 52 36 53 88 54 82 55 81 56
REMARK SMILES IDX 37 58 69 59 49 60 68 61 50 62 53 63 67 64 86 65 51 66 52 67
REMARK SMILES IDX 66 69 87 70 54 71 38 72 39 73 47 74 40 75 41 76 45 77 48 78
REMARK SMILES IDX 42 79 43 80 46 81 44 82 70 83 71 84 79 85 72 86 73 87 77 88
REMARK SMILES IDX 80 89 74 90 75 91 78 92 76 93 55 94 56 95 64 96 57 97 58 98
REMARK SMILES IDX 62 99 65 100 59 101 60 102 63 103 61 104
REMARK H PARENT 22 4 11 13 3 23 26 38 85 57 53 68
REMARK Flexibility Score: inf
ROOT
ATOM      1  C   UNL A   1      35.374  21.943  26.019  1.00  0.00     0.252 C 
ATOM      2  O   UNL A   1      35.039  22.493  27.069  1.00  0.00    -0.269 OA
ATOM      3  N   UNL A   1      36.710  21.806  25.772  1.00  0.00    -0.352 N 
ATOM      4  H   UNL A   1      37.294  22.197  26.460  1.00  0.00     0.163 HD
ENDROOT
BRANCH   1   5
ATOM      5  C   UNL A   1      34.327  21.567  25.044  1.00  0.00     0.052 A 
ATOM      6  C   UNL A   1      34.014  22.223  23.846  1.00  0.00     0.052 A 
ATOM      7  C   UNL A   1      32.927  21.765  23.077  1.00  0.00     0.014 A 
ATOM      8  C   UNL A   1      32.218  20.619  23.440  1.00  0.00     0.001 A 
ATOM      9  C   UNL A   1      33.626  20.389  25.378  1.00  0.00     0.014 A 
ATOM     10  C   UNL A   1      32.584  19.916  24.580  1.00  0.00     0.001 A 
BRANCH   6  11
ATOM     11  C   UNL A   1      34.691  23.418  23.304  1.00  0.00     0.256 C 
ATOM     12  N   UNL A   1      34.256  24.709  23.486  1.00  0.00    -0.322 N 
ATOM     13  H   UNL A   1      34.738  25.370  22.938  1.00  0.00     0.170 HD
ATOM     14  O   UNL A   1      35.677  23.226  22.587  1.00  0.00    -0.269 OA
BRANCH  12  15
ATOM     15  C   UNL A   1      33.259  25.270  24.297  1.00  0.00     0.042 A 
ATOM     16  C   UNL A   1      31.019  26.175  24.414  1.00  0.00     0.041 A 
ATOM     17  C   UNL A   1      31.110  26.233  25.807  1.00  0.00     0.014 A 
ATOM     18  C   UNL A   1      32.110  25.750  23.652  1.00  0.00     0.040 A 
ATOM     19  C   UNL A   1      32.284  25.839  26.440  1.00  0.00     0.003 A 
ATOM     20  C   UNL A   1      33.358  25.365  25.686  1.00  0.00     0.026 A 
BRANCH  16  21
ATOM     21  C   UNL A   1      29.776  26.652  23.792  1.00  0.00     0.251 C 
ATOM     22  N   UNL A   1      29.748  27.697  22.912  1.00  0.00    -0.346 N 
ATOM     23  H   UNL A   1      28.881  27.772  22.450  1.00  0.00     0.164 HD
ATOM     24  O   UNL A   1      28.743  26.025  24.024  1.00  0.00    -0.269 OA
BRANCH  22  25
ATOM     25  C   UNL A   1      30.691  28.729  22.492  1.00  0.00     0.109 C 
ATOM     26  C   UNL A   1      30.125  29.974  21.819  1.00  0.00     0.036 C 
BRANCH  25  27
ATOM     27  C   UNL A   1      31.529  29.163  23.689  1.00  0.00    -0.026 A 
ATOM     28  C   UNL A   1      32.909  28.899  23.731  1.00  0.00     0.006 A 
ATOM     29  C   UNL A   1      30.934  29.795  24.792  1.00  0.00     0.006 A 
ATOM     30  C   UNL A   1      33.664  29.212  24.862  1.00  0.00     0.000 A 
ATOM     31  C   UNL A   1      31.693  30.117  25.919  1.00  0.00     0.000 A 
ATOM     32  C   UNL A   1      33.055  29.815  25.958  1.00  0.00     0.000 A 
ENDBRANCH  25  27
ENDBRANCH  22  25
ENDBRANCH  16  21
ENDBRANCH  12  15
ENDBRANCH   6  11
ENDBRANCH   1   5
BRANCH   3  33
ATOM     33  C   UNL A   1      37.415  21.184  24.671  1.00  0.00     0.118 C 
BRANCH  33  34
ATOM     34  C   UNL A   1      38.195  19.948  25.078  1.00  0.00     0.042 C 
BRANCH  34  35
ATOM     35  C   UNL A   1      39.488  20.233  25.833  1.00  0.00     0.118 C 
BRANCH  35  36
ATOM     36  N   UNL A   1      40.422  19.112  25.894  1.00  0.00    -0.352 N 
ATOM     37  C   UNL A   1      41.783  19.088  26.129  1.00  0.00     0.251 C 
ATOM     38  H   UNL A   1      40.015  18.228  25.743  1.00  0.00     0.163 HD
ATOM     39  O   UNL A   1      42.400  18.037  26.093  1.00  0.00    -0.269 OA
BRANCH  37  40
ATOM     40  C   UNL A   1      42.489  20.365  26.368  1.00  0.00     0.039 A 
ATOM     41  C   UNL A   1      43.150  20.987  25.306  1.00  0.00     0.014 A 
ATOM     42  C   UNL A   1      42.392  20.994  27.606  1.00  0.00     0.014 A 
ATOM     43  C   UNL A   1      43.581  22.310  25.447  1.00  0.00     0.010 A 
ATOM     44  C   UNL A   1      42.706  22.342  27.703  1.00  0.00     0.010 A 
ATOM     45  C   UNL A   1      43.284  23.024  26.618  1.00  0.00    -0.014 A 
BRANCH  45  46
ATOM     46  C   UNL A   1      43.531  24.485  26.759  1.00  0.00     0.031 A 
ATOM     47  C   UNL A   1      44.902  25.028  26.468  1.00  0.00     0.074 A 
ATOM     48  C   UNL A   1      42.588  25.289  27.291  1.00  0.00     0.049 A 
ATOM     49  N   UNL A   1      45.427  26.182  26.789  1.00  0.00    -0.248 NA
ATOM     50  C   UNL A   1      45.830  24.119  25.773  1.00  0.00     0.031 C 
ATOM     51  C   UNL A   1      41.231  24.886  27.666  1.00  0.00     0.029 A 
ATOM     52  N   UNL A   1      42.640  26.619  27.636  1.00  0.00    -0.354 N 
ATOM     53  C   UNL A   1      46.758  26.110  26.400  1.00  0.00     0.074 A 
ATOM     54  C   UNL A   1      46.971  24.788  25.852  1.00  0.00     0.031 C 
ATOM     55  C   UNL A   1      40.577  25.945  28.169  1.00  0.00     0.029 A 
ATOM     56  C   UNL A   1      41.481  27.088  28.206  1.00  0.00     0.049 A 
ATOM     57  H   UNL A   1      43.435  27.182  27.490  1.00  0.00     0.167 HD
ATOM     58  C   UNL A   1      47.712  27.068  26.476  1.00  0.00     0.037 A 
ATOM     59  C   UNL A   1      41.187  28.299  28.719  1.00  0.00     0.037 A 
ATOM     60  C   UNL A   1      47.472  28.406  26.940  1.00  0.00     0.049 A 
ATOM     61  C   UNL A   1      42.245  29.370  28.727  1.00  0.00     0.074 A 
ATOM     62  C   UNL A   1      48.348  29.476  26.979  1.00  0.00     0.029 A 
ATOM     63  N   UNL A   1      46.255  28.864  27.424  1.00  0.00    -0.354 N 
ATOM     64  N   UNL A   1      43.492  29.301  28.329  1.00  0.00    -0.248 NA
ATOM     65  C   UNL A   1      41.858  30.684  29.258  1.00  0.00     0.031 C 
ATOM     66  C   UNL A   1      47.666  30.579  27.504  1.00  0.00     0.029 A 
ATOM     67  C   UNL A   1      46.357  30.203  27.760  1.00  0.00     0.049 A 
ATOM     68  H   UNL A   1      45.441  28.319  27.515  1.00  0.00     0.167 HD
ATOM     69  C   UNL A   1      44.027  30.565  28.528  1.00  0.00     0.074 A 
ATOM     70  C   UNL A   1      42.970  31.386  29.082  1.00  0.00     0.031 C 
ATOM     71  C   UNL A   1      45.281  31.008  28.275  1.00  0.00     0.037 A 
BRANCH  58  72
ATOM     72  C   UNL A   1      49.098  26.702  26.033  1.00  0.00     0.064 A 
ATOM     73  C   UNL A   1      49.547  26.958  24.730  1.00  0.00     0.173 A 
ATOM     74  C   UNL A   1      49.995  26.106  26.932  1.00  0.00     0.173 A 
ATOM     75  F   UNL A   1      48.722  27.513  23.829  1.00  0.00    -0.203 F 
ATOM     76  C   UNL A   1      50.831  26.598  24.331  1.00  0.00     0.198 A 
ATOM     77  C   UNL A   1      51.290  25.777  26.540  1.00  0.00     0.198 A 
ATOM     78  F   UNL A   1      49.619  25.845  28.193  1.00  0.00    -0.203 F 
ATOM     79  F   UNL A   1      51.218  26.799  23.064  1.00  0.00    -0.200 F 
ATOM     80  C   UNL A   1      51.703  26.014  25.237  1.00  0.00     0.200 A 
ATOM     81  F   UNL A   1      52.136  25.223  27.419  1.00  0.00    -0.200 F 
ATOM     82  F   UNL A   1      52.940  25.671  24.852  1.00  0.00    -0.200 F 
ENDBRANCH  58  72
BRANCH  59  83
ATOM     83  C   UNL A   1      39.826  28.576  29.246  1.00  0.00     0.064 A 
ATOM     84  C   UNL A   1      39.516  28.319  30.590  1.00  0.00     0.173 A 
ATOM     85  C   UNL A   1      38.811  29.095  28.431  1.00  0.00     0.173 A 
ATOM     86  F   UNL A   1      40.448  27.802  31.403  1.00  0.00    -0.203 F 
ATOM     87  C   UNL A   1      38.238  28.553  31.092  1.00  0.00     0.198 A 
ATOM     88  C   UNL A   1      37.539  29.353  28.941  1.00  0.00     0.198 A 
ATOM     89  F   UNL A   1      39.057  29.365  27.140  1.00  0.00    -0.203 F 
ATOM     90  F   UNL A   1      37.958  28.258  32.370  1.00  0.00    -0.200 F 
ATOM     91  C   UNL A   1      37.252  29.074  30.269  1.00  0.00     0.200 A 
ATOM     92  F   UNL A   1      36.591  29.867  28.145  1.00  0.00    -0.200 F 
ATOM     93  F   UNL A   1      36.023  29.301  30.752  1.00  0.00    -0.200 F 
ENDBRANCH  59  83
BRANCH  71  94
ATOM     94  C   UNL A   1      45.572  32.455  28.531  1.00  0.00     0.064 A 
ATOM     95  C   UNL A   1      46.125  32.889  29.743  1.00  0.00     0.173 A 
ATOM     96  C   UNL A   1      45.372  33.403  27.516  1.00  0.00     0.173 A 
ATOM     97  F   UNL A   1      46.321  32.020  30.746  1.00  0.00    -0.203 F 
ATOM     98  C   UNL A   1      46.464  34.226  29.932  1.00  0.00     0.198 A 
ATOM     99  C   UNL A   1      45.733  34.734  27.701  1.00  0.00     0.198 A 
ATOM    100  F   UNL A   1      44.851  33.030  26.337  1.00  0.00    -0.203 F 
ATOM    101  F   UNL A   1      46.972  34.627  31.106  1.00  0.00    -0.200 F 
ATOM    102  C   UNL A   1      46.277  35.144  28.908  1.00  0.00     0.200 A 
ATOM    103  F   UNL A   1      45.562  35.617  26.708  1.00  0.00    -0.200 F 
ATOM    104  F   UNL A   1      46.621  36.427  29.087  1.00  0.00    -0.200 F 
ENDBRANCH  71  94
ENDBRANCH  45  46
ENDBRANCH  37  40
ENDBRANCH  35  36
ENDBRANCH  34  35
ENDBRANCH  33  34
ENDBRANCH   3  33
TORSDOF 15
ENDMDL
