MODEL 1
REMARK VINA RESULT:     -11.9      0.000      0.000
REMARK SMILES Cc1cc(C(=O)N2CCO[C@H](C)C2)sc1/C=C/C(=O)NCCCNC(=O)c1ccc(-c2c3nc(c(-c4c(F)c(F)c(F)c(F)c4F)c4ccc([nH]4)c(-c4c(F)c(F)c(F)c(F)c4F)c4nc(c(-c5c(F)c(F)c(F)c(F)c5F)c5ccc2[nH]5)C=C4)C=C3)cc1
REMARK SMILES IDX 21 1 20 2 18 3 19 4 17 6 16 7 15 8 1 9 2 10 3 11 4 12 14 13
REMARK SMILES IDX 5 14 6 15 7 16 8 17 13 18 9 19 11 20 10 21 12 22 22 23 23 24
REMARK SMILES IDX 24 25 25 26 26 28 27 29 28 30 89 31 29 32 88 33 30 34 31 35
REMARK SMILES IDX 32 36 82 37 33 38 87 39 81 40 83 41 34 42 86 43 80 44 79 45
REMARK SMILES IDX 35 47 67 48 47 49 66 50 48 51 51 52 65 53 84 54 49 55 50 56
REMARK SMILES IDX 64 58 85 59 52 60 36 61 37 62 45 63 38 64 39 65 43 66 46 67
REMARK SMILES IDX 40 68 41 69 44 70 42 71 68 72 69 73 77 74 70 75 71 76 75 77
REMARK SMILES IDX 78 78 72 79 73 80 76 81 74 82 53 83 54 84 62 85 55 86 56 87
REMARK SMILES IDX 60 88 63 89 57 90 58 91 61 92 59 93
REMARK H PARENT 20 5 24 27 83 46 51 57
REMARK Flexibility Score: inf
ROOT
ATOM      1  C   UNL A   1      41.816  19.226  27.636  1.00  0.00     0.118 C 
ENDROOT
BRANCH   1   2
ATOM      2  N   UNL A   1      42.565  20.415  28.001  1.00  0.00    -0.352 N 
ATOM      3  C   UNL A   1      42.162  21.712  28.082  1.00  0.00     0.244 C 
ATOM      4  O   UNL A   1      42.924  22.568  28.518  1.00  0.00    -0.270 OA
ATOM      5  H   UNL A   1      43.510  20.260  28.227  1.00  0.00     0.163 HD
BRANCH   3   6
ATOM      6  C   UNL A   1      40.777  22.076  27.729  1.00  0.00     0.072 C 
ATOM      7  C   UNL A   1      40.352  22.203  26.464  1.00  0.00     0.025 C 
BRANCH   7   8
ATOM      8  C   UNL A   1      39.011  22.570  26.142  1.00  0.00     0.031 A 
ATOM      9  C   UNL A   1      38.916  24.966  27.082  1.00  0.00     0.046 C 
ATOM     10  C   UNL A   1      38.335  23.749  26.432  1.00  0.00    -0.032 A 
ATOM     11  C   UNL A   1      36.970  23.695  25.982  1.00  0.00     0.029 A 
ATOM     12  C   UNL A   1      36.644  22.516  25.337  1.00  0.00     0.093 A 
ATOM     13  S   UNL A   1      37.996  21.485  25.283  1.00  0.00    -0.130 S 
BRANCH  12  14
ATOM     14  C   UNL A   1      35.409  22.246  24.604  1.00  0.00     0.264 C 
ATOM     15  O   UNL A   1      35.184  22.822  23.537  1.00  0.00    -0.268 OA
BRANCH  14  16
ATOM     16  N   UNL A   1      34.522  21.274  25.053  1.00  0.00    -0.333 N 
ATOM     17  C   UNL A   1      33.414  21.670  25.918  1.00  0.00     0.148 C 
ATOM     18  C   UNL A   1      34.570  19.830  24.796  1.00  0.00     0.151 C 
ATOM     19  C   UNL A   1      32.103  21.155  25.311  1.00  0.00     0.182 C 
ATOM     20  C   UNL A   1      33.214  19.338  24.251  1.00  0.00     0.134 C 
ATOM     21  O   UNL A   1      32.142  19.727  25.137  1.00  0.00    -0.375 OA
ATOM     22  C   UNL A   1      33.185  17.822  24.129  1.00  0.00     0.040 C 
ENDBRANCH  14  16
ENDBRANCH  12  14
ENDBRANCH   7   8
ENDBRANCH   3   6
ENDBRANCH   1   2
BRANCH   1  23
ATOM     23  C   UNL A   1      42.542  18.415  26.565  1.00  0.00     0.042 C 
BRANCH  23  24
ATOM     24  C   UNL A   1      42.789  19.194  25.276  1.00  0.00     0.118 C 
BRANCH  24  25
ATOM     25  N   UNL A   1      44.036  18.807  24.633  1.00  0.00    -0.352 N 
ATOM     26  C   UNL A   1      45.102  19.573  24.238  1.00  0.00     0.251 C 
ATOM     27  H   UNL A   1      44.128  17.843  24.455  1.00  0.00     0.163 HD
ATOM     28  O   UNL A   1      45.968  19.077  23.523  1.00  0.00    -0.269 OA
BRANCH  26  29
ATOM     29  C   UNL A   1      45.219  20.989  24.651  1.00  0.00     0.039 A 
ATOM     30  C   UNL A   1      45.593  21.271  25.969  1.00  0.00     0.014 A 
ATOM     31  C   UNL A   1      44.903  22.036  23.780  1.00  0.00     0.014 A 
ATOM     32  C   UNL A   1      45.693  22.596  26.400  1.00  0.00     0.010 A 
ATOM     33  C   UNL A   1      45.059  23.358  24.191  1.00  0.00     0.010 A 
ATOM     34  C   UNL A   1      45.448  23.650  25.508  1.00  0.00    -0.014 A 
BRANCH  34  35
ATOM     35  C   UNL A   1      45.578  25.065  25.939  1.00  0.00     0.031 A 
ATOM     36  C   UNL A   1      46.908  25.762  25.856  1.00  0.00     0.074 A 
ATOM     37  C   UNL A   1      44.513  25.704  26.456  1.00  0.00     0.049 A 
ATOM     38  N   UNL A   1      47.239  26.964  26.254  1.00  0.00    -0.248 NA
ATOM     39  C   UNL A   1      48.019  24.995  25.271  1.00  0.00     0.031 C 
ATOM     40  C   UNL A   1      43.180  25.125  26.624  1.00  0.00     0.029 A 
ATOM     41  N   UNL A   1      44.387  26.979  26.948  1.00  0.00    -0.354 N 
ATOM     42  C   UNL A   1      48.595  27.090  25.987  1.00  0.00     0.074 A 
ATOM     43  C   UNL A   1      49.035  25.830  25.428  1.00  0.00     0.031 C 
ATOM     44  C   UNL A   1      42.367  26.045  27.168  1.00  0.00     0.029 A 
ATOM     45  C   UNL A   1      43.128  27.266  27.413  1.00  0.00     0.049 A 
ATOM     46  H   UNL A   1      45.128  27.626  26.965  1.00  0.00     0.167 HD
ATOM     47  C   UNL A   1      49.397  28.166  26.174  1.00  0.00     0.037 A 
ATOM     48  C   UNL A   1      42.644  28.387  27.981  1.00  0.00     0.037 A 
ATOM     49  C   UNL A   1      48.951  29.430  26.699  1.00  0.00     0.049 A 
ATOM     50  C   UNL A   1      43.548  29.574  28.159  1.00  0.00     0.074 A 
ATOM     51  C   UNL A   1      49.675  30.597  26.875  1.00  0.00     0.029 A 
ATOM     52  N   UNL A   1      47.660  29.693  27.131  1.00  0.00    -0.354 N 
ATOM     53  N   UNL A   1      44.818  29.698  27.856  1.00  0.00    -0.248 NA
ATOM     54  C   UNL A   1      42.952  30.779  28.752  1.00  0.00     0.031 C 
ATOM     55  C   UNL A   1      48.829  31.557  27.441  1.00  0.00     0.029 A 
ATOM     56  C   UNL A   1      47.569  31.000  27.584  1.00  0.00     0.049 A 
ATOM     57  H   UNL A   1      46.917  29.046  27.117  1.00  0.00     0.167 HD
ATOM     58  C   UNL A   1      45.166  30.997  28.200  1.00  0.00     0.074 A 
ATOM     59  C   UNL A   1      43.971  31.627  28.721  1.00  0.00     0.031 C 
ATOM     60  C   UNL A   1      46.369  31.611  28.093  1.00  0.00     0.037 A 
BRANCH  47  61
ATOM     61  C   UNL A   1      50.843  28.023  25.803  1.00  0.00     0.064 A 
ATOM     62  C   UNL A   1      51.281  28.187  24.481  1.00  0.00     0.173 A 
ATOM     63  C   UNL A   1      51.808  27.755  26.786  1.00  0.00     0.173 A 
ATOM     64  F   UNL A   1      50.395  28.433  23.503  1.00  0.00    -0.203 F 
ATOM     65  C   UNL A   1      52.628  28.059  24.151  1.00  0.00     0.198 A 
ATOM     66  C   UNL A   1      53.157  27.653  26.457  1.00  0.00     0.198 A 
ATOM     67  F   UNL A   1      51.442  27.595  28.067  1.00  0.00    -0.203 F 
ATOM     68  F   UNL A   1      53.016  28.176  22.873  1.00  0.00    -0.200 F 
ATOM     69  C   UNL A   1      53.565  27.800  25.139  1.00  0.00     0.200 A 
ATOM     70  F   UNL A   1      54.063  27.412  27.414  1.00  0.00    -0.200 F 
ATOM     71  F   UNL A   1      54.861  27.682  24.820  1.00  0.00    -0.200 F 
ENDBRANCH  47  61
BRANCH  48  72
ATOM     72  C   UNL A   1      41.220  28.446  28.396  1.00  0.00     0.064 A 
ATOM     73  C   UNL A   1      40.830  28.037  29.679  1.00  0.00     0.173 A 
ATOM     74  C   UNL A   1      40.226  28.920  27.529  1.00  0.00     0.173 A 
ATOM     75  F   UNL A   1      41.744  27.558  30.536  1.00  0.00    -0.203 F 
ATOM     76  C   UNL A   1      39.496  28.088  30.074  1.00  0.00     0.198 A 
ATOM     77  C   UNL A   1      38.895  28.992  27.934  1.00  0.00     0.198 A 
ATOM     78  F   UNL A   1      40.551  29.328  26.294  1.00  0.00    -0.203 F 
ATOM     79  F   UNL A   1      39.144  27.660  31.294  1.00  0.00    -0.200 F 
ATOM     80  C   UNL A   1      38.530  28.571  29.204  1.00  0.00     0.200 A 
ATOM     81  F   UNL A   1      37.967  29.471  27.094  1.00  0.00    -0.200 F 
ATOM     82  F   UNL A   1      37.248  28.626  29.587  1.00  0.00    -0.200 F 
ENDBRANCH  48  72
BRANCH  60  83
ATOM     83  C   UNL A   1      46.446  33.046  28.524  1.00  0.00     0.064 A 
ATOM     84  C   UNL A   1      46.185  34.094  27.630  1.00  0.00     0.173 A 
ATOM     85  C   UNL A   1      46.747  33.372  29.854  1.00  0.00     0.173 A 
ATOM     86  F   UNL A   1      45.907  33.830  26.344  1.00  0.00    -0.203 F 
ATOM     87  C   UNL A   1      46.244  35.420  28.049  1.00  0.00     0.198 A 
ATOM     88  C   UNL A   1      46.783  34.698  30.275  1.00  0.00     0.198 A 
ATOM     89  F   UNL A   1      47.001  32.403  30.747  1.00  0.00    -0.203 F 
ATOM     90  F   UNL A   1      46.031  36.408  27.169  1.00  0.00    -0.200 F 
ATOM     91  C   UNL A   1      46.537  35.721  29.371  1.00  0.00     0.200 A 
ATOM     92  F   UNL A   1      47.058  34.986  31.554  1.00  0.00    -0.200 F 
ATOM     93  F   UNL A   1      46.589  36.998  29.773  1.00  0.00    -0.200 F 
ENDBRANCH  60  83
ENDBRANCH  34  35
ENDBRANCH  26  29
ENDBRANCH  24  25
ENDBRANCH  23  24
ENDBRANCH   1  23
TORSDOF 13
ENDMDL
MODEL 2
REMARK VINA RESULT:     -11.7      0.455      1.733
REMARK SMILES Cc1cc(C(=O)N2CCO[C@H](C)C2)sc1/C=C/C(=O)NCCCNC(=O)c1ccc(-c2c3nc(c(-c4c(F)c(F)c(F)c(F)c4F)c4ccc([nH]4)c(-c4c(F)c(F)c(F)c(F)c4F)c4nc(c(-c5c(F)c(F)c(F)c(F)c5F)c5ccc2[nH]5)C=C4)C=C3)cc1
REMARK SMILES IDX 21 1 20 2 18 3 19 4 17 6 16 7 15 8 1 9 2 10 3 11 4 12 14 13
REMARK SMILES IDX 5 14 6 15 7 16 8 17 13 18 9 19 11 20 10 21 12 22 22 23 23 24
REMARK SMILES IDX 24 25 25 26 26 28 27 29 28 30 89 31 29 32 88 33 30 34 31 35
REMARK SMILES IDX 32 36 82 37 33 38 87 39 81 40 83 41 34 42 86 43 80 44 79 45
REMARK SMILES IDX 35 47 67 48 47 49 66 50 48 51 51 52 65 53 84 54 49 55 50 56
REMARK SMILES IDX 64 58 85 59 52 60 36 61 37 62 45 63 38 64 39 65 43 66 46 67
REMARK SMILES IDX 40 68 41 69 44 70 42 71 68 72 69 73 77 74 70 75 71 76 75 77
REMARK SMILES IDX 78 78 72 79 73 80 76 81 74 82 53 83 54 84 62 85 55 86 56 87
REMARK SMILES IDX 60 88 63 89 57 90 58 91 61 92 59 93
REMARK H PARENT 20 5 24 27 83 46 51 57
REMARK Flexibility Score: inf
ROOT
ATOM      1  C   UNL A   1      42.049  19.364  26.632  1.00  0.00     0.118 C 
ENDROOT
BRANCH   1   2
ATOM      2  N   UNL A   1      42.669  20.413  27.422  1.00  0.00    -0.352 N 
ATOM      3  C   UNL A   1      42.145  21.572  27.903  1.00  0.00     0.244 C 
ATOM      4  O   UNL A   1      42.807  22.284  28.650  1.00  0.00    -0.270 OA
ATOM      5  H   UNL A   1      43.615  20.261  27.647  1.00  0.00     0.163 HD
BRANCH   3   6
ATOM      6  C   UNL A   1      40.746  21.929  27.599  1.00  0.00     0.072 C 
ATOM      7  C   UNL A   1      40.343  22.350  26.391  1.00  0.00     0.025 C 
BRANCH   7   8
ATOM      8  C   UNL A   1      38.988  22.704  26.119  1.00  0.00     0.031 A 
ATOM      9  C   UNL A   1      38.847  25.014  27.249  1.00  0.00     0.046 C 
ATOM     10  C   UNL A   1      38.286  23.838  26.513  1.00  0.00    -0.032 A 
ATOM     11  C   UNL A   1      36.916  23.782  26.080  1.00  0.00     0.029 A 
ATOM     12  C   UNL A   1      36.610  22.650  25.348  1.00  0.00     0.093 A 
ATOM     13  S   UNL A   1      37.987  21.663  25.192  1.00  0.00    -0.130 S 
BRANCH  12  14
ATOM     14  C   UNL A   1      35.370  22.405  24.614  1.00  0.00     0.264 C 
ATOM     15  O   UNL A   1      35.183  22.942  23.520  1.00  0.00    -0.268 OA
BRANCH  14  16
ATOM     16  N   UNL A   1      34.433  21.498  25.097  1.00  0.00    -0.333 N 
ATOM     17  C   UNL A   1      33.376  21.974  25.984  1.00  0.00     0.148 C 
ATOM     18  C   UNL A   1      34.381  20.051  24.856  1.00  0.00     0.151 C 
ATOM     19  C   UNL A   1      32.020  21.540  25.416  1.00  0.00     0.182 C 
ATOM     20  C   UNL A   1      32.983  19.643  24.350  1.00  0.00     0.134 C 
ATOM     21  O   UNL A   1      31.961  20.111  25.258  1.00  0.00    -0.375 OA
ATOM     22  C   UNL A   1      32.852  18.131  24.248  1.00  0.00     0.040 C 
ENDBRANCH  14  16
ENDBRANCH  12  14
ENDBRANCH   7   8
ENDBRANCH   3   6
ENDBRANCH   1   2
BRANCH   1  23
ATOM     23  C   UNL A   1      42.947  18.132  26.535  1.00  0.00     0.042 C 
BRANCH  23  24
ATOM     24  C   UNL A   1      44.383  18.456  26.132  1.00  0.00     0.118 C 
BRANCH  24  25
ATOM     25  N   UNL A   1      44.554  18.478  24.688  1.00  0.00    -0.352 N 
ATOM     26  C   UNL A   1      44.672  19.540  23.827  1.00  0.00     0.251 C 
ATOM     27  H   UNL A   1      44.592  17.592  24.262  1.00  0.00     0.163 HD
ATOM     28  O   UNL A   1      44.597  19.345  22.618  1.00  0.00    -0.269 OA
BRANCH  26  29
ATOM     29  C   UNL A   1      44.876  20.914  24.335  1.00  0.00     0.039 A 
ATOM     30  C   UNL A   1      44.478  21.988  23.531  1.00  0.00     0.014 A 
ATOM     31  C   UNL A   1      45.510  21.158  25.557  1.00  0.00     0.014 A 
ATOM     32  C   UNL A   1      44.674  23.300  23.969  1.00  0.00     0.010 A 
ATOM     33  C   UNL A   1      45.652  22.465  26.021  1.00  0.00     0.010 A 
ATOM     34  C   UNL A   1      45.243  23.548  25.227  1.00  0.00    -0.014 A 
BRANCH  34  35
ATOM     35  C   UNL A   1      45.432  24.935  25.723  1.00  0.00     0.031 A 
ATOM     36  C   UNL A   1      46.787  25.583  25.660  1.00  0.00     0.074 A 
ATOM     37  C   UNL A   1      44.398  25.589  26.281  1.00  0.00     0.049 A 
ATOM     38  N   UNL A   1      47.168  26.751  26.111  1.00  0.00    -0.248 NA
ATOM     39  C   UNL A   1      47.863  24.803  25.029  1.00  0.00     0.031 C 
ATOM     40  C   UNL A   1      43.044  25.054  26.435  1.00  0.00     0.029 A 
ATOM     41  N   UNL A   1      44.325  26.843  26.834  1.00  0.00    -0.354 N 
ATOM     42  C   UNL A   1      48.527  26.837  25.837  1.00  0.00     0.074 A 
ATOM     43  C   UNL A   1      48.913  25.589  25.214  1.00  0.00     0.031 C 
ATOM     44  C   UNL A   1      42.272  25.978  27.030  1.00  0.00     0.029 A 
ATOM     45  C   UNL A   1      43.082  27.157  27.325  1.00  0.00     0.049 A 
ATOM     46  H   UNL A   1      45.091  27.460  26.874  1.00  0.00     0.167 HD
ATOM     47  C   UNL A   1      49.372  27.872  26.066  1.00  0.00     0.037 A 
ATOM     48  C   UNL A   1      42.647  28.267  27.949  1.00  0.00     0.037 A 
ATOM     49  C   UNL A   1      48.979  29.126  26.655  1.00  0.00     0.049 A 
ATOM     50  C   UNL A   1      43.599  29.408  28.174  1.00  0.00     0.074 A 
ATOM     51  C   UNL A   1      49.750  30.254  26.878  1.00  0.00     0.029 A 
ATOM     52  N   UNL A   1      47.703  29.417  27.111  1.00  0.00    -0.354 N 
ATOM     53  N   UNL A   1      44.869  29.497  27.865  1.00  0.00    -0.248 NA
ATOM     54  C   UNL A   1      43.054  30.606  28.829  1.00  0.00     0.031 C 
ATOM     55  C   UNL A   1      48.946  31.218  27.497  1.00  0.00     0.029 A 
ATOM     56  C   UNL A   1      47.666  30.703  27.626  1.00  0.00     0.049 A 
ATOM     57  H   UNL A   1      46.935  28.801  27.075  1.00  0.00     0.167 HD
ATOM     58  C   UNL A   1      45.271  30.764  28.265  1.00  0.00     0.074 A 
ATOM     59  C   UNL A   1      44.106  31.414  28.828  1.00  0.00     0.031 C 
ATOM     60  C   UNL A   1      46.496  31.336  28.175  1.00  0.00     0.037 A 
BRANCH  47  61
ATOM     61  C   UNL A   1      50.807  27.691  25.674  1.00  0.00     0.064 A 
ATOM     62  C   UNL A   1      51.777  27.288  26.605  1.00  0.00     0.173 A 
ATOM     63  C   UNL A   1      51.215  27.888  24.346  1.00  0.00     0.173 A 
ATOM     64  F   UNL A   1      51.440  27.098  27.890  1.00  0.00    -0.203 F 
ATOM     65  C   UNL A   1      53.106  27.116  26.226  1.00  0.00     0.198 A 
ATOM     66  C   UNL A   1      52.539  27.690  23.966  1.00  0.00     0.198 A 
ATOM     67  F   UNL A   1      50.326  28.269  23.416  1.00  0.00    -0.203 F 
ATOM     68  F   UNL A   1      54.022  26.774  27.143  1.00  0.00    -0.200 F 
ATOM     69  C   UNL A   1      53.484  27.311  24.907  1.00  0.00     0.200 A 
ATOM     70  F   UNL A   1      52.902  27.869  22.688  1.00  0.00    -0.200 F 
ATOM     71  F   UNL A   1      54.763  27.140  24.543  1.00  0.00    -0.200 F 
ENDBRANCH  47  61
BRANCH  48  72
ATOM     72  C   UNL A   1      41.230  28.361  28.381  1.00  0.00     0.064 A 
ATOM     73  C   UNL A   1      40.250  28.867  27.517  1.00  0.00     0.173 A 
ATOM     74  C   UNL A   1      40.826  27.939  29.655  1.00  0.00     0.173 A 
ATOM     75  F   UNL A   1      40.594  29.301  26.295  1.00  0.00    -0.203 F 
ATOM     76  C   UNL A   1      38.919  28.960  27.916  1.00  0.00     0.198 A 
ATOM     77  C   UNL A   1      39.490  28.011  30.045  1.00  0.00     0.198 A 
ATOM     78  F   UNL A   1      41.727  27.441  30.515  1.00  0.00    -0.203 F 
ATOM     79  F   UNL A   1      38.007  29.478  27.083  1.00  0.00    -0.200 F 
ATOM     80  C   UNL A   1      38.539  28.526  29.177  1.00  0.00     0.200 A 
ATOM     81  F   UNL A   1      39.126  27.579  31.260  1.00  0.00    -0.200 F 
ATOM     82  F   UNL A   1      37.257  28.609  29.558  1.00  0.00    -0.200 F 
ENDBRANCH  48  72
BRANCH  60  83
ATOM     83  C   UNL A   1      46.632  32.744  28.673  1.00  0.00     0.064 A 
ATOM     84  C   UNL A   1      46.361  33.843  27.845  1.00  0.00     0.173 A 
ATOM     85  C   UNL A   1      47.002  32.995  30.002  1.00  0.00     0.173 A 
ATOM     86  F   UNL A   1      46.020  33.651  26.561  1.00  0.00    -0.203 F 
ATOM     87  C   UNL A   1      46.477  35.144  28.325  1.00  0.00     0.198 A 
ATOM     88  C   UNL A   1      47.093  34.296  30.486  1.00  0.00     0.198 A 
ATOM     89  F   UNL A   1      47.267  31.976  30.833  1.00  0.00    -0.203 F 
ATOM     90  F   UNL A   1      46.252  36.181  27.506  1.00  0.00    -0.200 F 
ATOM     91  C   UNL A   1      46.836  35.370  29.646  1.00  0.00     0.200 A 
ATOM     92  F   UNL A   1      47.433  34.513  31.763  1.00  0.00    -0.200 F 
ATOM     93  F   UNL A   1      46.942  36.623  30.107  1.00  0.00    -0.200 F 
ENDBRANCH  60  83
ENDBRANCH  34  35
ENDBRANCH  26  29
ENDBRANCH  24  25
ENDBRANCH  23  24
ENDBRANCH   1  23
TORSDOF 13
ENDMDL
MODEL 3
REMARK VINA RESULT:     -11.5      6.566     11.338
REMARK SMILES Cc1cc(C(=O)N2CCO[C@H](C)C2)sc1/C=C/C(=O)NCCCNC(=O)c1ccc(-c2c3nc(c(-c4c(F)c(F)c(F)c(F)c4F)c4ccc([nH]4)c(-c4c(F)c(F)c(F)c(F)c4F)c4nc(c(-c5c(F)c(F)c(F)c(F)c5F)c5ccc2[nH]5)C=C4)C=C3)cc1
REMARK SMILES IDX 21 1 20 2 18 3 19 4 17 6 16 7 15 8 1 9 2 10 3 11 4 12 14 13
REMARK SMILES IDX 5 14 6 15 7 16 8 17 13 18 9 19 11 20 10 21 12 22 22 23 23 24
REMARK SMILES IDX 24 25 25 26 26 28 27 29 28 30 89 31 29 32 88 33 30 34 31 35
REMARK SMILES IDX 32 36 82 37 33 38 87 39 81 40 83 41 34 42 86 43 80 44 79 45
REMARK SMILES IDX 35 47 67 48 47 49 66 50 48 51 51 52 65 53 84 54 49 55 50 56
REMARK SMILES IDX 64 58 85 59 52 60 36 61 37 62 45 63 38 64 39 65 43 66 46 67
REMARK SMILES IDX 40 68 41 69 44 70 42 71 68 72 69 73 77 74 70 75 71 76 75 77
REMARK SMILES IDX 78 78 72 79 73 80 76 81 74 82 53 83 54 84 62 85 55 86 56 87
REMARK SMILES IDX 60 88 63 89 57 90 58 91 61 92 59 93
REMARK H PARENT 20 5 24 27 83 46 51 57
REMARK Flexibility Score: inf
ROOT
ATOM      1  C   UNL A   1      31.306  31.016  25.869  1.00  0.00     0.118 C 
ENDROOT
BRANCH   1   2
ATOM      2  N   UNL A   1      30.519  30.877  24.656  1.00  0.00    -0.352 N 
ATOM      3  C   UNL A   1      30.358  29.804  23.836  1.00  0.00     0.244 C 
ATOM      4  O   UNL A   1      29.556  29.851  22.909  1.00  0.00    -0.270 OA
ATOM      5  H   UNL A   1      30.024  31.683  24.386  1.00  0.00     0.163 HD
BRANCH   3   6
ATOM      6  C   UNL A   1      31.080  28.549  24.116  1.00  0.00     0.072 C 
ATOM      7  C   UNL A   1      32.294  28.275  23.615  1.00  0.00     0.025 C 
BRANCH   7   8
ATOM      8  C   UNL A   1      32.973  27.048  23.885  1.00  0.00     0.031 A 
ATOM      9  C   UNL A   1      33.817  27.469  26.281  1.00  0.00     0.046 C 
ATOM     10  C   UNL A   1      33.684  26.676  25.019  1.00  0.00    -0.032 A 
ATOM     11  C   UNL A   1      34.269  25.371  24.865  1.00  0.00     0.029 A 
ATOM     12  C   UNL A   1      33.971  24.767  23.658  1.00  0.00     0.093 A 
ATOM     13  S   UNL A   1      32.984  25.788  22.721  1.00  0.00    -0.130 S 
BRANCH  12  14
ATOM     14  C   UNL A   1      34.252  23.380  23.294  1.00  0.00     0.264 C 
ATOM     15  O   UNL A   1      35.336  23.080  22.789  1.00  0.00    -0.268 OA
BRANCH  14  16
ATOM     16  N   UNL A   1      33.340  22.374  23.596  1.00  0.00    -0.333 N 
ATOM     17  C   UNL A   1      32.171  22.196  22.740  1.00  0.00     0.148 C 
ATOM     18  C   UNL A   1      33.374  21.448  24.734  1.00  0.00     0.151 C 
ATOM     19  C   UNL A   1      32.108  20.733  22.285  1.00  0.00     0.182 C 
ATOM     20  C   UNL A   1      33.241  19.992  24.241  1.00  0.00     0.134 C 
ATOM     21  O   UNL A   1      32.066  19.843  23.415  1.00  0.00    -0.375 OA
ATOM     22  C   UNL A   1      33.110  19.025  25.408  1.00  0.00     0.040 C 
ENDBRANCH  14  16
ENDBRANCH  12  14
ENDBRANCH   7   8
ENDBRANCH   3   6
ENDBRANCH   1   2
BRANCH   1  23
ATOM     23  C   UNL A   1      31.182  32.420  26.457  1.00  0.00     0.042 C 
BRANCH  23  24
ATOM     24  C   UNL A   1      32.451  32.901  27.156  1.00  0.00     0.118 C 
BRANCH  24  25
ATOM     25  N   UNL A   1      32.337  34.278  27.612  1.00  0.00    -0.352 N 
ATOM     26  C   UNL A   1      33.006  34.938  28.610  1.00  0.00     0.251 C 
ATOM     27  H   UNL A   1      31.674  34.821  27.126  1.00  0.00     0.163 HD
ATOM     28  O   UNL A   1      32.610  36.041  28.973  1.00  0.00    -0.269 OA
BRANCH  26  29
ATOM     29  C   UNL A   1      34.189  34.336  29.263  1.00  0.00     0.039 A 
ATOM     30  C   UNL A   1      33.993  33.540  30.397  1.00  0.00     0.014 A 
ATOM     31  C   UNL A   1      35.487  34.597  28.813  1.00  0.00     0.014 A 
ATOM     32  C   UNL A   1      35.089  32.972  31.051  1.00  0.00     0.010 A 
ATOM     33  C   UNL A   1      36.576  33.983  29.429  1.00  0.00     0.010 A 
ATOM     34  C   UNL A   1      36.388  33.172  30.559  1.00  0.00    -0.014 A 
BRANCH  34  35
ATOM     35  C   UNL A   1      37.562  32.552  31.223  1.00  0.00     0.031 A 
ATOM     36  C   UNL A   1      38.312  31.438  30.548  1.00  0.00     0.074 A 
ATOM     37  C   UNL A   1      37.919  32.955  32.456  1.00  0.00     0.049 A 
ATOM     38  N   UNL A   1      39.311  30.720  30.997  1.00  0.00    -0.248 NA
ATOM     39  C   UNL A   1      37.863  31.063  29.198  1.00  0.00     0.031 C 
ATOM     40  C   UNL A   1      37.249  34.000  33.231  1.00  0.00     0.029 A 
ATOM     41  N   UNL A   1      38.928  32.525  33.281  1.00  0.00    -0.354 N 
ATOM     42  C   UNL A   1      39.595  29.800  29.997  1.00  0.00     0.074 A 
ATOM     43  C   UNL A   1      38.640  30.024  28.933  1.00  0.00     0.031 C 
ATOM     44  C   UNL A   1      37.872  34.138  34.412  1.00  0.00     0.029 A 
ATOM     45  C   UNL A   1      38.965  33.174  34.490  1.00  0.00     0.049 A 
ATOM     46  H   UNL A   1      39.565  31.817  33.029  1.00  0.00     0.167 HD
ATOM     47  C   UNL A   1      40.575  28.865  29.963  1.00  0.00     0.037 A 
ATOM     48  C   UNL A   1      39.784  33.005  35.544  1.00  0.00     0.037 A 
ATOM     49  C   UNL A   1      41.545  28.666  31.007  1.00  0.00     0.049 A 
ATOM     50  C   UNL A   1      40.877  31.976  35.473  1.00  0.00     0.074 A 
ATOM     51  C   UNL A   1      42.610  27.782  31.041  1.00  0.00     0.029 A 
ATOM     52  N   UNL A   1      41.569  29.366  32.204  1.00  0.00    -0.354 N 
ATOM     53  N   UNL A   1      41.167  31.145  34.501  1.00  0.00    -0.248 NA
ATOM     54  C   UNL A   1      41.760  31.864  36.642  1.00  0.00     0.031 C 
ATOM     55  C   UNL A   1      43.261  27.926  32.271  1.00  0.00     0.029 A 
ATOM     56  C   UNL A   1      42.623  28.925  32.989  1.00  0.00     0.049 A 
ATOM     57  H   UNL A   1      40.931  30.071  32.459  1.00  0.00     0.167 HD
ATOM     58  C   UNL A   1      42.276  30.429  34.930  1.00  0.00     0.074 A 
ATOM     59  C   UNL A   1      42.616  30.932  36.245  1.00  0.00     0.031 C 
ATOM     60  C   UNL A   1      42.951  29.443  34.292  1.00  0.00     0.037 A 
BRANCH  47  61
ATOM     61  C   UNL A   1      40.649  27.987  28.750  1.00  0.00     0.064 A 
ATOM     62  C   UNL A   1      39.947  26.775  28.677  1.00  0.00     0.173 A 
ATOM     63  C   UNL A   1      41.403  28.377  27.632  1.00  0.00     0.173 A 
ATOM     64  F   UNL A   1      39.222  26.352  29.724  1.00  0.00    -0.203 F 
ATOM     65  C   UNL A   1      40.018  25.972  27.541  1.00  0.00     0.198 A 
ATOM     66  C   UNL A   1      41.451  27.584  26.489  1.00  0.00     0.198 A 
ATOM     67  F   UNL A   1      42.089  29.530  27.648  1.00  0.00    -0.203 F 
ATOM     68  F   UNL A   1      39.374  24.797  27.513  1.00  0.00    -0.200 F 
ATOM     69  C   UNL A   1      40.764  26.380  26.446  1.00  0.00     0.200 A 
ATOM     70  F   UNL A   1      42.165  27.984  25.427  1.00  0.00    -0.200 F 
ATOM     71  F   UNL A   1      40.828  25.608  25.352  1.00  0.00    -0.200 F 
ENDBRANCH  47  61
BRANCH  48  72
ATOM     72  C   UNL A   1      39.617  33.855  36.750  1.00  0.00     0.064 A 
ATOM     73  C   UNL A   1      38.850  33.414  37.837  1.00  0.00     0.173 A 
ATOM     74  C   UNL A   1      40.226  35.114  36.845  1.00  0.00     0.173 A 
ATOM     75  F   UNL A   1      38.232  32.225  37.781  1.00  0.00    -0.203 F 
ATOM     76  C   UNL A   1      38.687  34.208  38.969  1.00  0.00     0.198 A 
ATOM     77  C   UNL A   1      40.081  35.897  37.988  1.00  0.00     0.198 A 
ATOM     78  F   UNL A   1      40.975  35.576  35.833  1.00  0.00    -0.203 F 
ATOM     79  F   UNL A   1      37.921  33.778  39.981  1.00  0.00    -0.200 F 
ATOM     80  C   UNL A   1      39.308  35.445  39.048  1.00  0.00     0.200 A 
ATOM     81  F   UNL A   1      40.693  37.086  38.064  1.00  0.00    -0.200 F 
ATOM     82  F   UNL A   1      39.157  36.205  40.140  1.00  0.00    -0.200 F 
ENDBRANCH  48  72
BRANCH  60  83
ATOM     83  C   UNL A   1      44.141  28.861  34.995  1.00  0.00     0.064 A 
ATOM     84  C   UNL A   1      44.022  27.742  35.832  1.00  0.00     0.173 A 
ATOM     85  C   UNL A   1      45.417  29.408  34.801  1.00  0.00     0.173 A 
ATOM     86  F   UNL A   1      42.818  27.195  36.060  1.00  0.00    -0.203 F 
ATOM     87  C   UNL A   1      45.138  27.204  36.465  1.00  0.00     0.198 A 
ATOM     88  C   UNL A   1      46.534  28.852  35.417  1.00  0.00     0.198 A 
ATOM     89  F   UNL A   1      45.581  30.477  34.007  1.00  0.00    -0.203 F 
ATOM     90  F   UNL A   1      44.997  26.158  37.292  1.00  0.00    -0.200 F 
ATOM     91  C   UNL A   1      46.394  27.754  36.253  1.00  0.00     0.200 A 
ATOM     92  F   UNL A   1      47.747  29.380  35.205  1.00  0.00    -0.200 F 
ATOM     93  F   UNL A   1      47.467  27.231  36.860  1.00  0.00    -0.200 F 
ENDBRANCH  60  83
ENDBRANCH  34  35
ENDBRANCH  26  29
ENDBRANCH  24  25
ENDBRANCH  23  24
ENDBRANCH   1  23
TORSDOF 13
ENDMDL
