MODEL 1
REMARK VINA RESULT:     -15.1      0.000      0.000
REMARK SMILES C[C@]12c3ccccc3[C@](C)(c3ccccc31)[C@@H]1C(=O)N(c3ccc(C(=O)NCCCNC(=O)c4ccc(-c5c6nc(c(-c7c(F)c(F)c(F)c(F)c7F)c7ccc([nH]7)c(-c7c(F)c(F)c(F)c(F)c7F)c7nc(c(-c8c(F)c(F)c(F)c(F)c8F)c8ccc5[nH]8)C=C7)C=C6)cc4)cc3)C(=O)[C@H]12
REMARK SMILES IDX 29 1 28 2 27 3 25 4 26 5 24 7 21 8 22 9 98 10 23 11 97 12
REMARK SMILES IDX 20 13 1 14 2 15 16 16 3 17 101 18 15 19 11 20 8 21 4 22
REMARK SMILES IDX 17 23 99 24 14 25 12 26 9 27 7 28 5 29 18 30 100 31 13 32
REMARK SMILES IDX 10 33 6 34 19 35 30 36 31 37 32 38 33 40 34 41 35 42 96 43
REMARK SMILES IDX 36 44 95 45 37 46 38 47 39 48 89 49 40 50 94 51 88 52 90 53
REMARK SMILES IDX 41 54 93 55 87 56 86 57 42 59 74 60 54 61 73 62 55 63 58 64
REMARK SMILES IDX 72 65 91 66 56 67 57 68 71 70 92 71 59 72 43 73 44 74 52 75
REMARK SMILES IDX 45 76 46 77 50 78 53 79 47 80 48 81 51 82 49 83 75 84 76 85
REMARK SMILES IDX 84 86 77 87 78 88 82 89 85 90 79 91 80 92 83 93 81 94 60 95
REMARK SMILES IDX 61 96 69 97 62 98 63 99 67 100 70 101 64 102 65 103 68 104
REMARK SMILES IDX 66 105
REMARK H PARENT 27 6 31 39 90 58 58 69
REMARK Flexibility Score: inf
ROOT
ATOM      1  C   UNL A   1      43.449  38.221  27.107  1.00  0.00     0.042 C 
ENDROOT
BRANCH   1   2
ATOM      2  C   UNL A   1      43.429  39.614  26.505  1.00  0.00     0.118 C 
BRANCH   2   3
ATOM      3  N   UNL A   1      42.097  40.196  26.433  1.00  0.00    -0.352 N 
ATOM      4  C   UNL A   1      41.566  41.154  25.604  1.00  0.00     0.251 C 
ATOM      5  O   UNL A   1      40.415  41.538  25.803  1.00  0.00    -0.269 OA
ATOM      6  H   UNL A   1      41.462  39.840  27.097  1.00  0.00     0.163 HD
BRANCH   4   7
ATOM      7  C   UNL A   1      42.369  41.776  24.526  1.00  0.00     0.039 A 
ATOM      8  C   UNL A   1      43.662  43.214  22.485  1.00  0.00     0.052 A 
ATOM      9  C   UNL A   1      42.465  42.532  22.228  1.00  0.00     0.027 A 
ATOM     10  C   UNL A   1      44.258  43.065  23.744  1.00  0.00     0.027 A 
ATOM     11  C   UNL A   1      41.825  41.811  23.240  1.00  0.00     0.016 A 
ATOM     12  C   UNL A   1      43.629  42.328  24.748  1.00  0.00     0.016 A 
BRANCH   8  13
ATOM     13  N   UNL A   1      44.227  44.083  21.523  1.00  0.00    -0.250 N 
ATOM     14  C   UNL A   1      43.840  45.225  17.169  1.00  0.00     0.022 C 
ATOM     15  C   UNL A   1      44.678  45.916  18.244  1.00  0.00     0.030 C 
ATOM     16  C   UNL A   1      44.282  47.382  18.558  1.00  0.00    -0.033 A 
ATOM     17  C   UNL A   1      46.205  46.005  17.925  1.00  0.00    -0.033 A 
ATOM     18  C   UNL A   1      44.765  45.072  19.537  1.00  0.00     0.108 C 
ATOM     19  C   UNL A   1      43.266  48.107  17.940  1.00  0.00     0.005 A 
ATOM     20  C   UNL A   1      45.123  48.027  19.530  1.00  0.00    -0.033 A 
ATOM     21  C   UNL A   1      46.986  46.526  19.013  1.00  0.00    -0.033 A 
ATOM     22  C   UNL A   1      46.820  45.599  16.744  1.00  0.00     0.005 A 
ATOM     23  C   UNL A   1      45.153  45.988  20.698  1.00  0.00     0.108 C 
ATOM     24  C   UNL A   1      43.725  44.249  20.224  1.00  0.00     0.238 C 
ATOM     25  C   UNL A   1      43.094  49.454  18.268  1.00  0.00     0.000 A 
ATOM     26  C   UNL A   1      44.948  49.374  19.837  1.00  0.00     0.005 A 
ATOM     27  C   UNL A   1      46.148  47.057  20.201  1.00  0.00     0.030 C 
ATOM     28  C   UNL A   1      48.371  46.594  18.895  1.00  0.00     0.005 A 
ATOM     29  C   UNL A   1      48.208  45.689  16.641  1.00  0.00     0.000 A 
ATOM     30  C   UNL A   1      45.279  44.974  21.785  1.00  0.00     0.238 C 
ATOM     31  O   UNL A   1      42.715  43.799  19.708  1.00  0.00    -0.274 OA
ATOM     32  C   UNL A   1      43.932  50.084  19.198  1.00  0.00     0.000 A 
ATOM     33  C   UNL A   1      46.947  47.668  21.350  1.00  0.00     0.022 C 
ATOM     34  C   UNL A   1      48.975  46.170  17.709  1.00  0.00     0.000 A 
ATOM     35  O   UNL A   1      46.048  45.027  22.725  1.00  0.00    -0.274 OA
ENDBRANCH   8  13
ENDBRANCH   4   7
ENDBRANCH   2   3
ENDBRANCH   1   2
BRANCH   1  36
ATOM     36  C   UNL A   1      43.759  38.188  28.593  1.00  0.00     0.118 C 
BRANCH  36  37
ATOM     37  N   UNL A   1      45.172  38.400  28.895  1.00  0.00    -0.352 N 
ATOM     38  C   UNL A   1      46.190  37.505  29.138  1.00  0.00     0.251 C 
ATOM     39  H   UNL A   1      45.443  39.345  28.931  1.00  0.00     0.163 HD
ATOM     40  O   UNL A   1      47.282  37.912  29.528  1.00  0.00    -0.269 OA
BRANCH  38  41
ATOM     41  C   UNL A   1      45.961  36.053  28.982  1.00  0.00     0.039 A 
ATOM     42  C   UNL A   1      45.675  35.512  27.732  1.00  0.00     0.014 A 
ATOM     43  C   UNL A   1      45.994  35.222  30.106  1.00  0.00     0.014 A 
ATOM     44  C   UNL A   1      45.153  34.231  27.645  1.00  0.00     0.010 A 
ATOM     45  C   UNL A   1      45.614  33.881  29.989  1.00  0.00     0.010 A 
ATOM     46  C   UNL A   1      45.118  33.393  28.771  1.00  0.00    -0.014 A 
BRANCH  46  47
ATOM     47  C   UNL A   1      44.553  32.024  28.636  1.00  0.00     0.031 A 
ATOM     48  C   UNL A   1      43.184  31.693  29.168  1.00  0.00     0.074 A 
ATOM     49  C   UNL A   1      45.255  31.090  27.965  1.00  0.00     0.049 A 
ATOM     50  N   UNL A   1      42.533  30.556  29.124  1.00  0.00    -0.248 NA
ATOM     51  C   UNL A   1      42.448  32.772  29.845  1.00  0.00     0.031 C 
ATOM     52  C   UNL A   1      46.586  31.294  27.386  1.00  0.00     0.029 A 
ATOM     53  N   UNL A   1      44.942  29.799  27.624  1.00  0.00    -0.354 N 
ATOM     54  C   UNL A   1      41.332  30.777  29.785  1.00  0.00     0.074 A 
ATOM     55  C   UNL A   1      41.354  32.145  30.254  1.00  0.00     0.031 C 
ATOM     56  C   UNL A   1      46.943  30.198  26.706  1.00  0.00     0.029 A 
ATOM     57  C   UNL A   1      45.912  29.180  26.874  1.00  0.00     0.049 A 
ATOM     58  H   UNL A   1      44.104  29.357  27.892  1.00  0.00     0.167 HD
ATOM     59  C   UNL A   1      40.298  29.919  29.971  1.00  0.00     0.037 A 
ATOM     60  C   UNL A   1      45.982  27.926  26.392  1.00  0.00     0.037 A 
ATOM     61  C   UNL A   1      40.272  28.566  29.477  1.00  0.00     0.049 A 
ATOM     62  C   UNL A   1      44.850  26.978  26.660  1.00  0.00     0.074 A 
ATOM     63  C   UNL A   1      39.261  27.628  29.588  1.00  0.00     0.029 A 
ATOM     64  N   UNL A   1      41.308  27.955  28.781  1.00  0.00    -0.354 N 
ATOM     65  N   UNL A   1      43.717  27.202  27.278  1.00  0.00    -0.248 NA
ATOM     66  C   UNL A   1      45.011  25.602  26.173  1.00  0.00     0.031 C 
ATOM     67  C   UNL A   1      39.706  26.434  29.016  1.00  0.00     0.029 A 
ATOM     68  C   UNL A   1      40.970  26.643  28.488  1.00  0.00     0.049 A 
ATOM     69  H   UNL A   1      42.155  28.390  28.532  1.00  0.00     0.167 HD
ATOM     70  C   UNL A   1      43.023  26.001  27.248  1.00  0.00     0.074 A 
ATOM     71  C   UNL A   1      43.855  25.059  26.528  1.00  0.00     0.031 C 
ATOM     72  C   UNL A   1      41.809  25.710  27.775  1.00  0.00     0.037 A 
BRANCH  59  73
ATOM     73  C   UNL A   1      39.112  30.406  30.755  1.00  0.00     0.064 A 
ATOM     74  C   UNL A   1      37.981  30.954  30.129  1.00  0.00     0.173 A 
ATOM     75  C   UNL A   1      39.081  30.271  32.153  1.00  0.00     0.173 A 
ATOM     76  F   UNL A   1      37.959  31.117  28.798  1.00  0.00    -0.203 F 
ATOM     77  C   UNL A   1      36.879  31.371  30.873  1.00  0.00     0.198 A 
ATOM     78  C   UNL A   1      37.965  30.657  32.890  1.00  0.00     0.198 A 
ATOM     79  F   UNL A   1      40.130  29.746  32.804  1.00  0.00    -0.203 F 
ATOM     80  F   UNL A   1      35.832  31.935  30.257  1.00  0.00    -0.200 F 
ATOM     81  C   UNL A   1      36.868  31.213  32.251  1.00  0.00     0.200 A 
ATOM     82  F   UNL A   1      37.950  30.488  34.220  1.00  0.00    -0.200 F 
ATOM     83  F   UNL A   1      35.802  31.603  32.963  1.00  0.00    -0.200 F 
ENDBRANCH  59  73
BRANCH  60  84
ATOM     84  C   UNL A   1      47.178  27.515  25.612  1.00  0.00     0.064 A 
ATOM     85  C   UNL A   1      47.216  27.664  24.219  1.00  0.00     0.173 A 
ATOM     86  C   UNL A   1      48.333  27.031  26.248  1.00  0.00     0.173 A 
ATOM     87  F   UNL A   1      46.132  28.107  23.564  1.00  0.00    -0.203 F 
ATOM     88  C   UNL A   1      48.363  27.351  23.494  1.00  0.00     0.198 A 
ATOM     89  C   UNL A   1      49.489  26.749  25.525  1.00  0.00     0.198 A 
ATOM     90  F   UNL A   1      48.351  26.877  27.580  1.00  0.00    -0.203 F 
ATOM     91  F   UNL A   1      48.366  27.484  22.160  1.00  0.00    -0.200 F 
ATOM     92  C   UNL A   1      49.502  26.907  24.149  1.00  0.00     0.200 A 
ATOM     93  F   UNL A   1      50.594  26.344  26.166  1.00  0.00    -0.200 F 
ATOM     94  F   UNL A   1      50.614  26.633  23.452  1.00  0.00    -0.200 F 
ENDBRANCH  60  84
BRANCH  72  95
ATOM     95  C   UNL A   1      41.291  24.314  27.590  1.00  0.00     0.064 A 
ATOM     96  C   UNL A   1      40.224  24.037  26.722  1.00  0.00     0.173 A 
ATOM     97  C   UNL A   1      41.916  23.231  28.229  1.00  0.00     0.173 A 
ATOM     98  F   UNL A   1      39.583  25.038  26.100  1.00  0.00    -0.203 F 
ATOM     99  C   UNL A   1      39.793  22.730  26.512  1.00  0.00     0.198 A 
ATOM    100  C   UNL A   1      41.504  21.923  27.989  1.00  0.00     0.198 A 
ATOM    101  F   UNL A   1      42.945  23.440  29.062  1.00  0.00    -0.203 F 
ATOM    102  F   UNL A   1      38.748  22.494  25.707  1.00  0.00    -0.200 F 
ATOM    103  C   UNL A   1      40.441  21.674  27.135  1.00  0.00     0.200 A 
ATOM    104  F   UNL A   1      42.143  20.902  28.578  1.00  0.00    -0.200 F 
ATOM    105  F   UNL A   1      40.038  20.415  26.913  1.00  0.00    -0.200 F 
ENDBRANCH  72  95
ENDBRANCH  46  47
ENDBRANCH  38  41
ENDBRANCH  36  37
ENDBRANCH   1  36
TORSDOF 11
ENDMDL
MODEL 2
REMARK VINA RESULT:     -15.0     11.314     23.704
REMARK SMILES C[C@]12c3ccccc3[C@](C)(c3ccccc31)[C@@H]1C(=O)N(c3ccc(C(=O)NCCCNC(=O)c4ccc(-c5c6nc(c(-c7c(F)c(F)c(F)c(F)c7F)c7ccc([nH]7)c(-c7c(F)c(F)c(F)c(F)c7F)c7nc(c(-c8c(F)c(F)c(F)c(F)c8F)c8ccc5[nH]8)C=C7)C=C6)cc4)cc3)C(=O)[C@H]12
REMARK SMILES IDX 29 1 28 2 27 3 25 4 26 5 24 7 21 8 22 9 98 10 23 11 97 12
REMARK SMILES IDX 20 13 1 14 2 15 16 16 3 17 101 18 15 19 11 20 8 21 4 22
REMARK SMILES IDX 17 23 99 24 14 25 12 26 9 27 7 28 5 29 18 30 100 31 13 32
REMARK SMILES IDX 10 33 6 34 19 35 30 36 31 37 32 38 33 40 34 41 35 42 96 43
REMARK SMILES IDX 36 44 95 45 37 46 38 47 39 48 89 49 40 50 94 51 88 52 90 53
REMARK SMILES IDX 41 54 93 55 87 56 86 57 42 59 74 60 54 61 73 62 55 63 58 64
REMARK SMILES IDX 72 65 91 66 56 67 57 68 71 70 92 71 59 72 43 73 44 74 52 75
REMARK SMILES IDX 45 76 46 77 50 78 53 79 47 80 48 81 51 82 49 83 75 84 76 85
REMARK SMILES IDX 84 86 77 87 78 88 82 89 85 90 79 91 80 92 83 93 81 94 60 95
REMARK SMILES IDX 61 96 69 97 62 98 63 99 67 100 70 101 64 102 65 103 68 104
REMARK SMILES IDX 66 105
REMARK H PARENT 27 6 31 39 90 58 58 69
REMARK Flexibility Score: inf
ROOT
ATOM      1  C   UNL A   1      46.485  23.230  39.212  1.00  0.00     0.042 C 
ENDROOT
BRANCH   1   2
ATOM      2  C   UNL A   1      46.027  21.826  38.861  1.00  0.00     0.118 C 
BRANCH   2   3
ATOM      3  N   UNL A   1      47.101  20.969  38.380  1.00  0.00    -0.352 N 
ATOM      4  C   UNL A   1      47.456  19.684  38.709  1.00  0.00     0.251 C 
ATOM      5  O   UNL A   1      48.471  19.203  38.209  1.00  0.00    -0.269 OA
ATOM      6  H   UNL A   1      47.674  21.384  37.695  1.00  0.00     0.163 HD
BRANCH   4   7
ATOM      7  C   UNL A   1      46.683  18.896  39.697  1.00  0.00     0.039 A 
ATOM      8  C   UNL A   1      45.481  17.178  41.571  1.00  0.00     0.052 A 
ATOM      9  C   UNL A   1      45.545  16.823  40.217  1.00  0.00     0.027 A 
ATOM     10  C   UNL A   1      45.921  18.454  41.948  1.00  0.00     0.027 A 
ATOM     11  C   UNL A   1      46.136  17.679  39.283  1.00  0.00     0.016 A 
ATOM     12  C   UNL A   1      46.492  19.317  41.012  1.00  0.00     0.016 A 
BRANCH   8  13
ATOM     13  N   UNL A   1      45.043  16.254  42.547  1.00  0.00    -0.250 N 
ATOM     14  C   UNL A   1      41.281  14.249  44.043  1.00  0.00     0.022 C 
ATOM     15  C   UNL A   1      42.724  13.934  44.433  1.00  0.00     0.030 C 
ATOM     16  C   UNL A   1      43.217  12.509  44.071  1.00  0.00    -0.033 A 
ATOM     17  C   UNL A   1      43.028  14.055  45.961  1.00  0.00    -0.033 A 
ATOM     18  C   UNL A   1      43.707  15.012  43.920  1.00  0.00     0.108 C 
ATOM     19  C   UNL A   1      42.464  11.514  43.456  1.00  0.00     0.005 A 
ATOM     20  C   UNL A   1      44.558  12.220  44.502  1.00  0.00    -0.033 A 
ATOM     21  C   UNL A   1      44.421  13.897  46.280  1.00  0.00    -0.033 A 
ATOM     22  C   UNL A   1      42.100  14.328  46.962  1.00  0.00     0.005 A 
ATOM     23  C   UNL A   1      45.115  14.418  43.886  1.00  0.00     0.108 C 
ATOM     24  C   UNL A   1      43.733  15.757  42.626  1.00  0.00     0.238 C 
ATOM     25  C   UNL A   1      43.024  10.245  43.283  1.00  0.00     0.000 A 
ATOM     26  C   UNL A   1      45.098  10.948  44.335  1.00  0.00     0.005 A 
ATOM     27  C   UNL A   1      45.302  13.465  45.084  1.00  0.00     0.030 C 
ATOM     28  C   UNL A   1      44.847  14.051  47.596  1.00  0.00     0.005 A 
ATOM     29  C   UNL A   1      42.546  14.465  48.276  1.00  0.00     0.000 A 
ATOM     30  C   UNL A   1      45.887  15.628  43.477  1.00  0.00     0.238 C 
ATOM     31  O   UNL A   1      42.786  15.916  41.875  1.00  0.00    -0.274 OA
ATOM     32  C   UNL A   1      44.322   9.962  43.726  1.00  0.00     0.000 A 
ATOM     33  C   UNL A   1      46.778  13.235  45.402  1.00  0.00     0.022 C 
ATOM     34  C   UNL A   1      43.906  14.339  48.587  1.00  0.00     0.000 A 
ATOM     35  O   UNL A   1      47.028  15.891  43.804  1.00  0.00    -0.274 OA
ENDBRANCH   8  13
ENDBRANCH   4   7
ENDBRANCH   2   3
ENDBRANCH   1   2
BRANCH   1  36
ATOM     36  C   UNL A   1      46.205  24.265  38.137  1.00  0.00     0.118 C 
BRANCH  36  37
ATOM     37  N   UNL A   1      47.351  24.525  37.270  1.00  0.00    -0.352 N 
ATOM     38  C   UNL A   1      47.464  25.271  36.118  1.00  0.00     0.251 C 
ATOM     39  H   UNL A   1      48.187  24.093  37.559  1.00  0.00     0.163 HD
ATOM     40  O   UNL A   1      48.500  25.226  35.460  1.00  0.00    -0.269 OA
BRANCH  38  41
ATOM     41  C   UNL A   1      46.327  26.087  35.643  1.00  0.00     0.039 A 
ATOM     42  C   UNL A   1      45.031  25.580  35.669  1.00  0.00     0.014 A 
ATOM     43  C   UNL A   1      46.560  27.366  35.127  1.00  0.00     0.014 A 
ATOM     44  C   UNL A   1      44.035  26.209  34.940  1.00  0.00     0.010 A 
ATOM     45  C   UNL A   1      45.514  28.072  34.524  1.00  0.00     0.010 A 
ATOM     46  C   UNL A   1      44.259  27.468  34.358  1.00  0.00    -0.014 A 
BRANCH  46  47
ATOM     47  C   UNL A   1      43.164  28.112  33.586  1.00  0.00     0.031 A 
ATOM     48  C   UNL A   1      42.917  27.754  32.144  1.00  0.00     0.074 A 
ATOM     49  C   UNL A   1      42.342  28.977  34.212  1.00  0.00     0.049 A 
ATOM     50  N   UNL A   1      41.999  28.208  31.326  1.00  0.00    -0.248 NA
ATOM     51  C   UNL A   1      43.818  26.765  31.533  1.00  0.00     0.031 C 
ATOM     52  C   UNL A   1      42.467  29.390  35.612  1.00  0.00     0.029 A 
ATOM     53  N   UNL A   1      41.223  29.637  33.772  1.00  0.00    -0.354 N 
ATOM     54  C   UNL A   1      42.229  27.582  30.107  1.00  0.00     0.074 A 
ATOM     55  C   UNL A   1      43.393  26.742  30.278  1.00  0.00     0.031 C 
ATOM     56  C   UNL A   1      41.430  30.173  35.934  1.00  0.00     0.029 A 
ATOM     57  C   UNL A   1      40.617  30.394  34.744  1.00  0.00     0.049 A 
ATOM     58  H   UNL A   1      40.887  29.574  32.849  1.00  0.00     0.167 HD
ATOM     59  C   UNL A   1      41.521  27.688  28.955  1.00  0.00     0.037 A 
ATOM     60  C   UNL A   1      39.539  31.198  34.686  1.00  0.00     0.037 A 
ATOM     61  C   UNL A   1      40.346  28.507  28.801  1.00  0.00     0.049 A 
ATOM     62  C   UNL A   1      38.808  31.342  33.385  1.00  0.00     0.074 A 
ATOM     63  C   UNL A   1      39.544  28.659  27.684  1.00  0.00     0.029 A 
ATOM     64  N   UNL A   1      39.805  29.315  29.793  1.00  0.00    -0.354 N 
ATOM     65  N   UNL A   1      39.030  30.739  32.243  1.00  0.00    -0.248 NA
ATOM     66  C   UNL A   1      37.684  32.288  33.359  1.00  0.00     0.031 C 
ATOM     67  C   UNL A   1      38.557  29.603  27.978  1.00  0.00     0.029 A 
ATOM     68  C   UNL A   1      38.701  29.992  29.301  1.00  0.00     0.049 A 
ATOM     69  H   UNL A   1      40.154  29.393  30.710  1.00  0.00     0.167 HD
ATOM     70  C   UNL A   1      38.070  31.220  31.364  1.00  0.00     0.074 A 
ATOM     71  C   UNL A   1      37.249  32.148  32.114  1.00  0.00     0.031 C 
ATOM     72  C   UNL A   1      37.893  30.920  30.055  1.00  0.00     0.037 A 
BRANCH  59  73
ATOM     73  C   UNL A   1      42.005  26.916  27.760  1.00  0.00     0.064 A 
ATOM     74  C   UNL A   1      42.977  27.430  26.888  1.00  0.00     0.173 A 
ATOM     75  C   UNL A   1      41.531  25.617  27.514  1.00  0.00     0.173 A 
ATOM     76  F   UNL A   1      43.459  28.669  27.067  1.00  0.00    -0.203 F 
ATOM     77  C   UNL A   1      43.435  26.685  25.802  1.00  0.00     0.198 A 
ATOM     78  C   UNL A   1      42.015  24.863  26.449  1.00  0.00     0.198 A 
ATOM     79  F   UNL A   1      40.607  25.071  28.320  1.00  0.00    -0.203 F 
ATOM     80  F   UNL A   1      44.328  27.216  24.956  1.00  0.00    -0.200 F 
ATOM     81  C   UNL A   1      42.961  25.399  25.589  1.00  0.00     0.200 A 
ATOM     82  F   UNL A   1      41.567  23.614  26.256  1.00  0.00    -0.200 F 
ATOM     83  F   UNL A   1      43.412  24.679  24.553  1.00  0.00    -0.200 F 
ENDBRANCH  59  73
BRANCH  60  84
ATOM     84  C   UNL A   1      39.107  31.920  35.911  1.00  0.00     0.064 A 
ATOM     85  C   UNL A   1      39.524  33.235  36.157  1.00  0.00     0.173 A 
ATOM     86  C   UNL A   1      38.214  31.336  36.824  1.00  0.00     0.173 A 
ATOM     87  F   UNL A   1      40.389  33.830  35.322  1.00  0.00    -0.203 F 
ATOM     88  C   UNL A   1      39.061  33.940  37.266  1.00  0.00     0.198 A 
ATOM     89  C   UNL A   1      37.728  32.053  37.914  1.00  0.00     0.198 A 
ATOM     90  F   UNL A   1      37.780  30.082  36.630  1.00  0.00    -0.203 F 
ATOM     91  F   UNL A   1      39.490  35.189  37.489  1.00  0.00    -0.200 F 
ATOM     92  C   UNL A   1      38.153  33.353  38.135  1.00  0.00     0.200 A 
ATOM     93  F   UNL A   1      36.832  31.489  38.736  1.00  0.00    -0.200 F 
ATOM     94  F   UNL A   1      37.686  34.042  39.185  1.00  0.00    -0.200 F 
ENDBRANCH  60  84
BRANCH  72  95
ATOM     95  C   UNL A   1      36.760  31.594  29.337  1.00  0.00     0.064 A 
ATOM     96  C   UNL A   1      35.604  30.890  28.968  1.00  0.00     0.173 A 
ATOM     97  C   UNL A   1      36.797  32.975  29.083  1.00  0.00     0.173 A 
ATOM     98  F   UNL A   1      35.525  29.567  29.176  1.00  0.00    -0.203 F 
ATOM     99  C   UNL A   1      34.534  31.540  28.359  1.00  0.00     0.198 A 
ATOM    100  C   UNL A   1      35.712  33.626  28.505  1.00  0.00     0.198 A 
ATOM    101  F   UNL A   1      37.876  33.695  29.423  1.00  0.00    -0.203 F 
ATOM    102  F   UNL A   1      33.455  30.839  27.982  1.00  0.00    -0.200 F 
ATOM    103  C   UNL A   1      34.583  32.908  28.140  1.00  0.00     0.200 A 
ATOM    104  F   UNL A   1      35.754  34.952  28.310  1.00  0.00    -0.200 F 
ATOM    105  F   UNL A   1      33.543  33.535  27.573  1.00  0.00    -0.200 F 
ENDBRANCH  72  95
ENDBRANCH  46  47
ENDBRANCH  38  41
ENDBRANCH  36  37
ENDBRANCH   1  36
TORSDOF 11
ENDMDL
MODEL 3
REMARK VINA RESULT:     -15.0      8.523     13.942
REMARK SMILES C[C@]12c3ccccc3[C@](C)(c3ccccc31)[C@@H]1C(=O)N(c3ccc(C(=O)NCCCNC(=O)c4ccc(-c5c6nc(c(-c7c(F)c(F)c(F)c(F)c7F)c7ccc([nH]7)c(-c7c(F)c(F)c(F)c(F)c7F)c7nc(c(-c8c(F)c(F)c(F)c(F)c8F)c8ccc5[nH]8)C=C7)C=C6)cc4)cc3)C(=O)[C@H]12
REMARK SMILES IDX 29 1 28 2 27 3 25 4 26 5 24 7 21 8 22 9 98 10 23 11 97 12
REMARK SMILES IDX 20 13 1 14 2 15 16 16 3 17 101 18 15 19 11 20 8 21 4 22
REMARK SMILES IDX 17 23 99 24 14 25 12 26 9 27 7 28 5 29 18 30 100 31 13 32
REMARK SMILES IDX 10 33 6 34 19 35 30 36 31 37 32 38 33 40 34 41 35 42 96 43
REMARK SMILES IDX 36 44 95 45 37 46 38 47 39 48 89 49 40 50 94 51 88 52 90 53
REMARK SMILES IDX 41 54 93 55 87 56 86 57 42 59 74 60 54 61 73 62 55 63 58 64
REMARK SMILES IDX 72 65 91 66 56 67 57 68 71 70 92 71 59 72 43 73 44 74 52 75
REMARK SMILES IDX 45 76 46 77 50 78 53 79 47 80 48 81 51 82 49 83 75 84 76 85
REMARK SMILES IDX 84 86 77 87 78 88 82 89 85 90 79 91 80 92 83 93 81 94 60 95
REMARK SMILES IDX 61 96 69 97 62 98 63 99 67 100 70 101 64 102 65 103 68 104
REMARK SMILES IDX 66 105
REMARK H PARENT 27 6 31 39 90 58 58 69
REMARK Flexibility Score: inf
ROOT
ATOM      1  C   UNL A   1      36.465  33.541  34.007  1.00  0.00     0.042 C 
ENDROOT
BRANCH   1   2
ATOM      2  C   UNL A   1      36.421  32.206  33.285  1.00  0.00     0.118 C 
BRANCH   2   3
ATOM      3  N   UNL A   1      35.674  32.245  32.037  1.00  0.00    -0.352 N 
ATOM      4  C   UNL A   1      35.938  31.706  30.801  1.00  0.00     0.251 C 
ATOM      5  O   UNL A   1      35.174  31.954  29.872  1.00  0.00    -0.269 OA
ATOM      6  H   UNL A   1      34.828  32.747  32.086  1.00  0.00     0.163 HD
BRANCH   4   7
ATOM      7  C   UNL A   1      37.151  30.892  30.555  1.00  0.00     0.039 A 
ATOM      8  C   UNL A   1      39.312  29.267  29.781  1.00  0.00     0.052 A 
ATOM      9  C   UNL A   1      38.093  28.695  30.170  1.00  0.00     0.027 A 
ATOM     10  C   UNL A   1      39.465  30.655  29.900  1.00  0.00     0.027 A 
ATOM     11  C   UNL A   1      37.021  29.501  30.562  1.00  0.00     0.016 A 
ATOM     12  C   UNL A   1      38.400  31.458  30.311  1.00  0.00     0.016 A 
BRANCH   8  13
ATOM     13  N   UNL A   1      40.343  28.478  29.222  1.00  0.00    -0.250 N 
ATOM     14  C   UNL A   1      44.233  26.477  30.351  1.00  0.00     0.022 C 
ATOM     15  C   UNL A   1      43.449  26.325  29.048  1.00  0.00     0.030 C 
ATOM     16  C   UNL A   1      42.921  24.898  28.751  1.00  0.00    -0.033 A 
ATOM     17  C   UNL A   1      44.249  26.701  27.759  1.00  0.00    -0.033 A 
ATOM     18  C   UNL A   1      42.321  27.375  28.930  1.00  0.00     0.108 C 
ATOM     19  C   UNL A   1      43.116  23.771  29.542  1.00  0.00     0.005 A 
ATOM     20  C   UNL A   1      42.238  24.771  27.491  1.00  0.00    -0.033 A 
ATOM     21  C   UNL A   1      43.446  26.690  26.566  1.00  0.00    -0.033 A 
ATOM     22  C   UNL A   1      45.592  27.062  27.704  1.00  0.00     0.005 A 
ATOM     23  C   UNL A   1      41.292  26.880  27.913  1.00  0.00     0.108 C 
ATOM     24  C   UNL A   1      41.388  27.911  29.967  1.00  0.00     0.238 C 
ATOM     25  C   UNL A   1      42.656  22.531  29.088  1.00  0.00     0.000 A 
ATOM     26  C   UNL A   1      41.798  23.528  27.045  1.00  0.00     0.005 A 
ATOM     27  C   UNL A   1      42.014  26.138  26.769  1.00  0.00     0.030 C 
ATOM     28  C   UNL A   1      44.009  27.074  25.354  1.00  0.00     0.005 A 
ATOM     29  C   UNL A   1      46.140  27.431  26.475  1.00  0.00     0.000 A 
ATOM     30  C   UNL A   1      40.382  28.061  27.883  1.00  0.00     0.238 C 
ATOM     31  O   UNL A   1      41.571  27.887  31.172  1.00  0.00    -0.274 OA
ATOM     32  C   UNL A   1      42.013  22.409  27.850  1.00  0.00     0.000 A 
ATOM     33  C   UNL A   1      41.153  26.062  25.510  1.00  0.00     0.022 C 
ATOM     34  C   UNL A   1      45.355  27.448  25.316  1.00  0.00     0.000 A 
ATOM     35  O   UNL A   1      39.747  28.449  26.921  1.00  0.00    -0.274 OA
ENDBRANCH   8  13
ENDBRANCH   4   7
ENDBRANCH   2   3
ENDBRANCH   1   2
BRANCH   1  36
ATOM     36  C   UNL A   1      37.493  33.615  35.121  1.00  0.00     0.118 C 
BRANCH  36  37
ATOM     37  N   UNL A   1      37.396  32.513  36.074  1.00  0.00    -0.352 N 
ATOM     38  C   UNL A   1      38.151  31.371  36.219  1.00  0.00     0.251 C 
ATOM     39  H   UNL A   1      36.663  32.602  36.726  1.00  0.00     0.163 HD
ATOM     40  O   UNL A   1      37.792  30.495  37.001  1.00  0.00    -0.269 OA
BRANCH  38  41
ATOM     41  C   UNL A   1      39.366  31.172  35.400  1.00  0.00     0.039 A 
ATOM     42  C   UNL A   1      39.314  30.427  34.226  1.00  0.00     0.014 A 
ATOM     43  C   UNL A   1      40.585  31.704  35.830  1.00  0.00     0.014 A 
ATOM     44  C   UNL A   1      40.491  29.981  33.646  1.00  0.00     0.010 A 
ATOM     45  C   UNL A   1      41.763  31.378  35.150  1.00  0.00     0.010 A 
ATOM     46  C   UNL A   1      41.736  30.452  34.096  1.00  0.00    -0.014 A 
BRANCH  46  47
ATOM     47  C   UNL A   1      42.976  29.952  33.446  1.00  0.00     0.031 A 
ATOM     48  C   UNL A   1      43.676  28.720  33.956  1.00  0.00     0.074 A 
ATOM     49  C   UNL A   1      43.434  30.576  32.344  1.00  0.00     0.049 A 
ATOM     50  N   UNL A   1      44.759  28.138  33.501  1.00  0.00    -0.248 NA
ATOM     51  C   UNL A   1      43.095  28.055  35.132  1.00  0.00     0.031 C 
ATOM     52  C   UNL A   1      42.832  31.769  31.743  1.00  0.00     0.029 A 
ATOM     53  N   UNL A   1      44.485  30.283  31.513  1.00  0.00    -0.354 N 
ATOM     54  C   UNL A   1      44.999  27.062  34.346  1.00  0.00     0.074 A 
ATOM     55  C   UNL A   1      43.972  27.089  35.363  1.00  0.00     0.031 C 
ATOM     56  C   UNL A   1      43.477  32.062  30.606  1.00  0.00     0.029 A 
ATOM     57  C   UNL A   1      44.593  31.138  30.443  1.00  0.00     0.049 A 
ATOM     58  H   UNL A   1      45.103  29.531  31.667  1.00  0.00     0.167 HD
ATOM     59  C   UNL A   1      45.980  26.129  34.269  1.00  0.00     0.037 A 
ATOM     60  C   UNL A   1      45.501  31.194  29.451  1.00  0.00     0.037 A 
ATOM     61  C   UNL A   1      46.983  26.094  33.236  1.00  0.00     0.049 A 
ATOM     62  C   UNL A   1      46.609  30.183  29.421  1.00  0.00     0.074 A 
ATOM     63  C   UNL A   1      48.000  25.173  33.055  1.00  0.00     0.029 A 
ATOM     64  N   UNL A   1      47.099  27.023  32.210  1.00  0.00    -0.354 N 
ATOM     65  N   UNL A   1      46.819  29.167  30.221  1.00  0.00    -0.248 NA
ATOM     66  C   UNL A   1      47.612  30.334  28.360  1.00  0.00     0.031 C 
ATOM     67  C   UNL A   1      48.768  25.578  31.960  1.00  0.00     0.029 A 
ATOM     68  C   UNL A   1      48.192  26.714  31.415  1.00  0.00     0.049 A 
ATOM     69  H   UNL A   1      46.493  27.786  32.068  1.00  0.00     0.167 HD
ATOM     70  C   UNL A   1      47.971  28.548  29.756  1.00  0.00     0.074 A 
ATOM     71  C   UNL A   1      48.400  29.292  28.589  1.00  0.00     0.031 C 
ATOM     72  C   UNL A   1      48.613  27.466  30.258  1.00  0.00     0.037 A 
BRANCH  59  73
ATOM     73  C   UNL A   1      46.032  25.075  35.340  1.00  0.00     0.064 A 
ATOM     74  C   UNL A   1      46.572  25.332  36.609  1.00  0.00     0.173 A 
ATOM     75  C   UNL A   1      45.481  23.803  35.111  1.00  0.00     0.173 A 
ATOM     76  F   UNL A   1      47.120  26.525  36.881  1.00  0.00    -0.203 F 
ATOM     77  C   UNL A   1      46.582  24.350  37.598  1.00  0.00     0.198 A 
ATOM     78  C   UNL A   1      45.463  22.835  36.112  1.00  0.00     0.198 A 
ATOM     79  F   UNL A   1      44.944  23.504  33.919  1.00  0.00    -0.203 F 
ATOM     80  F   UNL A   1      47.147  24.604  38.786  1.00  0.00    -0.200 F 
ATOM     81  C   UNL A   1      46.020  23.106  37.352  1.00  0.00     0.200 A 
ATOM     82  F   UNL A   1      44.903  21.640  35.876  1.00  0.00    -0.200 F 
ATOM     83  F   UNL A   1      46.019  22.167  38.308  1.00  0.00    -0.200 F 
ENDBRANCH  59  73
BRANCH  60  84
ATOM     84  C   UNL A   1      45.380  32.254  28.418  1.00  0.00     0.064 A 
ATOM     85  C   UNL A   1      44.646  32.036  27.245  1.00  0.00     0.173 A 
ATOM     86  C   UNL A   1      45.937  33.529  28.612  1.00  0.00     0.173 A 
ATOM     87  F   UNL A   1      44.109  30.830  27.006  1.00  0.00    -0.203 F 
ATOM     88  C   UNL A   1      44.468  33.052  26.309  1.00  0.00     0.198 A 
ATOM     89  C   UNL A   1      45.731  34.552  27.691  1.00  0.00     0.198 A 
ATOM     90  F   UNL A   1      46.643  33.790  29.722  1.00  0.00    -0.203 F 
ATOM     91  F   UNL A   1      43.778  32.812  25.185  1.00  0.00    -0.200 F 
ATOM     92  C   UNL A   1      44.999  34.313  26.540  1.00  0.00     0.200 A 
ATOM     93  F   UNL A   1      46.226  35.774  27.932  1.00  0.00    -0.200 F 
ATOM     94  F   UNL A   1      44.804  35.297  25.652  1.00  0.00    -0.200 F 
ENDBRANCH  60  84
BRANCH  72  95
ATOM     95  C   UNL A   1      49.851  27.004  29.545  1.00  0.00     0.064 A 
ATOM     96  C   UNL A   1      49.786  26.099  28.475  1.00  0.00     0.173 A 
ATOM     97  C   UNL A   1      51.108  27.529  29.886  1.00  0.00     0.173 A 
ATOM     98  F   UNL A   1      48.611  25.557  28.120  1.00  0.00    -0.203 F 
ATOM     99  C   UNL A   1      50.935  25.726  27.782  1.00  0.00     0.198 A 
ATOM    100  C   UNL A   1      52.249  27.179  29.169  1.00  0.00     0.198 A 
ATOM    101  F   UNL A   1      51.224  28.403  30.896  1.00  0.00    -0.203 F 
ATOM    102  F   UNL A   1      50.853  24.832  26.787  1.00  0.00    -0.200 F 
ATOM    103  C   UNL A   1      52.162  26.276  28.121  1.00  0.00     0.200 A 
ATOM    104  F   UNL A   1      53.431  27.725  29.486  1.00  0.00    -0.200 F 
ATOM    105  F   UNL A   1      53.263  25.932  27.438  1.00  0.00    -0.200 F 
ENDBRANCH  72  95
ENDBRANCH  46  47
ENDBRANCH  38  41
ENDBRANCH  36  37
ENDBRANCH   1  36
TORSDOF 11
ENDMDL
