MODEL 1
REMARK VINA RESULT:     -11.8      0.000      0.000
REMARK SMILES CCC[NH2+][C@@]1(C(=O)NCCCNC(=O)c2ccc(-c3c4nc(c(-c5c(F)c(F)c(F)c(F)c5F)c5ccc([nH]5)c(-c5c(F)c(F)c(F)c(F)c5F)c5nc(c(-c6c(F)c(F)c(F)c(F)c6F)c6ccc3[nH]6)C=C5)C=C4)cc2)CC[C@@H](SC2CCCC2)C1
REMARK SMILES IDX 9 1 8 2 6 3 7 4 5 6 78 7 87 8 79 9 80 10 4 11 3 14 2 15 1 16
REMARK SMILES IDX 81 17 82 18 83 19 86 20 84 21 85 22 10 23 11 24 12 25 13 26
REMARK SMILES IDX 14 28 15 29 16 30 77 31 17 32 76 33 18 34 19 35 20 36 70 37
REMARK SMILES IDX 21 38 75 39 69 40 71 41 22 42 74 43 68 44 67 45 23 47 55 48
REMARK SMILES IDX 35 49 54 50 36 51 39 52 53 53 72 54 37 55 38 56 52 58 73 59
REMARK SMILES IDX 40 60 24 61 25 62 33 63 26 64 27 65 31 66 34 67 28 68 29 69
REMARK SMILES IDX 32 70 30 71 56 72 57 73 65 74 58 75 59 76 63 77 66 78 60 79
REMARK SMILES IDX 61 80 64 81 62 82 41 83 42 84 50 85 43 86 44 87 48 88 51 89
REMARK SMILES IDX 45 90 46 91 49 92 47 93
REMARK H PARENT 8 5 4 12 4 13 12 27 71 46 39 57
REMARK Flexibility Score: inf
ROOT
ATOM      1  C   UNL A   1      31.585  30.899  26.554  1.00  0.00     0.118 C 
ENDROOT
BRANCH   1   2
ATOM      2  N   UNL A   1      32.775  30.379  27.155  1.00  0.00    -0.351 N 
ATOM      3  C   UNL A   1      33.491  29.260  26.879  1.00  0.00     0.281 C 
ATOM      4  O   UNL A   1      34.368  29.021  27.721  1.00  0.00    -0.268 OA
ATOM      5  H   UNL A   1      33.135  30.924  27.890  1.00  0.00     0.163 HD
BRANCH   3   6
ATOM      6  C   UNL A   1      33.220  28.305  25.627  1.00  0.00     0.176 C 
ATOM      7  C   UNL A   1      31.749  27.973  25.278  1.00  0.00     0.080 C 
ATOM      8  C   UNL A   1      33.894  26.931  25.850  1.00  0.00     0.093 C 
ATOM      9  C   UNL A   1      31.441  26.537  25.708  1.00  0.00     0.022 C 
ATOM     10  C   UNL A   1      32.782  25.885  26.008  1.00  0.00     0.054 C 
BRANCH   6  11
ATOM     11  N   UNL A   1      33.866  28.959  24.446  1.00  0.00    -0.334 N 
ATOM     12  H   UNL A   1      33.988  29.949  24.656  1.00  0.00     0.347 HD
ATOM     13  H   UNL A   1      34.750  28.472  24.293  1.00  0.00     0.347 HD
BRANCH  11  14
ATOM     14  C   UNL A   1      33.105  28.845  23.195  1.00  0.00     0.261 C 
BRANCH  14  15
ATOM     15  C   UNL A   1      33.842  27.991  22.161  1.00  0.00     0.058 C 
ATOM     16  C   UNL A   1      33.426  26.529  22.177  1.00  0.00     0.010 C 
ENDBRANCH  14  15
ENDBRANCH  11  14
ENDBRANCH   6  11
BRANCH  10  17
ATOM     17  S   UNL A   1      33.079  24.232  25.277  1.00  0.00    -0.155 SA
BRANCH  17  18
ATOM     18  C   UNL A   1      34.848  24.117  24.821  1.00  0.00     0.047 C 
ATOM     19  C   UNL A   1      35.849  23.533  25.805  1.00  0.00     0.014 C 
ATOM     20  C   UNL A   1      35.175  23.398  23.518  1.00  0.00     0.014 C 
ATOM     21  C   UNL A   1      37.135  23.480  25.000  1.00  0.00     0.001 C 
ATOM     22  C   UNL A   1      36.678  23.105  23.592  1.00  0.00     0.001 C 
ENDBRANCH  17  18
ENDBRANCH  10  17
ENDBRANCH   3   6
ENDBRANCH   1   2
BRANCH   1  23
ATOM     23  C   UNL A   1      31.483  32.404  26.670  1.00  0.00     0.042 C 
BRANCH  23  24
ATOM     24  C   UNL A   1      32.732  32.993  27.287  1.00  0.00     0.118 C 
BRANCH  24  25
ATOM     25  N   UNL A   1      32.532  34.386  27.683  1.00  0.00    -0.352 N 
ATOM     26  C   UNL A   1      33.053  35.093  28.736  1.00  0.00     0.251 C 
ATOM     27  H   UNL A   1      31.926  34.897  27.100  1.00  0.00     0.163 HD
ATOM     28  O   UNL A   1      32.561  36.168  29.053  1.00  0.00    -0.269 OA
BRANCH  26  29
ATOM     29  C   UNL A   1      34.198  34.544  29.483  1.00  0.00     0.039 A 
ATOM     30  C   UNL A   1      33.974  33.900  30.701  1.00  0.00     0.014 A 
ATOM     31  C   UNL A   1      35.492  34.662  28.974  1.00  0.00     0.014 A 
ATOM     32  C   UNL A   1      35.048  33.318  31.370  1.00  0.00     0.010 A 
ATOM     33  C   UNL A   1      36.528  33.960  29.563  1.00  0.00     0.010 A 
ATOM     34  C   UNL A   1      36.324  33.306  30.783  1.00  0.00    -0.014 A 
BRANCH  34  35
ATOM     35  C   UNL A   1      37.467  32.632  31.436  1.00  0.00     0.031 A 
ATOM     36  C   UNL A   1      38.148  31.478  30.756  1.00  0.00     0.074 A 
ATOM     37  C   UNL A   1      37.833  33.010  32.674  1.00  0.00     0.049 A 
ATOM     38  N   UNL A   1      39.136  30.733  31.180  1.00  0.00    -0.248 NA
ATOM     39  C   UNL A   1      37.621  31.077  29.441  1.00  0.00     0.031 C 
ATOM     40  C   UNL A   1      37.182  34.055  33.466  1.00  0.00     0.029 A 
ATOM     41  N   UNL A   1      38.837  32.553  33.486  1.00  0.00    -0.354 N 
ATOM     42  C   UNL A   1      39.327  29.768  30.199  1.00  0.00     0.074 A 
ATOM     43  C   UNL A   1      38.307  29.972  29.197  1.00  0.00     0.031 C 
ATOM     44  C   UNL A   1      37.825  34.186  34.635  1.00  0.00     0.029 A 
ATOM     45  C   UNL A   1      38.904  33.206  34.692  1.00  0.00     0.049 A 
ATOM     46  H   UNL A   1      39.451  31.828  33.231  1.00  0.00     0.167 HD
ATOM     47  C   UNL A   1      40.289  28.819  30.128  1.00  0.00     0.037 A 
ATOM     48  C   UNL A   1      39.744  33.030  35.729  1.00  0.00     0.037 A 
ATOM     49  C   UNL A   1      41.314  28.646  31.122  1.00  0.00     0.049 A 
ATOM     50  C   UNL A   1      40.826  31.993  35.616  1.00  0.00     0.074 A 
ATOM     51  C   UNL A   1      42.394  27.784  31.109  1.00  0.00     0.029 A 
ATOM     52  N   UNL A   1      41.375  29.349  32.318  1.00  0.00    -0.354 N 
ATOM     53  N   UNL A   1      41.070  31.156  34.635  1.00  0.00    -0.248 NA
ATOM     54  C   UNL A   1      41.757  31.885  36.745  1.00  0.00     0.031 C 
ATOM     55  C   UNL A   1      43.071  27.917  32.326  1.00  0.00     0.029 A 
ATOM     56  C   UNL A   1      42.454  28.911  33.071  1.00  0.00     0.049 A 
ATOM     57  H   UNL A   1      40.746  30.055  32.592  1.00  0.00     0.167 HD
ATOM     58  C   UNL A   1      42.187  30.429  35.022  1.00  0.00     0.074 A 
ATOM     59  C   UNL A   1      42.588  30.945  36.315  1.00  0.00     0.031 C 
ATOM     60  C   UNL A   1      42.823  29.425  34.367  1.00  0.00     0.037 A 
BRANCH  47  61
ATOM     61  C   UNL A   1      40.260  27.895  28.942  1.00  0.00     0.064 A 
ATOM     62  C   UNL A   1      39.532  26.693  28.951  1.00  0.00     0.173 A 
ATOM     63  C   UNL A   1      40.980  28.210  27.779  1.00  0.00     0.173 A 
ATOM     64  F   UNL A   1      38.835  26.334  30.040  1.00  0.00    -0.203 F 
ATOM     65  C   UNL A   1      39.568  25.821  27.865  1.00  0.00     0.198 A 
ATOM     66  C   UNL A   1      40.982  27.355  26.680  1.00  0.00     0.198 A 
ATOM     67  F   UNL A   1      41.690  29.346  27.710  1.00  0.00    -0.203 F 
ATOM     68  F   UNL A   1      38.928  24.646  27.930  1.00  0.00    -0.200 F 
ATOM     69  C   UNL A   1      40.289  26.156  26.729  1.00  0.00     0.200 A 
ATOM     70  F   UNL A   1      41.668  27.686  25.577  1.00  0.00    -0.200 F 
ATOM     71  F   UNL A   1      40.325  25.315  25.686  1.00  0.00    -0.200 F 
ENDBRANCH  47  61
BRANCH  48  72
ATOM     72  C   UNL A   1      39.599  33.882  36.936  1.00  0.00     0.064 A 
ATOM     73  C   UNL A   1      40.171  35.159  36.993  1.00  0.00     0.173 A 
ATOM     74  C   UNL A   1      38.841  33.456  38.038  1.00  0.00     0.173 A 
ATOM     75  F   UNL A   1      40.916  35.606  35.971  1.00  0.00    -0.203 F 
ATOM     76  C   UNL A   1      39.997  35.976  38.109  1.00  0.00     0.198 A 
ATOM     77  C   UNL A   1      38.644  34.284  39.140  1.00  0.00     0.198 A 
ATOM     78  F   UNL A   1      38.264  32.245  38.027  1.00  0.00    -0.203 F 
ATOM     79  F   UNL A   1      40.579  37.182  38.150  1.00  0.00    -0.200 F 
ATOM     80  C   UNL A   1      39.227  35.541  39.177  1.00  0.00     0.200 A 
ATOM     81  F   UNL A   1      37.882  33.868  40.160  1.00  0.00    -0.200 F 
ATOM     82  F   UNL A   1      39.045  36.335  40.241  1.00  0.00    -0.200 F 
ENDBRANCH  48  72
BRANCH  60  83
ATOM     83  C   UNL A   1      44.022  28.824  35.042  1.00  0.00     0.064 A 
ATOM     84  C   UNL A   1      43.911  27.711  35.888  1.00  0.00     0.173 A 
ATOM     85  C   UNL A   1      45.303  29.352  34.816  1.00  0.00     0.173 A 
ATOM     86  F   UNL A   1      42.707  27.178  36.147  1.00  0.00    -0.203 F 
ATOM     87  C   UNL A   1      45.031  27.170  36.510  1.00  0.00     0.198 A 
ATOM     88  C   UNL A   1      46.427  28.784  35.411  1.00  0.00     0.198 A 
ATOM     89  F   UNL A   1      45.468  30.410  34.009  1.00  0.00    -0.203 F 
ATOM     90  F   UNL A   1      44.893  26.144  37.362  1.00  0.00    -0.200 F 
ATOM     91  C   UNL A   1      46.288  27.701  36.265  1.00  0.00     0.200 A 
ATOM     92  F   UNL A   1      47.642  29.288  35.159  1.00  0.00    -0.200 F 
ATOM     93  F   UNL A   1      47.368  27.175  36.861  1.00  0.00    -0.200 F 
ENDBRANCH  60  83
ENDBRANCH  34  35
ENDBRANCH  26  29
ENDBRANCH  24  25
ENDBRANCH  23  24
ENDBRANCH   1  23
TORSDOF 15
ENDMDL
MODEL 2
REMARK VINA RESULT:     -11.3      5.888     11.281
REMARK SMILES CCC[NH2+][C@@]1(C(=O)NCCCNC(=O)c2ccc(-c3c4nc(c(-c5c(F)c(F)c(F)c(F)c5F)c5ccc([nH]5)c(-c5c(F)c(F)c(F)c(F)c5F)c5nc(c(-c6c(F)c(F)c(F)c(F)c6F)c6ccc3[nH]6)C=C5)C=C4)cc2)CC[C@@H](SC2CCCC2)C1
REMARK SMILES IDX 9 1 8 2 6 3 7 4 5 6 78 7 87 8 79 9 80 10 4 11 3 14 2 15 1 16
REMARK SMILES IDX 81 17 82 18 83 19 86 20 84 21 85 22 10 23 11 24 12 25 13 26
REMARK SMILES IDX 14 28 15 29 16 30 77 31 17 32 76 33 18 34 19 35 20 36 70 37
REMARK SMILES IDX 21 38 75 39 69 40 71 41 22 42 74 43 68 44 67 45 23 47 55 48
REMARK SMILES IDX 35 49 54 50 36 51 39 52 53 53 72 54 37 55 38 56 52 58 73 59
REMARK SMILES IDX 40 60 24 61 25 62 33 63 26 64 27 65 31 66 34 67 28 68 29 69
REMARK SMILES IDX 32 70 30 71 56 72 57 73 65 74 58 75 59 76 63 77 66 78 60 79
REMARK SMILES IDX 61 80 64 81 62 82 41 83 42 84 50 85 43 86 44 87 48 88 51 89
REMARK SMILES IDX 45 90 46 91 49 92 47 93
REMARK H PARENT 8 5 4 12 4 13 12 27 71 46 39 57
REMARK Flexibility Score: inf
ROOT
ATOM      1  C   UNL A   1      36.977  20.554  25.015  1.00  0.00     0.118 C 
ENDROOT
BRANCH   1   2
ATOM      2  N   UNL A   1      37.292  21.832  25.576  1.00  0.00    -0.351 N 
ATOM      3  C   UNL A   1      36.554  22.968  25.664  1.00  0.00     0.281 C 
ATOM      4  O   UNL A   1      37.209  23.946  26.051  1.00  0.00    -0.268 OA
ATOM      5  H   UNL A   1      38.193  21.898  25.965  1.00  0.00     0.163 HD
BRANCH   3   6
ATOM      6  C   UNL A   1      35.010  23.068  25.269  1.00  0.00     0.176 C 
ATOM      7  C   UNL A   1      34.637  22.936  23.773  1.00  0.00     0.080 C 
ATOM      8  C   UNL A   1      34.439  24.441  25.700  1.00  0.00     0.093 C 
ATOM      9  C   UNL A   1      34.275  24.317  23.220  1.00  0.00     0.022 C 
ATOM     10  C   UNL A   1      34.103  25.227  24.426  1.00  0.00     0.054 C 
BRANCH   6  11
ATOM     11  N   UNL A   1      34.302  22.002  26.045  1.00  0.00    -0.334 N 
ATOM     12  H   UNL A   1      34.976  21.270  26.269  1.00  0.00     0.347 HD
ATOM     13  H   UNL A   1      33.915  22.454  26.873  1.00  0.00     0.347 HD
BRANCH  11  14
ATOM     14  C   UNL A   1      33.171  21.384  25.338  1.00  0.00     0.261 C 
BRANCH  14  15
ATOM     15  C   UNL A   1      33.267  19.857  25.347  1.00  0.00     0.058 C 
ATOM     16  C   UNL A   1      32.580  19.202  24.159  1.00  0.00     0.010 C 
ENDBRANCH  14  15
ENDBRANCH  11  14
ENDBRANCH   6  11
BRANCH  10  17
ATOM     17  S   UNL A   1      32.599  26.274  24.462  1.00  0.00    -0.155 SA
BRANCH  17  18
ATOM     18  C   UNL A   1      32.708  27.382  25.915  1.00  0.00     0.047 C 
ATOM     19  C   UNL A   1      33.972  28.193  26.158  1.00  0.00     0.014 C 
ATOM     20  C   UNL A   1      31.594  28.409  26.080  1.00  0.00     0.014 C 
ATOM     21  C   UNL A   1      33.599  29.067  27.341  1.00  0.00     0.001 C 
ATOM     22  C   UNL A   1      32.134  29.421  27.097  1.00  0.00     0.001 C 
ENDBRANCH  17  18
ENDBRANCH  10  17
ENDBRANCH   3   6
ENDBRANCH   1   2
BRANCH   1  23
ATOM     23  C   UNL A   1      38.183  19.645  24.922  1.00  0.00     0.042 C 
BRANCH  23  24
ATOM     24  C   UNL A   1      39.301  20.124  25.821  1.00  0.00     0.118 C 
BRANCH  24  25
ATOM     25  N   UNL A   1      40.327  19.097  25.998  1.00  0.00    -0.352 N 
ATOM     26  C   UNL A   1      41.689  19.212  26.103  1.00  0.00     0.251 C 
ATOM     27  H   UNL A   1      39.984  18.176  26.050  1.00  0.00     0.163 HD
ATOM     28  O   UNL A   1      42.398  18.221  25.980  1.00  0.00    -0.269 OA
BRANCH  26  29
ATOM     29  C   UNL A   1      42.289  20.534  26.355  1.00  0.00     0.039 A 
ATOM     30  C   UNL A   1      42.723  21.304  25.276  1.00  0.00     0.014 A 
ATOM     31  C   UNL A   1      42.414  21.012  27.660  1.00  0.00     0.014 A 
ATOM     32  C   UNL A   1      43.222  22.583  25.511  1.00  0.00     0.010 A 
ATOM     33  C   UNL A   1      42.771  22.331  27.877  1.00  0.00     0.010 A 
ATOM     34  C   UNL A   1      43.207  23.120  26.809  1.00  0.00    -0.014 A 
BRANCH  34  35
ATOM     35  C   UNL A   1      43.663  24.503  27.076  1.00  0.00     0.031 A 
ATOM     36  C   UNL A   1      42.688  25.533  27.570  1.00  0.00     0.074 A 
ATOM     37  C   UNL A   1      44.934  24.841  26.796  1.00  0.00     0.049 A 
ATOM     38  N   UNL A   1      42.882  26.802  27.822  1.00  0.00    -0.248 NA
ATOM     39  C   UNL A   1      41.296  25.092  27.763  1.00  0.00     0.031 C 
ATOM     40  C   UNL A   1      45.942  23.945  26.225  1.00  0.00     0.029 A 
ATOM     41  N   UNL A   1      45.594  26.032  26.945  1.00  0.00    -0.354 N 
ATOM     42  C   UNL A   1      41.638  27.308  28.178  1.00  0.00     0.074 A 
ATOM     43  C   UNL A   1      40.683  26.233  28.035  1.00  0.00     0.031 C 
ATOM     44  C   UNL A   1      47.102  24.607  26.107  1.00  0.00     0.029 A 
ATOM     45  C   UNL A   1      46.908  25.982  26.552  1.00  0.00     0.049 A 
ATOM     46  H   UNL A   1      45.168  26.845  27.300  1.00  0.00     0.167 HD
ATOM     47  C   UNL A   1      41.328  28.551  28.616  1.00  0.00     0.037 A 
ATOM     48  C   UNL A   1      47.851  26.943  26.550  1.00  0.00     0.037 A 
ATOM     49  C   UNL A   1      42.296  29.602  28.779  1.00  0.00     0.049 A 
ATOM     50  C   UNL A   1      47.495  28.307  27.071  1.00  0.00     0.074 A 
ATOM     51  C   UNL A   1      42.116  30.868  29.305  1.00  0.00     0.029 A 
ATOM     52  N   UNL A   1      43.630  29.509  28.404  1.00  0.00    -0.354 N 
ATOM     53  N   UNL A   1      46.341  28.749  27.511  1.00  0.00    -0.248 NA
ATOM     54  C   UNL A   1      48.574  29.300  27.110  1.00  0.00     0.031 C 
ATOM     55  C   UNL A   1      43.324  31.564  29.186  1.00  0.00     0.029 A 
ATOM     56  C   UNL A   1      44.277  30.710  28.649  1.00  0.00     0.049 A 
ATOM     57  H   UNL A   1      44.054  28.708  28.020  1.00  0.00     0.167 HD
ATOM     58  C   UNL A   1      46.555  30.067  27.888  1.00  0.00     0.074 A 
ATOM     59  C   UNL A   1      47.958  30.342  27.651  1.00  0.00     0.031 C 
ATOM     60  C   UNL A   1      45.671  30.969  28.386  1.00  0.00     0.037 A 
BRANCH  47  61
ATOM     61  C   UNL A   1      39.885  28.831  28.934  1.00  0.00     0.064 A 
ATOM     62  C   UNL A   1      39.357  28.650  30.223  1.00  0.00     0.173 A 
ATOM     63  C   UNL A   1      39.012  29.279  27.930  1.00  0.00     0.173 A 
ATOM     64  F   UNL A   1      40.142  28.212  31.219  1.00  0.00    -0.203 F 
ATOM     65  C   UNL A   1      38.004  28.856  30.482  1.00  0.00     0.198 A 
ATOM     66  C   UNL A   1      37.668  29.521  28.201  1.00  0.00     0.198 A 
ATOM     67  F   UNL A   1      39.461  29.474  26.681  1.00  0.00    -0.203 F 
ATOM     68  F   UNL A   1      37.510  28.601  31.701  1.00  0.00    -0.200 F 
ATOM     69  C   UNL A   1      37.162  29.297  29.472  1.00  0.00     0.200 A 
ATOM     70  F   UNL A   1      36.859  29.961  27.228  1.00  0.00    -0.200 F 
ATOM     71  F   UNL A   1      35.860  29.491  29.722  1.00  0.00    -0.200 F 
ENDBRANCH  47  61
BRANCH  48  72
ATOM     72  C   UNL A   1      49.216  26.622  26.064  1.00  0.00     0.064 A 
ATOM     73  C   UNL A   1      49.607  26.922  24.753  1.00  0.00     0.173 A 
ATOM     74  C   UNL A   1      50.175  26.055  26.918  1.00  0.00     0.173 A 
ATOM     75  F   UNL A   1      48.722  27.452  23.895  1.00  0.00    -0.203 F 
ATOM     76  C   UNL A   1      50.903  26.661  24.310  1.00  0.00     0.198 A 
ATOM     77  C   UNL A   1      51.478  25.821  26.483  1.00  0.00     0.198 A 
ATOM     78  F   UNL A   1      49.854  25.759  28.185  1.00  0.00    -0.203 F 
ATOM     79  F   UNL A   1      51.242  26.932  23.043  1.00  0.00    -0.200 F 
ATOM     80  C   UNL A   1      51.839  26.119  25.178  1.00  0.00     0.200 A 
ATOM     81  F   UNL A   1      52.384  25.317  27.331  1.00  0.00    -0.200 F 
ATOM     82  F   UNL A   1      53.089  25.887  24.757  1.00  0.00    -0.200 F 
ENDBRANCH  48  72
BRANCH  60  83
ATOM     83  C   UNL A   1      46.202  32.336  28.709  1.00  0.00     0.064 A 
ATOM     84  C   UNL A   1      46.741  32.638  29.968  1.00  0.00     0.173 A 
ATOM     85  C   UNL A   1      46.199  33.347  27.736  1.00  0.00     0.173 A 
ATOM     86  F   UNL A   1      46.756  31.709  30.937  1.00  0.00    -0.203 F 
ATOM     87  C   UNL A   1      47.224  33.911  30.253  1.00  0.00     0.198 A 
ATOM     88  C   UNL A   1      46.717  34.609  28.013  1.00  0.00     0.198 A 
ATOM     89  F   UNL A   1      45.703  33.109  26.513  1.00  0.00    -0.203 F 
ATOM     90  F   UNL A   1      47.678  34.194  31.483  1.00  0.00    -0.200 F 
ATOM     91  C   UNL A   1      47.219  34.893  29.274  1.00  0.00     0.200 A 
ATOM     92  F   UNL A   1      46.727  35.551  27.060  1.00  0.00    -0.200 F 
ATOM     93  F   UNL A   1      47.690  36.118  29.548  1.00  0.00    -0.200 F 
ENDBRANCH  60  83
ENDBRANCH  34  35
ENDBRANCH  26  29
ENDBRANCH  24  25
ENDBRANCH  23  24
ENDBRANCH   1  23
TORSDOF 15
ENDMDL
MODEL 3
REMARK VINA RESULT:     -11.2      6.013     11.206
REMARK SMILES CCC[NH2+][C@@]1(C(=O)NCCCNC(=O)c2ccc(-c3c4nc(c(-c5c(F)c(F)c(F)c(F)c5F)c5ccc([nH]5)c(-c5c(F)c(F)c(F)c(F)c5F)c5nc(c(-c6c(F)c(F)c(F)c(F)c6F)c6ccc3[nH]6)C=C5)C=C4)cc2)CC[C@@H](SC2CCCC2)C1
REMARK SMILES IDX 9 1 8 2 6 3 7 4 5 6 78 7 87 8 79 9 80 10 4 11 3 14 2 15 1 16
REMARK SMILES IDX 81 17 82 18 83 19 86 20 84 21 85 22 10 23 11 24 12 25 13 26
REMARK SMILES IDX 14 28 15 29 16 30 77 31 17 32 76 33 18 34 19 35 20 36 70 37
REMARK SMILES IDX 21 38 75 39 69 40 71 41 22 42 74 43 68 44 67 45 23 47 55 48
REMARK SMILES IDX 35 49 54 50 36 51 39 52 53 53 72 54 37 55 38 56 52 58 73 59
REMARK SMILES IDX 40 60 24 61 25 62 33 63 26 64 27 65 31 66 34 67 28 68 29 69
REMARK SMILES IDX 32 70 30 71 56 72 57 73 65 74 58 75 59 76 63 77 66 78 60 79
REMARK SMILES IDX 61 80 64 81 62 82 41 83 42 84 50 85 43 86 44 87 48 88 51 89
REMARK SMILES IDX 45 90 46 91 49 92 47 93
REMARK H PARENT 8 5 4 12 4 13 12 27 71 46 39 57
REMARK Flexibility Score: inf
ROOT
ATOM      1  C   UNL A   1      36.765  20.572  25.085  1.00  0.00     0.118 C 
ENDROOT
BRANCH   1   2
ATOM      2  N   UNL A   1      35.539  19.841  24.988  1.00  0.00    -0.351 N 
ATOM      3  C   UNL A   1      34.250  20.262  25.037  1.00  0.00     0.281 C 
ATOM      4  O   UNL A   1      33.435  19.331  25.103  1.00  0.00    -0.268 OA
ATOM      5  H   UNL A   1      35.649  18.871  24.864  1.00  0.00     0.163 HD
BRANCH   3   6
ATOM      6  C   UNL A   1      33.806  21.797  25.054  1.00  0.00     0.176 C 
ATOM      7  C   UNL A   1      34.346  22.691  26.195  1.00  0.00     0.080 C 
ATOM      8  C   UNL A   1      32.266  21.903  25.161  1.00  0.00     0.093 C 
ATOM      9  C   UNL A   1      33.225  22.953  27.204  1.00  0.00     0.022 C 
ATOM     10  C   UNL A   1      31.935  22.510  26.532  1.00  0.00     0.054 C 
BRANCH   6  11
ATOM     11  N   UNL A   1      34.226  22.376  23.739  1.00  0.00    -0.334 N 
ATOM     12  H   UNL A   1      34.886  23.132  23.919  1.00  0.00     0.347 HD
ATOM     13  H   UNL A   1      34.633  21.610  23.202  1.00  0.00     0.347 HD
BRANCH  11  14
ATOM     14  C   UNL A   1      33.123  22.912  22.931  1.00  0.00     0.261 C 
BRANCH  14  15
ATOM     15  C   UNL A   1      33.395  24.352  22.490  1.00  0.00     0.058 C 
ATOM     16  C   UNL A   1      33.923  25.237  23.607  1.00  0.00     0.010 C 
ENDBRANCH  14  15
ENDBRANCH  11  14
ENDBRANCH   6  11
BRANCH  10  17
ATOM     17  S   UNL A   1      30.521  23.673  26.611  1.00  0.00    -0.155 SA
BRANCH  17  18
ATOM     18  C   UNL A   1      30.962  25.176  25.664  1.00  0.00     0.047 C 
ATOM     19  C   UNL A   1      29.889  25.929  24.894  1.00  0.00     0.014 C 
ATOM     20  C   UNL A   1      31.690  26.277  26.424  1.00  0.00     0.014 C 
ATOM     21  C   UNL A   1      30.623  27.160  24.393  1.00  0.00     0.001 C 
ATOM     22  C   UNL A   1      31.571  27.520  25.534  1.00  0.00     0.001 C 
ENDBRANCH  17  18
ENDBRANCH  10  17
ENDBRANCH   3   6
ENDBRANCH   1   2
BRANCH   1  23
ATOM     23  C   UNL A   1      37.984  19.692  24.915  1.00  0.00     0.042 C 
BRANCH  23  24
ATOM     24  C   UNL A   1      39.143  20.195  25.748  1.00  0.00     0.118 C 
BRANCH  24  25
ATOM     25  N   UNL A   1      40.155  19.157  25.944  1.00  0.00    -0.352 N 
ATOM     26  C   UNL A   1      41.515  19.259  26.084  1.00  0.00     0.251 C 
ATOM     27  H   UNL A   1      39.803  18.239  25.980  1.00  0.00     0.163 HD
ATOM     28  O   UNL A   1      42.218  18.263  25.972  1.00  0.00    -0.269 OA
BRANCH  26  29
ATOM     29  C   UNL A   1      42.120  20.574  26.361  1.00  0.00     0.039 A 
ATOM     30  C   UNL A   1      42.526  21.377  25.294  1.00  0.00     0.014 A 
ATOM     31  C   UNL A   1      42.278  21.013  27.676  1.00  0.00     0.014 A 
ATOM     32  C   UNL A   1      43.030  22.650  25.554  1.00  0.00     0.010 A 
ATOM     33  C   UNL A   1      42.639  22.325  27.923  1.00  0.00     0.010 A 
ATOM     34  C   UNL A   1      43.047  23.147  26.868  1.00  0.00    -0.014 A 
BRANCH  34  35
ATOM     35  C   UNL A   1      43.509  24.522  27.165  1.00  0.00     0.031 A 
ATOM     36  C   UNL A   1      42.539  25.543  27.691  1.00  0.00     0.074 A 
ATOM     37  C   UNL A   1      44.779  24.863  26.884  1.00  0.00     0.049 A 
ATOM     38  N   UNL A   1      42.738  26.804  27.972  1.00  0.00    -0.248 NA
ATOM     39  C   UNL A   1      41.148  25.100  27.884  1.00  0.00     0.031 C 
ATOM     40  C   UNL A   1      45.780  23.979  26.284  1.00  0.00     0.029 A 
ATOM     41  N   UNL A   1      45.443  26.049  27.057  1.00  0.00    -0.354 N 
ATOM     42  C   UNL A   1      41.499  27.305  28.349  1.00  0.00     0.074 A 
ATOM     43  C   UNL A   1      40.540  26.236  28.187  1.00  0.00     0.031 C 
ATOM     44  C   UNL A   1      46.941  24.641  26.173  1.00  0.00     0.029 A 
ATOM     45  C   UNL A   1      46.754  26.006  26.653  1.00  0.00     0.049 A 
ATOM     46  H   UNL A   1      45.021  26.855  27.435  1.00  0.00     0.167 HD
ATOM     47  C   UNL A   1      41.195  28.537  28.819  1.00  0.00     0.037 A 
ATOM     48  C   UNL A   1      47.699  26.964  26.667  1.00  0.00     0.037 A 
ATOM     49  C   UNL A   1      42.167  29.582  29.000  1.00  0.00     0.049 A 
ATOM     50  C   UNL A   1      47.350  28.316  27.224  1.00  0.00     0.074 A 
ATOM     51  C   UNL A   1      41.994  30.835  29.557  1.00  0.00     0.029 A 
ATOM     52  N   UNL A   1      43.498  29.495  28.613  1.00  0.00    -0.354 N 
ATOM     53  N   UNL A   1      46.201  28.750  27.683  1.00  0.00    -0.248 NA
ATOM     54  C   UNL A   1      48.432  29.305  27.278  1.00  0.00     0.031 C 
ATOM     55  C   UNL A   1      43.203  31.531  29.446  1.00  0.00     0.029 A 
ATOM     56  C   UNL A   1      44.149  30.688  28.882  1.00  0.00     0.049 A 
ATOM     57  H   UNL A   1      43.917  28.702  28.207  1.00  0.00     0.167 HD
ATOM     58  C   UNL A   1      46.420  30.058  28.090  1.00  0.00     0.074 A 
ATOM     59  C   UNL A   1      47.822  30.335  27.849  1.00  0.00     0.031 C 
ATOM     60  C   UNL A   1      45.543  30.949  28.615  1.00  0.00     0.037 A 
BRANCH  47  61
ATOM     61  C   UNL A   1      39.756  28.813  29.154  1.00  0.00     0.064 A 
ATOM     62  C   UNL A   1      38.854  29.324  28.204  1.00  0.00     0.173 A 
ATOM     63  C   UNL A   1      39.269  28.572  30.448  1.00  0.00     0.173 A 
ATOM     64  F   UNL A   1      39.266  29.585  26.954  1.00  0.00    -0.203 F 
ATOM     65  C   UNL A   1      37.541  29.632  28.551  1.00  0.00     0.198 A 
ATOM     66  C   UNL A   1      37.945  28.844  30.781  1.00  0.00     0.198 A 
ATOM     67  F   UNL A   1      40.082  28.081  31.395  1.00  0.00    -0.203 F 
ATOM     68  F   UNL A   1      36.724  30.191  27.648  1.00  0.00    -0.200 F 
ATOM     69  C   UNL A   1      37.086  29.386  29.837  1.00  0.00     0.200 A 
ATOM     70  F   UNL A   1      37.502  28.593  32.021  1.00  0.00    -0.200 F 
ATOM     71  F   UNL A   1      35.823  29.685  30.171  1.00  0.00    -0.200 F 
ENDBRANCH  47  61
BRANCH  48  72
ATOM     72  C   UNL A   1      49.060  26.651  26.164  1.00  0.00     0.064 A 
ATOM     73  C   UNL A   1      49.435  26.961  24.850  1.00  0.00     0.173 A 
ATOM     74  C   UNL A   1      50.031  26.083  27.003  1.00  0.00     0.173 A 
ATOM     75  F   UNL A   1      48.538  27.493  24.006  1.00  0.00    -0.203 F 
ATOM     76  C   UNL A   1      50.726  26.708  24.391  1.00  0.00     0.198 A 
ATOM     77  C   UNL A   1      51.329  25.856  26.552  1.00  0.00     0.198 A 
ATOM     78  F   UNL A   1      49.725  25.778  28.272  1.00  0.00    -0.203 F 
ATOM     79  F   UNL A   1      51.050  26.989  23.122  1.00  0.00    -0.200 F 
ATOM     80  C   UNL A   1      51.674  26.165  25.245  1.00  0.00     0.200 A 
ATOM     81  F   UNL A   1      52.247  25.351  27.386  1.00  0.00    -0.200 F 
ATOM     82  F   UNL A   1      52.921  25.940  24.808  1.00  0.00    -0.200 F 
ENDBRANCH  48  72
BRANCH  60  83
ATOM     83  C   UNL A   1      46.080  32.307  28.967  1.00  0.00     0.064 A 
ATOM     84  C   UNL A   1      46.637  32.575  30.226  1.00  0.00     0.173 A 
ATOM     85  C   UNL A   1      46.063  33.344  28.022  1.00  0.00     0.173 A 
ATOM     86  F   UNL A   1      46.665  31.620  31.169  1.00  0.00    -0.203 F 
ATOM     87  C   UNL A   1      47.125  33.840  30.538  1.00  0.00     0.198 A 
ATOM     88  C   UNL A   1      46.586  34.598  28.325  1.00  0.00     0.198 A 
ATOM     89  F   UNL A   1      45.549  33.140  26.800  1.00  0.00    -0.203 F 
ATOM     90  F   UNL A   1      47.598  34.090  31.768  1.00  0.00    -0.200 F 
ATOM     91  C   UNL A   1      47.106  34.848  29.586  1.00  0.00     0.200 A 
ATOM     92  F   UNL A   1      46.583  35.566  27.398  1.00  0.00    -0.200 F 
ATOM     93  F   UNL A   1      47.582  36.065  29.886  1.00  0.00    -0.200 F 
ENDBRANCH  60  83
ENDBRANCH  34  35
ENDBRANCH  26  29
ENDBRANCH  24  25
ENDBRANCH  23  24
ENDBRANCH   1  23
TORSDOF 15
ENDMDL
