MODEL 1
REMARK VINA RESULT:     -10.7      0.000      0.000
REMARK SMILES C[C@H]1C[C@H]1C(=O)Nc1cc(C(F)(F)F)ccc1C(=O)NCCCNC(=O)c1ccc(-c2c3nc(c(-c4c(F)c(F)c(F)c(F)c4F)c4ccc([nH]4)c(-c4c(F)c(F)c(F)c(F)c4F)c4nc(c(-c5c(F)c(F)c(F)c(F)c5F)c5ccc2[nH]5)C=C4)C=C3)cc1
REMARK SMILES IDX 22 1 21 2 20 3 18 4 19 5 17 7 8 8 9 9 10 10 16 11 15 12 7 13
REMARK SMILES IDX 5 14 6 15 4 17 1 18 2 19 3 20 11 21 12 22 13 23 14 24 23 25
REMARK SMILES IDX 24 26 25 27 26 29 27 30 28 31 89 32 29 33 88 34 30 35 31 36
REMARK SMILES IDX 32 37 82 38 33 39 87 40 81 41 83 42 34 43 86 44 80 45 79 46
REMARK SMILES IDX 35 48 67 49 47 50 66 51 48 52 51 53 65 54 84 55 49 56 50 57
REMARK SMILES IDX 64 59 85 60 52 61 36 62 37 63 45 64 38 65 39 66 43 67 46 68
REMARK SMILES IDX 40 69 41 70 44 71 42 72 68 73 69 74 77 75 70 76 71 77 75 78
REMARK SMILES IDX 78 79 72 80 73 81 76 82 74 83 53 84 54 85 62 86 55 87 56 88
REMARK SMILES IDX 60 89 63 90 57 91 58 92 61 93 59 94
REMARK H PARENT 20 6 7 16 24 28 83 47 51 58
REMARK Flexibility Score: inf
ROOT
ATOM      1  C   UNL A   1      41.095  20.197  26.413  1.00  0.00     0.042 C 
ENDROOT
BRANCH   1   2
ATOM      2  C   UNL A   1      42.585  20.472  26.327  1.00  0.00     0.118 C 
BRANCH   2   3
ATOM      3  N   UNL A   1      42.898  21.513  25.365  1.00  0.00    -0.352 N 
ATOM      4  C   UNL A   1      43.398  22.774  25.515  1.00  0.00     0.253 C 
ATOM      5  O   UNL A   1      43.423  23.486  24.512  1.00  0.00    -0.269 OA
ATOM      6  H   UNL A   1      42.714  21.264  24.430  1.00  0.00     0.163 HD
BRANCH   4   7
ATOM      7  C   UNL A   1      43.805  23.341  26.826  1.00  0.00     0.063 A 
ATOM      8  C   UNL A   1      45.074  23.786  27.205  1.00  0.00     0.054 A 
ATOM      9  C   UNL A   1      45.314  24.053  28.571  1.00  0.00     0.040 A 
ATOM     10  C   UNL A   1      44.290  24.060  29.527  1.00  0.00     0.058 A 
ATOM     11  C   UNL A   1      42.766  23.373  27.784  1.00  0.00     0.016 A 
ATOM     12  C   UNL A   1      42.998  23.747  29.110  1.00  0.00     0.014 A 
BRANCH   8  13
ATOM     13  N   UNL A   1      46.198  24.028  26.412  1.00  0.00    -0.325 N 
ATOM     14  C   UNL A   1      46.768  25.108  25.810  1.00  0.00     0.227 C 
ATOM     15  O   UNL A   1      47.726  24.864  25.071  1.00  0.00    -0.274 OA
ATOM     16  H   UNL A   1      46.711  23.204  26.245  1.00  0.00     0.169 HD
BRANCH  14  17
ATOM     17  C   UNL A   1      46.395  26.528  25.971  1.00  0.00     0.082 C 
ATOM     18  C   UNL A   1      46.851  28.090  23.816  1.00  0.00     0.008 C 
ATOM     19  C   UNL A   1      46.248  27.775  25.131  1.00  0.00    -0.001 C 
ATOM     20  C   UNL A   1      45.099  26.835  25.202  1.00  0.00     0.018 C 
ENDBRANCH  14  17
ENDBRANCH   8  13
BRANCH  10  21
ATOM     21  C   UNL A   1      44.597  24.385  30.968  1.00  0.00     0.416 C 
ATOM     22  F   UNL A   1      43.803  25.379  31.449  1.00  0.00    -0.166 F 
ATOM     23  F   UNL A   1      44.411  23.322  31.802  1.00  0.00    -0.166 F 
ATOM     24  F   UNL A   1      45.879  24.793  31.163  1.00  0.00    -0.166 F 
ENDBRANCH  10  21
ENDBRANCH   4   7
ENDBRANCH   2   3
ENDBRANCH   1   2
BRANCH   1  25
ATOM     25  C   UNL A   1      40.309  21.320  27.078  1.00  0.00     0.118 C 
BRANCH  25  26
ATOM     26  N   UNL A   1      39.139  21.758  26.324  1.00  0.00    -0.352 N 
ATOM     27  C   UNL A   1      38.613  23.022  26.151  1.00  0.00     0.251 C 
ATOM     28  H   UNL A   1      38.647  21.038  25.867  1.00  0.00     0.163 HD
ATOM     29  O   UNL A   1      37.566  23.184  25.547  1.00  0.00    -0.269 OA
BRANCH  27  30
ATOM     30  C   UNL A   1      39.303  24.180  26.755  1.00  0.00     0.039 A 
ATOM     31  C   UNL A   1      40.065  25.018  25.940  1.00  0.00     0.014 A 
ATOM     32  C   UNL A   1      39.137  24.476  28.106  1.00  0.00     0.014 A 
ATOM     33  C   UNL A   1      40.563  26.216  26.460  1.00  0.00     0.010 A 
ATOM     34  C   UNL A   1      39.507  25.725  28.580  1.00  0.00     0.010 A 
ATOM     35  C   UNL A   1      40.232  26.610  27.766  1.00  0.00    -0.014 A 
BRANCH  35  36
ATOM     36  C   UNL A   1      40.648  27.922  28.327  1.00  0.00     0.031 A 
ATOM     37  C   UNL A   1      42.102  28.168  28.631  1.00  0.00     0.074 A 
ATOM     38  C   UNL A   1      39.724  28.850  28.649  1.00  0.00     0.049 A 
ATOM     39  N   UNL A   1      42.662  29.164  29.270  1.00  0.00    -0.248 NA
ATOM     40  C   UNL A   1      43.051  27.125  28.205  1.00  0.00     0.031 C 
ATOM     41  C   UNL A   1      38.277  28.712  28.465  1.00  0.00     0.029 A 
ATOM     42  N   UNL A   1      39.866  30.095  29.209  1.00  0.00    -0.354 N 
ATOM     43  C   UNL A   1      44.011  28.843  29.356  1.00  0.00     0.074 A 
ATOM     44  C   UNL A   1      44.176  27.532  28.772  1.00  0.00     0.031 C 
ATOM     45  C   UNL A   1      37.671  29.843  28.864  1.00  0.00     0.029 A 
ATOM     46  C   UNL A   1      38.678  30.767  29.372  1.00  0.00     0.049 A 
ATOM     47  H   UNL A   1      40.737  30.472  29.470  1.00  0.00     0.167 HD
ATOM     48  C   UNL A   1      45.031  29.590  29.842  1.00  0.00     0.037 A 
ATOM     49  C   UNL A   1      38.436  31.994  29.874  1.00  0.00     0.037 A 
ATOM     50  C   UNL A   1      44.874  30.922  30.356  1.00  0.00     0.049 A 
ATOM     51  C   UNL A   1      39.593  32.823  30.362  1.00  0.00     0.074 A 
ATOM     52  C   UNL A   1      45.845  31.788  30.826  1.00  0.00     0.029 A 
ATOM     53  N   UNL A   1      43.663  31.592  30.441  1.00  0.00    -0.354 N 
ATOM     54  N   UNL A   1      40.869  32.525  30.400  1.00  0.00    -0.248 NA
ATOM     55  C   UNL A   1      39.277  34.166  30.871  1.00  0.00     0.031 C 
ATOM     56  C   UNL A   1      45.219  32.978  31.210  1.00  0.00     0.029 A 
ATOM     57  C   UNL A   1      43.863  32.865  30.947  1.00  0.00     0.049 A 
ATOM     58  H   UNL A   1      42.790  31.218  30.180  1.00  0.00     0.167 HD
ATOM     59  C   UNL A   1      41.509  33.650  30.899  1.00  0.00     0.074 A 
ATOM     60  C   UNL A   1      40.483  34.643  31.138  1.00  0.00     0.031 C 
ATOM     61  C   UNL A   1      42.828  33.845  31.142  1.00  0.00     0.037 A 
BRANCH  48  62
ATOM     62  C   UNL A   1      46.406  28.991  29.804  1.00  0.00     0.064 A 
ATOM     63  C   UNL A   1      47.251  29.172  28.697  1.00  0.00     0.173 A 
ATOM     64  C   UNL A   1      46.893  28.243  30.885  1.00  0.00     0.173 A 
ATOM     65  F   UNL A   1      46.827  29.865  27.630  1.00  0.00    -0.203 F 
ATOM     66  C   UNL A   1      48.518  28.599  28.661  1.00  0.00     0.198 A 
ATOM     67  C   UNL A   1      48.175  27.699  30.859  1.00  0.00     0.198 A 
ATOM     68  F   UNL A   1      46.129  28.043  31.969  1.00  0.00    -0.203 F 
ATOM     69  F   UNL A   1      49.283  28.737  27.569  1.00  0.00    -0.200 F 
ATOM     70  C   UNL A   1      48.982  27.869  29.744  1.00  0.00     0.200 A 
ATOM     71  F   UNL A   1      48.627  27.002  31.912  1.00  0.00    -0.200 F 
ATOM     72  F   UNL A   1      50.205  27.321  29.710  1.00  0.00    -0.200 F 
ENDBRANCH  48  62
BRANCH  49  73
ATOM     73  C   UNL A   1      37.052  32.537  29.900  1.00  0.00     0.064 A 
ATOM     74  C   UNL A   1      36.549  33.262  28.809  1.00  0.00     0.173 A 
ATOM     75  C   UNL A   1      36.216  32.375  31.014  1.00  0.00     0.173 A 
ATOM     76  F   UNL A   1      37.318  33.461  27.728  1.00  0.00    -0.203 F 
ATOM     77  C   UNL A   1      35.278  33.830  28.843  1.00  0.00     0.198 A 
ATOM     78  C   UNL A   1      34.932  32.920  31.036  1.00  0.00     0.198 A 
ATOM     79  F   UNL A   1      36.644  31.685  32.081  1.00  0.00    -0.203 F 
ATOM     80  F   UNL A   1      34.847  34.564  27.809  1.00  0.00    -0.200 F 
ATOM     81  C   UNL A   1      34.469  33.656  29.955  1.00  0.00     0.200 A 
ATOM     82  F   UNL A   1      34.148  32.739  32.107  1.00  0.00    -0.200 F 
ATOM     83  F   UNL A   1      33.248  34.207  29.991  1.00  0.00    -0.200 F 
ENDBRANCH  49  73
BRANCH  61  84
ATOM     84  C   UNL A   1      43.243  35.199  31.634  1.00  0.00     0.064 A 
ATOM     85  C   UNL A   1      43.675  36.201  30.754  1.00  0.00     0.173 A 
ATOM     86  C   UNL A   1      43.161  35.508  33.000  1.00  0.00     0.173 A 
ATOM     87  F   UNL A   1      43.784  35.946  29.441  1.00  0.00    -0.203 F 
ATOM     88  C   UNL A   1      44.033  37.460  31.228  1.00  0.00     0.198 A 
ATOM     89  C   UNL A   1      43.493  36.776  33.466  1.00  0.00     0.198 A 
ATOM     90  F   UNL A   1      42.746  34.583  33.879  1.00  0.00    -0.203 F 
ATOM     91  F   UNL A   1      44.484  38.391  30.376  1.00  0.00    -0.200 F 
ATOM     92  C   UNL A   1      43.934  37.749  32.582  1.00  0.00     0.200 A 
ATOM     93  F   UNL A   1      43.386  37.057  34.772  1.00  0.00    -0.200 F 
ATOM     94  F   UNL A   1      44.272  38.964  33.034  1.00  0.00    -0.200 F 
ENDBRANCH  61  84
ENDBRANCH  35  36
ENDBRANCH  27  30
ENDBRANCH  25  26
ENDBRANCH   1  25
TORSDOF 13
ENDMDL
MODEL 2
REMARK VINA RESULT:     -10.4      5.895     11.475
REMARK SMILES C[C@H]1C[C@H]1C(=O)Nc1cc(C(F)(F)F)ccc1C(=O)NCCCNC(=O)c1ccc(-c2c3nc(c(-c4c(F)c(F)c(F)c(F)c4F)c4ccc([nH]4)c(-c4c(F)c(F)c(F)c(F)c4F)c4nc(c(-c5c(F)c(F)c(F)c(F)c5F)c5ccc2[nH]5)C=C4)C=C3)cc1
REMARK SMILES IDX 22 1 21 2 20 3 18 4 19 5 17 7 8 8 9 9 10 10 16 11 15 12 7 13
REMARK SMILES IDX 5 14 6 15 4 17 1 18 2 19 3 20 11 21 12 22 13 23 14 24 23 25
REMARK SMILES IDX 24 26 25 27 26 29 27 30 28 31 89 32 29 33 88 34 30 35 31 36
REMARK SMILES IDX 32 37 82 38 33 39 87 40 81 41 83 42 34 43 86 44 80 45 79 46
REMARK SMILES IDX 35 48 67 49 47 50 66 51 48 52 51 53 65 54 84 55 49 56 50 57
REMARK SMILES IDX 64 59 85 60 52 61 36 62 37 63 45 64 38 65 39 66 43 67 46 68
REMARK SMILES IDX 40 69 41 70 44 71 42 72 68 73 69 74 77 75 70 76 71 77 75 78
REMARK SMILES IDX 78 79 72 80 73 81 76 82 74 83 53 84 54 85 62 86 55 87 56 88
REMARK SMILES IDX 60 89 63 90 57 91 58 92 61 93 59 94
REMARK H PARENT 20 6 7 16 24 28 83 47 51 58
REMARK Flexibility Score: inf
ROOT
ATOM      1  C   UNL A   1      31.488  32.042  26.816  1.00  0.00     0.042 C 
ENDROOT
BRANCH   1   2
ATOM      2  C   UNL A   1      31.798  30.580  26.552  1.00  0.00     0.118 C 
BRANCH   2   3
ATOM      3  N   UNL A   1      32.615  30.395  25.367  1.00  0.00    -0.352 N 
ATOM      4  C   UNL A   1      32.852  29.304  24.583  1.00  0.00     0.253 C 
ATOM      5  O   UNL A   1      33.717  29.420  23.714  1.00  0.00    -0.269 OA
ATOM      6  H   UNL A   1      33.088  31.209  25.075  1.00  0.00     0.163 HD
BRANCH   4   7
ATOM      7  C   UNL A   1      32.201  27.987  24.796  1.00  0.00     0.063 A 
ATOM      8  C   UNL A   1      31.049  27.495  24.177  1.00  0.00     0.054 A 
ATOM      9  C   UNL A   1      30.450  26.328  24.700  1.00  0.00     0.040 A 
ATOM     10  C   UNL A   1      31.059  25.551  25.694  1.00  0.00     0.058 A 
ATOM     11  C   UNL A   1      32.830  27.191  25.781  1.00  0.00     0.016 A 
ATOM     12  C   UNL A   1      32.279  25.980  26.210  1.00  0.00     0.014 A 
BRANCH   8  13
ATOM     13  N   UNL A   1      30.364  27.991  23.066  1.00  0.00    -0.325 N 
ATOM     14  C   UNL A   1      29.579  29.069  22.791  1.00  0.00     0.227 C 
ATOM     15  O   UNL A   1      29.049  29.074  21.676  1.00  0.00    -0.274 OA
ATOM     16  H   UNL A   1      30.476  27.411  22.278  1.00  0.00     0.169 HD
BRANCH  14  17
ATOM     17  C   UNL A   1      29.324  30.241  23.655  1.00  0.00     0.082 C 
ATOM     18  C   UNL A   1      28.841  32.553  22.347  1.00  0.00     0.008 C 
ATOM     19  C   UNL A   1      28.848  31.669  23.535  1.00  0.00    -0.001 C 
ATOM     20  C   UNL A   1      27.828  30.595  23.653  1.00  0.00     0.018 C 
ENDBRANCH  14  17
ENDBRANCH   8  13
BRANCH  10  21
ATOM     21  C   UNL A   1      30.389  24.294  26.194  1.00  0.00     0.416 C 
ATOM     22  F   UNL A   1      30.241  23.367  25.209  1.00  0.00    -0.166 F 
ATOM     23  F   UNL A   1      31.093  23.677  27.185  1.00  0.00    -0.166 F 
ATOM     24  F   UNL A   1      29.147  24.515  26.700  1.00  0.00    -0.166 F 
ENDBRANCH  10  21
ENDBRANCH   4   7
ENDBRANCH   2   3
ENDBRANCH   1   2
BRANCH   1  25
ATOM     25  C   UNL A   1      32.702  32.848  27.262  1.00  0.00     0.118 C 
BRANCH  25  26
ATOM     26  N   UNL A   1      32.398  34.222  27.647  1.00  0.00    -0.352 N 
ATOM     27  C   UNL A   1      32.984  35.030  28.600  1.00  0.00     0.251 C 
ATOM     28  H   UNL A   1      31.658  34.638  27.149  1.00  0.00     0.163 HD
ATOM     29  O   UNL A   1      32.534  36.138  28.841  1.00  0.00    -0.269 OA
BRANCH  27  30
ATOM     30  C   UNL A   1      34.136  34.519  29.370  1.00  0.00     0.039 A 
ATOM     31  C   UNL A   1      33.908  33.862  30.581  1.00  0.00     0.014 A 
ATOM     32  C   UNL A   1      35.429  34.624  28.862  1.00  0.00     0.014 A 
ATOM     33  C   UNL A   1      34.965  33.211  31.220  1.00  0.00     0.010 A 
ATOM     34  C   UNL A   1      36.444  33.861  29.419  1.00  0.00     0.010 A 
ATOM     35  C   UNL A   1      36.229  33.150  30.610  1.00  0.00    -0.014 A 
BRANCH  35  36
ATOM     36  C   UNL A   1      37.355  32.380  31.199  1.00  0.00     0.031 A 
ATOM     37  C   UNL A   1      37.841  32.722  32.582  1.00  0.00     0.074 A 
ATOM     38  C   UNL A   1      37.999  31.447  30.468  1.00  0.00     0.049 A 
ATOM     39  N   UNL A   1      38.903  32.299  33.220  1.00  0.00    -0.248 NA
ATOM     40  C   UNL A   1      37.055  33.717  33.331  1.00  0.00     0.031 C 
ATOM     41  C   UNL A   1      37.670  31.064  29.092  1.00  0.00     0.029 A 
ATOM     42  N   UNL A   1      39.076  30.654  30.780  1.00  0.00    -0.354 N 
ATOM     43  C   UNL A   1      38.929  33.005  34.416  1.00  0.00     0.074 A 
ATOM     44  C   UNL A   1      37.824  33.935  34.386  1.00  0.00     0.031 C 
ATOM     45  C   UNL A   1      38.498  30.083  28.696  1.00  0.00     0.029 A 
ATOM     46  C   UNL A   1      39.443  29.797  29.770  1.00  0.00     0.049 A 
ATOM     47  H   UNL A   1      39.541  30.695  31.646  1.00  0.00     0.167 HD
ATOM     48  C   UNL A   1      39.774  32.867  35.464  1.00  0.00     0.037 A 
ATOM     49  C   UNL A   1      40.432  28.884  29.722  1.00  0.00     0.037 A 
ATOM     50  C   UNL A   1      40.828  31.891  35.521  1.00  0.00     0.049 A 
ATOM     51  C   UNL A   1      41.326  28.715  30.921  1.00  0.00     0.074 A 
ATOM     52  C   UNL A   1      41.710  31.629  36.554  1.00  0.00     0.029 A 
ATOM     53  N   UNL A   1      41.123  30.997  34.503  1.00  0.00    -0.354 N 
ATOM     54  N   UNL A   1      41.315  29.360  32.061  1.00  0.00    -0.248 NA
ATOM     55  C   UNL A   1      42.368  27.682  30.828  1.00  0.00     0.031 C 
ATOM     56  C   UNL A   1      42.550  30.584  36.155  1.00  0.00     0.029 A 
ATOM     57  C   UNL A   1      42.169  30.175  34.887  1.00  0.00     0.049 A 
ATOM     58  H   UNL A   1      40.659  30.953  33.636  1.00  0.00     0.167 HD
ATOM     59  C   UNL A   1      42.317  28.791  32.833  1.00  0.00     0.074 A 
ATOM     60  C   UNL A   1      42.910  27.737  32.036  1.00  0.00     0.031 C 
ATOM     61  C   UNL A   1      42.716  29.111  34.088  1.00  0.00     0.037 A 
BRANCH  48  62
ATOM     62  C   UNL A   1      39.565  33.767  36.646  1.00  0.00     0.064 A 
ATOM     63  C   UNL A   1      38.795  33.361  37.748  1.00  0.00     0.173 A 
ATOM     64  C   UNL A   1      40.148  35.042  36.689  1.00  0.00     0.173 A 
ATOM     65  F   UNL A   1      38.202  32.157  37.749  1.00  0.00    -0.203 F 
ATOM     66  C   UNL A   1      38.590  34.208  38.832  1.00  0.00     0.198 A 
ATOM     67  C   UNL A   1      39.968  35.875  37.790  1.00  0.00     0.198 A 
ATOM     68  F   UNL A   1      40.896  35.480  35.665  1.00  0.00    -0.203 F 
ATOM     69  F   UNL A   1      37.804  33.820  39.845  1.00  0.00    -0.200 F 
ATOM     70  C   UNL A   1      39.182  35.462  38.856  1.00  0.00     0.200 A 
ATOM     71  F   UNL A   1      40.549  37.083  37.817  1.00  0.00    -0.200 F 
ATOM     72  F   UNL A   1      38.987  36.276  39.903  1.00  0.00    -0.200 F 
ENDBRANCH  48  62
BRANCH  49  73
ATOM     73  C   UNL A   1      40.604  28.022  28.522  1.00  0.00     0.064 A 
ATOM     74  C   UNL A   1      41.376  28.460  27.434  1.00  0.00     0.173 A 
ATOM     75  C   UNL A   1      39.987  26.768  28.419  1.00  0.00     0.173 A 
ATOM     76  F   UNL A   1      41.970  29.662  27.478  1.00  0.00    -0.203 F 
ATOM     77  C   UNL A   1      41.496  27.692  26.279  1.00  0.00     0.198 A 
ATOM     78  C   UNL A   1      40.132  25.987  27.272  1.00  0.00     0.198 A 
ATOM     79  F   UNL A   1      39.244  26.299  29.432  1.00  0.00    -0.203 F 
ATOM     80  F   UNL A   1      42.193  28.161  25.235  1.00  0.00    -0.200 F 
ATOM     81  C   UNL A   1      40.877  26.455  26.199  1.00  0.00     0.200 A 
ATOM     82  F   UNL A   1      39.542  24.786  27.203  1.00  0.00    -0.200 F 
ATOM     83  F   UNL A   1      40.988  25.718  25.086  1.00  0.00    -0.200 F 
ENDBRANCH  49  73
BRANCH  61  84
ATOM     84  C   UNL A   1      43.801  28.276  34.698  1.00  0.00     0.064 A 
ATOM     85  C   UNL A   1      45.152  28.627  34.581  1.00  0.00     0.173 A 
ATOM     86  C   UNL A   1      43.475  27.135  35.447  1.00  0.00     0.173 A 
ATOM     87  F   UNL A   1      45.512  29.701  33.862  1.00  0.00    -0.203 F 
ATOM     88  C   UNL A   1      46.144  27.852  35.175  1.00  0.00     0.198 A 
ATOM     89  C   UNL A   1      44.467  26.378  36.063  1.00  0.00     0.198 A 
ATOM     90  F   UNL A   1      42.194  26.764  35.592  1.00  0.00    -0.203 F 
ATOM     91  F   UNL A   1      47.434  28.180  35.017  1.00  0.00    -0.200 F 
ATOM     92  C   UNL A   1      45.800  26.733  35.922  1.00  0.00     0.200 A 
ATOM     93  F   UNL A   1      44.133  25.305  36.792  1.00  0.00    -0.200 F 
ATOM     94  F   UNL A   1      46.756  25.993  36.498  1.00  0.00    -0.200 F 
ENDBRANCH  61  84
ENDBRANCH  35  36
ENDBRANCH  27  30
ENDBRANCH  25  26
ENDBRANCH   1  25
TORSDOF 13
ENDMDL
MODEL 3
REMARK VINA RESULT:     -10.4      5.866     11.469
REMARK SMILES C[C@H]1C[C@H]1C(=O)Nc1cc(C(F)(F)F)ccc1C(=O)NCCCNC(=O)c1ccc(-c2c3nc(c(-c4c(F)c(F)c(F)c(F)c4F)c4ccc([nH]4)c(-c4c(F)c(F)c(F)c(F)c4F)c4nc(c(-c5c(F)c(F)c(F)c(F)c5F)c5ccc2[nH]5)C=C4)C=C3)cc1
REMARK SMILES IDX 22 1 21 2 20 3 18 4 19 5 17 7 8 8 9 9 10 10 16 11 15 12 7 13
REMARK SMILES IDX 5 14 6 15 4 17 1 18 2 19 3 20 11 21 12 22 13 23 14 24 23 25
REMARK SMILES IDX 24 26 25 27 26 29 27 30 28 31 89 32 29 33 88 34 30 35 31 36
REMARK SMILES IDX 32 37 82 38 33 39 87 40 81 41 83 42 34 43 86 44 80 45 79 46
REMARK SMILES IDX 35 48 67 49 47 50 66 51 48 52 51 53 65 54 84 55 49 56 50 57
REMARK SMILES IDX 64 59 85 60 52 61 36 62 37 63 45 64 38 65 39 66 43 67 46 68
REMARK SMILES IDX 40 69 41 70 44 71 42 72 68 73 69 74 77 75 70 76 71 77 75 78
REMARK SMILES IDX 78 79 72 80 73 81 76 82 74 83 53 84 54 85 62 86 55 87 56 88
REMARK SMILES IDX 60 89 63 90 57 91 58 92 61 93 59 94
REMARK H PARENT 20 6 7 16 24 28 83 47 51 58
REMARK Flexibility Score: inf
ROOT
ATOM      1  C   UNL A   1      31.465  32.075  26.714  1.00  0.00     0.042 C 
ENDROOT
BRANCH   1   2
ATOM      2  C   UNL A   1      31.751  30.606  26.462  1.00  0.00     0.118 C 
BRANCH   2   3
ATOM      3  N   UNL A   1      32.575  30.399  25.285  1.00  0.00    -0.352 N 
ATOM      4  C   UNL A   1      32.821  29.293  24.525  1.00  0.00     0.253 C 
ATOM      5  O   UNL A   1      33.689  29.394  23.659  1.00  0.00    -0.269 OA
ATOM      6  H   UNL A   1      33.046  31.209  24.978  1.00  0.00     0.163 HD
BRANCH   4   7
ATOM      7  C   UNL A   1      32.174  27.978  24.763  1.00  0.00     0.063 A 
ATOM      8  C   UNL A   1      31.007  27.482  24.177  1.00  0.00     0.054 A 
ATOM      9  C   UNL A   1      30.420  26.320  24.722  1.00  0.00     0.040 A 
ATOM     10  C   UNL A   1      31.052  25.549  25.706  1.00  0.00     0.058 A 
ATOM     11  C   UNL A   1      32.826  27.187  25.738  1.00  0.00     0.016 A 
ATOM     12  C   UNL A   1      32.286  25.980  26.188  1.00  0.00     0.014 A 
BRANCH   8  13
ATOM     13  N   UNL A   1      30.294  27.972  23.080  1.00  0.00    -0.325 N 
ATOM     14  C   UNL A   1      29.519  29.059  22.812  1.00  0.00     0.227 C 
ATOM     15  O   UNL A   1      28.954  29.055  21.715  1.00  0.00    -0.274 OA
ATOM     16  H   UNL A   1      30.372  27.378  22.299  1.00  0.00     0.169 HD
BRANCH  14  17
ATOM     17  C   UNL A   1      29.311  30.249  23.664  1.00  0.00     0.082 C 
ATOM     18  C   UNL A   1      28.865  32.555  22.333  1.00  0.00     0.008 C 
ATOM     19  C   UNL A   1      28.871  31.687  23.532  1.00  0.00    -0.001 C 
ATOM     20  C   UNL A   1      27.825  30.643  23.685  1.00  0.00     0.018 C 
ENDBRANCH  14  17
ENDBRANCH   8  13
BRANCH  10  21
ATOM     21  C   UNL A   1      30.394  24.296  26.230  1.00  0.00     0.416 C 
ATOM     22  F   UNL A   1      30.265  23.344  25.268  1.00  0.00    -0.166 F 
ATOM     23  F   UNL A   1      31.098  23.712  27.242  1.00  0.00    -0.166 F 
ATOM     24  F   UNL A   1      29.145  24.513  26.722  1.00  0.00    -0.166 F 
ENDBRANCH  10  21
ENDBRANCH   4   7
ENDBRANCH   2   3
ENDBRANCH   1   2
BRANCH   1  25
ATOM     25  C   UNL A   1      32.663  32.840  27.263  1.00  0.00     0.118 C 
BRANCH  25  26
ATOM     26  N   UNL A   1      32.368  34.215  27.651  1.00  0.00    -0.352 N 
ATOM     27  C   UNL A   1      32.966  35.022  28.597  1.00  0.00     0.251 C 
ATOM     28  H   UNL A   1      31.623  34.633  27.161  1.00  0.00     0.163 HD
ATOM     29  O   UNL A   1      32.521  36.131  28.843  1.00  0.00    -0.269 OA
BRANCH  27  30
ATOM     30  C   UNL A   1      34.125  34.507  29.356  1.00  0.00     0.039 A 
ATOM     31  C   UNL A   1      33.907  33.840  30.562  1.00  0.00     0.014 A 
ATOM     32  C   UNL A   1      35.414  34.622  28.839  1.00  0.00     0.014 A 
ATOM     33  C   UNL A   1      34.971  33.186  31.188  1.00  0.00     0.010 A 
ATOM     34  C   UNL A   1      36.435  33.857  29.383  1.00  0.00     0.010 A 
ATOM     35  C   UNL A   1      36.231  33.135  30.569  1.00  0.00    -0.014 A 
BRANCH  35  36
ATOM     36  C   UNL A   1      37.364  32.363  31.143  1.00  0.00     0.031 A 
ATOM     37  C   UNL A   1      37.859  32.696  32.526  1.00  0.00     0.074 A 
ATOM     38  C   UNL A   1      38.005  31.438  30.400  1.00  0.00     0.049 A 
ATOM     39  N   UNL A   1      38.927  32.271  33.152  1.00  0.00    -0.248 NA
ATOM     40  C   UNL A   1      37.075  33.684  33.288  1.00  0.00     0.031 C 
ATOM     41  C   UNL A   1      37.666  31.065  29.024  1.00  0.00     0.029 A 
ATOM     42  N   UNL A   1      39.085  30.645  30.698  1.00  0.00    -0.354 N 
ATOM     43  C   UNL A   1      38.960  32.969  34.353  1.00  0.00     0.074 A 
ATOM     44  C   UNL A   1      37.852  33.895  34.339  1.00  0.00     0.031 C 
ATOM     45  C   UNL A   1      38.493  30.089  28.614  1.00  0.00     0.029 A 
ATOM     46  C   UNL A   1      39.447  29.797  29.679  1.00  0.00     0.049 A 
ATOM     47  H   UNL A   1      39.557  30.681  31.561  1.00  0.00     0.167 HD
ATOM     48  C   UNL A   1      39.814  32.824  35.394  1.00  0.00     0.037 A 
ATOM     49  C   UNL A   1      40.438  28.887  29.617  1.00  0.00     0.037 A 
ATOM     50  C   UNL A   1      40.870  31.852  35.435  1.00  0.00     0.049 A 
ATOM     51  C   UNL A   1      41.342  28.711  30.807  1.00  0.00     0.074 A 
ATOM     52  C   UNL A   1      41.760  31.584  36.459  1.00  0.00     0.029 A 
ATOM     53  N   UNL A   1      41.160  30.966  34.408  1.00  0.00    -0.354 N 
ATOM     54  N   UNL A   1      41.337  29.348  31.953  1.00  0.00    -0.248 NA
ATOM     55  C   UNL A   1      42.387  27.682  30.699  1.00  0.00     0.031 C 
ATOM     56  C   UNL A   1      42.601  30.545  36.046  1.00  0.00     0.029 A 
ATOM     57  C   UNL A   1      42.211  30.144  34.779  1.00  0.00     0.049 A 
ATOM     58  H   UNL A   1      40.690  30.927  33.544  1.00  0.00     0.167 HD
ATOM     59  C   UNL A   1      42.347  28.776  32.712  1.00  0.00     0.074 A 
ATOM     60  C   UNL A   1      42.937  27.730  31.903  1.00  0.00     0.031 C 
ATOM     61  C   UNL A   1      42.754  29.088  33.967  1.00  0.00     0.037 A 
BRANCH  48  62
ATOM     62  C   UNL A   1      39.610  33.716  36.584  1.00  0.00     0.064 A 
ATOM     63  C   UNL A   1      40.206  34.985  36.657  1.00  0.00     0.173 A 
ATOM     64  C   UNL A   1      38.803  33.309  37.655  1.00  0.00     0.173 A 
ATOM     65  F   UNL A   1      41.001  35.415  35.665  1.00  0.00    -0.203 F 
ATOM     66  C   UNL A   1      40.028  35.799  37.771  1.00  0.00     0.198 A 
ATOM     67  C   UNL A   1      38.600  34.139  38.755  1.00  0.00     0.198 A 
ATOM     68  F   UNL A   1      38.207  32.107  37.636  1.00  0.00    -0.203 F 
ATOM     69  F   UNL A   1      40.654  36.981  37.843  1.00  0.00    -0.200 F 
ATOM     70  C   UNL A   1      39.220  35.378  38.816  1.00  0.00     0.200 A 
ATOM     71  F   UNL A   1      37.809  33.737  39.760  1.00  0.00    -0.200 F 
ATOM     72  F   UNL A   1      39.045  36.165  39.888  1.00  0.00    -0.200 F 
ENDBRANCH  48  62
BRANCH  49  73
ATOM     73  C   UNL A   1      40.604  28.036  28.409  1.00  0.00     0.064 A 
ATOM     74  C   UNL A   1      40.006  26.768  28.342  1.00  0.00     0.173 A 
ATOM     75  C   UNL A   1      41.380  28.447  27.316  1.00  0.00     0.173 A 
ATOM     76  F   UNL A   1      39.270  26.322  29.370  1.00  0.00    -0.203 F 
ATOM     77  C   UNL A   1      40.203  25.933  27.244  1.00  0.00     0.198 A 
ATOM     78  C   UNL A   1      41.553  27.622  26.205  1.00  0.00     0.198 A 
ATOM     79  F   UNL A   1      41.969  29.652  27.326  1.00  0.00    -0.203 F 
ATOM     80  F   UNL A   1      39.664  24.707  27.233  1.00  0.00    -0.200 F 
ATOM     81  C   UNL A   1      40.974  26.362  26.175  1.00  0.00     0.200 A 
ATOM     82  F   UNL A   1      42.290  28.045  25.168  1.00  0.00    -0.200 F 
ATOM     83  F   UNL A   1      41.168  25.558  25.121  1.00  0.00    -0.200 F 
ENDBRANCH  49  73
BRANCH  61  84
ATOM     84  C   UNL A   1      43.847  28.251  34.562  1.00  0.00     0.064 A 
ATOM     85  C   UNL A   1      45.191  28.641  34.496  1.00  0.00     0.173 A 
ATOM     86  C   UNL A   1      43.533  27.067  35.247  1.00  0.00     0.173 A 
ATOM     87  F   UNL A   1      45.539  29.757  33.839  1.00  0.00    -0.203 F 
ATOM     88  C   UNL A   1      46.188  27.862  35.076  1.00  0.00     0.198 A 
ATOM     89  C   UNL A   1      44.530  26.306  35.849  1.00  0.00     0.198 A 
ATOM     90  F   UNL A   1      42.259  26.657  35.342  1.00  0.00    -0.203 F 
ATOM     91  F   UNL A   1      47.472  28.230  34.966  1.00  0.00    -0.200 F 
ATOM     92  C   UNL A   1      45.856  26.700  35.759  1.00  0.00     0.200 A 
ATOM     93  F   UNL A   1      44.207  25.190  36.517  1.00  0.00    -0.200 F 
ATOM     94  F   UNL A   1      46.818  25.957  36.322  1.00  0.00    -0.200 F 
ENDBRANCH  61  84
ENDBRANCH  35  36
ENDBRANCH  27  30
ENDBRANCH  25  26
ENDBRANCH   1  25
TORSDOF 13
ENDMDL
