MODEL 1
REMARK VINA RESULT:     -10.4      0.000      0.000
REMARK SMILES CNC(=O)c1cccc(-c2cnc(O)c(C(=O)NCCCNC(=O)c3ccc(-c4c5nc(c(-c6c(F)c(F)c(F)c(F)c6F)c6ccc([nH]6)c(-c6c(F)c(F)c(F)c(F)c6F)c6nc(c(-c7c(F)c(F)c(F)c(F)c7F)c7ccc4[nH]7)C=C6)C=C5)cc3)c2)c1
REMARK SMILES IDX 20 1 19 2 18 3 16 4 17 5 15 7 10 8 11 9 88 10 12 11 13 12
REMARK SMILES IDX 9 13 5 14 6 15 89 16 7 17 8 18 3 19 1 20 2 21 4 23 14 24
REMARK SMILES IDX 21 26 22 27 23 28 24 30 25 31 26 32 87 33 27 34 86 35 28 36
REMARK SMILES IDX 29 37 30 38 80 39 31 40 85 41 79 42 81 43 32 44 84 45 78 46
REMARK SMILES IDX 77 47 33 49 65 50 45 51 64 52 46 53 49 54 63 55 82 56 47 57
REMARK SMILES IDX 48 58 62 60 83 61 50 62 34 63 35 64 43 65 36 66 37 67 41 68
REMARK SMILES IDX 44 69 38 70 39 71 42 72 40 73 66 74 67 75 75 76 68 77 69 78
REMARK SMILES IDX 73 79 76 80 70 81 71 82 74 83 72 84 51 85 52 86 60 87 53 88
REMARK SMILES IDX 54 89 58 90 61 91 55 92 56 93 59 94 57 95
REMARK H PARENT 18 6 2 22 14 25 22 29 81 48 49 59
REMARK Flexibility Score: inf
ROOT
ATOM      1  C   UNL A   1      34.082  33.474  29.047  1.00  0.00     0.042 C 
ENDROOT
BRANCH   1   2
ATOM      2  C   UNL A   1      34.915  32.916  30.200  1.00  0.00     0.118 C 
BRANCH   2   3
ATOM      3  N   UNL A   1      34.233  33.079  31.476  1.00  0.00    -0.352 N 
ATOM      4  C   UNL A   1      34.673  33.058  32.775  1.00  0.00     0.256 C 
ATOM      5  O   UNL A   1      33.860  33.334  33.661  1.00  0.00    -0.269 OA
ATOM      6  H   UNL A   1      33.266  33.234  31.388  1.00  0.00     0.163 HD
BRANCH   4   7
ATOM      7  C   UNL A   1      36.071  32.787  33.180  1.00  0.00     0.102 A 
ATOM      8  C   UNL A   1      38.009  31.337  33.446  1.00  0.00     0.001 A 
ATOM      9  C   UNL A   1      38.728  32.466  33.818  1.00  0.00     0.124 A 
ATOM     10  C   UNL A   1      36.644  31.517  33.187  1.00  0.00     0.029 A 
ATOM     11  N   UNL A   1      38.195  33.705  33.908  1.00  0.00    -0.221 NA
ATOM     12  C   UNL A   1      36.890  33.845  33.582  1.00  0.00     0.223 A 
BRANCH   8  13
ATOM     13  C   UNL A   1      38.631  30.032  33.221  1.00  0.00    -0.016 A 
ATOM     14  C   UNL A   1      40.636  28.639  33.312  1.00  0.00     0.040 A 
ATOM     15  C   UNL A   1      39.927  27.586  32.727  1.00  0.00     0.014 A 
ATOM     16  C   UNL A   1      39.994  29.859  33.533  1.00  0.00     0.022 A 
ATOM     17  C   UNL A   1      38.577  27.741  32.412  1.00  0.00     0.001 A 
ATOM     18  C   UNL A   1      37.929  28.955  32.666  1.00  0.00     0.009 A 
BRANCH  14  19
ATOM     19  C   UNL A   1      42.083  28.468  33.578  1.00  0.00     0.251 C 
ATOM     20  C   UNL A   1      41.841  28.157  36.099  1.00  0.00     0.143 C 
ATOM     21  N   UNL A   1      42.558  28.350  34.860  1.00  0.00    -0.355 N 
ATOM     22  H   UNL A   1      43.538  28.406  34.948  1.00  0.00     0.163 HD
ATOM     23  O   UNL A   1      42.866  28.439  32.633  1.00  0.00    -0.269 OA
ENDBRANCH  14  19
ENDBRANCH   8  13
BRANCH  12  24
ATOM     24  O   UNL A   1      36.449  35.136  33.668  1.00  0.00    -0.493 OA
ATOM     25  H   UNL A   1      35.612  35.368  33.320  1.00  0.00     0.295 HD
ENDBRANCH  12  24
ENDBRANCH   4   7
ENDBRANCH   2   3
ENDBRANCH   1   2
BRANCH   1  26
ATOM     26  C   UNL A   1      34.316  32.749  27.724  1.00  0.00     0.118 C 
BRANCH  26  27
ATOM     27  N   UNL A   1      33.613  31.476  27.668  1.00  0.00    -0.352 N 
ATOM     28  C   UNL A   1      34.105  30.195  27.671  1.00  0.00     0.251 C 
ATOM     29  H   UNL A   1      32.632  31.545  27.621  1.00  0.00     0.163 HD
ATOM     30  O   UNL A   1      33.352  29.262  27.411  1.00  0.00    -0.269 OA
BRANCH  28  31
ATOM     31  C   UNL A   1      35.526  29.925  27.978  1.00  0.00     0.039 A 
ATOM     32  C   UNL A   1      35.874  29.580  29.289  1.00  0.00     0.014 A 
ATOM     33  C   UNL A   1      36.524  30.072  27.010  1.00  0.00     0.014 A 
ATOM     34  C   UNL A   1      37.210  29.346  29.618  1.00  0.00     0.010 A 
ATOM     35  C   UNL A   1      37.849  29.777  27.324  1.00  0.00     0.010 A 
ATOM     36  C   UNL A   1      38.207  29.423  28.634  1.00  0.00    -0.014 A 
BRANCH  36  37
ATOM     37  C   UNL A   1      39.633  29.166  28.960  1.00  0.00     0.031 A 
ATOM     38  C   UNL A   1      40.430  30.195  29.712  1.00  0.00     0.074 A 
ATOM     39  C   UNL A   1      40.223  28.031  28.536  1.00  0.00     0.049 A 
ATOM     40  N   UNL A   1      41.705  30.201  30.015  1.00  0.00    -0.248 NA
ATOM     41  C   UNL A   1      39.702  31.389  30.169  1.00  0.00     0.031 C 
ATOM     42  C   UNL A   1      39.563  26.969  27.776  1.00  0.00     0.029 A 
ATOM     43  N   UNL A   1      41.513  27.588  28.677  1.00  0.00    -0.354 N 
ATOM     44  C   UNL A   1      41.930  31.397  30.682  1.00  0.00     0.074 A 
ATOM     45  C   UNL A   1      40.675  32.117  30.697  1.00  0.00     0.031 C 
ATOM     46  C   UNL A   1      40.448  25.988  27.533  1.00  0.00     0.029 A 
ATOM     47  C   UNL A   1      41.745  26.369  28.087  1.00  0.00     0.049 A 
ATOM     48  H   UNL A   1      42.209  28.095  29.155  1.00  0.00     0.167 HD
ATOM     49  C   UNL A   1      43.075  31.846  31.250  1.00  0.00     0.037 A 
ATOM     50  C   UNL A   1      42.877  25.646  27.996  1.00  0.00     0.037 A 
ATOM     51  C   UNL A   1      44.317  31.118  31.255  1.00  0.00     0.049 A 
ATOM     52  C   UNL A   1      44.138  26.176  28.624  1.00  0.00     0.074 A 
ATOM     53  C   UNL A   1      45.527  31.476  31.825  1.00  0.00     0.029 A 
ATOM     54  N   UNL A   1      44.504  29.877  30.665  1.00  0.00    -0.354 N 
ATOM     55  N   UNL A   1      44.329  27.292  29.284  1.00  0.00    -0.248 NA
ATOM     56  C   UNL A   1      45.341  25.340  28.498  1.00  0.00     0.031 C 
ATOM     57  C   UNL A   1      46.454  30.464  31.554  1.00  0.00     0.029 A 
ATOM     58  C   UNL A   1      45.811  29.458  30.852  1.00  0.00     0.049 A 
ATOM     59  H   UNL A   1      43.811  29.369  30.184  1.00  0.00     0.167 HD
ATOM     60  C   UNL A   1      45.659  27.277  29.683  1.00  0.00     0.074 A 
ATOM     61  C   UNL A   1      46.226  26.035  29.199  1.00  0.00     0.031 C 
ATOM     62  C   UNL A   1      46.350  28.206  30.385  1.00  0.00     0.037 A 
BRANCH  49  63
ATOM     63  C   UNL A   1      43.036  33.185  31.929  1.00  0.00     0.064 A 
ATOM     64  C   UNL A   1      42.724  33.303  33.291  1.00  0.00     0.173 A 
ATOM     65  C   UNL A   1      43.358  34.355  31.225  1.00  0.00     0.173 A 
ATOM     66  F   UNL A   1      42.397  32.216  34.006  1.00  0.00    -0.203 F 
ATOM     67  C   UNL A   1      42.711  34.546  33.918  1.00  0.00     0.198 A 
ATOM     68  C   UNL A   1      43.373  35.592  31.861  1.00  0.00     0.198 A 
ATOM     69  F   UNL A   1      43.670  34.296  29.921  1.00  0.00    -0.203 F 
ATOM     70  F   UNL A   1      42.367  34.641  35.210  1.00  0.00    -0.200 F 
ATOM     71  C   UNL A   1      43.043  35.689  33.205  1.00  0.00     0.200 A 
ATOM     72  F   UNL A   1      43.705  36.694  31.174  1.00  0.00    -0.200 F 
ATOM     73  F   UNL A   1      43.040  36.884  33.812  1.00  0.00    -0.200 F 
ENDBRANCH  49  63
BRANCH  50  74
ATOM     74  C   UNL A   1      42.871  24.330  27.306  1.00  0.00     0.064 A 
ATOM     75  C   UNL A   1      42.546  23.157  28.003  1.00  0.00     0.173 A 
ATOM     76  C   UNL A   1      43.215  24.210  25.953  1.00  0.00     0.173 A 
ATOM     77  F   UNL A   1      42.232  23.217  29.305  1.00  0.00    -0.203 F 
ATOM     78  C   UNL A   1      42.591  21.912  27.379  1.00  0.00     0.198 A 
ATOM     79  C   UNL A   1      43.231  22.968  25.321  1.00  0.00     0.198 A 
ATOM     80  F   UNL A   1      43.531  25.302  25.241  1.00  0.00    -0.203 F 
ATOM     81  F   UNL A   1      42.328  20.802  28.082  1.00  0.00    -0.200 F 
ATOM     82  C   UNL A   1      42.930  21.819  26.037  1.00  0.00     0.200 A 
ATOM     83  F   UNL A   1      43.548  22.884  24.023  1.00  0.00    -0.200 F 
ATOM     84  F   UNL A   1      42.977  20.622  25.438  1.00  0.00    -0.200 F 
ENDBRANCH  50  74
BRANCH  62  85
ATOM     85  C   UNL A   1      47.778  27.893  30.722  1.00  0.00     0.064 A 
ATOM     86  C   UNL A   1      48.123  27.188  31.883  1.00  0.00     0.173 A 
ATOM     87  C   UNL A   1      48.809  28.272  29.849  1.00  0.00     0.173 A 
ATOM     88  F   UNL A   1      47.175  26.818  32.756  1.00  0.00    -0.203 F 
ATOM     89  C   UNL A   1      49.454  26.897  32.173  1.00  0.00     0.198 A 
ATOM     90  C   UNL A   1      50.135  27.955  30.127  1.00  0.00     0.198 A 
ATOM     91  F   UNL A   1      48.528  28.943  28.721  1.00  0.00    -0.203 F 
ATOM     92  F   UNL A   1      49.768  26.264  33.311  1.00  0.00    -0.200 F 
ATOM     93  C   UNL A   1      50.457  27.274  31.290  1.00  0.00     0.200 A 
ATOM     94  F   UNL A   1      51.101  28.310  29.269  1.00  0.00    -0.200 F 
ATOM     95  F   UNL A   1      51.737  26.989  31.569  1.00  0.00    -0.200 F 
ENDBRANCH  62  85
ENDBRANCH  36  37
ENDBRANCH  28  31
ENDBRANCH  26  27
ENDBRANCH   1  26
TORSDOF 13
ENDMDL
MODEL 2
REMARK VINA RESULT:     -10.2      3.894     10.909
REMARK SMILES CNC(=O)c1cccc(-c2cnc(O)c(C(=O)NCCCNC(=O)c3ccc(-c4c5nc(c(-c6c(F)c(F)c(F)c(F)c6F)c6ccc([nH]6)c(-c6c(F)c(F)c(F)c(F)c6F)c6nc(c(-c7c(F)c(F)c(F)c(F)c7F)c7ccc4[nH]7)C=C6)C=C5)cc3)c2)c1
REMARK SMILES IDX 20 1 19 2 18 3 16 4 17 5 15 7 10 8 11 9 88 10 12 11 13 12
REMARK SMILES IDX 9 13 5 14 6 15 89 16 7 17 8 18 3 19 1 20 2 21 4 23 14 24
REMARK SMILES IDX 21 26 22 27 23 28 24 30 25 31 26 32 87 33 27 34 86 35 28 36
REMARK SMILES IDX 29 37 30 38 80 39 31 40 85 41 79 42 81 43 32 44 84 45 78 46
REMARK SMILES IDX 77 47 33 49 65 50 45 51 64 52 46 53 49 54 63 55 82 56 47 57
REMARK SMILES IDX 48 58 62 60 83 61 50 62 34 63 35 64 43 65 36 66 37 67 41 68
REMARK SMILES IDX 44 69 38 70 39 71 42 72 40 73 66 74 67 75 75 76 68 77 69 78
REMARK SMILES IDX 73 79 76 80 70 81 71 82 74 83 72 84 51 85 52 86 60 87 53 88
REMARK SMILES IDX 54 89 58 90 61 91 55 92 56 93 59 94 57 95
REMARK H PARENT 18 6 2 22 14 25 22 29 81 48 49 59
REMARK Flexibility Score: inf
ROOT
ATOM      1  C   UNL A   1      40.841  20.438  27.266  1.00  0.00     0.042 C 
ENDROOT
BRANCH   1   2
ATOM      2  C   UNL A   1      41.183  19.575  26.052  1.00  0.00     0.118 C 
BRANCH   2   3
ATOM      3  N   UNL A   1      42.075  18.482  26.411  1.00  0.00    -0.352 N 
ATOM      4  C   UNL A   1      43.433  18.315  26.304  1.00  0.00     0.256 C 
ATOM      5  O   UNL A   1      43.928  17.299  26.798  1.00  0.00    -0.269 OA
ATOM      6  H   UNL A   1      41.612  17.710  26.808  1.00  0.00     0.163 HD
BRANCH   4   7
ATOM      7  C   UNL A   1      44.351  19.303  25.691  1.00  0.00     0.102 A 
ATOM      8  C   UNL A   1      44.975  21.560  25.025  1.00  0.00     0.001 A 
ATOM      9  C   UNL A   1      46.219  21.050  24.675  1.00  0.00     0.124 A 
ATOM     10  C   UNL A   1      44.022  20.641  25.481  1.00  0.00     0.029 A 
ATOM     11  N   UNL A   1      46.556  19.744  24.782  1.00  0.00    -0.221 NA
ATOM     12  C   UNL A   1      45.628  18.903  25.292  1.00  0.00     0.223 A 
BRANCH   8  13
ATOM     13  C   UNL A   1      44.673  22.992  25.033  1.00  0.00    -0.016 A 
ATOM     14  C   UNL A   1      45.495  25.291  25.101  1.00  0.00     0.040 A 
ATOM     15  C   UNL A   1      44.178  25.758  25.149  1.00  0.00     0.014 A 
ATOM     16  C   UNL A   1      45.736  23.916  25.067  1.00  0.00     0.022 A 
ATOM     17  C   UNL A   1      43.115  24.854  25.115  1.00  0.00     0.001 A 
ATOM     18  C   UNL A   1      43.361  23.479  25.048  1.00  0.00     0.009 A 
BRANCH  14  19
ATOM     19  C   UNL A   1      46.605  26.267  25.201  1.00  0.00     0.251 C 
ATOM     20  C   UNL A   1      46.952  26.001  27.714  1.00  0.00     0.143 C 
ATOM     21  N   UNL A   1      47.145  26.604  26.415  1.00  0.00    -0.355 N 
ATOM     22  H   UNL A   1      47.759  27.374  26.400  1.00  0.00     0.163 HD
ATOM     23  O   UNL A   1      47.039  26.786  24.175  1.00  0.00    -0.269 OA
ENDBRANCH  14  19
ENDBRANCH   8  13
BRANCH  12  24
ATOM     24  O   UNL A   1      46.070  17.613  25.395  1.00  0.00    -0.493 OA
ATOM     25  H   UNL A   1      45.453  16.909  25.431  1.00  0.00     0.295 HD
ENDBRANCH  12  24
ENDBRANCH   4   7
ENDBRANCH   2   3
ENDBRANCH   1   2
BRANCH   1  26
ATOM     26  C   UNL A   1      40.777  21.929  26.950  1.00  0.00     0.118 C 
BRANCH  26  27
ATOM     27  N   UNL A   1      39.617  22.266  26.139  1.00  0.00    -0.352 N 
ATOM     28  C   UNL A   1      38.832  23.391  26.146  1.00  0.00     0.251 C 
ATOM     29  H   UNL A   1      39.353  21.579  25.485  1.00  0.00     0.163 HD
ATOM     30  O   UNL A   1      37.775  23.390  25.522  1.00  0.00    -0.269 OA
BRANCH  28  31
ATOM     31  C   UNL A   1      39.239  24.599  26.895  1.00  0.00     0.039 A 
ATOM     32  C   UNL A   1      39.991  25.576  26.233  1.00  0.00     0.014 A 
ATOM     33  C   UNL A   1      38.945  24.750  28.253  1.00  0.00     0.014 A 
ATOM     34  C   UNL A   1      40.415  26.715  26.919  1.00  0.00     0.010 A 
ATOM     35  C   UNL A   1      39.313  25.917  28.921  1.00  0.00     0.010 A 
ATOM     36  C   UNL A   1      40.063  26.905  28.265  1.00  0.00    -0.014 A 
BRANCH  36  37
ATOM     37  C   UNL A   1      40.492  28.116  29.010  1.00  0.00     0.031 A 
ATOM     38  C   UNL A   1      41.905  28.228  29.512  1.00  0.00     0.074 A 
ATOM     39  C   UNL A   1      39.599  29.089  29.278  1.00  0.00     0.049 A 
ATOM     40  N   UNL A   1      42.451  29.158  30.256  1.00  0.00    -0.248 NA
ATOM     41  C   UNL A   1      42.824  27.139  29.145  1.00  0.00     0.031 C 
ATOM     42  C   UNL A   1      38.195  29.084  28.868  1.00  0.00     0.029 A 
ATOM     43  N   UNL A   1      39.741  30.266  29.968  1.00  0.00    -0.354 N 
ATOM     44  C   UNL A   1      43.766  28.759  30.455  1.00  0.00     0.074 A 
ATOM     45  C   UNL A   1      43.925  27.481  29.798  1.00  0.00     0.031 C 
ATOM     46  C   UNL A   1      37.608  30.212  29.298  1.00  0.00     0.029 A 
ATOM     47  C   UNL A   1      38.583  31.002  30.045  1.00  0.00     0.049 A 
ATOM     48  H   UNL A   1      40.591  30.557  30.371  1.00  0.00     0.167 HD
ATOM     49  C   UNL A   1      44.757  29.411  31.108  1.00  0.00     0.037 A 
ATOM     50  C   UNL A   1      38.337  32.175  30.657  1.00  0.00     0.037 A 
ATOM     51  C   UNL A   1      44.603  30.695  31.742  1.00  0.00     0.049 A 
ATOM     52  C   UNL A   1      39.454  32.871  31.388  1.00  0.00     0.074 A 
ATOM     53  C   UNL A   1      45.553  31.451  32.408  1.00  0.00     0.029 A 
ATOM     54  N   UNL A   1      43.420  31.417  31.779  1.00  0.00    -0.354 N 
ATOM     55  N   UNL A   1      40.702  32.501  31.538  1.00  0.00    -0.248 NA
ATOM     56  C   UNL A   1      39.126  34.152  32.031  1.00  0.00     0.031 C 
ATOM     57  C   UNL A   1      44.936  32.616  32.874  1.00  0.00     0.029 A 
ATOM     58  C   UNL A   1      43.614  32.607  32.462  1.00  0.00     0.049 A 
ATOM     59  H   UNL A   1      42.568  31.128  31.379  1.00  0.00     0.167 HD
ATOM     60  C   UNL A   1      41.317  33.517  32.258  1.00  0.00     0.074 A 
ATOM     61  C   UNL A   1      40.306  34.524  32.506  1.00  0.00     0.031 C 
ATOM     62  C   UNL A   1      42.602  33.609  32.677  1.00  0.00     0.037 A 
BRANCH  49  63
ATOM     63  C   UNL A   1      46.105  28.753  31.161  1.00  0.00     0.064 A 
ATOM     64  C   UNL A   1      46.453  27.885  32.207  1.00  0.00     0.173 A 
ATOM     65  C   UNL A   1      47.042  28.954  30.137  1.00  0.00     0.173 A 
ATOM     66  F   UNL A   1      45.597  27.668  33.217  1.00  0.00    -0.203 F 
ATOM     67  C   UNL A   1      47.698  27.262  32.237  1.00  0.00     0.198 A 
ATOM     68  C   UNL A   1      48.274  28.308  30.155  1.00  0.00     0.198 A 
ATOM     69  F   UNL A   1      46.757  29.771  29.111  1.00  0.00    -0.203 F 
ATOM     70  F   UNL A   1      48.025  26.471  33.268  1.00  0.00    -0.200 F 
ATOM     71  C   UNL A   1      48.604  27.467  31.208  1.00  0.00     0.200 A 
ATOM     72  F   UNL A   1      49.145  28.498  29.154  1.00  0.00    -0.200 F 
ATOM     73  F   UNL A   1      49.798  26.859  31.233  1.00  0.00    -0.200 F 
ENDBRANCH  49  63
BRANCH  50  74
ATOM     74  C   UNL A   1      36.984  32.786  30.587  1.00  0.00     0.064 A 
ATOM     75  C   UNL A   1      36.613  33.584  29.495  1.00  0.00     0.173 A 
ATOM     76  C   UNL A   1      36.046  32.610  31.614  1.00  0.00     0.173 A 
ATOM     77  F   UNL A   1      37.484  33.801  28.498  1.00  0.00    -0.203 F 
ATOM     78  C   UNL A   1      35.367  34.206  29.447  1.00  0.00     0.198 A 
ATOM     79  C   UNL A   1      34.789  33.207  31.551  1.00  0.00     0.198 A 
ATOM     80  F   UNL A   1      36.350  31.852  32.678  1.00  0.00    -0.203 F 
ATOM     81  F   UNL A   1      35.060  35.007  28.418  1.00  0.00    -0.200 F 
ATOM     82  C   UNL A   1      34.454  34.013  30.473  1.00  0.00     0.200 A 
ATOM     83  F   UNL A   1      33.906  33.010  32.538  1.00  0.00    -0.200 F 
ATOM     84  F   UNL A   1      33.257  34.614  30.428  1.00  0.00    -0.200 F 
ENDBRANCH  50  74
BRANCH  62  85
ATOM     85  C   UNL A   1      43.003  34.862  33.397  1.00  0.00     0.064 A 
ATOM     86  C   UNL A   1      43.431  36.004  32.706  1.00  0.00     0.173 A 
ATOM     87  C   UNL A   1      42.920  34.930  34.796  1.00  0.00     0.173 A 
ATOM     88  F   UNL A   1      43.541  35.983  31.370  1.00  0.00    -0.203 F 
ATOM     89  C   UNL A   1      43.788  37.162  33.393  1.00  0.00     0.198 A 
ATOM     90  C   UNL A   1      43.251  36.097  35.477  1.00  0.00     0.198 A 
ATOM     91  F   UNL A   1      42.509  33.864  35.502  1.00  0.00    -0.203 F 
ATOM     92  F   UNL A   1      44.239  38.227  32.717  1.00  0.00    -0.200 F 
ATOM     93  C   UNL A   1      43.690  37.209  34.776  1.00  0.00     0.200 A 
ATOM     94  F   UNL A   1      43.145  36.145  36.812  1.00  0.00    -0.200 F 
ATOM     95  F   UNL A   1      44.030  38.327  35.434  1.00  0.00    -0.200 F 
ENDBRANCH  62  85
ENDBRANCH  36  37
ENDBRANCH  28  31
ENDBRANCH  26  27
ENDBRANCH   1  26
TORSDOF 13
ENDMDL
MODEL 3
REMARK VINA RESULT:     -10.2      1.781      2.355
REMARK SMILES CNC(=O)c1cccc(-c2cnc(O)c(C(=O)NCCCNC(=O)c3ccc(-c4c5nc(c(-c6c(F)c(F)c(F)c(F)c6F)c6ccc([nH]6)c(-c6c(F)c(F)c(F)c(F)c6F)c6nc(c(-c7c(F)c(F)c(F)c(F)c7F)c7ccc4[nH]7)C=C6)C=C5)cc3)c2)c1
REMARK SMILES IDX 20 1 19 2 18 3 16 4 17 5 15 7 10 8 11 9 88 10 12 11 13 12
REMARK SMILES IDX 9 13 5 14 6 15 89 16 7 17 8 18 3 19 1 20 2 21 4 23 14 24
REMARK SMILES IDX 21 26 22 27 23 28 24 30 25 31 26 32 87 33 27 34 86 35 28 36
REMARK SMILES IDX 29 37 30 38 80 39 31 40 85 41 79 42 81 43 32 44 84 45 78 46
REMARK SMILES IDX 77 47 33 49 65 50 45 51 64 52 46 53 49 54 63 55 82 56 47 57
REMARK SMILES IDX 48 58 62 60 83 61 50 62 34 63 35 64 43 65 36 66 37 67 41 68
REMARK SMILES IDX 44 69 38 70 39 71 42 72 40 73 66 74 67 75 75 76 68 77 69 78
REMARK SMILES IDX 73 79 76 80 70 81 71 82 74 83 72 84 51 85 52 86 60 87 53 88
REMARK SMILES IDX 54 89 58 90 61 91 55 92 56 93 59 94 57 95
REMARK H PARENT 18 6 2 22 14 25 22 29 81 48 49 59
REMARK Flexibility Score: inf
ROOT
ATOM      1  C   UNL A   1      34.893  33.700  28.010  1.00  0.00     0.042 C 
ENDROOT
BRANCH   1   2
ATOM      2  C   UNL A   1      35.030  35.062  28.690  1.00  0.00     0.118 C 
BRANCH   2   3
ATOM      3  N   UNL A   1      33.730  35.609  29.050  1.00  0.00    -0.352 N 
ATOM      4  C   UNL A   1      33.140  35.892  30.256  1.00  0.00     0.256 C 
ATOM      5  O   UNL A   1      32.045  36.457  30.241  1.00  0.00    -0.269 OA
ATOM      6  H   UNL A   1      33.162  35.818  28.274  1.00  0.00     0.163 HD
BRANCH   4   7
ATOM      7  C   UNL A   1      33.759  35.618  31.573  1.00  0.00     0.102 A 
ATOM      8  C   UNL A   1      35.105  34.283  33.101  1.00  0.00     0.001 A 
ATOM      9  C   UNL A   1      34.987  35.319  34.018  1.00  0.00     0.124 A 
ATOM     10  C   UNL A   1      34.419  34.432  31.888  1.00  0.00     0.029 A 
ATOM     11  N   UNL A   1      34.286  36.453  33.789  1.00  0.00    -0.221 NA
ATOM     12  C   UNL A   1      33.698  36.586  32.578  1.00  0.00     0.223 A 
BRANCH   8  13
ATOM     13  C   UNL A   1      35.977  33.127  33.310  1.00  0.00    -0.016 A 
ATOM     14  C   UNL A   1      37.486  31.899  34.789  1.00  0.00     0.040 A 
ATOM     15  C   UNL A   1      37.747  30.988  33.761  1.00  0.00     0.014 A 
ATOM     16  C   UNL A   1      36.625  32.973  34.552  1.00  0.00     0.022 A 
ATOM     17  C   UNL A   1      37.113  31.127  32.526  1.00  0.00     0.001 A 
ATOM     18  C   UNL A   1      36.226  32.185  32.304  1.00  0.00     0.009 A 
BRANCH  14  19
ATOM     19  C   UNL A   1      38.219  31.765  36.069  1.00  0.00     0.251 C 
ATOM     20  C   UNL A   1      40.045  33.450  35.493  1.00  0.00     0.143 C 
ATOM     21  N   UNL A   1      39.406  32.418  36.278  1.00  0.00    -0.355 N 
ATOM     22  H   UNL A   1      39.898  32.142  37.085  1.00  0.00     0.163 HD
ATOM     23  O   UNL A   1      37.754  31.049  36.952  1.00  0.00    -0.269 OA
ENDBRANCH  14  19
ENDBRANCH   8  13
BRANCH  12  24
ATOM     24  O   UNL A   1      33.044  37.777  32.426  1.00  0.00    -0.493 OA
ATOM     25  H   UNL A   1      32.810  38.281  33.180  1.00  0.00     0.295 HD
ENDBRANCH  12  24
ENDBRANCH   4   7
ENDBRANCH   2   3
ENDBRANCH   1   2
BRANCH   1  26
ATOM     26  C   UNL A   1      34.715  32.547  28.994  1.00  0.00     0.118 C 
BRANCH  26  27
ATOM     27  N   UNL A   1      34.063  31.401  28.380  1.00  0.00    -0.352 N 
ATOM     28  C   UNL A   1      34.597  30.226  27.915  1.00  0.00     0.251 C 
ATOM     29  H   UNL A   1      33.087  31.481  28.282  1.00  0.00     0.163 HD
ATOM     30  O   UNL A   1      33.899  29.472  27.244  1.00  0.00    -0.269 OA
BRANCH  28  31
ATOM     31  C   UNL A   1      36.000  29.858  28.207  1.00  0.00     0.039 A 
ATOM     32  C   UNL A   1      36.303  29.315  29.460  1.00  0.00     0.014 A 
ATOM     33  C   UNL A   1      37.026  30.103  27.288  1.00  0.00     0.014 A 
ATOM     34  C   UNL A   1      37.622  28.984  29.777  1.00  0.00     0.010 A 
ATOM     35  C   UNL A   1      38.331  29.713  27.581  1.00  0.00     0.010 A 
ATOM     36  C   UNL A   1      38.644  29.161  28.832  1.00  0.00    -0.014 A 
BRANCH  36  37
ATOM     37  C   UNL A   1      40.052  28.804  29.144  1.00  0.00     0.031 A 
ATOM     38  C   UNL A   1      40.912  29.753  29.932  1.00  0.00     0.074 A 
ATOM     39  C   UNL A   1      40.569  27.650  28.678  1.00  0.00     0.049 A 
ATOM     40  N   UNL A   1      42.185  29.668  30.230  1.00  0.00    -0.248 NA
ATOM     41  C   UNL A   1      40.260  30.973  30.434  1.00  0.00     0.031 C 
ATOM     42  C   UNL A   1      39.843  26.660  27.882  1.00  0.00     0.029 A 
ATOM     43  N   UNL A   1      41.829  27.123  28.798  1.00  0.00    -0.354 N 
ATOM     44  C   UNL A   1      42.485  30.823  30.940  1.00  0.00     0.074 A 
ATOM     45  C   UNL A   1      41.278  31.618  30.985  1.00  0.00     0.031 C 
ATOM     46  C   UNL A   1      40.665  25.635  27.600  1.00  0.00     0.029 A 
ATOM     47  C   UNL A   1      41.983  25.914  28.163  1.00  0.00     0.049 A 
ATOM     48  H   UNL A   1      42.555  27.567  29.293  1.00  0.00     0.167 HD
ATOM     49  C   UNL A   1      43.656  31.178  31.521  1.00  0.00     0.037 A 
ATOM     50  C   UNL A   1      43.068  25.126  28.043  1.00  0.00     0.037 A 
ATOM     51  C   UNL A   1      44.851  30.374  31.495  1.00  0.00     0.049 A 
ATOM     52  C   UNL A   1      44.360  25.552  28.686  1.00  0.00     0.074 A 
ATOM     53  C   UNL A   1      46.081  30.634  32.074  1.00  0.00     0.029 A 
ATOM     54  N   UNL A   1      44.959  29.146  30.859  1.00  0.00    -0.354 N 
ATOM     55  N   UNL A   1      44.621  26.630  29.386  1.00  0.00    -0.248 NA
ATOM     56  C   UNL A   1      45.508  24.648  28.526  1.00  0.00     0.031 C 
ATOM     57  C   UNL A   1      46.943  29.577  31.763  1.00  0.00     0.029 A 
ATOM     58  C   UNL A   1      46.238  28.640  31.027  1.00  0.00     0.049 A 
ATOM     59  H   UNL A   1      44.235  28.701  30.363  1.00  0.00     0.167 HD
ATOM     60  C   UNL A   1      45.948  26.516  29.780  1.00  0.00     0.074 A 
ATOM     61  C   UNL A   1      46.435  25.260  29.249  1.00  0.00     0.031 C 
ATOM     62  C   UNL A   1      46.696  27.375  30.514  1.00  0.00     0.037 A 
BRANCH  49  63
ATOM     63  C   UNL A   1      43.702  32.490  32.248  1.00  0.00     0.064 A 
ATOM     64  C   UNL A   1      43.479  32.567  33.631  1.00  0.00     0.173 A 
ATOM     65  C   UNL A   1      44.016  33.676  31.567  1.00  0.00     0.173 A 
ATOM     66  F   UNL A   1      43.164  31.463  34.326  1.00  0.00    -0.203 F 
ATOM     67  C   UNL A   1      43.545  33.785  34.301  1.00  0.00     0.198 A 
ATOM     68  C   UNL A   1      44.109  34.888  32.245  1.00  0.00     0.198 A 
ATOM     69  F   UNL A   1      44.243  33.658  30.245  1.00  0.00    -0.203 F 
ATOM     70  F   UNL A   1      43.285  33.841  35.615  1.00  0.00    -0.200 F 
ATOM     71  C   UNL A   1      43.867  34.944  33.610  1.00  0.00     0.200 A 
ATOM     72  F   UNL A   1      44.432  36.005  31.578  1.00  0.00    -0.200 F 
ATOM     73  F   UNL A   1      43.939  36.114  34.258  1.00  0.00    -0.200 F 
ENDBRANCH  49  63
BRANCH  50  74
ATOM     74  C   UNL A   1      42.979  23.838  27.306  1.00  0.00     0.064 A 
ATOM     75  C   UNL A   1      42.497  22.683  27.936  1.00  0.00     0.173 A 
ATOM     76  C   UNL A   1      43.397  23.728  25.972  1.00  0.00     0.173 A 
ATOM     77  F   UNL A   1      42.107  22.733  29.219  1.00  0.00    -0.203 F 
ATOM     78  C   UNL A   1      42.462  21.460  27.271  1.00  0.00     0.198 A 
ATOM     79  C   UNL A   1      43.334  22.510  25.297  1.00  0.00     0.198 A 
ATOM     80  F   UNL A   1      43.863  24.804  25.322  1.00  0.00    -0.203 F 
ATOM     81  F   UNL A   1      42.048  20.360  27.914  1.00  0.00    -0.200 F 
ATOM     82  C   UNL A   1      42.877  21.375  25.950  1.00  0.00     0.200 A 
ATOM     83  F   UNL A   1      43.724  22.435  24.018  1.00  0.00    -0.200 F 
ATOM     84  F   UNL A   1      42.846  20.198  25.310  1.00  0.00    -0.200 F 
ENDBRANCH  50  74
BRANCH  62  85
ATOM     85  C   UNL A   1      48.102  26.960  30.834  1.00  0.00     0.064 A 
ATOM     86  C   UNL A   1      48.393  26.112  31.911  1.00  0.00     0.173 A 
ATOM     87  C   UNL A   1      49.167  27.391  30.027  1.00  0.00     0.173 A 
ATOM     88  F   UNL A   1      47.411  25.686  32.720  1.00  0.00    -0.203 F 
ATOM     89  C   UNL A   1      49.703  25.729  32.185  1.00  0.00     0.198 A 
ATOM     90  C   UNL A   1      50.472  26.985  30.288  1.00  0.00     0.198 A 
ATOM     91  F   UNL A   1      48.938  28.200  28.981  1.00  0.00    -0.203 F 
ATOM     92  F   UNL A   1      49.965  24.955  33.247  1.00  0.00    -0.200 F 
ATOM     93  C   UNL A   1      50.740  26.160  31.369  1.00  0.00     0.200 A 
ATOM     94  F   UNL A   1      51.470  27.392  29.492  1.00  0.00    -0.200 F 
ATOM     95  F   UNL A   1      52.000  25.787  31.633  1.00  0.00    -0.200 F 
ENDBRANCH  62  85
ENDBRANCH  36  37
ENDBRANCH  28  31
ENDBRANCH  26  27
ENDBRANCH   1  26
TORSDOF 13
ENDMDL
