MODEL 1
REMARK VINA RESULT:     -10.5      0.000      0.000
REMARK SMILES O=C(CCCc1nc2cc(Br)ccc2o1)NCCCNC(=O)c1ccc(-c2c3nc(c(-c4c(F)c(F)c(F)c(F)c4F)c4ccc([nH]4)c(-c4c(F)c(F)c(F)c(F)c4F)c4nc(c(-c5c(F)c(F)c(F)c(F)c5F)c5ccc2[nH]5)C=C4)C=C3)cc1
REMARK SMILES IDX 17 1 16 2 1 3 2 4 3 6 4 7 5 8 6 9 7 10 15 11 8 12 14 13 9 14
REMARK SMILES IDX 13 15 10 16 12 17 11 18 18 19 19 20 20 21 21 22 22 24 23 25
REMARK SMILES IDX 24 26 85 27 25 28 84 29 26 30 27 31 28 32 78 33 29 34 83 35
REMARK SMILES IDX 77 36 79 37 30 38 82 39 76 40 75 41 31 43 63 44 43 45 62 46
REMARK SMILES IDX 44 47 47 48 61 49 80 50 45 51 46 52 60 54 81 55 48 56 32 57
REMARK SMILES IDX 33 58 41 59 34 60 35 61 39 62 42 63 36 64 37 65 40 66 38 67
REMARK SMILES IDX 64 68 65 69 73 70 66 71 67 72 71 73 74 74 68 75 69 76 72 77
REMARK SMILES IDX 70 78 49 79 50 80 58 81 51 82 52 83 56 84 59 85 53 86 54 87
REMARK SMILES IDX 57 88 55 89
REMARK H PARENT 16 5 20 23 79 42 47 53
REMARK Flexibility Score: inf
ROOT
ATOM      1  C   UNL A   1      43.401  23.065  24.627  1.00  0.00     0.117 C 
ENDROOT
BRANCH   1   2
ATOM      2  N   UNL A   1      44.177  24.173  25.154  1.00  0.00    -0.356 N 
ATOM      3  O   UNL A   1      42.621  25.790  24.651  1.00  0.00    -0.275 OA
ATOM      4  C   UNL A   1      43.688  25.459  25.171  1.00  0.00     0.220 C 
ATOM      5  H   UNL A   1      45.080  23.999  25.507  1.00  0.00     0.163 HD
BRANCH   4   6
ATOM      6  C   UNL A   1      44.557  26.457  25.904  1.00  0.00     0.100 C 
BRANCH   6   7
ATOM      7  C   UNL A   1      46.046  26.323  25.555  1.00  0.00     0.020 C 
BRANCH   7   8
ATOM      8  C   UNL A   1      46.915  25.583  26.580  1.00  0.00     0.098 C 
BRANCH   8   9
ATOM      9  C   UNL A   1      46.216  25.369  27.876  1.00  0.00     0.195 A 
ATOM     10  N   UNL A   1      46.193  26.154  28.934  1.00  0.00    -0.214 NA
ATOM     11  O   UNL A   1      45.588  24.160  28.044  1.00  0.00    -0.441 OA
ATOM     12  C   UNL A   1      45.524  25.420  29.876  1.00  0.00     0.110 A 
ATOM     13  C   UNL A   1      45.134  24.207  29.332  1.00  0.00     0.154 A 
ATOM     14  C   UNL A   1      45.226  25.706  31.211  1.00  0.00     0.048 A 
ATOM     15  C   UNL A   1      44.425  23.229  30.017  1.00  0.00     0.050 A 
ATOM     16  C   UNL A   1      44.525  24.736  31.937  1.00  0.00     0.020 A 
ATOM     17  C   UNL A   1      44.124  23.526  31.354  1.00  0.00     0.019 A 
ATOM     18  Br  UNL A   1      44.116  25.071  33.756  1.00  0.00    -0.051 Br
ENDBRANCH   8   9
ENDBRANCH   7   8
ENDBRANCH   6   7
ENDBRANCH   4   6
ENDBRANCH   1   2
BRANCH   1  19
ATOM     19  C   UNL A   1      43.616  21.750  25.380  1.00  0.00     0.042 C 
BRANCH  19  20
ATOM     20  C   UNL A   1      42.988  21.688  26.774  1.00  0.00     0.118 C 
BRANCH  20  21
ATOM     21  N   UNL A   1      41.540  21.766  26.782  1.00  0.00    -0.352 N 
ATOM     22  C   UNL A   1      40.614  22.772  26.819  1.00  0.00     0.251 C 
ATOM     23  H   UNL A   1      41.120  20.876  26.755  1.00  0.00     0.163 HD
ATOM     24  O   UNL A   1      39.461  22.437  26.531  1.00  0.00    -0.269 OA
BRANCH  22  25
ATOM     25  C   UNL A   1      40.853  24.185  27.236  1.00  0.00     0.039 A 
ATOM     26  C   UNL A   1      41.744  24.611  28.216  1.00  0.00     0.014 A 
ATOM     27  C   UNL A   1      40.014  25.151  26.635  1.00  0.00     0.014 A 
ATOM     28  C   UNL A   1      41.726  25.943  28.643  1.00  0.00     0.010 A 
ATOM     29  C   UNL A   1      39.995  26.481  27.057  1.00  0.00     0.010 A 
ATOM     30  C   UNL A   1      40.818  26.873  28.101  1.00  0.00    -0.014 A 
BRANCH  30  31
ATOM     31  C   UNL A   1      40.851  28.253  28.604  1.00  0.00     0.031 A 
ATOM     32  C   UNL A   1      42.053  29.024  28.179  1.00  0.00     0.074 A 
ATOM     33  C   UNL A   1      39.911  28.859  29.366  1.00  0.00     0.049 A 
ATOM     34  N   UNL A   1      43.043  29.393  28.923  1.00  0.00    -0.248 NA
ATOM     35  C   UNL A   1      42.240  29.304  26.749  1.00  0.00     0.031 C 
ATOM     36  C   UNL A   1      38.561  28.401  29.700  1.00  0.00     0.029 A 
ATOM     37  N   UNL A   1      39.976  30.079  29.988  1.00  0.00    -0.354 N 
ATOM     38  C   UNL A   1      43.920  30.085  28.095  1.00  0.00     0.074 A 
ATOM     39  C   UNL A   1      43.434  29.904  26.751  1.00  0.00     0.031 C 
ATOM     40  C   UNL A   1      37.872  29.407  30.294  1.00  0.00     0.029 A 
ATOM     41  C   UNL A   1      38.773  30.523  30.528  1.00  0.00     0.049 A 
ATOM     42  H   UNL A   1      40.809  30.601  30.049  1.00  0.00     0.167 HD
ATOM     43  C   UNL A   1      44.874  30.905  28.617  1.00  0.00     0.037 A 
ATOM     44  C   UNL A   1      38.532  31.716  31.131  1.00  0.00     0.037 A 
ATOM     45  C   UNL A   1      45.104  30.610  30.008  1.00  0.00     0.049 A 
ATOM     46  C   UNL A   1      39.829  32.227  31.629  1.00  0.00     0.074 A 
ATOM     47  C   UNL A   1      45.590  29.530  30.716  1.00  0.00     0.029 A 
ATOM     48  N   UNL A   1      44.487  31.414  30.931  1.00  0.00    -0.354 N 
ATOM     49  N   UNL A   1      40.500  31.686  32.605  1.00  0.00    -0.248 NA
ATOM     50  C   UNL A   1      40.578  33.129  30.772  1.00  0.00     0.031 C 
ATOM     51  C   UNL A   1      44.840  29.512  31.930  1.00  0.00     0.029 A 
ATOM     52  C   UNL A   1      43.980  30.612  31.917  1.00  0.00     0.049 A 
ATOM     53  H   UNL A   1      44.420  32.396  30.892  1.00  0.00     0.167 HD
ATOM     54  C   UNL A   1      41.824  31.810  32.220  1.00  0.00     0.074 A 
ATOM     55  C   UNL A   1      41.816  32.801  31.147  1.00  0.00     0.031 C 
ATOM     56  C   UNL A   1      42.753  30.897  32.621  1.00  0.00     0.037 A 
BRANCH  43  57
ATOM     57  C   UNL A   1      45.323  32.208  27.998  1.00  0.00     0.064 A 
ATOM     58  C   UNL A   1      44.362  33.205  27.723  1.00  0.00     0.173 A 
ATOM     59  C   UNL A   1      46.574  32.385  27.371  1.00  0.00     0.173 A 
ATOM     60  F   UNL A   1      43.132  33.134  28.256  1.00  0.00    -0.203 F 
ATOM     61  C   UNL A   1      44.605  34.239  26.817  1.00  0.00     0.198 A 
ATOM     62  C   UNL A   1      46.829  33.447  26.502  1.00  0.00     0.198 A 
ATOM     63  F   UNL A   1      47.558  31.485  27.477  1.00  0.00    -0.203 F 
ATOM     64  F   UNL A   1      43.616  35.081  26.486  1.00  0.00    -0.200 F 
ATOM     65  C   UNL A   1      45.835  34.353  26.198  1.00  0.00     0.200 A 
ATOM     66  F   UNL A   1      48.022  33.530  25.898  1.00  0.00    -0.200 F 
ATOM     67  F   UNL A   1      46.050  35.300  25.277  1.00  0.00    -0.200 F 
ENDBRANCH  43  57
BRANCH  44  68
ATOM     68  C   UNL A   1      37.346  32.608  31.021  1.00  0.00     0.064 A 
ATOM     69  C   UNL A   1      37.046  33.275  29.817  1.00  0.00     0.173 A 
ATOM     70  C   UNL A   1      36.313  32.554  31.975  1.00  0.00     0.173 A 
ATOM     71  F   UNL A   1      37.955  33.336  28.834  1.00  0.00    -0.203 F 
ATOM     72  C   UNL A   1      35.777  33.814  29.569  1.00  0.00     0.198 A 
ATOM     73  C   UNL A   1      35.049  33.095  31.726  1.00  0.00     0.198 A 
ATOM     74  F   UNL A   1      36.478  31.884  33.124  1.00  0.00    -0.203 F 
ATOM     75  F   UNL A   1      35.508  34.373  28.380  1.00  0.00    -0.200 F 
ATOM     76  C   UNL A   1      34.776  33.709  30.517  1.00  0.00     0.200 A 
ATOM     77  F   UNL A   1      34.076  32.952  32.636  1.00  0.00    -0.200 F 
ATOM     78  F   UNL A   1      33.541  34.156  30.252  1.00  0.00    -0.200 F 
ENDBRANCH  44  68
BRANCH  56  79
ATOM     79  C   UNL A   1      42.381  29.963  33.739  1.00  0.00     0.064 A 
ATOM     80  C   UNL A   1      41.791  28.700  33.556  1.00  0.00     0.173 A 
ATOM     81  C   UNL A   1      42.779  30.306  35.039  1.00  0.00     0.173 A 
ATOM     82  F   UNL A   1      41.460  28.260  32.335  1.00  0.00    -0.203 F 
ATOM     83  C   UNL A   1      41.585  27.838  34.633  1.00  0.00     0.198 A 
ATOM     84  C   UNL A   1      42.608  29.428  36.105  1.00  0.00     0.198 A 
ATOM     85  F   UNL A   1      43.388  31.481  35.266  1.00  0.00    -0.203 F 
ATOM     86  F   UNL A   1      41.016  26.638  34.437  1.00  0.00    -0.200 F 
ATOM     87  C   UNL A   1      42.005  28.198  35.904  1.00  0.00     0.200 A 
ATOM     88  F   UNL A   1      43.059  29.763  37.321  1.00  0.00    -0.200 F 
ATOM     89  F   UNL A   1      41.856  27.348  36.929  1.00  0.00    -0.200 F 
ENDBRANCH  56  79
ENDBRANCH  30  31
ENDBRANCH  22  25
ENDBRANCH  20  21
ENDBRANCH  19  20
ENDBRANCH   1  19
TORSDOF 13
ENDMDL
MODEL 2
REMARK VINA RESULT:     -10.5      3.856      6.146
REMARK SMILES O=C(CCCc1nc2cc(Br)ccc2o1)NCCCNC(=O)c1ccc(-c2c3nc(c(-c4c(F)c(F)c(F)c(F)c4F)c4ccc([nH]4)c(-c4c(F)c(F)c(F)c(F)c4F)c4nc(c(-c5c(F)c(F)c(F)c(F)c5F)c5ccc2[nH]5)C=C4)C=C3)cc1
REMARK SMILES IDX 17 1 16 2 1 3 2 4 3 6 4 7 5 8 6 9 7 10 15 11 8 12 14 13 9 14
REMARK SMILES IDX 13 15 10 16 12 17 11 18 18 19 19 20 20 21 21 22 22 24 23 25
REMARK SMILES IDX 24 26 85 27 25 28 84 29 26 30 27 31 28 32 78 33 29 34 83 35
REMARK SMILES IDX 77 36 79 37 30 38 82 39 76 40 75 41 31 43 63 44 43 45 62 46
REMARK SMILES IDX 44 47 47 48 61 49 80 50 45 51 46 52 60 54 81 55 48 56 32 57
REMARK SMILES IDX 33 58 41 59 34 60 35 61 39 62 42 63 36 64 37 65 40 66 38 67
REMARK SMILES IDX 64 68 65 69 73 70 66 71 67 72 71 73 74 74 68 75 69 76 72 77
REMARK SMILES IDX 70 78 49 79 50 80 58 81 51 82 52 83 56 84 59 85 53 86 54 87
REMARK SMILES IDX 57 88 55 89
REMARK H PARENT 16 5 20 23 79 42 47 53
REMARK Flexibility Score: inf
ROOT
ATOM      1  C   UNL A   1      37.950  22.655  25.748  1.00  0.00     0.117 C 
ENDROOT
BRANCH   1   2
ATOM      2  N   UNL A   1      36.687  22.439  26.431  1.00  0.00    -0.356 N 
ATOM      3  O   UNL A   1      35.631  24.271  25.526  1.00  0.00    -0.275 OA
ATOM      4  C   UNL A   1      35.596  23.249  26.215  1.00  0.00     0.220 C 
ATOM      5  H   UNL A   1      36.609  21.691  27.068  1.00  0.00     0.163 HD
BRANCH   4   6
ATOM      6  C   UNL A   1      34.319  22.782  26.877  1.00  0.00     0.100 C 
BRANCH   6   7
ATOM      7  C   UNL A   1      33.072  23.039  26.020  1.00  0.00     0.020 C 
BRANCH   7   8
ATOM      8  C   UNL A   1      33.079  22.420  24.616  1.00  0.00     0.098 C 
BRANCH   8   9
ATOM      9  C   UNL A   1      33.128  20.933  24.646  1.00  0.00     0.195 A 
ATOM     10  N   UNL A   1      32.181  20.090  25.007  1.00  0.00    -0.214 NA
ATOM     11  O   UNL A   1      34.336  20.350  24.355  1.00  0.00    -0.441 OA
ATOM     12  C   UNL A   1      32.797  18.868  24.973  1.00  0.00     0.110 A 
ATOM     13  C   UNL A   1      34.110  19.018  24.556  1.00  0.00     0.154 A 
ATOM     14  C   UNL A   1      32.317  17.596  25.298  1.00  0.00     0.048 A 
ATOM     15  C   UNL A   1      35.012  17.972  24.404  1.00  0.00     0.050 A 
ATOM     16  C   UNL A   1      33.203  16.520  25.170  1.00  0.00     0.020 A 
ATOM     17  C   UNL A   1      34.520  16.699  24.725  1.00  0.00     0.019 A 
ATOM     18  Br  UNL A   1      32.602  14.781  25.617  1.00  0.00    -0.051 Br
ENDBRANCH   8   9
ENDBRANCH   7   8
ENDBRANCH   6   7
ENDBRANCH   4   6
ENDBRANCH   1   2
BRANCH   1  19
ATOM     19  C   UNL A   1      38.847  21.416  25.705  1.00  0.00     0.042 C 
BRANCH  19  20
ATOM     20  C   UNL A   1      40.018  21.426  26.688  1.00  0.00     0.118 C 
BRANCH  20  21
ATOM     21  N   UNL A   1      41.266  21.907  26.128  1.00  0.00    -0.352 N 
ATOM     22  C   UNL A   1      42.043  23.022  26.282  1.00  0.00     0.251 C 
ATOM     23  H   UNL A   1      41.648  21.276  25.475  1.00  0.00     0.163 HD
ATOM     24  O   UNL A   1      43.188  22.933  25.825  1.00  0.00    -0.269 OA
BRANCH  22  25
ATOM     25  C   UNL A   1      41.621  24.326  26.872  1.00  0.00     0.039 A 
ATOM     26  C   UNL A   1      40.605  25.150  26.396  1.00  0.00     0.014 A 
ATOM     27  C   UNL A   1      42.403  24.792  27.952  1.00  0.00     0.014 A 
ATOM     28  C   UNL A   1      40.444  26.434  26.926  1.00  0.00     0.010 A 
ATOM     29  C   UNL A   1      42.244  26.072  28.485  1.00  0.00     0.010 A 
ATOM     30  C   UNL A   1      41.294  26.921  27.938  1.00  0.00    -0.014 A 
BRANCH  30  31
ATOM     31  C   UNL A   1      41.070  28.283  28.441  1.00  0.00     0.031 A 
ATOM     32  C   UNL A   1      42.147  29.246  28.081  1.00  0.00     0.074 A 
ATOM     33  C   UNL A   1      40.002  28.718  29.150  1.00  0.00     0.049 A 
ATOM     34  N   UNL A   1      43.021  29.768  28.878  1.00  0.00    -0.248 NA
ATOM     35  C   UNL A   1      42.362  29.566  26.664  1.00  0.00     0.031 C 
ATOM     36  C   UNL A   1      38.731  28.038  29.411  1.00  0.00     0.029 A 
ATOM     37  N   UNL A   1      39.830  29.926  29.774  1.00  0.00    -0.354 N 
ATOM     38  C   UNL A   1      43.813  30.604  28.098  1.00  0.00     0.074 A 
ATOM     39  C   UNL A   1      43.437  30.356  26.730  1.00  0.00     0.031 C 
ATOM     40  C   UNL A   1      37.854  28.910  29.966  1.00  0.00     0.029 A 
ATOM     41  C   UNL A   1      38.542  30.159  30.248  1.00  0.00     0.049 A 
ATOM     42  H   UNL A   1      40.560  30.578  29.881  1.00  0.00     0.167 HD
ATOM     43  C   UNL A   1      44.588  31.567  28.671  1.00  0.00     0.037 A 
ATOM     44  C   UNL A   1      38.074  31.290  30.836  1.00  0.00     0.037 A 
ATOM     45  C   UNL A   1      44.789  31.302  30.073  1.00  0.00     0.049 A 
ATOM     46  C   UNL A   1      39.239  32.005  31.404  1.00  0.00     0.074 A 
ATOM     47  C   UNL A   1      45.409  30.312  30.806  1.00  0.00     0.029 A 
ATOM     48  N   UNL A   1      43.998  31.985  30.960  1.00  0.00    -0.354 N 
ATOM     49  N   UNL A   1      39.938  31.575  32.414  1.00  0.00    -0.248 NA
ATOM     50  C   UNL A   1      39.872  33.027  30.588  1.00  0.00     0.031 C 
ATOM     51  C   UNL A   1      44.609  30.160  31.978  1.00  0.00     0.029 A 
ATOM     52  C   UNL A   1      43.580  31.100  31.918  1.00  0.00     0.049 A 
ATOM     53  H   UNL A   1      43.770  32.942  30.917  1.00  0.00     0.167 HD
ATOM     54  C   UNL A   1      41.241  31.921  32.102  1.00  0.00     0.074 A 
ATOM     55  C   UNL A   1      41.125  32.906  31.030  1.00  0.00     0.031 C 
ATOM     56  C   UNL A   1      42.286  31.172  32.554  1.00  0.00     0.037 A 
BRANCH  43  57
ATOM     57  C   UNL A   1      44.846  32.931  28.076  1.00  0.00     0.064 A 
ATOM     58  C   UNL A   1      46.154  33.262  27.659  1.00  0.00     0.173 A 
ATOM     59  C   UNL A   1      43.958  34.019  28.203  1.00  0.00     0.173 A 
ATOM     60  F   UNL A   1      47.088  32.309  27.515  1.00  0.00    -0.203 F 
ATOM     61  C   UNL A   1      46.563  34.586  27.480  1.00  0.00     0.198 A 
ATOM     62  C   UNL A   1      44.357  35.337  27.977  1.00  0.00     0.198 A 
ATOM     63  F   UNL A   1      42.710  33.870  28.658  1.00  0.00    -0.203 F 
ATOM     64  F   UNL A   1      47.848  34.857  27.218  1.00  0.00    -0.200 F 
ATOM     65  C   UNL A   1      45.666  35.624  27.650  1.00  0.00     0.200 A 
ATOM     66  F   UNL A   1      43.478  36.331  28.164  1.00  0.00    -0.200 F 
ATOM     67  F   UNL A   1      46.069  36.896  27.549  1.00  0.00    -0.200 F 
ENDBRANCH  43  57
BRANCH  44  68
ATOM     68  C   UNL A   1      36.763  31.973  30.661  1.00  0.00     0.064 A 
ATOM     69  C   UNL A   1      35.864  32.109  31.737  1.00  0.00     0.173 A 
ATOM     70  C   UNL A   1      36.519  32.790  29.542  1.00  0.00     0.173 A 
ATOM     71  F   UNL A   1      36.045  31.403  32.863  1.00  0.00    -0.203 F 
ATOM     72  C   UNL A   1      34.815  33.037  31.710  1.00  0.00     0.198 A 
ATOM     73  C   UNL A   1      35.471  33.712  29.516  1.00  0.00     0.198 A 
ATOM     74  F   UNL A   1      37.357  32.782  28.495  1.00  0.00    -0.203 F 
ATOM     75  F   UNL A   1      34.029  33.191  32.785  1.00  0.00    -0.200 F 
ATOM     76  C   UNL A   1      34.631  33.848  30.605  1.00  0.00     0.200 A 
ATOM     77  F   UNL A   1      35.326  34.521  28.457  1.00  0.00    -0.200 F 
ATOM     78  F   UNL A   1      33.676  34.789  30.607  1.00  0.00    -0.200 F 
ENDBRANCH  44  68
BRANCH  56  79
ATOM     79  C   UNL A   1      42.015  30.179  33.651  1.00  0.00     0.064 A 
ATOM     80  C   UNL A   1      41.608  28.850  33.437  1.00  0.00     0.173 A 
ATOM     81  C   UNL A   1      42.328  30.554  34.965  1.00  0.00     0.173 A 
ATOM     82  F   UNL A   1      41.374  28.388  32.202  1.00  0.00    -0.203 F 
ATOM     83  C   UNL A   1      41.494  27.953  34.498  1.00  0.00     0.198 A 
ATOM     84  C   UNL A   1      42.250  29.646  36.016  1.00  0.00     0.198 A 
ATOM     85  F   UNL A   1      42.765  31.798  35.222  1.00  0.00    -0.203 F 
ATOM     86  F   UNL A   1      41.098  26.690  34.273  1.00  0.00    -0.200 F 
ATOM     87  C   UNL A   1      41.826  28.348  35.784  1.00  0.00     0.200 A 
ATOM     88  F   UNL A   1      42.618  30.021  37.248  1.00  0.00    -0.200 F 
ATOM     89  F   UNL A   1      41.767  27.471  36.795  1.00  0.00    -0.200 F 
ENDBRANCH  56  79
ENDBRANCH  30  31
ENDBRANCH  22  25
ENDBRANCH  20  21
ENDBRANCH  19  20
ENDBRANCH   1  19
TORSDOF 13
ENDMDL
MODEL 3
REMARK VINA RESULT:     -10.3      5.766     11.490
REMARK SMILES O=C(CCCc1nc2cc(Br)ccc2o1)NCCCNC(=O)c1ccc(-c2c3nc(c(-c4c(F)c(F)c(F)c(F)c4F)c4ccc([nH]4)c(-c4c(F)c(F)c(F)c(F)c4F)c4nc(c(-c5c(F)c(F)c(F)c(F)c5F)c5ccc2[nH]5)C=C4)C=C3)cc1
REMARK SMILES IDX 17 1 16 2 1 3 2 4 3 6 4 7 5 8 6 9 7 10 15 11 8 12 14 13 9 14
REMARK SMILES IDX 13 15 10 16 12 17 11 18 18 19 19 20 20 21 21 22 22 24 23 25
REMARK SMILES IDX 24 26 85 27 25 28 84 29 26 30 27 31 28 32 78 33 29 34 83 35
REMARK SMILES IDX 77 36 79 37 30 38 82 39 76 40 75 41 31 43 63 44 43 45 62 46
REMARK SMILES IDX 44 47 47 48 61 49 80 50 45 51 46 52 60 54 81 55 48 56 32 57
REMARK SMILES IDX 33 58 41 59 34 60 35 61 39 62 42 63 36 64 37 65 40 66 38 67
REMARK SMILES IDX 64 68 65 69 73 70 66 71 67 72 71 73 74 74 68 75 69 76 72 77
REMARK SMILES IDX 70 78 49 79 50 80 58 81 51 82 52 83 56 84 59 85 53 86 54 87
REMARK SMILES IDX 57 88 55 89
REMARK H PARENT 16 5 20 23 79 42 47 53
REMARK Flexibility Score: inf
ROOT
ATOM      1  C   UNL A   1      32.726  30.271  26.829  1.00  0.00     0.117 C 
ENDROOT
BRANCH   1   2
ATOM      2  N   UNL A   1      32.724  28.902  26.347  1.00  0.00    -0.356 N 
ATOM      3  O   UNL A   1      31.350  28.088  28.002  1.00  0.00    -0.275 OA
ATOM      4  C   UNL A   1      31.977  27.919  26.954  1.00  0.00     0.220 C 
ATOM      5  H   UNL A   1      33.275  28.670  25.564  1.00  0.00     0.163 HD
BRANCH   4   6
ATOM      6  C   UNL A   1      31.961  26.594  26.225  1.00  0.00     0.100 C 
BRANCH   6   7
ATOM      7  C   UNL A   1      30.832  26.494  25.190  1.00  0.00     0.020 C 
BRANCH   7   8
ATOM      8  C   UNL A   1      31.189  26.918  23.759  1.00  0.00     0.098 C 
BRANCH   8   9
ATOM      9  C   UNL A   1      30.418  28.106  23.304  1.00  0.00     0.195 A 
ATOM     10  N   UNL A   1      29.934  28.358  22.104  1.00  0.00    -0.214 NA
ATOM     11  O   UNL A   1      30.266  29.125  24.211  1.00  0.00    -0.441 OA
ATOM     12  C   UNL A   1      29.442  29.631  22.208  1.00  0.00     0.110 A 
ATOM     13  C   UNL A   1      29.624  30.099  23.500  1.00  0.00     0.154 A 
ATOM     14  C   UNL A   1      28.846  30.459  21.251  1.00  0.00     0.048 A 
ATOM     15  C   UNL A   1      29.229  31.354  23.945  1.00  0.00     0.050 A 
ATOM     16  C   UNL A   1      28.447  31.736  21.662  1.00  0.00     0.020 A 
ATOM     17  C   UNL A   1      28.625  32.175  22.981  1.00  0.00     0.019 A 
ATOM     18  Br  UNL A   1      27.653  32.899  20.396  1.00  0.00    -0.051 Br
ENDBRANCH   8   9
ENDBRANCH   7   8
ENDBRANCH   6   7
ENDBRANCH   4   6
ENDBRANCH   1   2
BRANCH   1  19
ATOM     19  C   UNL A   1      33.979  30.643  27.624  1.00  0.00     0.042 C 
BRANCH  19  20
ATOM     20  C   UNL A   1      34.142  32.134  27.922  1.00  0.00     0.118 C 
BRANCH  20  21
ATOM     21  N   UNL A   1      34.454  32.439  29.305  1.00  0.00    -0.352 N 
ATOM     22  C   UNL A   1      35.510  32.209  30.144  1.00  0.00     0.251 C 
ATOM     23  H   UNL A   1      33.727  32.932  29.750  1.00  0.00     0.163 HD
ATOM     24  O   UNL A   1      35.511  32.876  31.184  1.00  0.00    -0.269 OA
BRANCH  22  25
ATOM     25  C   UNL A   1      36.593  31.201  29.954  1.00  0.00     0.039 A 
ATOM     26  C   UNL A   1      36.496  29.836  30.211  1.00  0.00     0.014 A 
ATOM     27  C   UNL A   1      37.851  31.717  29.572  1.00  0.00     0.014 A 
ATOM     28  C   UNL A   1      37.644  29.038  30.177  1.00  0.00     0.010 A 
ATOM     29  C   UNL A   1      38.998  30.922  29.535  1.00  0.00     0.010 A 
ATOM     30  C   UNL A   1      38.909  29.585  29.888  1.00  0.00    -0.014 A 
BRANCH  30  31
ATOM     31  C   UNL A   1      40.071  28.686  29.877  1.00  0.00     0.031 A 
ATOM     32  C   UNL A   1      40.685  28.474  31.218  1.00  0.00     0.074 A 
ATOM     33  C   UNL A   1      40.589  28.047  28.803  1.00  0.00     0.049 A 
ATOM     34  N   UNL A   1      41.824  28.924  31.630  1.00  0.00    -0.248 NA
ATOM     35  C   UNL A   1      39.894  27.801  32.256  1.00  0.00     0.031 C 
ATOM     36  C   UNL A   1      40.029  27.906  27.457  1.00  0.00     0.029 A 
ATOM     37  N   UNL A   1      41.759  27.337  28.717  1.00  0.00    -0.354 N 
ATOM     38  C   UNL A   1      41.975  28.470  32.937  1.00  0.00     0.074 A 
ATOM     39  C   UNL A   1      40.714  27.882  33.308  1.00  0.00     0.031 C 
ATOM     40  C   UNL A   1      40.755  27.002  26.754  1.00  0.00     0.029 A 
ATOM     41  C   UNL A   1      41.920  26.621  27.535  1.00  0.00     0.049 A 
ATOM     42  H   UNL A   1      42.433  27.333  29.435  1.00  0.00     0.167 HD
ATOM     43  C   UNL A   1      43.198  28.460  33.536  1.00  0.00     0.037 A 
ATOM     44  C   UNL A   1      42.938  25.780  27.215  1.00  0.00     0.037 A 
ATOM     45  C   UNL A   1      44.120  29.326  32.846  1.00  0.00     0.049 A 
ATOM     46  C   UNL A   1      44.104  26.168  28.040  1.00  0.00     0.074 A 
ATOM     47  C   UNL A   1      44.204  30.683  32.611  1.00  0.00     0.029 A 
ATOM     48  N   UNL A   1      44.995  28.741  31.969  1.00  0.00    -0.354 N 
ATOM     49  N   UNL A   1      44.762  27.282  27.896  1.00  0.00    -0.248 NA
ATOM     50  C   UNL A   1      44.303  25.476  29.302  1.00  0.00     0.031 C 
ATOM     51  C   UNL A   1      44.766  30.801  31.305  1.00  0.00     0.029 A 
ATOM     52  C   UNL A   1      45.042  29.515  30.841  1.00  0.00     0.049 A 
ATOM     53  H   UNL A   1      45.501  27.910  32.122  1.00  0.00     0.167 HD
ATOM     54  C   UNL A   1      45.085  27.659  29.188  1.00  0.00     0.074 A 
ATOM     55  C   UNL A   1      44.878  26.460  29.996  1.00  0.00     0.031 C 
ATOM     56  C   UNL A   1      45.221  28.976  29.514  1.00  0.00     0.037 A 
BRANCH  43  57
ATOM     57  C   UNL A   1      43.677  27.397  34.496  1.00  0.00     0.064 A 
ATOM     58  C   UNL A   1      43.799  26.065  34.042  1.00  0.00     0.173 A 
ATOM     59  C   UNL A   1      43.701  27.562  35.896  1.00  0.00     0.173 A 
ATOM     60  F   UNL A   1      43.777  25.786  32.729  1.00  0.00    -0.203 F 
ATOM     61  C   UNL A   1      43.842  24.982  34.923  1.00  0.00     0.198 A 
ATOM     62  C   UNL A   1      43.792  26.481  36.774  1.00  0.00     0.198 A 
ATOM     63  F   UNL A   1      43.523  28.755  36.476  1.00  0.00    -0.203 F 
ATOM     64  F   UNL A   1      43.819  23.732  34.443  1.00  0.00    -0.200 F 
ATOM     65  C   UNL A   1      43.827  25.190  36.289  1.00  0.00     0.200 A 
ATOM     66  F   UNL A   1      43.759  26.702  38.095  1.00  0.00    -0.200 F 
ATOM     67  F   UNL A   1      43.797  24.155  37.136  1.00  0.00    -0.200 F 
ENDBRANCH  43  57
BRANCH  44  68
ATOM     68  C   UNL A   1      42.896  24.470  26.511  1.00  0.00     0.064 A 
ATOM     69  C   UNL A   1      43.594  24.269  25.304  1.00  0.00     0.173 A 
ATOM     70  C   UNL A   1      42.456  23.309  27.174  1.00  0.00     0.173 A 
ATOM     71  F   UNL A   1      44.090  25.315  24.628  1.00  0.00    -0.203 F 
ATOM     72  C   UNL A   1      43.872  22.985  24.817  1.00  0.00     0.198 A 
ATOM     73  C   UNL A   1      42.732  22.030  26.685  1.00  0.00     0.198 A 
ATOM     74  F   UNL A   1      41.841  23.393  28.362  1.00  0.00    -0.203 F 
ATOM     75  F   UNL A   1      44.607  22.835  23.706  1.00  0.00    -0.200 F 
ATOM     76  C   UNL A   1      43.454  21.868  25.517  1.00  0.00     0.200 A 
ATOM     77  F   UNL A   1      42.357  20.955  27.392  1.00  0.00    -0.200 F 
ATOM     78  F   UNL A   1      43.785  20.640  25.094  1.00  0.00    -0.200 F 
ENDBRANCH  44  68
BRANCH  56  79
ATOM     79  C   UNL A   1      45.342  29.968  28.390  1.00  0.00     0.064 A 
ATOM     80  C   UNL A   1      44.249  30.572  27.744  1.00  0.00     0.173 A 
ATOM     81  C   UNL A   1      46.623  30.432  28.062  1.00  0.00     0.173 A 
ATOM     82  F   UNL A   1      42.989  30.246  28.062  1.00  0.00    -0.203 F 
ATOM     83  C   UNL A   1      44.439  31.574  26.792  1.00  0.00     0.198 A 
ATOM     84  C   UNL A   1      46.807  31.458  27.140  1.00  0.00     0.198 A 
ATOM     85  F   UNL A   1      47.700  29.923  28.680  1.00  0.00    -0.203 F 
ATOM     86  F   UNL A   1      43.382  32.134  26.183  1.00  0.00    -0.200 F 
ATOM     87  C   UNL A   1      45.717  32.024  26.501  1.00  0.00     0.200 A 
ATOM     88  F   UNL A   1      48.041  31.921  26.898  1.00  0.00    -0.200 F 
ATOM     89  F   UNL A   1      45.896  33.023  25.626  1.00  0.00    -0.200 F 
ENDBRANCH  56  79
ENDBRANCH  30  31
ENDBRANCH  22  25
ENDBRANCH  20  21
ENDBRANCH  19  20
ENDBRANCH   1  19
TORSDOF 13
ENDMDL
