MODEL 1
REMARK VINA RESULT:     -12.9      0.000      0.000
REMARK SMILES CCCc1nn(-c2ccc(OC)cc2)c2sc(C(=O)NCCCNC(=O)c3ccc(-c4c5nc(c(-c6c(F)c(F)c(F)c(F)c6F)c6ccc([nH]6)c(-c6c(F)c(F)c(F)c(F)c6F)c6nc(c(-c7c(F)c(F)c(F)c(F)c7F)c7ccc4[nH]7)C=C6)C=C5)cc3)cc12
REMARK SMILES IDX 22 1 21 2 20 3 18 4 19 5 17 7 4 8 5 9 91 10 6 11 15 12 90 13
REMARK SMILES IDX 16 14 3 15 2 16 1 17 7 18 8 19 14 20 9 21 13 22 10 23 11 24
REMARK SMILES IDX 12 25 23 26 24 27 25 28 26 30 27 31 28 32 89 33 29 34 88 35
REMARK SMILES IDX 30 36 31 37 32 38 82 39 33 40 87 41 81 42 83 43 34 44 86 45
REMARK SMILES IDX 80 46 79 47 35 49 67 50 47 51 66 52 48 53 51 54 65 55 84 56
REMARK SMILES IDX 49 57 50 58 64 60 85 61 52 62 36 63 37 64 45 65 38 66 39 67
REMARK SMILES IDX 43 68 46 69 40 70 41 71 44 72 42 73 68 74 69 75 77 76 70 77
REMARK SMILES IDX 71 78 75 79 78 80 72 81 73 82 76 83 74 84 53 85 54 86 62 87
REMARK SMILES IDX 55 88 56 89 60 90 63 91 57 92 58 93 61 94 59 95
REMARK H PARENT 20 6 24 29 83 48 51 59
REMARK Flexibility Score: inf
ROOT
ATOM      1  C   UNL A   1      35.351  30.462  27.651  1.00  0.00     0.042 C 
ENDROOT
BRANCH   1   2
ATOM      2  C   UNL A   1      33.927  30.504  27.066  1.00  0.00     0.118 C 
BRANCH   2   3
ATOM      3  N   UNL A   1      32.958  29.668  27.784  1.00  0.00    -0.351 N 
ATOM      4  C   UNL A   1      32.078  28.686  27.351  1.00  0.00     0.261 C 
ATOM      5  O   UNL A   1      31.553  28.002  28.233  1.00  0.00    -0.268 OA
ATOM      6  H   UNL A   1      32.928  29.834  28.754  1.00  0.00     0.163 HD
BRANCH   4   7
ATOM      7  C   UNL A   1      31.812  28.449  25.937  1.00  0.00     0.095 A 
ATOM      8  C   UNL A   1      30.468  28.692  22.512  1.00  0.00     0.072 A 
ATOM      9  N   UNL A   1      30.697  27.553  21.791  1.00  0.00    -0.171 NA
ATOM     10  C   UNL A   1      30.977  28.553  23.804  1.00  0.00     0.035 A 
ATOM     11  N   UNL A   1      31.288  26.707  22.686  1.00  0.00    -0.223 N 
ATOM     12  C   UNL A   1      31.572  27.370  23.824  1.00  0.00     0.128 A 
ATOM     13  C   UNL A   1      31.088  29.241  25.019  1.00  0.00     0.038 A 
ATOM     14  S   UNL A   1      32.532  27.105  25.121  1.00  0.00    -0.110 S 
BRANCH   8  15
ATOM     15  C   UNL A   1      29.828  29.873  21.864  1.00  0.00     0.058 C 
BRANCH  15  16
ATOM     16  C   UNL A   1      28.326  29.995  22.148  1.00  0.00     0.003 C 
ATOM     17  C   UNL A   1      27.993  30.984  23.257  1.00  0.00     0.004 C 
ENDBRANCH  15  16
ENDBRANCH   8  15
BRANCH  11  18
ATOM     18  C   UNL A   1      31.537  25.331  22.515  1.00  0.00     0.066 A 
ATOM     19  C   UNL A   1      30.711  24.429  23.210  1.00  0.00     0.032 A 
ATOM     20  C   UNL A   1      32.747  24.912  21.973  1.00  0.00     0.032 A 
ATOM     21  C   UNL A   1      31.117  23.112  23.388  1.00  0.00     0.048 A 
ATOM     22  C   UNL A   1      33.159  23.587  22.186  1.00  0.00     0.048 A 
ATOM     23  C   UNL A   1      32.352  22.689  22.899  1.00  0.00     0.119 A 
BRANCH  23  24
ATOM     24  O   UNL A   1      32.655  21.393  23.211  1.00  0.00    -0.497 OA
ATOM     25  C   UNL A   1      32.406  20.976  24.545  1.00  0.00     0.278 C 
ENDBRANCH  23  24
ENDBRANCH  11  18
ENDBRANCH   4   7
ENDBRANCH   2   3
ENDBRANCH   1   2
BRANCH   1  26
ATOM     26  C   UNL A   1      35.920  31.835  27.926  1.00  0.00     0.118 C 
BRANCH  26  27
ATOM     27  N   UNL A   1      35.423  32.423  29.168  1.00  0.00    -0.352 N 
ATOM     28  C   UNL A   1      35.670  32.008  30.466  1.00  0.00     0.251 C 
ATOM     29  H   UNL A   1      34.841  33.211  29.070  1.00  0.00     0.163 HD
ATOM     30  O   UNL A   1      34.939  32.335  31.383  1.00  0.00    -0.269 OA
BRANCH  28  31
ATOM     31  C   UNL A   1      36.834  31.133  30.706  1.00  0.00     0.039 A 
ATOM     32  C   UNL A   1      36.686  29.761  30.905  1.00  0.00     0.014 A 
ATOM     33  C   UNL A   1      38.097  31.708  30.649  1.00  0.00     0.014 A 
ATOM     34  C   UNL A   1      37.832  28.971  30.945  1.00  0.00     0.010 A 
ATOM     35  C   UNL A   1      39.194  30.911  30.455  1.00  0.00     0.010 A 
ATOM     36  C   UNL A   1      39.087  29.549  30.677  1.00  0.00    -0.014 A 
BRANCH  36  37
ATOM     37  C   UNL A   1      40.285  28.725  30.559  1.00  0.00     0.031 A 
ATOM     38  C   UNL A   1      41.003  28.491  31.840  1.00  0.00     0.074 A 
ATOM     39  C   UNL A   1      40.671  28.093  29.429  1.00  0.00     0.049 A 
ATOM     40  N   UNL A   1      42.142  28.989  32.189  1.00  0.00    -0.248 NA
ATOM     41  C   UNL A   1      40.327  27.739  32.906  1.00  0.00     0.031 C 
ATOM     42  C   UNL A   1      39.968  27.944  28.149  1.00  0.00     0.029 A 
ATOM     43  N   UNL A   1      41.804  27.367  29.222  1.00  0.00    -0.354 N 
ATOM     44  C   UNL A   1      42.422  28.478  33.451  1.00  0.00     0.074 A 
ATOM     45  C   UNL A   1      41.210  27.843  33.904  1.00  0.00     0.031 C 
ATOM     46  C   UNL A   1      40.572  26.996  27.401  1.00  0.00     0.029 A 
ATOM     47  C   UNL A   1      41.808  26.615  28.056  1.00  0.00     0.049 A 
ATOM     48  H   UNL A   1      42.561  27.376  29.850  1.00  0.00     0.167 HD
ATOM     49  C   UNL A   1      43.703  28.440  33.911  1.00  0.00     0.037 A 
ATOM     50  C   UNL A   1      42.763  25.737  27.663  1.00  0.00     0.037 A 
ATOM     51  C   UNL A   1      44.552  29.324  33.149  1.00  0.00     0.049 A 
ATOM     52  C   UNL A   1      44.006  26.092  28.393  1.00  0.00     0.074 A 
ATOM     53  C   UNL A   1      44.546  30.682  32.889  1.00  0.00     0.029 A 
ATOM     54  N   UNL A   1      45.367  28.774  32.189  1.00  0.00    -0.354 N 
ATOM     55  N   UNL A   1      44.679  27.188  28.182  1.00  0.00    -0.248 NA
ATOM     56  C   UNL A   1      44.228  25.456  29.682  1.00  0.00     0.031 C 
ATOM     57  C   UNL A   1      44.911  30.793  31.512  1.00  0.00     0.029 A 
ATOM     58  C   UNL A   1      45.194  29.510  31.044  1.00  0.00     0.049 A 
ATOM     59  H   UNL A   1      45.964  28.000  32.301  1.00  0.00     0.167 HD
ATOM     60  C   UNL A   1      45.053  27.616  29.446  1.00  0.00     0.074 A 
ATOM     61  C   UNL A   1      44.815  26.471  30.323  1.00  0.00     0.031 C 
ATOM     62  C   UNL A   1      45.244  28.941  29.718  1.00  0.00     0.037 A 
BRANCH  49  63
ATOM     63  C   UNL A   1      44.267  27.342  34.782  1.00  0.00     0.064 A 
ATOM     64  C   UNL A   1      44.124  26.003  34.365  1.00  0.00     0.173 A 
ATOM     65  C   UNL A   1      44.644  27.522  36.130  1.00  0.00     0.173 A 
ATOM     66  F   UNL A   1      43.768  25.712  33.104  1.00  0.00    -0.203 F 
ATOM     67  C   UNL A   1      44.241  24.935  35.258  1.00  0.00     0.198 A 
ATOM     68  C   UNL A   1      44.810  26.450  37.005  1.00  0.00     0.198 A 
ATOM     69  F   UNL A   1      44.752  28.732  36.688  1.00  0.00    -0.203 F 
ATOM     70  F   UNL A   1      43.955  23.691  34.848  1.00  0.00    -0.200 F 
ATOM     71  C   UNL A   1      44.571  25.160  36.581  1.00  0.00     0.200 A 
ATOM     72  F   UNL A   1      45.117  26.691  38.288  1.00  0.00    -0.200 F 
ATOM     73  F   UNL A   1      44.612  24.148  37.456  1.00  0.00    -0.200 F 
ENDBRANCH  49  63
BRANCH  50  74
ATOM     74  C   UNL A   1      42.599  24.448  26.953  1.00  0.00     0.064 A 
ATOM     75  C   UNL A   1      43.084  24.279  25.645  1.00  0.00     0.173 A 
ATOM     76  C   UNL A   1      42.240  23.275  27.645  1.00  0.00     0.173 A 
ATOM     77  F   UNL A   1      43.484  25.342  24.932  1.00  0.00    -0.203 F 
ATOM     78  C   UNL A   1      43.240  23.010  25.079  1.00  0.00     0.198 A 
ATOM     79  C   UNL A   1      42.392  22.009  27.077  1.00  0.00     0.198 A 
ATOM     80  F   UNL A   1      41.831  23.327  28.920  1.00  0.00    -0.203 F 
ATOM     81  F   UNL A   1      43.773  22.884  23.856  1.00  0.00    -0.200 F 
ATOM     82  C   UNL A   1      42.907  21.875  25.800  1.00  0.00     0.200 A 
ATOM     83  F   UNL A   1      42.103  20.917  27.798  1.00  0.00    -0.200 F 
ATOM     84  F   UNL A   1      43.124  20.656  25.286  1.00  0.00    -0.200 F 
ENDBRANCH  50  74
BRANCH  62  85
ATOM     85  C   UNL A   1      45.286  29.904  28.564  1.00  0.00     0.064 A 
ATOM     86  C   UNL A   1      44.156  30.531  28.009  1.00  0.00     0.173 A 
ATOM     87  C   UNL A   1      46.541  30.315  28.092  1.00  0.00     0.173 A 
ATOM     88  F   UNL A   1      42.925  30.272  28.469  1.00  0.00    -0.203 F 
ATOM     89  C   UNL A   1      44.278  31.488  27.002  1.00  0.00     0.198 A 
ATOM     90  C   UNL A   1      46.662  31.298  27.114  1.00  0.00     0.198 A 
ATOM     91  F   UNL A   1      47.660  29.793  28.618  1.00  0.00    -0.203 F 
ATOM     92  F   UNL A   1      43.182  32.060  26.480  1.00  0.00    -0.200 F 
ATOM     93  C   UNL A   1      45.532  31.875  26.560  1.00  0.00     0.200 A 
ATOM     94  F   UNL A   1      47.879  31.704  26.726  1.00  0.00    -0.200 F 
ATOM     95  F   UNL A   1      45.652  32.823  25.620  1.00  0.00    -0.200 F 
ENDBRANCH  62  85
ENDBRANCH  36  37
ENDBRANCH  28  31
ENDBRANCH  26  27
ENDBRANCH   1  26
TORSDOF 14
ENDMDL
MODEL 2
REMARK VINA RESULT:     -12.7      3.661      9.284
REMARK SMILES CCCc1nn(-c2ccc(OC)cc2)c2sc(C(=O)NCCCNC(=O)c3ccc(-c4c5nc(c(-c6c(F)c(F)c(F)c(F)c6F)c6ccc([nH]6)c(-c6c(F)c(F)c(F)c(F)c6F)c6nc(c(-c7c(F)c(F)c(F)c(F)c7F)c7ccc4[nH]7)C=C6)C=C5)cc3)cc12
REMARK SMILES IDX 22 1 21 2 20 3 18 4 19 5 17 7 4 8 5 9 91 10 6 11 15 12 90 13
REMARK SMILES IDX 16 14 3 15 2 16 1 17 7 18 8 19 14 20 9 21 13 22 10 23 11 24
REMARK SMILES IDX 12 25 23 26 24 27 25 28 26 30 27 31 28 32 89 33 29 34 88 35
REMARK SMILES IDX 30 36 31 37 32 38 82 39 33 40 87 41 81 42 83 43 34 44 86 45
REMARK SMILES IDX 80 46 79 47 35 49 67 50 47 51 66 52 48 53 51 54 65 55 84 56
REMARK SMILES IDX 49 57 50 58 64 60 85 61 52 62 36 63 37 64 45 65 38 66 39 67
REMARK SMILES IDX 43 68 46 69 40 70 41 71 44 72 42 73 68 74 69 75 77 76 70 77
REMARK SMILES IDX 71 78 75 79 78 80 72 81 73 82 76 83 74 84 53 85 54 86 62 87
REMARK SMILES IDX 55 88 56 89 60 90 63 91 57 92 58 93 61 94 59 95
REMARK H PARENT 20 6 24 29 83 48 51 59
REMARK Flexibility Score: inf
ROOT
ATOM      1  C   UNL A   1      40.114  20.491  26.498  1.00  0.00     0.042 C 
ENDROOT
BRANCH   1   2
ATOM      2  C   UNL A   1      38.794  20.733  25.741  1.00  0.00     0.118 C 
BRANCH   2   3
ATOM      3  N   UNL A   1      38.515  22.145  25.458  1.00  0.00    -0.351 N 
ATOM      4  C   UNL A   1      37.327  22.861  25.389  1.00  0.00     0.261 C 
ATOM      5  O   UNL A   1      37.437  24.089  25.355  1.00  0.00    -0.268 OA
ATOM      6  H   UNL A   1      39.319  22.686  25.287  1.00  0.00     0.163 HD
BRANCH   4   7
ATOM      7  C   UNL A   1      36.024  22.207  25.392  1.00  0.00     0.095 A 
ATOM      8  C   UNL A   1      33.313  19.744  24.965  1.00  0.00     0.072 A 
ATOM      9  N   UNL A   1      32.078  20.327  25.031  1.00  0.00    -0.171 NA
ATOM     10  C   UNL A   1      34.308  20.710  25.115  1.00  0.00     0.035 A 
ATOM     11  N   UNL A   1      32.347  21.661  25.154  1.00  0.00    -0.223 N 
ATOM     12  C   UNL A   1      33.667  21.846  25.345  1.00  0.00     0.128 A 
ATOM     13  C   UNL A   1      35.702  20.856  25.135  1.00  0.00     0.038 A 
ATOM     14  S   UNL A   1      34.609  23.070  25.882  1.00  0.00    -0.110 S 
BRANCH   8  15
ATOM     15  C   UNL A   1      33.437  18.264  24.832  1.00  0.00     0.058 C 
BRANCH  15  16
ATOM     16  C   UNL A   1      33.201  17.750  23.407  1.00  0.00     0.003 C 
ATOM     17  C   UNL A   1      34.150  16.632  22.996  1.00  0.00     0.004 C 
ENDBRANCH  15  16
ENDBRANCH   8  15
BRANCH  11  18
ATOM     18  C   UNL A   1      31.429  22.724  25.051  1.00  0.00     0.066 A 
ATOM     19  C   UNL A   1      31.251  23.310  23.784  1.00  0.00     0.032 A 
ATOM     20  C   UNL A   1      30.997  23.376  26.201  1.00  0.00     0.032 A 
ATOM     21  C   UNL A   1      30.667  24.567  23.676  1.00  0.00     0.048 A 
ATOM     22  C   UNL A   1      30.436  24.657  26.081  1.00  0.00     0.048 A 
ATOM     23  C   UNL A   1      30.278  25.257  24.823  1.00  0.00     0.119 A 
BRANCH  23  24
ATOM     24  O   UNL A   1      29.791  26.510  24.574  1.00  0.00    -0.497 OA
ATOM     25  C   UNL A   1      30.737  27.564  24.486  1.00  0.00     0.278 C 
ENDBRANCH  23  24
ENDBRANCH  11  18
ENDBRANCH   4   7
ENDBRANCH   2   3
ENDBRANCH   1   2
BRANCH   1  26
ATOM     26  C   UNL A   1      40.794  21.771  26.927  1.00  0.00     0.118 C 
BRANCH  26  27
ATOM     27  N   UNL A   1      41.984  22.079  26.136  1.00  0.00    -0.352 N 
ATOM     28  C   UNL A   1      42.503  23.326  25.828  1.00  0.00     0.251 C 
ATOM     29  H   UNL A   1      42.477  21.306  25.779  1.00  0.00     0.163 HD
ATOM     30  O   UNL A   1      43.266  23.477  24.891  1.00  0.00    -0.269 OA
BRANCH  28  31
ATOM     31  C   UNL A   1      42.086  24.476  26.654  1.00  0.00     0.039 A 
ATOM     32  C   UNL A   1      42.679  24.740  27.888  1.00  0.00     0.014 A 
ATOM     33  C   UNL A   1      41.134  25.338  26.126  1.00  0.00     0.014 A 
ATOM     34  C   UNL A   1      42.367  25.936  28.529  1.00  0.00     0.010 A 
ATOM     35  C   UNL A   1      41.012  26.603  26.637  1.00  0.00     0.010 A 
ATOM     36  C   UNL A   1      41.560  26.888  27.876  1.00  0.00    -0.014 A 
BRANCH  36  37
ATOM     37  C   UNL A   1      41.341  28.210  28.452  1.00  0.00     0.031 A 
ATOM     38  C   UNL A   1      42.370  29.220  28.090  1.00  0.00     0.074 A 
ATOM     39  C   UNL A   1      40.240  28.567  29.149  1.00  0.00     0.049 A 
ATOM     40  N   UNL A   1      43.269  29.720  28.869  1.00  0.00    -0.248 NA
ATOM     41  C   UNL A   1      42.509  29.619  26.682  1.00  0.00     0.031 C 
ATOM     42  C   UNL A   1      38.988  27.834  29.368  1.00  0.00     0.029 A 
ATOM     43  N   UNL A   1      39.994  29.752  29.772  1.00  0.00    -0.354 N 
ATOM     44  C   UNL A   1      43.986  30.632  28.104  1.00  0.00     0.074 A 
ATOM     45  C   UNL A   1      43.578  30.418  26.739  1.00  0.00     0.031 C 
ATOM     46  C   UNL A   1      38.048  28.668  29.862  1.00  0.00     0.029 A 
ATOM     47  C   UNL A   1      38.679  29.934  30.177  1.00  0.00     0.049 A 
ATOM     48  H   UNL A   1      40.694  30.426  29.925  1.00  0.00     0.167 HD
ATOM     49  C   UNL A   1      44.692  31.632  28.703  1.00  0.00     0.037 A 
ATOM     50  C   UNL A   1      38.151  31.053  30.730  1.00  0.00     0.037 A 
ATOM     51  C   UNL A   1      44.909  31.344  30.101  1.00  0.00     0.049 A 
ATOM     52  C   UNL A   1      39.280  31.833  31.296  1.00  0.00     0.074 A 
ATOM     53  C   UNL A   1      45.526  30.316  30.791  1.00  0.00     0.029 A 
ATOM     54  N   UNL A   1      44.113  31.975  31.026  1.00  0.00    -0.354 N 
ATOM     55  N   UNL A   1      39.981  31.446  32.324  1.00  0.00    -0.248 NA
ATOM     56  C   UNL A   1      39.925  32.804  30.425  1.00  0.00     0.031 C 
ATOM     57  C   UNL A   1      44.679  30.070  31.915  1.00  0.00     0.029 A 
ATOM     58  C   UNL A   1      43.650  31.010  31.884  1.00  0.00     0.049 A 
ATOM     59  H   UNL A   1      43.914  32.938  31.067  1.00  0.00     0.167 HD
ATOM     60  C   UNL A   1      41.288  31.766  31.995  1.00  0.00     0.074 A 
ATOM     61  C   UNL A   1      41.184  32.669  30.850  1.00  0.00     0.031 C 
ATOM     62  C   UNL A   1      42.340  31.047  32.489  1.00  0.00     0.037 A 
BRANCH  49  63
ATOM     63  C   UNL A   1      44.853  33.023  28.138  1.00  0.00     0.064 A 
ATOM     64  C   UNL A   1      46.138  33.451  27.744  1.00  0.00     0.173 A 
ATOM     65  C   UNL A   1      43.887  34.042  28.268  1.00  0.00     0.173 A 
ATOM     66  F   UNL A   1      47.138  32.569  27.591  1.00  0.00    -0.203 F 
ATOM     67  C   UNL A   1      46.453  34.805  27.600  1.00  0.00     0.198 A 
ATOM     68  C   UNL A   1      44.192  35.388  28.072  1.00  0.00     0.198 A 
ATOM     69  F   UNL A   1      42.644  33.800  28.699  1.00  0.00    -0.203 F 
ATOM     70  F   UNL A   1      47.720  35.171  27.365  1.00  0.00    -0.200 F 
ATOM     71  C   UNL A   1      45.483  35.773  27.777  1.00  0.00     0.200 A 
ATOM     72  F   UNL A   1      43.241  36.313  28.263  1.00  0.00    -0.200 F 
ATOM     73  F   UNL A   1      45.797  37.072  27.713  1.00  0.00    -0.200 F 
ENDBRANCH  49  63
BRANCH  50  74
ATOM     74  C   UNL A   1      36.803  31.635  30.531  1.00  0.00     0.064 A 
ATOM     75  C   UNL A   1      35.977  31.930  31.628  1.00  0.00     0.173 A 
ATOM     76  C   UNL A   1      36.424  32.191  29.294  1.00  0.00     0.173 A 
ATOM     77  F   UNL A   1      36.289  31.471  32.849  1.00  0.00    -0.203 F 
ATOM     78  C   UNL A   1      34.862  32.765  31.503  1.00  0.00     0.198 A 
ATOM     79  C   UNL A   1      35.308  33.021  29.170  1.00  0.00     0.198 A 
ATOM     80  F   UNL A   1      37.185  32.023  28.202  1.00  0.00    -0.203 F 
ATOM     81  F   UNL A   1      34.139  33.082  32.587  1.00  0.00    -0.200 F 
ATOM     82  C   UNL A   1      34.537  33.321  30.278  1.00  0.00     0.200 A 
ATOM     83  F   UNL A   1      35.026  33.583  27.986  1.00  0.00    -0.200 F 
ATOM     84  F   UNL A   1      33.511  34.178  30.171  1.00  0.00    -0.200 F 
ENDBRANCH  50  74
BRANCH  62  85
ATOM     85  C   UNL A   1      42.069  30.062  33.592  1.00  0.00     0.064 A 
ATOM     86  C   UNL A   1      41.697  28.721  33.388  1.00  0.00     0.173 A 
ATOM     87  C   UNL A   1      42.337  30.456  34.911  1.00  0.00     0.173 A 
ATOM     88  F   UNL A   1      41.519  28.232  32.154  1.00  0.00    -0.203 F 
ATOM     89  C   UNL A   1      41.556  27.835  34.456  1.00  0.00     0.198 A 
ATOM     90  C   UNL A   1      42.234  29.562  35.972  1.00  0.00     0.198 A 
ATOM     91  F   UNL A   1      42.748  31.708  35.166  1.00  0.00    -0.203 F 
ATOM     92  F   UNL A   1      41.186  26.565  34.235  1.00  0.00    -0.200 F 
ATOM     93  C   UNL A   1      41.832  28.256  35.747  1.00  0.00     0.200 A 
ATOM     94  F   UNL A   1      42.550  29.960  37.212  1.00  0.00    -0.200 F 
ATOM     95  F   UNL A   1      41.736  27.395  36.770  1.00  0.00    -0.200 F 
ENDBRANCH  62  85
ENDBRANCH  36  37
ENDBRANCH  28  31
ENDBRANCH  26  27
ENDBRANCH   1  26
TORSDOF 14
ENDMDL
MODEL 3
REMARK VINA RESULT:     -12.6      3.481      8.766
REMARK SMILES CCCc1nn(-c2ccc(OC)cc2)c2sc(C(=O)NCCCNC(=O)c3ccc(-c4c5nc(c(-c6c(F)c(F)c(F)c(F)c6F)c6ccc([nH]6)c(-c6c(F)c(F)c(F)c(F)c6F)c6nc(c(-c7c(F)c(F)c(F)c(F)c7F)c7ccc4[nH]7)C=C6)C=C5)cc3)cc12
REMARK SMILES IDX 22 1 21 2 20 3 18 4 19 5 17 7 4 8 5 9 91 10 6 11 15 12 90 13
REMARK SMILES IDX 16 14 3 15 2 16 1 17 7 18 8 19 14 20 9 21 13 22 10 23 11 24
REMARK SMILES IDX 12 25 23 26 24 27 25 28 26 30 27 31 28 32 89 33 29 34 88 35
REMARK SMILES IDX 30 36 31 37 32 38 82 39 33 40 87 41 81 42 83 43 34 44 86 45
REMARK SMILES IDX 80 46 79 47 35 49 67 50 47 51 66 52 48 53 51 54 65 55 84 56
REMARK SMILES IDX 49 57 50 58 64 60 85 61 52 62 36 63 37 64 45 65 38 66 39 67
REMARK SMILES IDX 43 68 46 69 40 70 41 71 44 72 42 73 68 74 69 75 77 76 70 77
REMARK SMILES IDX 71 78 75 79 78 80 72 81 73 82 76 83 74 84 53 85 54 86 62 87
REMARK SMILES IDX 55 88 56 89 60 90 63 91 57 92 58 93 61 94 59 95
REMARK H PARENT 20 6 24 29 83 48 51 59
REMARK Flexibility Score: inf
ROOT
ATOM      1  C   UNL A   1      37.097  23.653  25.171  1.00  0.00     0.042 C 
ENDROOT
BRANCH   1   2
ATOM      2  C   UNL A   1      35.591  23.357  25.305  1.00  0.00     0.118 C 
BRANCH   2   3
ATOM      3  N   UNL A   1      34.907  23.141  24.025  1.00  0.00    -0.351 N 
ATOM      4  C   UNL A   1      34.124  23.975  23.239  1.00  0.00     0.261 C 
ATOM      5  O   UNL A   1      33.877  23.571  22.100  1.00  0.00    -0.268 OA
ATOM      6  H   UNL A   1      35.026  22.237  23.655  1.00  0.00     0.163 HD
BRANCH   4   7
ATOM      7  C   UNL A   1      33.649  25.270  23.713  1.00  0.00     0.095 A 
ATOM      8  C   UNL A   1      32.781  28.136  25.865  1.00  0.00     0.072 A 
ATOM      9  N   UNL A   1      31.902  28.986  25.254  1.00  0.00    -0.171 NA
ATOM     10  C   UNL A   1      33.070  27.060  25.025  1.00  0.00     0.035 A 
ATOM     11  N   UNL A   1      31.617  28.372  24.067  1.00  0.00    -0.223 N 
ATOM     12  C   UNL A   1      32.427  27.310  23.894  1.00  0.00     0.128 A 
ATOM     13  C   UNL A   1      33.814  25.873  24.979  1.00  0.00     0.038 A 
ATOM     14  S   UNL A   1      32.865  26.368  22.632  1.00  0.00    -0.110 S 
BRANCH   8  15
ATOM     15  C   UNL A   1      33.338  28.472  27.207  1.00  0.00     0.058 C 
BRANCH  15  16
ATOM     16  C   UNL A   1      34.789  28.966  27.166  1.00  0.00     0.003 C 
ATOM     17  C   UNL A   1      35.001  30.296  27.878  1.00  0.00     0.004 C 
ENDBRANCH  15  16
ENDBRANCH   8  15
BRANCH  11  18
ATOM     18  C   UNL A   1      30.604  28.722  23.153  1.00  0.00     0.066 A 
ATOM     19  C   UNL A   1      30.909  29.696  22.185  1.00  0.00     0.032 A 
ATOM     20  C   UNL A   1      29.283  28.379  23.423  1.00  0.00     0.032 A 
ATOM     21  C   UNL A   1      29.884  30.350  21.511  1.00  0.00     0.048 A 
ATOM     22  C   UNL A   1      28.257  29.069  22.757  1.00  0.00     0.048 A 
ATOM     23  C   UNL A   1      28.554  30.058  21.809  1.00  0.00     0.119 A 
BRANCH  23  24
ATOM     24  O   UNL A   1      27.654  30.829  21.127  1.00  0.00    -0.497 OA
ATOM     25  C   UNL A   1      28.013  32.181  20.888  1.00  0.00     0.278 C 
ENDBRANCH  23  24
ENDBRANCH  11  18
ENDBRANCH   4   7
ENDBRANCH   2   3
ENDBRANCH   1   2
BRANCH   1  26
ATOM     26  C   UNL A   1      37.814  23.696  26.502  1.00  0.00     0.118 C 
BRANCH  26  27
ATOM     27  N   UNL A   1      38.968  22.801  26.559  1.00  0.00    -0.352 N 
ATOM     28  C   UNL A   1      40.311  23.141  26.567  1.00  0.00     0.251 C 
ATOM     29  H   UNL A   1      38.766  21.838  26.596  1.00  0.00     0.163 HD
ATOM     30  O   UNL A   1      41.168  22.333  26.260  1.00  0.00    -0.269 OA
BRANCH  28  31
ATOM     31  C   UNL A   1      40.675  24.523  26.936  1.00  0.00     0.039 A 
ATOM     32  C   UNL A   1      40.545  25.577  26.032  1.00  0.00     0.014 A 
ATOM     33  C   UNL A   1      41.080  24.757  28.243  1.00  0.00     0.014 A 
ATOM     34  C   UNL A   1      40.733  26.875  26.499  1.00  0.00     0.010 A 
ATOM     35  C   UNL A   1      41.032  26.030  28.748  1.00  0.00     0.010 A 
ATOM     36  C   UNL A   1      40.937  27.100  27.874  1.00  0.00    -0.014 A 
BRANCH  36  37
ATOM     37  C   UNL A   1      40.985  28.453  28.416  1.00  0.00     0.031 A 
ATOM     38  C   UNL A   1      42.154  29.256  27.973  1.00  0.00     0.074 A 
ATOM     39  C   UNL A   1      40.002  29.016  29.153  1.00  0.00     0.049 A 
ATOM     40  N   UNL A   1      43.167  29.608  28.691  1.00  0.00    -0.248 NA
ATOM     41  C   UNL A   1      42.287  29.590  26.547  1.00  0.00     0.031 C 
ATOM     42  C   UNL A   1      38.654  28.522  29.456  1.00  0.00     0.029 A 
ATOM     43  N   UNL A   1      40.000  30.240  29.748  1.00  0.00    -0.354 N 
ATOM     44  C   UNL A   1      43.992  30.360  27.863  1.00  0.00     0.074 A 
ATOM     45  C   UNL A   1      43.481  30.188  26.526  1.00  0.00     0.031 C 
ATOM     46  C   UNL A   1      37.901  29.521  29.966  1.00  0.00     0.029 A 
ATOM     47  C   UNL A   1      38.761  30.662  30.208  1.00  0.00     0.049 A 
ATOM     48  H   UNL A   1      40.815  30.783  29.845  1.00  0.00     0.167 HD
ATOM     49  C   UNL A   1      44.892  31.233  28.394  1.00  0.00     0.037 A 
ATOM     50  C   UNL A   1      38.467  31.871  30.748  1.00  0.00     0.037 A 
ATOM     51  C   UNL A   1      45.129  30.945  29.789  1.00  0.00     0.049 A 
ATOM     52  C   UNL A   1      39.744  32.452  31.233  1.00  0.00     0.074 A 
ATOM     53  C   UNL A   1      45.591  29.841  30.482  1.00  0.00     0.029 A 
ATOM     54  N   UNL A   1      44.506  31.729  30.729  1.00  0.00    -0.354 N 
ATOM     55  N   UNL A   1      40.419  31.972  32.240  1.00  0.00    -0.248 NA
ATOM     56  C   UNL A   1      40.503  33.271  30.301  1.00  0.00     0.031 C 
ATOM     57  C   UNL A   1      44.775  29.776  31.652  1.00  0.00     0.029 A 
ATOM     58  C   UNL A   1      43.927  30.883  31.640  1.00  0.00     0.049 A 
ATOM     59  H   UNL A   1      44.481  32.713  30.748  1.00  0.00     0.167 HD
ATOM     60  C   UNL A   1      41.743  32.046  31.838  1.00  0.00     0.074 A 
ATOM     61  C   UNL A   1      41.739  32.926  30.670  1.00  0.00     0.031 C 
ATOM     62  C   UNL A   1      42.677  31.165  32.305  1.00  0.00     0.037 A 
BRANCH  49  63
ATOM     63  C   UNL A   1      45.266  32.560  27.776  1.00  0.00     0.064 A 
ATOM     64  C   UNL A   1      46.629  32.850  27.564  1.00  0.00     0.173 A 
ATOM     65  C   UNL A   1      44.389  33.661  27.688  1.00  0.00     0.173 A 
ATOM     66  F   UNL A   1      47.555  31.880  27.626  1.00  0.00    -0.203 F 
ATOM     67  C   UNL A   1      47.086  34.159  27.388  1.00  0.00     0.198 A 
ATOM     68  C   UNL A   1      44.844  34.958  27.460  1.00  0.00     0.198 A 
ATOM     69  F   UNL A   1      43.079  33.554  27.932  1.00  0.00    -0.203 F 
ATOM     70  F   UNL A   1      48.403  34.401  27.334  1.00  0.00    -0.200 F 
ATOM     71  C   UNL A   1      46.194  35.213  27.349  1.00  0.00     0.200 A 
ATOM     72  F   UNL A   1      43.964  35.970  27.440  1.00  0.00    -0.200 F 
ATOM     73  F   UNL A   1      46.633  36.474  27.255  1.00  0.00    -0.200 F 
ENDBRANCH  49  63
BRANCH  50  74
ATOM     74  C   UNL A   1      37.234  32.676  30.595  1.00  0.00     0.064 A 
ATOM     75  C   UNL A   1      36.903  33.258  29.360  1.00  0.00     0.173 A 
ATOM     76  C   UNL A   1      36.212  32.637  31.564  1.00  0.00     0.173 A 
ATOM     77  F   UNL A   1      37.807  33.300  28.370  1.00  0.00    -0.203 F 
ATOM     78  C   UNL A   1      35.615  33.735  29.096  1.00  0.00     0.198 A 
ATOM     79  C   UNL A   1      34.928  33.118  31.300  1.00  0.00     0.198 A 
ATOM     80  F   UNL A   1      36.411  32.042  32.748  1.00  0.00    -0.203 F 
ATOM     81  F   UNL A   1      35.316  34.218  27.881  1.00  0.00    -0.200 F 
ATOM     82  C   UNL A   1      34.625  33.652  30.061  1.00  0.00     0.200 A 
ATOM     83  F   UNL A   1      33.969  32.997  32.229  1.00  0.00    -0.200 F 
ATOM     84  F   UNL A   1      33.373  34.042  29.785  1.00  0.00    -0.200 F 
ENDBRANCH  50  74
BRANCH  62  85
ATOM     85  C   UNL A   1      42.296  30.270  33.452  1.00  0.00     0.064 A 
ATOM     86  C   UNL A   1      41.739  28.987  33.308  1.00  0.00     0.173 A 
ATOM     87  C   UNL A   1      42.643  30.675  34.749  1.00  0.00     0.173 A 
ATOM     88  F   UNL A   1      41.471  28.480  32.098  1.00  0.00    -0.203 F 
ATOM     89  C   UNL A   1      41.500  28.171  34.415  1.00  0.00     0.198 A 
ATOM     90  C   UNL A   1      42.439  29.845  35.847  1.00  0.00     0.198 A 
ATOM     91  F   UNL A   1      43.227  31.867  34.946  1.00  0.00    -0.203 F 
ATOM     92  F   UNL A   1      40.954  26.957  34.251  1.00  0.00    -0.200 F 
ATOM     93  C   UNL A   1      41.857  28.599  35.682  1.00  0.00     0.200 A 
ATOM     94  F   UNL A   1      42.831  30.244  37.065  1.00  0.00    -0.200 F 
ATOM     95  F   UNL A   1      41.664  27.801  36.742  1.00  0.00    -0.200 F 
ENDBRANCH  62  85
ENDBRANCH  36  37
ENDBRANCH  28  31
ENDBRANCH  26  27
ENDBRANCH   1  26
TORSDOF 14
ENDMDL
