MODEL 1
REMARK VINA RESULT:     -12.9      0.000      0.000
REMARK SMILES CS(=O)(=O)c1ccc(N2N=C(C(=O)NCCCNC(=O)c3ccc(-c4c5nc(c(-c6c(F)c(F)c(F)c(F)c6F)c6ccc([nH]6)c(-c6c(F)c(F)c(F)c(F)c6F)c6nc(c(-c7c(F)c(F)c(F)c(F)c7F)c7ccc4[nH]7)C=C6)C=C5)cc3)C[C@H]2c2ccco2)cc1
REMARK SMILES IDX 16 1 15 2 14 3 12 4 13 5 11 7 9 8 10 9 85 10 84 11 8 12 5 13
REMARK SMILES IDX 6 14 92 15 7 16 91 17 2 18 1 19 3 20 4 21 86 22 87 23 90 24
REMARK SMILES IDX 88 25 89 26 17 27 18 28 19 29 20 31 21 32 22 33 83 34 23 35
REMARK SMILES IDX 82 36 24 37 25 38 26 39 76 40 27 41 81 42 75 43 77 44 28 45
REMARK SMILES IDX 80 46 74 47 73 48 29 50 61 51 41 52 60 53 42 54 45 55 59 56
REMARK SMILES IDX 78 57 43 58 44 59 58 61 79 62 46 63 30 64 31 65 39 66 32 67
REMARK SMILES IDX 33 68 37 69 40 70 34 71 35 72 38 73 36 74 62 75 63 76 71 77
REMARK SMILES IDX 64 78 65 79 69 80 72 81 66 82 67 83 70 84 68 85 47 86 48 87
REMARK SMILES IDX 56 88 49 89 50 90 54 91 57 92 51 93 52 94 55 95 53 96
REMARK H PARENT 14 6 18 30 77 49 45 60
REMARK Flexibility Score: inf
ROOT
ATOM      1  C   UNL A   1      31.897  28.262  26.226  1.00  0.00     0.042 C 
ENDROOT
BRANCH   1   2
ATOM      2  C   UNL A   1      32.095  26.797  25.867  1.00  0.00     0.118 C 
BRANCH   2   3
ATOM      3  N   UNL A   1      31.384  26.451  24.650  1.00  0.00    -0.351 N 
ATOM      4  C   UNL A   1      31.568  25.525  23.655  1.00  0.00     0.267 C 
ATOM      5  O   UNL A   1      30.821  25.589  22.681  1.00  0.00    -0.268 OA
ATOM      6  H   UNL A   1      30.585  27.008  24.506  1.00  0.00     0.163 HD
BRANCH   4   7
ATOM      7  C   UNL A   1      32.602  24.413  23.710  1.00  0.00     0.128 C 
ATOM      8  N   UNL A   1      33.444  22.512  24.197  1.00  0.00    -0.254 N 
ATOM      9  N   UNL A   1      32.281  23.216  24.099  1.00  0.00    -0.171 NA
ATOM     10  C   UNL A   1      34.615  23.233  23.683  1.00  0.00     0.180 C 
ATOM     11  C   UNL A   1      34.031  24.603  23.337  1.00  0.00     0.099 C 
BRANCH   8  12
ATOM     12  C   UNL A   1      33.426  21.120  24.247  1.00  0.00     0.060 A 
ATOM     13  C   UNL A   1      33.531  18.312  24.233  1.00  0.00     0.067 A 
ATOM     14  C   UNL A   1      32.529  18.969  23.517  1.00  0.00     0.022 A 
ATOM     15  C   UNL A   1      34.445  19.038  24.996  1.00  0.00     0.022 A 
ATOM     16  C   UNL A   1      32.476  20.369  23.541  1.00  0.00     0.029 A 
ATOM     17  C   UNL A   1      34.382  20.430  25.001  1.00  0.00     0.029 A 
BRANCH  13  18
ATOM     18  S   UNL A   1      33.703  16.546  24.213  1.00  0.00     0.175 S 
ATOM     19  C   UNL A   1      35.115  16.151  25.201  1.00  0.00     0.163 C 
ATOM     20  O   UNL A   1      34.025  16.171  22.847  1.00  0.00    -0.224 OA
ATOM     21  O   UNL A   1      32.527  16.015  24.874  1.00  0.00    -0.224 OA
ENDBRANCH  13  18
ENDBRANCH   8  12
BRANCH  10  22
ATOM     22  C   UNL A   1      35.815  23.353  24.581  1.00  0.00     0.128 A 
ATOM     23  C   UNL A   1      36.063  24.087  25.724  1.00  0.00     0.048 A 
ATOM     24  O   UNL A   1      36.917  22.600  24.280  1.00  0.00    -0.467 OA
ATOM     25  C   UNL A   1      37.384  23.776  26.129  1.00  0.00     0.042 A 
ATOM     26  C   UNL A   1      37.852  22.849  25.229  1.00  0.00     0.195 A 
ENDBRANCH  10  22
ENDBRANCH   4   7
ENDBRANCH   2   3
ENDBRANCH   1   2
BRANCH   1  27
ATOM     27  C   UNL A   1      33.068  29.134  25.797  1.00  0.00     0.118 C 
BRANCH  27  28
ATOM     28  N   UNL A   1      32.827  30.544  26.077  1.00  0.00    -0.352 N 
ATOM     29  C   UNL A   1      33.380  31.371  27.020  1.00  0.00     0.251 C 
ATOM     30  H   UNL A   1      32.160  30.972  25.493  1.00  0.00     0.163 HD
ATOM     31  O   UNL A   1      32.854  32.454  27.257  1.00  0.00    -0.269 OA
BRANCH  29  32
ATOM     32  C   UNL A   1      34.600  30.968  27.750  1.00  0.00     0.039 A 
ATOM     33  C   UNL A   1      35.624  31.902  27.922  1.00  0.00     0.014 A 
ATOM     34  C   UNL A   1      34.761  29.663  28.219  1.00  0.00     0.014 A 
ATOM     35  C   UNL A   1      36.789  31.534  28.594  1.00  0.00     0.010 A 
ATOM     36  C   UNL A   1      35.871  29.329  28.984  1.00  0.00     0.010 A 
ATOM     37  C   UNL A   1      36.911  30.252  29.152  1.00  0.00    -0.014 A 
BRANCH  37  38
ATOM     38  C   UNL A   1      38.143  29.842  29.871  1.00  0.00     0.031 A 
ATOM     39  C   UNL A   1      38.423  30.377  31.249  1.00  0.00     0.074 A 
ATOM     40  C   UNL A   1      39.025  29.024  29.266  1.00  0.00     0.049 A 
ATOM     41  N   UNL A   1      39.454  30.163  32.028  1.00  0.00    -0.248 NA
ATOM     42  C   UNL A   1      37.428  31.301  31.819  1.00  0.00     0.031 C 
ATOM     43  C   UNL A   1      38.891  28.488  27.911  1.00  0.00     0.029 A 
ATOM     44  N   UNL A   1      40.212  28.503  29.713  1.00  0.00    -0.354 N 
ATOM     45  C   UNL A   1      39.236  30.934  33.162  1.00  0.00     0.074 A 
ATOM     46  C   UNL A   1      38.015  31.676  32.944  1.00  0.00     0.031 C 
ATOM     47  C   UNL A   1      39.934  27.684  27.651  1.00  0.00     0.029 A 
ATOM     48  C   UNL A   1      40.828  27.680  28.804  1.00  0.00     0.049 A 
ATOM     49  H   UNL A   1      40.587  28.700  30.603  1.00  0.00     0.167 HD
ATOM     50  C   UNL A   1      39.971  30.994  34.299  1.00  0.00     0.037 A 
ATOM     51  C   UNL A   1      41.985  26.998  28.893  1.00  0.00     0.037 A 
ATOM     52  C   UNL A   1      41.171  30.233  34.520  1.00  0.00     0.049 A 
ATOM     53  C   UNL A   1      42.781  27.077  30.169  1.00  0.00     0.074 A 
ATOM     54  C   UNL A   1      41.963  30.176  35.654  1.00  0.00     0.029 A 
ATOM     55  N   UNL A   1      41.754  29.393  33.582  1.00  0.00    -0.354 N 
ATOM     56  N   UNL A   1      42.527  27.751  31.264  1.00  0.00    -0.248 NA
ATOM     57  C   UNL A   1      44.018  26.287  30.224  1.00  0.00     0.031 C 
ATOM     58  C   UNL A   1      43.054  29.344  35.383  1.00  0.00     0.029 A 
ATOM     59  C   UNL A   1      42.908  28.830  34.104  1.00  0.00     0.049 A 
ATOM     60  H   UNL A   1      41.402  29.222  32.679  1.00  0.00     0.167 HD
ATOM     61  C   UNL A   1      43.550  27.441  32.149  1.00  0.00     0.074 A 
ATOM     62  C   UNL A   1      44.418  26.503  31.468  1.00  0.00     0.031 C 
ATOM     63  C   UNL A   1      43.755  27.890  33.414  1.00  0.00     0.037 A 
BRANCH  50  64
ATOM     64  C   UNL A   1      39.492  31.911  35.389  1.00  0.00     0.064 A 
ATOM     65  C   UNL A   1      39.904  33.252  35.461  1.00  0.00     0.173 A 
ATOM     66  C   UNL A   1      38.588  31.454  36.360  1.00  0.00     0.173 A 
ATOM     67  F   UNL A   1      40.778  33.739  34.567  1.00  0.00    -0.203 F 
ATOM     68  C   UNL A   1      39.457  34.087  36.483  1.00  0.00     0.198 A 
ATOM     69  C   UNL A   1      38.116  32.302  37.358  1.00  0.00     0.198 A 
ATOM     70  F   UNL A   1      38.156  30.184  36.338  1.00  0.00    -0.203 F 
ATOM     71  F   UNL A   1      39.913  35.345  36.564  1.00  0.00    -0.200 F 
ATOM     72  C   UNL A   1      38.558  33.614  37.424  1.00  0.00     0.200 A 
ATOM     73  F   UNL A   1      37.234  31.847  38.260  1.00  0.00    -0.200 F 
ATOM     74  F   UNL A   1      38.124  34.421  38.403  1.00  0.00    -0.200 F 
ENDBRANCH  50  64
BRANCH  51  75
ATOM     75  C   UNL A   1      42.441  26.152  27.759  1.00  0.00     0.064 A 
ATOM     76  C   UNL A   1      43.404  26.618  26.852  1.00  0.00     0.173 A 
ATOM     77  C   UNL A   1      41.919  24.866  27.551  1.00  0.00     0.173 A 
ATOM     78  F   UNL A   1      43.921  27.846  26.998  1.00  0.00    -0.203 F 
ATOM     79  C   UNL A   1      43.804  25.844  25.765  1.00  0.00     0.198 A 
ATOM     80  C   UNL A   1      42.345  24.081  26.483  1.00  0.00     0.198 A 
ATOM     81  F   UNL A   1      41.003  24.369  28.395  1.00  0.00    -0.203 F 
ATOM     82  F   UNL A   1      44.686  26.335  24.885  1.00  0.00    -0.200 F 
ATOM     83  C   UNL A   1      43.279  24.573  25.584  1.00  0.00     0.200 A 
ATOM     84  F   UNL A   1      41.848  22.846  26.322  1.00  0.00    -0.200 F 
ATOM     85  F   UNL A   1      43.667  23.828  24.541  1.00  0.00    -0.200 F 
ENDBRANCH  51  75
BRANCH  63  86
ATOM     86  C   UNL A   1      44.936  27.335  34.157  1.00  0.00     0.064 A 
ATOM     87  C   UNL A   1      46.189  27.966  34.137  1.00  0.00     0.173 A 
ATOM     88  C   UNL A   1      44.805  26.163  34.918  1.00  0.00     0.173 A 
ATOM     89  F   UNL A   1      46.372  29.082  33.414  1.00  0.00    -0.203 F 
ATOM     90  C   UNL A   1      47.275  27.423  34.819  1.00  0.00     0.198 A 
ATOM     91  C   UNL A   1      45.882  25.644  35.629  1.00  0.00     0.198 A 
ATOM     92  F   UNL A   1      43.626  25.524  34.979  1.00  0.00    -0.203 F 
ATOM     93  F   UNL A   1      48.478  28.009  34.733  1.00  0.00    -0.200 F 
ATOM     94  C   UNL A   1      47.119  26.267  35.569  1.00  0.00     0.200 A 
ATOM     95  F   UNL A   1      45.725  24.537  36.368  1.00  0.00    -0.200 F 
ATOM     96  F   UNL A   1      48.165  25.749  36.228  1.00  0.00    -0.200 F 
ENDBRANCH  63  86
ENDBRANCH  37  38
ENDBRANCH  29  32
ENDBRANCH  27  28
ENDBRANCH   1  27
TORSDOF 13
ENDMDL
MODEL 2
REMARK VINA RESULT:     -12.9      1.599      3.363
REMARK SMILES CS(=O)(=O)c1ccc(N2N=C(C(=O)NCCCNC(=O)c3ccc(-c4c5nc(c(-c6c(F)c(F)c(F)c(F)c6F)c6ccc([nH]6)c(-c6c(F)c(F)c(F)c(F)c6F)c6nc(c(-c7c(F)c(F)c(F)c(F)c7F)c7ccc4[nH]7)C=C6)C=C5)cc3)C[C@H]2c2ccco2)cc1
REMARK SMILES IDX 16 1 15 2 14 3 12 4 13 5 11 7 9 8 10 9 85 10 84 11 8 12 5 13
REMARK SMILES IDX 6 14 92 15 7 16 91 17 2 18 1 19 3 20 4 21 86 22 87 23 90 24
REMARK SMILES IDX 88 25 89 26 17 27 18 28 19 29 20 31 21 32 22 33 83 34 23 35
REMARK SMILES IDX 82 36 24 37 25 38 26 39 76 40 27 41 81 42 75 43 77 44 28 45
REMARK SMILES IDX 80 46 74 47 73 48 29 50 61 51 41 52 60 53 42 54 45 55 59 56
REMARK SMILES IDX 78 57 43 58 44 59 58 61 79 62 46 63 30 64 31 65 39 66 32 67
REMARK SMILES IDX 33 68 37 69 40 70 34 71 35 72 38 73 36 74 62 75 63 76 71 77
REMARK SMILES IDX 64 78 65 79 69 80 72 81 66 82 67 83 70 84 68 85 47 86 48 87
REMARK SMILES IDX 56 88 49 89 50 90 54 91 57 92 51 93 52 94 55 95 53 96
REMARK H PARENT 14 6 18 30 77 49 45 60
REMARK Flexibility Score: inf
ROOT
ATOM      1  C   UNL A   1      33.214  28.670  24.186  1.00  0.00     0.042 C 
ENDROOT
BRANCH   1   2
ATOM      2  C   UNL A   1      32.511  27.322  24.132  1.00  0.00     0.118 C 
BRANCH   2   3
ATOM      3  N   UNL A   1      32.685  26.687  22.839  1.00  0.00    -0.351 N 
ATOM      4  C   UNL A   1      33.239  25.508  22.410  1.00  0.00     0.267 C 
ATOM      5  O   UNL A   1      33.328  25.337  21.196  1.00  0.00    -0.268 OA
ATOM      6  H   UNL A   1      32.323  27.228  22.100  1.00  0.00     0.163 HD
BRANCH   4   7
ATOM      7  C   UNL A   1      33.700  24.399  23.340  1.00  0.00     0.128 C 
ATOM      8  N   UNL A   1      35.019  22.958  24.204  1.00  0.00    -0.254 N 
ATOM      9  N   UNL A   1      34.956  24.078  23.432  1.00  0.00    -0.171 NA
ATOM     10  C   UNL A   1      33.734  22.587  24.810  1.00  0.00     0.180 C 
ATOM     11  C   UNL A   1      32.774  23.606  24.194  1.00  0.00     0.099 C 
BRANCH   8  12
ATOM     12  C   UNL A   1      36.222  22.563  24.782  1.00  0.00     0.060 A 
ATOM     13  C   UNL A   1      38.737  21.857  25.819  1.00  0.00     0.067 A 
ATOM     14  C   UNL A   1      37.990  20.911  25.115  1.00  0.00     0.022 A 
ATOM     15  C   UNL A   1      38.220  23.129  26.056  1.00  0.00     0.022 A 
ATOM     16  C   UNL A   1      36.731  21.267  24.614  1.00  0.00     0.029 A 
ATOM     17  C   UNL A   1      36.970  23.469  25.542  1.00  0.00     0.029 A 
BRANCH  13  18
ATOM     18  S   UNL A   1      40.362  21.505  26.439  1.00  0.00     0.175 S 
ATOM     19  C   UNL A   1      40.559  19.748  26.410  1.00  0.00     0.163 C 
ATOM     20  O   UNL A   1      40.376  21.909  27.834  1.00  0.00    -0.224 OA
ATOM     21  O   UNL A   1      41.294  22.078  25.488  1.00  0.00    -0.224 OA
ENDBRANCH  13  18
ENDBRANCH   8  12
BRANCH  10  22
ATOM     22  C   UNL A   1      33.245  21.179  24.615  1.00  0.00     0.128 A 
ATOM     23  C   UNL A   1      32.628  20.535  23.560  1.00  0.00     0.048 A 
ATOM     24  O   UNL A   1      33.432  20.289  25.639  1.00  0.00    -0.467 OA
ATOM     25  C   UNL A   1      32.416  19.196  23.968  1.00  0.00     0.042 A 
ATOM     26  C   UNL A   1      32.943  19.093  25.233  1.00  0.00     0.195 A 
ENDBRANCH  10  22
ENDBRANCH   4   7
ENDBRANCH   2   3
ENDBRANCH   1   2
BRANCH   1  27
ATOM     27  C   UNL A   1      33.681  29.032  25.588  1.00  0.00     0.118 C 
BRANCH  27  28
ATOM     28  N   UNL A   1      33.255  30.372  25.975  1.00  0.00    -0.352 N 
ATOM     29  C   UNL A   1      33.651  31.163  27.022  1.00  0.00     0.251 C 
ATOM     30  H   UNL A   1      32.573  30.773  25.389  1.00  0.00     0.163 HD
ATOM     31  O   UNL A   1      32.984  32.150  27.319  1.00  0.00    -0.269 OA
BRANCH  29  32
ATOM     32  C   UNL A   1      34.868  30.837  27.793  1.00  0.00     0.039 A 
ATOM     33  C   UNL A   1      35.884  31.791  27.885  1.00  0.00     0.014 A 
ATOM     34  C   UNL A   1      35.036  29.580  28.378  1.00  0.00     0.014 A 
ATOM     35  C   UNL A   1      37.048  31.494  28.595  1.00  0.00     0.010 A 
ATOM     36  C   UNL A   1      36.144  29.326  29.176  1.00  0.00     0.010 A 
ATOM     37  C   UNL A   1      37.176  30.268  29.267  1.00  0.00    -0.014 A 
BRANCH  37  38
ATOM     38  C   UNL A   1      38.406  29.933  30.026  1.00  0.00     0.031 A 
ATOM     39  C   UNL A   1      38.594  30.462  31.423  1.00  0.00     0.074 A 
ATOM     40  C   UNL A   1      39.366  29.191  29.444  1.00  0.00     0.049 A 
ATOM     41  N   UNL A   1      39.608  30.308  32.238  1.00  0.00    -0.248 NA
ATOM     42  C   UNL A   1      37.515  31.303  31.967  1.00  0.00     0.031 C 
ATOM     43  C   UNL A   1      39.322  28.671  28.077  1.00  0.00     0.029 A 
ATOM     44  N   UNL A   1      40.570  28.748  29.930  1.00  0.00    -0.354 N 
ATOM     45  C   UNL A   1      39.293  31.042  33.374  1.00  0.00     0.074 A 
ATOM     46  C   UNL A   1      38.031  31.699  33.120  1.00  0.00     0.031 C 
ATOM     47  C   UNL A   1      40.429  27.949  27.846  1.00  0.00     0.029 A 
ATOM     48  C   UNL A   1      41.277  27.987  29.032  1.00  0.00     0.049 A 
ATOM     49  H   UNL A   1      40.896  28.955  30.836  1.00  0.00     0.167 HD
ATOM     50  C   UNL A   1      39.978  31.134  34.540  1.00  0.00     0.037 A 
ATOM     51  C   UNL A   1      42.476  27.388  29.156  1.00  0.00     0.037 A 
ATOM     52  C   UNL A   1      41.220  30.456  34.796  1.00  0.00     0.049 A 
ATOM     53  C   UNL A   1      43.215  27.500  30.463  1.00  0.00     0.074 A 
ATOM     54  C   UNL A   1      41.971  30.435  35.958  1.00  0.00     0.029 A 
ATOM     55  N   UNL A   1      41.898  29.676  33.868  1.00  0.00    -0.354 N 
ATOM     56  N   UNL A   1      42.873  28.136  31.558  1.00  0.00    -0.248 NA
ATOM     57  C   UNL A   1      44.503  26.800  30.554  1.00  0.00     0.031 C 
ATOM     58  C   UNL A   1      43.128  29.687  35.718  1.00  0.00     0.029 A 
ATOM     59  C   UNL A   1      43.068  29.188  34.426  1.00  0.00     0.049 A 
ATOM     60  H   UNL A   1      41.593  29.496  32.950  1.00  0.00     0.167 HD
ATOM     61  C   UNL A   1      43.882  27.883  32.477  1.00  0.00     0.074 A 
ATOM     62  C   UNL A   1      44.840  27.022  31.816  1.00  0.00     0.031 C 
ATOM     63  C   UNL A   1      44.006  28.323  33.755  1.00  0.00     0.037 A 
BRANCH  50  64
ATOM     64  C   UNL A   1      39.394  31.995  35.624  1.00  0.00     0.064 A 
ATOM     65  C   UNL A   1      38.520  31.472  36.592  1.00  0.00     0.173 A 
ATOM     66  C   UNL A   1      39.731  33.353  35.715  1.00  0.00     0.173 A 
ATOM     67  F   UNL A   1      38.153  30.182  36.544  1.00  0.00    -0.203 F 
ATOM     68  C   UNL A   1      37.980  32.285  37.586  1.00  0.00     0.198 A 
ATOM     69  C   UNL A   1      39.217  34.154  36.732  1.00  0.00     0.198 A 
ATOM     70  F   UNL A   1      40.564  33.905  34.822  1.00  0.00    -0.203 F 
ATOM     71  F   UNL A   1      37.101  31.776  38.460  1.00  0.00    -0.200 F 
ATOM     72  C   UNL A   1      38.335  33.622  37.660  1.00  0.00     0.200 A 
ATOM     73  F   UNL A   1      39.574  35.445  36.812  1.00  0.00    -0.200 F 
ATOM     74  F   UNL A   1      37.820  34.402  38.621  1.00  0.00    -0.200 F 
ENDBRANCH  50  64
BRANCH  51  75
ATOM     75  C   UNL A   1      43.034  26.596  28.028  1.00  0.00     0.064 A 
ATOM     76  C   UNL A   1      42.951  25.196  28.018  1.00  0.00     0.173 A 
ATOM     77  C   UNL A   1      43.669  27.219  26.943  1.00  0.00     0.173 A 
ATOM     78  F   UNL A   1      42.369  24.554  29.041  1.00  0.00    -0.203 F 
ATOM     79  C   UNL A   1      43.507  24.449  26.982  1.00  0.00     0.198 A 
ATOM     80  C   UNL A   1      44.194  26.472  25.892  1.00  0.00     0.198 A 
ATOM     81  F   UNL A   1      43.766  28.556  26.898  1.00  0.00    -0.203 F 
ATOM     82  F   UNL A   1      43.460  23.111  27.025  1.00  0.00    -0.200 F 
ATOM     83  C   UNL A   1      44.124  25.087  25.916  1.00  0.00     0.200 A 
ATOM     84  F   UNL A   1      44.773  27.094  24.855  1.00  0.00    -0.200 F 
ATOM     85  F   UNL A   1      44.655  24.369  24.919  1.00  0.00    -0.200 F 
ENDBRANCH  51  75
BRANCH  63  86
ATOM     86  C   UNL A   1      45.195  27.840  34.535  1.00  0.00     0.064 A 
ATOM     87  C   UNL A   1      45.155  26.661  35.295  1.00  0.00     0.173 A 
ATOM     88  C   UNL A   1      46.400  28.558  34.503  1.00  0.00     0.173 A 
ATOM     89  F   UNL A   1      44.023  25.943  35.370  1.00  0.00    -0.203 F 
ATOM     90  C   UNL A   1      46.264  26.242  36.025  1.00  0.00     0.198 A 
ATOM     91  C   UNL A   1      47.518  28.116  35.203  1.00  0.00     0.198 A 
ATOM     92  F   UNL A   1      46.496  29.688  33.785  1.00  0.00    -0.203 F 
ATOM     93  F   UNL A   1      46.183  25.147  36.794  1.00  0.00    -0.200 F 
ATOM     94  C   UNL A   1      47.446  26.966  35.973  1.00  0.00     0.200 A 
ATOM     95  F   UNL A   1      48.665  28.807  35.137  1.00  0.00    -0.200 F 
ATOM     96  F   UNL A   1      48.514  26.558  36.673  1.00  0.00    -0.200 F 
ENDBRANCH  63  86
ENDBRANCH  37  38
ENDBRANCH  29  32
ENDBRANCH  27  28
ENDBRANCH   1  27
TORSDOF 13
ENDMDL
MODEL 3
REMARK VINA RESULT:     -12.9      1.260      2.212
REMARK SMILES CS(=O)(=O)c1ccc(N2N=C(C(=O)NCCCNC(=O)c3ccc(-c4c5nc(c(-c6c(F)c(F)c(F)c(F)c6F)c6ccc([nH]6)c(-c6c(F)c(F)c(F)c(F)c6F)c6nc(c(-c7c(F)c(F)c(F)c(F)c7F)c7ccc4[nH]7)C=C6)C=C5)cc3)C[C@H]2c2ccco2)cc1
REMARK SMILES IDX 16 1 15 2 14 3 12 4 13 5 11 7 9 8 10 9 85 10 84 11 8 12 5 13
REMARK SMILES IDX 6 14 92 15 7 16 91 17 2 18 1 19 3 20 4 21 86 22 87 23 90 24
REMARK SMILES IDX 88 25 89 26 17 27 18 28 19 29 20 31 21 32 22 33 83 34 23 35
REMARK SMILES IDX 82 36 24 37 25 38 26 39 76 40 27 41 81 42 75 43 77 44 28 45
REMARK SMILES IDX 80 46 74 47 73 48 29 50 61 51 41 52 60 53 42 54 45 55 59 56
REMARK SMILES IDX 78 57 43 58 44 59 58 61 79 62 46 63 30 64 31 65 39 66 32 67
REMARK SMILES IDX 33 68 37 69 40 70 34 71 35 72 38 73 36 74 62 75 63 76 71 77
REMARK SMILES IDX 64 78 65 79 69 80 72 81 66 82 67 83 70 84 68 85 47 86 48 87
REMARK SMILES IDX 56 88 49 89 50 90 54 91 57 92 51 93 52 94 55 95 53 96
REMARK H PARENT 14 6 18 30 77 49 45 60
REMARK Flexibility Score: inf
ROOT
ATOM      1  C   UNL A   1      33.280  28.961  23.927  1.00  0.00     0.042 C 
ENDROOT
BRANCH   1   2
ATOM      2  C   UNL A   1      32.124  28.122  23.404  1.00  0.00     0.118 C 
BRANCH   2   3
ATOM      3  N   UNL A   1      32.510  27.368  22.226  1.00  0.00    -0.351 N 
ATOM      4  C   UNL A   1      32.894  26.072  21.992  1.00  0.00     0.267 C 
ATOM      5  O   UNL A   1      33.278  25.794  20.858  1.00  0.00    -0.268 OA
ATOM      6  H   UNL A   1      32.493  27.912  21.405  1.00  0.00     0.163 HD
BRANCH   4   7
ATOM      7  C   UNL A   1      32.828  24.966  23.033  1.00  0.00     0.128 C 
ATOM      8  N   UNL A   1      32.655  22.985  23.810  1.00  0.00    -0.254 N 
ATOM      9  N   UNL A   1      32.916  23.716  22.690  1.00  0.00    -0.171 NA
ATOM     10  C   UNL A   1      32.543  23.794  25.030  1.00  0.00     0.180 C 
ATOM     11  C   UNL A   1      32.656  25.220  24.489  1.00  0.00     0.099 C 
BRANCH   8  12
ATOM     12  C   UNL A   1      33.008  21.639  23.875  1.00  0.00     0.060 A 
ATOM     13  C   UNL A   1      33.584  18.899  24.120  1.00  0.00     0.067 A 
ATOM     14  C   UNL A   1      34.393  19.836  24.766  1.00  0.00     0.022 A 
ATOM     15  C   UNL A   1      32.527  19.318  23.313  1.00  0.00     0.022 A 
ATOM     16  C   UNL A   1      34.107  21.200  24.626  1.00  0.00     0.029 A 
ATOM     17  C   UNL A   1      32.252  20.679  23.193  1.00  0.00     0.029 A 
BRANCH  13  18
ATOM     18  S   UNL A   1      33.843  17.152  24.289  1.00  0.00     0.175 S 
ATOM     19  C   UNL A   1      32.593  16.546  25.383  1.00  0.00     0.163 C 
ATOM     20  O   UNL A   1      35.116  16.979  24.965  1.00  0.00    -0.224 OA
ATOM     21  O   UNL A   1      33.610  16.578  22.978  1.00  0.00    -0.224 OA
ENDBRANCH  13  18
ENDBRANCH   8  12
BRANCH  10  22
ATOM     22  C   UNL A   1      31.315  23.619  25.878  1.00  0.00     0.128 A 
ATOM     23  C   UNL A   1      30.794  22.542  26.570  1.00  0.00     0.048 A 
ATOM     24  O   UNL A   1      30.507  24.708  26.066  1.00  0.00    -0.467 OA
ATOM     25  C   UNL A   1      29.607  22.995  27.194  1.00  0.00     0.042 A 
ATOM     26  C   UNL A   1      29.489  24.326  26.874  1.00  0.00     0.195 A 
ENDBRANCH  10  22
ENDBRANCH   4   7
ENDBRANCH   2   3
ENDBRANCH   1   2
BRANCH   1  27
ATOM     27  C   UNL A   1      33.264  29.102  25.442  1.00  0.00     0.118 C 
BRANCH  27  28
ATOM     28  N   UNL A   1      32.879  30.445  25.860  1.00  0.00    -0.352 N 
ATOM     29  C   UNL A   1      33.315  31.208  26.911  1.00  0.00     0.251 C 
ATOM     30  H   UNL A   1      32.196  30.873  25.295  1.00  0.00     0.163 HD
ATOM     31  O   UNL A   1      32.679  32.206  27.238  1.00  0.00    -0.269 OA
BRANCH  29  32
ATOM     32  C   UNL A   1      34.539  30.840  27.652  1.00  0.00     0.039 A 
ATOM     33  C   UNL A   1      35.557  31.786  27.787  1.00  0.00     0.014 A 
ATOM     34  C   UNL A   1      34.710  29.552  28.165  1.00  0.00     0.014 A 
ATOM     35  C   UNL A   1      36.727  31.449  28.469  1.00  0.00     0.010 A 
ATOM     36  C   UNL A   1      35.825  29.253  28.938  1.00  0.00     0.010 A 
ATOM     37  C   UNL A   1      36.859  30.188  29.071  1.00  0.00    -0.014 A 
BRANCH  37  38
ATOM     38  C   UNL A   1      38.096  29.811  29.800  1.00  0.00     0.031 A 
ATOM     39  C   UNL A   1      38.345  30.346  31.184  1.00  0.00     0.074 A 
ATOM     40  C   UNL A   1      39.008  29.025  29.199  1.00  0.00     0.049 A 
ATOM     41  N   UNL A   1      39.374  30.158  31.973  1.00  0.00    -0.248 NA
ATOM     42  C   UNL A   1      37.316  31.235  31.750  1.00  0.00     0.031 C 
ATOM     43  C   UNL A   1      38.905  28.494  27.839  1.00  0.00     0.029 A 
ATOM     44  N   UNL A   1      40.206  28.537  29.656  1.00  0.00    -0.354 N 
ATOM     45  C   UNL A   1      39.121  30.916  33.109  1.00  0.00     0.074 A 
ATOM     46  C   UNL A   1      37.880  31.621  32.883  1.00  0.00     0.031 C 
ATOM     47  C   UNL A   1      39.975  27.725  27.586  1.00  0.00     0.029 A 
ATOM     48  C   UNL A   1      40.857  27.740  28.747  1.00  0.00     0.049 A 
ATOM     49  H   UNL A   1      40.566  28.741  30.550  1.00  0.00     0.167 HD
ATOM     50  C   UNL A   1      39.842  30.990  34.254  1.00  0.00     0.037 A 
ATOM     51  C   UNL A   1      42.034  27.094  28.845  1.00  0.00     0.037 A 
ATOM     52  C   UNL A   1      41.062  30.265  34.483  1.00  0.00     0.049 A 
ATOM     53  C   UNL A   1      42.813  27.188  30.129  1.00  0.00     0.074 A 
ATOM     54  C   UNL A   1      41.844  30.225  35.624  1.00  0.00     0.029 A 
ATOM     55  N   UNL A   1      41.681  29.449  33.545  1.00  0.00    -0.354 N 
ATOM     56  N   UNL A   1      42.528  27.848  31.226  1.00  0.00    -0.248 NA
ATOM     57  C   UNL A   1      44.074  26.437  30.192  1.00  0.00     0.031 C 
ATOM     58  C   UNL A   1      42.963  29.429  35.360  1.00  0.00     0.029 A 
ATOM     59  C   UNL A   1      42.847  28.919  34.076  1.00  0.00     0.049 A 
ATOM     60  H   UNL A   1      41.343  29.273  32.638  1.00  0.00     0.167 HD
ATOM     61  C   UNL A   1      43.551  27.563  32.120  1.00  0.00     0.074 A 
ATOM     62  C   UNL A   1      44.455  26.657  31.441  1.00  0.00     0.031 C 
ATOM     63  C   UNL A   1      43.729  28.010  33.388  1.00  0.00     0.037 A 
BRANCH  50  64
ATOM     64  C   UNL A   1      39.324  31.885  35.345  1.00  0.00     0.064 A 
ATOM     65  C   UNL A   1      39.636  33.254  35.389  1.00  0.00     0.173 A 
ATOM     66  C   UNL A   1      38.481  31.376  36.345  1.00  0.00     0.173 A 
ATOM     67  F   UNL A   1      40.448  33.791  34.465  1.00  0.00    -0.203 F 
ATOM     68  C   UNL A   1      39.155  34.068  36.411  1.00  0.00     0.198 A 
ATOM     69  C   UNL A   1      37.973  32.201  37.344  1.00  0.00     0.198 A 
ATOM     70  F   UNL A   1      38.145  30.078  36.350  1.00  0.00    -0.203 F 
ATOM     71  F   UNL A   1      39.518  35.358  36.464  1.00  0.00    -0.200 F 
ATOM     72  C   UNL A   1      38.317  33.543  37.382  1.00  0.00     0.200 A 
ATOM     73  F   UNL A   1      37.150  31.696  38.275  1.00  0.00    -0.200 F 
ATOM     74  F   UNL A   1      37.849  34.330  38.362  1.00  0.00    -0.200 F 
ENDBRANCH  50  64
BRANCH  51  75
ATOM     75  C   UNL A   1      42.527  26.269  27.710  1.00  0.00     0.064 A 
ATOM     76  C   UNL A   1      42.092  24.947  27.536  1.00  0.00     0.173 A 
ATOM     77  C   UNL A   1      43.448  26.779  26.783  1.00  0.00     0.173 A 
ATOM     78  F   UNL A   1      41.224  24.409  28.404  1.00  0.00    -0.203 F 
ATOM     79  C   UNL A   1      42.581  24.159  26.496  1.00  0.00     0.198 A 
ATOM     80  C   UNL A   1      43.911  26.000  25.725  1.00  0.00     0.198 A 
ATOM     81  F   UNL A   1      43.889  28.040  26.898  1.00  0.00    -0.203 F 
ATOM     82  F   UNL A   1      42.189  22.883  26.386  1.00  0.00    -0.200 F 
ATOM     83  C   UNL A   1      43.487  24.687  25.589  1.00  0.00     0.200 A 
ATOM     84  F   UNL A   1      44.772  26.520  24.840  1.00  0.00    -0.200 F 
ATOM     85  F   UNL A   1      43.954  23.930  24.588  1.00  0.00    -0.200 F 
ENDBRANCH  51  75
BRANCH  63  86
ATOM     86  C   UNL A   1      44.919  27.487  34.140  1.00  0.00     0.064 A 
ATOM     87  C   UNL A   1      46.154  28.153  34.131  1.00  0.00     0.173 A 
ATOM     88  C   UNL A   1      44.814  26.311  34.900  1.00  0.00     0.173 A 
ATOM     89  F   UNL A   1      46.312  29.274  33.411  1.00  0.00    -0.203 F 
ATOM     90  C   UNL A   1      47.249  27.639  34.821  1.00  0.00     0.198 A 
ATOM     91  C   UNL A   1      45.900  25.821  35.618  1.00  0.00     0.198 A 
ATOM     92  F   UNL A   1      43.653  25.640  34.951  1.00  0.00    -0.203 F 
ATOM     93  F   UNL A   1      48.436  28.257  34.745  1.00  0.00    -0.200 F 
ATOM     94  C   UNL A   1      47.119  26.478  35.569  1.00  0.00     0.200 A 
ATOM     95  F   UNL A   1      45.767  24.709  36.355  1.00  0.00    -0.200 F 
ATOM     96  F   UNL A   1      48.174  25.988  36.236  1.00  0.00    -0.200 F 
ENDBRANCH  63  86
ENDBRANCH  37  38
ENDBRANCH  29  32
ENDBRANCH  27  28
ENDBRANCH   1  27
TORSDOF 13
ENDMDL
