MODEL 1
REMARK VINA RESULT:     -13.1      0.000      0.000
REMARK SMILES COC(=O)c1sc(SCC(=O)NCCCNC(=O)c2ccc(-c3c4nc(c(-c5c(F)c(F)c(F)c(F)c5F)c5ccc([nH]5)c(-c5c(F)c(F)c(F)c(F)c5F)c5nc(c(-c6c(F)c(F)c(F)c(F)c6F)c6ccc3[nH]6)C=C5)C=C4)cc2)c(NC(=O)c2ccccc2)c1O
REMARK SMILES IDX 13 1 12 2 10 3 11 4 9 6 8 7 7 8 5 9 6 10 92 11 82 12 3 13
REMARK SMILES IDX 4 14 2 15 1 16 93 17 83 19 84 20 85 22 86 23 87 24 91 25
REMARK SMILES IDX 88 26 90 27 89 28 14 29 15 30 16 31 17 32 18 34 19 35 20 36
REMARK SMILES IDX 81 37 21 38 80 39 22 40 23 41 24 42 74 43 25 44 79 45 73 46
REMARK SMILES IDX 75 47 26 48 78 49 72 50 71 51 27 53 59 54 39 55 58 56 40 57
REMARK SMILES IDX 43 58 57 59 76 60 41 61 42 62 56 64 77 65 44 66 28 67 29 68
REMARK SMILES IDX 37 69 30 70 31 71 35 72 38 73 32 74 33 75 36 76 34 77 60 78
REMARK SMILES IDX 61 79 69 80 62 81 63 82 67 83 70 84 64 85 65 86 68 87 66 88
REMARK SMILES IDX 45 89 46 90 54 91 47 92 48 93 52 94 55 95 49 96 50 97 53 98
REMARK SMILES IDX 51 99
REMARK H PARENT 12 5 93 18 83 21 16 33 75 52 43 63
REMARK Flexibility Score: inf
ROOT
ATOM      1  C   UNL A   1      41.506  27.433  35.882  1.00  0.00     0.117 C 
ENDROOT
BRANCH   1   2
ATOM      2  N   UNL A   1      41.231  28.815  36.231  1.00  0.00    -0.355 N 
ATOM      3  C   UNL A   1      40.601  29.818  35.536  1.00  0.00     0.230 C 
ATOM      4  O   UNL A   1      40.338  30.821  36.207  1.00  0.00    -0.274 OA
ATOM      5  H   UNL A   1      41.554  29.081  37.123  1.00  0.00     0.163 HD
BRANCH   3   6
ATOM      6  C   UNL A   1      40.125  29.591  33.856  1.00  0.00     0.175 C 
BRANCH   6   7
ATOM      7  S   UNL A   1      37.788  29.357  32.835  1.00  0.00    -0.103 SA
BRANCH   7   8
ATOM      8  C   UNL A   1      36.772  30.900  32.530  1.00  0.00     0.089 A 
ATOM      9  C   UNL A   1      35.624  33.101  32.886  1.00  0.00     0.157 A 
ATOM     10  S   UNL A   1      36.766  32.142  33.740  1.00  0.00    -0.116 S 
ATOM     11  C   UNL A   1      35.328  32.526  31.671  1.00  0.00     0.166 A 
ATOM     12  C   UNL A   1      35.981  31.281  31.445  1.00  0.00     0.109 A 
BRANCH   9  13
ATOM     13  C   UNL A   1      35.115  34.325  33.474  1.00  0.00     0.352 C 
ATOM     14  O   UNL A   1      35.115  34.631  34.659  1.00  0.00    -0.245 OA
BRANCH  13  15
ATOM     15  O   UNL A   1      34.601  35.116  32.477  1.00  0.00    -0.465 OA
ATOM     16  C   UNL A   1      33.221  35.474  32.612  1.00  0.00     0.282 C 
ENDBRANCH  13  15
ENDBRANCH   9  13
BRANCH  11  17
ATOM     17  O   UNL A   1      34.457  33.044  30.775  1.00  0.00    -0.504 OA
ATOM     18  H   UNL A   1      33.917  32.473  30.262  1.00  0.00     0.293 HD
ENDBRANCH  11  17
BRANCH  12  19
ATOM     19  N   UNL A   1      35.726  30.587  30.265  1.00  0.00    -0.317 N 
ATOM     20  C   UNL A   1      36.328  30.802  29.063  1.00  0.00     0.255 C 
ATOM     21  H   UNL A   1      35.047  29.875  30.303  1.00  0.00     0.170 HD
ATOM     22  O   UNL A   1      35.892  30.397  27.997  1.00  0.00    -0.269 OA
BRANCH  20  23
ATOM     23  C   UNL A   1      37.539  31.618  29.135  1.00  0.00     0.040 A 
ATOM     24  C   UNL A   1      37.312  33.385  28.958  1.00  0.00     0.014 A 
ATOM     25  C   UNL A   1      39.088  30.951  29.872  1.00  0.00     0.014 A 
ATOM     26  C   UNL A   1      38.613  34.489  29.501  1.00  0.00     0.001 A 
ATOM     27  C   UNL A   1      40.349  32.103  30.441  1.00  0.00     0.001 A 
ATOM     28  C   UNL A   1      40.100  33.866  30.260  1.00  0.00     0.000 A 
ENDBRANCH  20  23
ENDBRANCH  12  19
ENDBRANCH   7   8
ENDBRANCH   6   7
ENDBRANCH   3   6
ENDBRANCH   1   2
BRANCH   1  29
ATOM     29  C   UNL A   1      41.272  26.461  37.037  1.00  0.00     0.042 C 
BRANCH  29  30
ATOM     30  C   UNL A   1      41.804  25.082  36.759  1.00  0.00     0.118 C 
BRANCH  30  31
ATOM     31  N   UNL A   1      43.118  24.829  37.342  1.00  0.00    -0.352 N 
ATOM     32  C   UNL A   1      44.286  24.524  36.665  1.00  0.00     0.251 C 
ATOM     33  H   UNL A   1      43.180  24.880  38.323  1.00  0.00     0.163 HD
ATOM     34  O   UNL A   1      45.234  24.003  37.236  1.00  0.00    -0.269 OA
BRANCH  32  35
ATOM     35  C   UNL A   1      44.348  24.852  35.229  1.00  0.00     0.039 A 
ATOM     36  C   UNL A   1      44.503  26.153  34.755  1.00  0.00     0.014 A 
ATOM     37  C   UNL A   1      44.331  23.778  34.347  1.00  0.00     0.014 A 
ATOM     38  C   UNL A   1      44.638  26.324  33.382  1.00  0.00     0.010 A 
ATOM     39  C   UNL A   1      44.852  23.928  33.103  1.00  0.00     0.010 A 
ATOM     40  C   UNL A   1      44.811  25.188  32.565  1.00  0.00    -0.014 A 
BRANCH  40  41
ATOM     41  C   UNL A   1      45.056  25.269  31.140  1.00  0.00     0.031 A 
ATOM     42  C   UNL A   1      46.141  26.212  30.831  1.00  0.00     0.074 A 
ATOM     43  C   UNL A   1      44.469  24.485  30.209  1.00  0.00     0.049 A 
ATOM     44  N   UNL A   1      45.980  27.441  30.489  1.00  0.00    -0.248 NA
ATOM     45  C   UNL A   1      47.522  25.856  31.182  1.00  0.00     0.031 C 
ATOM     46  C   UNL A   1      43.598  23.314  30.368  1.00  0.00     0.029 A 
ATOM     47  N   UNL A   1      44.564  24.593  28.854  1.00  0.00    -0.354 N 
ATOM     48  C   UNL A   1      47.254  27.955  30.334  1.00  0.00     0.074 A 
ATOM     49  C   UNL A   1      48.139  27.025  30.986  1.00  0.00     0.031 C 
ATOM     50  C   UNL A   1      43.409  22.711  29.168  1.00  0.00     0.029 A 
ATOM     51  C   UNL A   1      43.994  23.546  28.134  1.00  0.00     0.049 A 
ATOM     52  H   UNL A   1      45.006  25.355  28.416  1.00  0.00     0.167 HD
ATOM     53  C   UNL A   1      47.459  28.942  29.422  1.00  0.00     0.037 A 
ATOM     54  C   UNL A   1      43.994  23.410  26.780  1.00  0.00     0.037 A 
ATOM     55  C   UNL A   1      46.197  29.545  29.039  1.00  0.00     0.049 A 
ATOM     56  C   UNL A   1      44.204  24.769  26.215  1.00  0.00     0.074 A 
ATOM     57  C   UNL A   1      45.191  30.199  29.727  1.00  0.00     0.029 A 
ATOM     58  N   UNL A   1      45.620  29.112  27.866  1.00  0.00    -0.354 N 
ATOM     59  N   UNL A   1      43.325  25.729  26.318  1.00  0.00    -0.248 NA
ATOM     60  C   UNL A   1      45.578  25.198  26.004  1.00  0.00     0.031 C 
ATOM     61  C   UNL A   1      43.972  29.705  29.166  1.00  0.00     0.029 A 
ATOM     62  C   UNL A   1      44.293  28.858  28.104  1.00  0.00     0.049 A 
ATOM     63  H   UNL A   1      46.082  29.004  27.004  1.00  0.00     0.167 HD
ATOM     64  C   UNL A   1      44.072  26.853  26.643  1.00  0.00     0.074 A 
ATOM     65  C   UNL A   1      45.461  26.476  26.376  1.00  0.00     0.031 C 
ATOM     66  C   UNL A   1      43.529  27.865  27.382  1.00  0.00     0.037 A 
BRANCH  53  67
ATOM     67  C   UNL A   1      48.697  29.050  28.567  1.00  0.00     0.064 A 
ATOM     68  C   UNL A   1      49.335  30.302  28.470  1.00  0.00     0.173 A 
ATOM     69  C   UNL A   1      49.099  28.087  27.616  1.00  0.00     0.173 A 
ATOM     70  F   UNL A   1      49.023  31.295  29.317  1.00  0.00    -0.203 F 
ATOM     71  C   UNL A   1      50.228  30.595  27.438  1.00  0.00     0.198 A 
ATOM     72  C   UNL A   1      50.029  28.369  26.619  1.00  0.00     0.198 A 
ATOM     73  F   UNL A   1      48.539  26.877  27.528  1.00  0.00    -0.203 F 
ATOM     74  F   UNL A   1      50.702  31.841  27.306  1.00  0.00    -0.200 F 
ATOM     75  C   UNL A   1      50.566  29.631  26.507  1.00  0.00     0.200 A 
ATOM     76  F   UNL A   1      50.326  27.424  25.714  1.00  0.00    -0.200 F 
ATOM     77  F   UNL A   1      51.368  29.929  25.477  1.00  0.00    -0.200 F 
ENDBRANCH  53  67
BRANCH  54  78
ATOM     78  C   UNL A   1      44.204  22.186  25.963  1.00  0.00     0.064 A 
ATOM     79  C   UNL A   1      45.496  21.792  25.566  1.00  0.00     0.173 A 
ATOM     80  C   UNL A   1      43.193  21.216  25.839  1.00  0.00     0.173 A 
ATOM     81  F   UNL A   1      46.529  22.637  25.696  1.00  0.00    -0.203 F 
ATOM     82  C   UNL A   1      45.765  20.495  25.111  1.00  0.00     0.198 A 
ATOM     83  C   UNL A   1      43.462  19.921  25.385  1.00  0.00     0.198 A 
ATOM     84  F   UNL A   1      41.945  21.471  26.258  1.00  0.00    -0.203 F 
ATOM     85  F   UNL A   1      47.022  20.135  24.812  1.00  0.00    -0.200 F 
ATOM     86  C   UNL A   1      44.749  19.556  25.036  1.00  0.00     0.200 A 
ATOM     87  F   UNL A   1      42.481  19.008  25.363  1.00  0.00    -0.200 F 
ATOM     88  F   UNL A   1      45.018  18.292  24.676  1.00  0.00    -0.200 F 
ENDBRANCH  54  78
BRANCH  66  89
ATOM     89  C   UNL A   1      42.038  27.844  27.604  1.00  0.00     0.064 A 
ATOM     90  C   UNL A   1      41.390  27.126  28.626  1.00  0.00     0.173 A 
ATOM     91  C   UNL A   1      41.244  28.683  26.812  1.00  0.00     0.173 A 
ATOM     92  F   UNL A   1      42.083  26.374  29.489  1.00  0.00    -0.203 F 
ATOM     93  C   UNL A   1      40.008  27.210  28.809  1.00  0.00     0.198 A 
ATOM     94  C   UNL A   1      39.871  28.794  27.019  1.00  0.00     0.198 A 
ATOM     95  F   UNL A   1      41.810  29.433  25.854  1.00  0.00    -0.203 F 
ATOM     96  F   UNL A   1      39.412  26.501  29.781  1.00  0.00    -0.200 F 
ATOM     97  C   UNL A   1      39.251  28.047  28.008  1.00  0.00     0.200 A 
ATOM     98  F   UNL A   1      39.153  29.642  26.271  1.00  0.00    -0.200 F 
ATOM     99  F   UNL A   1      37.929  28.155  28.202  1.00  0.00    -0.200 F 
ENDBRANCH  66  89
ENDBRANCH  40  41
ENDBRANCH  32  35
ENDBRANCH  30  31
ENDBRANCH  29  30
ENDBRANCH   1  29
TORSDOF 17
ENDMDL
MODEL 2
REMARK VINA RESULT:     -13.1      5.266     10.034
REMARK SMILES COC(=O)c1sc(SCC(=O)NCCCNC(=O)c2ccc(-c3c4nc(c(-c5c(F)c(F)c(F)c(F)c5F)c5ccc([nH]5)c(-c5c(F)c(F)c(F)c(F)c5F)c5nc(c(-c6c(F)c(F)c(F)c(F)c6F)c6ccc3[nH]6)C=C5)C=C4)cc2)c(NC(=O)c2ccccc2)c1O
REMARK SMILES IDX 13 1 12 2 10 3 11 4 9 6 8 7 7 8 5 9 6 10 92 11 82 12 3 13
REMARK SMILES IDX 4 14 2 15 1 16 93 17 83 19 84 20 85 22 86 23 87 24 91 25
REMARK SMILES IDX 88 26 90 27 89 28 14 29 15 30 16 31 17 32 18 34 19 35 20 36
REMARK SMILES IDX 81 37 21 38 80 39 22 40 23 41 24 42 74 43 25 44 79 45 73 46
REMARK SMILES IDX 75 47 26 48 78 49 72 50 71 51 27 53 59 54 39 55 58 56 40 57
REMARK SMILES IDX 43 58 57 59 76 60 41 61 42 62 56 64 77 65 44 66 28 67 29 68
REMARK SMILES IDX 37 69 30 70 31 71 35 72 38 73 32 74 33 75 36 76 34 77 60 78
REMARK SMILES IDX 61 79 69 80 62 81 63 82 67 83 70 84 64 85 65 86 68 87 66 88
REMARK SMILES IDX 45 89 46 90 54 91 47 92 48 93 52 94 55 95 49 96 50 97 53 98
REMARK SMILES IDX 51 99
REMARK H PARENT 12 5 93 18 83 21 16 33 75 52 43 63
REMARK Flexibility Score: inf
ROOT
ATOM      1  C   UNL A   1      37.686  22.159  25.474  1.00  0.00     0.117 C 
ENDROOT
BRANCH   1   2
ATOM      2  N   UNL A   1      36.476  21.359  25.489  1.00  0.00    -0.355 N 
ATOM      3  C   UNL A   1      35.171  21.693  25.756  1.00  0.00     0.230 C 
ATOM      4  O   UNL A   1      34.347  20.818  25.468  1.00  0.00    -0.274 OA
ATOM      5  H   UNL A   1      36.614  20.409  25.269  1.00  0.00     0.163 HD
BRANCH   3   6
ATOM      6  C   UNL A   1      34.753  23.297  26.350  1.00  0.00     0.175 C 
BRANCH   6   7
ATOM      7  S   UNL A   1      32.736  24.774  25.794  1.00  0.00    -0.103 SA
BRANCH   7   8
ATOM      8  C   UNL A   1      32.995  26.614  25.567  1.00  0.00     0.089 A 
ATOM      9  C   UNL A   1      33.203  29.066  26.054  1.00  0.00     0.157 A 
ATOM     10  S   UNL A   1      33.088  27.619  26.976  1.00  0.00    -0.116 S 
ATOM     11  C   UNL A   1      33.258  28.774  24.710  1.00  0.00     0.166 A 
ATOM     12  C   UNL A   1      33.154  27.385  24.413  1.00  0.00     0.109 A 
BRANCH   9  13
ATOM     13  C   UNL A   1      33.226  30.355  26.718  1.00  0.00     0.352 C 
ATOM     14  O   UNL A   1      34.212  30.972  27.097  1.00  0.00    -0.245 OA
BRANCH  13  15
ATOM     15  O   UNL A   1      31.936  30.794  26.880  1.00  0.00    -0.465 OA
ATOM     16  C   UNL A   1      31.751  32.214  26.844  1.00  0.00     0.282 C 
ENDBRANCH  13  15
ENDBRANCH   9  13
BRANCH  11  17
ATOM     17  O   UNL A   1      33.347  29.704  23.731  1.00  0.00    -0.504 OA
ATOM     18  H   UNL A   1      33.411  30.613  23.952  1.00  0.00     0.293 HD
ENDBRANCH  11  17
BRANCH  12  19
ATOM     19  N   UNL A   1      33.158  26.975  23.083  1.00  0.00    -0.317 N 
ATOM     20  C   UNL A   1      32.060  26.748  22.312  1.00  0.00     0.255 C 
ATOM     21  H   UNL A   1      34.036  26.836  22.661  1.00  0.00     0.170 HD
ATOM     22  O   UNL A   1      32.076  26.119  21.265  1.00  0.00    -0.269 OA
BRANCH  20  23
ATOM     23  C   UNL A   1      30.816  27.282  22.865  1.00  0.00     0.040 A 
ATOM     24  C   UNL A   1      30.290  28.873  22.235  1.00  0.00     0.014 A 
ATOM     25  C   UNL A   1      29.618  26.186  23.731  1.00  0.00     0.014 A 
ATOM     26  C   UNL A   1      28.589  29.383  22.466  1.00  0.00     0.001 A 
ATOM     27  C   UNL A   1      27.908  26.725  23.903  1.00  0.00     0.001 A 
ATOM     28  C   UNL A   1      27.402  28.317  23.261  1.00  0.00     0.000 A 
ENDBRANCH  20  23
ENDBRANCH  12  19
ENDBRANCH   7   8
ENDBRANCH   6   7
ENDBRANCH   3   6
ENDBRANCH   1   2
BRANCH   1  29
ATOM     29  C   UNL A   1      38.910  21.414  26.003  1.00  0.00     0.042 C 
BRANCH  29  30
ATOM     30  C   UNL A   1      39.866  22.307  26.744  1.00  0.00     0.118 C 
BRANCH  30  31
ATOM     31  N   UNL A   1      41.228  22.277  26.222  1.00  0.00    -0.352 N 
ATOM     32  C   UNL A   1      42.094  23.347  26.090  1.00  0.00     0.251 C 
ATOM     33  H   UNL A   1      41.568  21.399  25.933  1.00  0.00     0.163 HD
ATOM     34  O   UNL A   1      43.063  23.293  25.345  1.00  0.00    -0.269 OA
BRANCH  32  35
ATOM     35  C   UNL A   1      41.810  24.558  26.881  1.00  0.00     0.039 A 
ATOM     36  C   UNL A   1      42.376  24.796  28.131  1.00  0.00     0.014 A 
ATOM     37  C   UNL A   1      41.001  25.515  26.280  1.00  0.00     0.014 A 
ATOM     38  C   UNL A   1      42.100  26.016  28.740  1.00  0.00     0.010 A 
ATOM     39  C   UNL A   1      41.076  26.806  26.692  1.00  0.00     0.010 A 
ATOM     40  C   UNL A   1      41.441  27.017  27.997  1.00  0.00    -0.014 A 
BRANCH  40  41
ATOM     41  C   UNL A   1      41.196  28.349  28.508  1.00  0.00     0.031 A 
ATOM     42  C   UNL A   1      42.234  29.294  28.074  1.00  0.00     0.074 A 
ATOM     43  C   UNL A   1      40.088  28.725  29.186  1.00  0.00     0.049 A 
ATOM     44  N   UNL A   1      43.267  29.631  28.762  1.00  0.00    -0.248 NA
ATOM     45  C   UNL A   1      42.286  29.703  26.664  1.00  0.00     0.031 C 
ATOM     46  C   UNL A   1      38.842  27.996  29.445  1.00  0.00     0.029 A 
ATOM     47  N   UNL A   1      39.855  29.922  29.794  1.00  0.00    -0.354 N 
ATOM     48  C   UNL A   1      43.983  30.501  27.962  1.00  0.00     0.074 A 
ATOM     49  C   UNL A   1      43.468  30.327  26.628  1.00  0.00     0.031 C 
ATOM     50  C   UNL A   1      37.919  28.831  29.984  1.00  0.00     0.029 A 
ATOM     51  C   UNL A   1      38.559  30.102  30.272  1.00  0.00     0.049 A 
ATOM     52  H   UNL A   1      40.553  30.610  29.888  1.00  0.00     0.167 HD
ATOM     53  C   UNL A   1      44.717  31.483  28.549  1.00  0.00     0.037 A 
ATOM     54  C   UNL A   1      38.077  31.219  30.880  1.00  0.00     0.037 A 
ATOM     55  C   UNL A   1      44.913  31.193  29.956  1.00  0.00     0.049 A 
ATOM     56  C   UNL A   1      39.252  31.955  31.416  1.00  0.00     0.074 A 
ATOM     57  C   UNL A   1      45.494  30.150  30.655  1.00  0.00     0.029 A 
ATOM     58  N   UNL A   1      44.075  31.816  30.853  1.00  0.00    -0.354 N 
ATOM     59  N   UNL A   1      39.995  31.504  32.390  1.00  0.00    -0.248 NA
ATOM     60  C   UNL A   1      39.894  32.917  30.532  1.00  0.00     0.031 C 
ATOM     61  C   UNL A   1      44.621  29.911  31.762  1.00  0.00     0.029 A 
ATOM     62  C   UNL A   1      43.614  30.876  31.740  1.00  0.00     0.049 A 
ATOM     63  H   UNL A   1      43.846  32.773  30.856  1.00  0.00     0.167 HD
ATOM     64  C   UNL A   1      41.297  31.757  31.983  1.00  0.00     0.074 A 
ATOM     65  C   UNL A   1      41.170  32.685  30.858  1.00  0.00     0.031 C 
ATOM     66  C   UNL A   1      42.327  30.960  32.394  1.00  0.00     0.037 A 
BRANCH  53  67
ATOM     67  C   UNL A   1      44.859  32.875  27.985  1.00  0.00     0.064 A 
ATOM     68  C   UNL A   1      46.133  33.296  27.558  1.00  0.00     0.173 A 
ATOM     69  C   UNL A   1      43.896  33.898  28.126  1.00  0.00     0.173 A 
ATOM     70  F   UNL A   1      47.128  32.409  27.400  1.00  0.00    -0.203 F 
ATOM     71  C   UNL A   1      46.444  34.646  27.387  1.00  0.00     0.198 A 
ATOM     72  C   UNL A   1      44.197  35.239  27.905  1.00  0.00     0.198 A 
ATOM     73  F   UNL A   1      42.663  33.674  28.590  1.00  0.00    -0.203 F 
ATOM     74  F   UNL A   1      47.705  35.007  27.117  1.00  0.00    -0.200 F 
ATOM     75  C   UNL A   1      45.478  35.617  27.571  1.00  0.00     0.200 A 
ATOM     76  F   UNL A   1      43.249  36.166  28.109  1.00  0.00    -0.200 F 
ATOM     77  F   UNL A   1      45.789  36.916  27.475  1.00  0.00    -0.200 F 
ENDBRANCH  53  67
BRANCH  54  78
ATOM     78  C   UNL A   1      36.756  31.880  30.710  1.00  0.00     0.064 A 
ATOM     79  C   UNL A   1      35.884  32.051  31.802  1.00  0.00     0.173 A 
ATOM     80  C   UNL A   1      36.468  32.638  29.561  1.00  0.00     0.173 A 
ATOM     81  F   UNL A   1      36.111  31.404  32.955  1.00  0.00    -0.203 F 
ATOM     82  C   UNL A   1      34.816  32.957  31.759  1.00  0.00     0.198 A 
ATOM     83  C   UNL A   1      35.402  33.542  29.519  1.00  0.00     0.198 A 
ATOM     84  F   UNL A   1      37.280  32.599  28.495  1.00  0.00    -0.203 F 
ATOM     85  F   UNL A   1      34.053  33.147  32.845  1.00  0.00    -0.200 F 
ATOM     86  C   UNL A   1      34.586  33.712  30.621  1.00  0.00     0.200 A 
ATOM     87  F   UNL A   1      35.220  34.302  28.430  1.00  0.00    -0.200 F 
ATOM     88  F   UNL A   1      33.614  34.636  30.604  1.00  0.00    -0.200 F 
ENDBRANCH  54  78
BRANCH  66  89
ATOM     89  C   UNL A   1      42.046  29.972  33.497  1.00  0.00     0.064 A 
ATOM     90  C   UNL A   1      41.635  28.641  33.296  1.00  0.00     0.173 A 
ATOM     91  C   UNL A   1      42.319  30.362  34.815  1.00  0.00     0.173 A 
ATOM     92  F   UNL A   1      41.444  28.156  32.063  1.00  0.00    -0.203 F 
ATOM     93  C   UNL A   1      41.459  27.765  34.369  1.00  0.00     0.198 A 
ATOM     94  C   UNL A   1      42.178  29.477  35.880  1.00  0.00     0.198 A 
ATOM     95  F   UNL A   1      42.764  31.603  35.067  1.00  0.00    -0.203 F 
ATOM     96  F   UNL A   1      41.048  26.505  34.151  1.00  0.00    -0.200 F 
ATOM     97  C   UNL A   1      41.735  28.183  35.659  1.00  0.00     0.200 A 
ATOM     98  F   UNL A   1      42.493  29.874  37.119  1.00  0.00    -0.200 F 
ATOM     99  F   UNL A   1      41.598  27.334  36.687  1.00  0.00    -0.200 F 
ENDBRANCH  66  89
ENDBRANCH  40  41
ENDBRANCH  32  35
ENDBRANCH  30  31
ENDBRANCH  29  30
ENDBRANCH   1  29
TORSDOF 17
ENDMDL
MODEL 3
REMARK VINA RESULT:     -12.8      5.926     10.790
REMARK SMILES COC(=O)c1sc(SCC(=O)NCCCNC(=O)c2ccc(-c3c4nc(c(-c5c(F)c(F)c(F)c(F)c5F)c5ccc([nH]5)c(-c5c(F)c(F)c(F)c(F)c5F)c5nc(c(-c6c(F)c(F)c(F)c(F)c6F)c6ccc3[nH]6)C=C5)C=C4)cc2)c(NC(=O)c2ccccc2)c1O
REMARK SMILES IDX 13 1 12 2 10 3 11 4 9 6 8 7 7 8 5 9 6 10 92 11 82 12 3 13
REMARK SMILES IDX 4 14 2 15 1 16 93 17 83 19 84 20 85 22 86 23 87 24 91 25
REMARK SMILES IDX 88 26 90 27 89 28 14 29 15 30 16 31 17 32 18 34 19 35 20 36
REMARK SMILES IDX 81 37 21 38 80 39 22 40 23 41 24 42 74 43 25 44 79 45 73 46
REMARK SMILES IDX 75 47 26 48 78 49 72 50 71 51 27 53 59 54 39 55 58 56 40 57
REMARK SMILES IDX 43 58 57 59 76 60 41 61 42 62 56 64 77 65 44 66 28 67 29 68
REMARK SMILES IDX 37 69 30 70 31 71 35 72 38 73 32 74 33 75 36 76 34 77 60 78
REMARK SMILES IDX 61 79 69 80 62 81 63 82 67 83 70 84 64 85 65 86 68 87 66 88
REMARK SMILES IDX 45 89 46 90 54 91 47 92 48 93 52 94 55 95 49 96 50 97 53 98
REMARK SMILES IDX 51 99
REMARK H PARENT 12 5 93 18 83 21 16 33 75 52 43 63
REMARK Flexibility Score: inf
ROOT
ATOM      1  C   UNL A   1      40.559  22.404  27.144  1.00  0.00     0.117 C 
ENDROOT
BRANCH   1   2
ATOM      2  N   UNL A   1      39.666  21.506  26.436  1.00  0.00    -0.355 N 
ATOM      3  C   UNL A   1      38.493  21.739  25.760  1.00  0.00     0.230 C 
ATOM      4  O   UNL A   1      38.093  20.787  25.082  1.00  0.00    -0.274 OA
ATOM      5  H   UNL A   1      39.949  20.563  26.441  1.00  0.00     0.163 HD
BRANCH   3   6
ATOM      6  C   UNL A   1      37.729  23.324  25.800  1.00  0.00     0.175 C 
BRANCH   6   7
ATOM      7  S   UNL A   1      35.611  24.150  24.620  1.00  0.00    -0.103 SA
BRANCH   7   8
ATOM      8  C   UNL A   1      34.311  22.902  24.111  1.00  0.00     0.089 A 
ATOM      9  C   UNL A   1      32.932  20.810  24.010  1.00  0.00     0.157 A 
ATOM     10  S   UNL A   1      34.120  21.467  25.065  1.00  0.00    -0.116 S 
ATOM     11  C   UNL A   1      32.630  21.706  23.010  1.00  0.00     0.166 A 
ATOM     12  C   UNL A   1      33.394  22.907  23.057  1.00  0.00     0.109 A 
BRANCH   9  13
ATOM     13  C   UNL A   1      32.401  19.481  24.247  1.00  0.00     0.352 C 
ATOM     14  O   UNL A   1      32.064  19.001  25.321  1.00  0.00    -0.245 OA
BRANCH  13  15
ATOM     15  O   UNL A   1      32.341  18.808  23.053  1.00  0.00    -0.465 OA
ATOM     16  C   UNL A   1      33.019  17.547  23.012  1.00  0.00     0.282 C 
ENDBRANCH  13  15
ENDBRANCH   9  13
BRANCH  11  17
ATOM     17  O   UNL A   1      31.734  21.474  22.023  1.00  0.00    -0.504 OA
ATOM     18  H   UNL A   1      31.665  20.619  21.645  1.00  0.00     0.293 HD
ENDBRANCH  11  17
BRANCH  12  19
ATOM     19  N   UNL A   1      33.203  23.870  22.072  1.00  0.00    -0.317 N 
ATOM     20  C   UNL A   1      32.513  25.035  22.212  1.00  0.00     0.255 C 
ATOM     21  H   UNL A   1      33.604  23.694  21.191  1.00  0.00     0.170 HD
ATOM     22  O   UNL A   1      32.114  25.712  21.278  1.00  0.00    -0.269 OA
BRANCH  20  23
ATOM     23  C   UNL A   1      32.233  25.404  23.599  1.00  0.00     0.040 A 
ATOM     24  C   UNL A   1      33.210  26.744  24.273  1.00  0.00     0.014 A 
ATOM     25  C   UNL A   1      30.659  24.903  24.412  1.00  0.00     0.014 A 
ATOM     26  C   UNL A   1      32.638  27.582  25.749  1.00  0.00     0.001 A 
ATOM     27  C   UNL A   1      30.105  25.804  25.869  1.00  0.00     0.001 A 
ATOM     28  C   UNL A   1      31.094  27.144  26.524  1.00  0.00     0.000 A 
ENDBRANCH  20  23
ENDBRANCH  12  19
ENDBRANCH   7   8
ENDBRANCH   6   7
ENDBRANCH   3   6
ENDBRANCH   1   2
BRANCH   1  29
ATOM     29  C   UNL A   1      41.627  21.677  27.958  1.00  0.00     0.042 C 
BRANCH  29  30
ATOM     30  C   UNL A   1      42.890  22.477  28.119  1.00  0.00     0.118 C 
BRANCH  30  31
ATOM     31  N   UNL A   1      43.535  22.821  26.856  1.00  0.00    -0.352 N 
ATOM     32  C   UNL A   1      43.505  24.043  26.209  1.00  0.00     0.251 C 
ATOM     33  H   UNL A   1      44.049  22.104  26.417  1.00  0.00     0.163 HD
ATOM     34  O   UNL A   1      43.777  24.140  25.020  1.00  0.00    -0.269 OA
BRANCH  32  35
ATOM     35  C   UNL A   1      43.133  25.227  27.003  1.00  0.00     0.039 A 
ATOM     36  C   UNL A   1      43.949  25.758  27.999  1.00  0.00     0.014 A 
ATOM     37  C   UNL A   1      41.945  25.860  26.655  1.00  0.00     0.014 A 
ATOM     38  C   UNL A   1      43.529  26.930  28.618  1.00  0.00     0.010 A 
ATOM     39  C   UNL A   1      41.766  27.167  26.973  1.00  0.00     0.010 A 
ATOM     40  C   UNL A   1      42.423  27.626  28.086  1.00  0.00    -0.014 A 
BRANCH  40  41
ATOM     41  C   UNL A   1      41.971  28.901  28.599  1.00  0.00     0.031 A 
ATOM     42  C   UNL A   1      42.908  29.982  28.263  1.00  0.00     0.074 A 
ATOM     43  C   UNL A   1      40.775  29.116  29.192  1.00  0.00     0.049 A 
ATOM     44  N   UNL A   1      43.834  30.429  29.037  1.00  0.00    -0.248 NA
ATOM     45  C   UNL A   1      43.015  30.432  26.869  1.00  0.00     0.031 C 
ATOM     46  C   UNL A   1      39.617  28.227  29.340  1.00  0.00     0.029 A 
ATOM     47  N   UNL A   1      40.344  30.256  29.801  1.00  0.00    -0.354 N 
ATOM     48  C   UNL A   1      44.490  31.404  28.309  1.00  0.00     0.074 A 
ATOM     49  C   UNL A   1      44.105  31.202  26.937  1.00  0.00     0.031 C 
ATOM     50  C   UNL A   1      38.556  28.923  29.819  1.00  0.00     0.029 A 
ATOM     51  C   UNL A   1      39.003  30.258  30.177  1.00  0.00     0.049 A 
ATOM     52  H   UNL A   1      40.938  31.025  29.961  1.00  0.00     0.167 HD
ATOM     53  C   UNL A   1      45.044  32.456  28.969  1.00  0.00     0.037 A 
ATOM     54  C   UNL A   1      38.336  31.287  30.764  1.00  0.00     0.037 A 
ATOM     55  C   UNL A   1      45.169  32.156  30.382  1.00  0.00     0.049 A 
ATOM     56  C   UNL A   1      39.362  32.153  31.403  1.00  0.00     0.074 A 
ATOM     57  C   UNL A   1      45.824  31.177  31.108  1.00  0.00     0.029 A 
ATOM     58  N   UNL A   1      44.192  32.643  31.221  1.00  0.00    -0.354 N 
ATOM     59  N   UNL A   1      40.080  31.774  32.425  1.00  0.00    -0.248 NA
ATOM     60  C   UNL A   1      39.940  33.212  30.589  1.00  0.00     0.031 C 
ATOM     61  C   UNL A   1      44.907  30.799  32.138  1.00  0.00     0.029 A 
ATOM     62  C   UNL A   1      43.789  31.629  32.053  1.00  0.00     0.049 A 
ATOM     63  H   UNL A   1      43.842  33.563  31.222  1.00  0.00     0.167 HD
ATOM     64  C   UNL A   1      41.366  32.202  32.127  1.00  0.00     0.074 A 
ATOM     65  C   UNL A   1      41.206  33.135  31.010  1.00  0.00     0.031 C 
ATOM     66  C   UNL A   1      42.456  31.531  32.604  1.00  0.00     0.037 A 
BRANCH  53  67
ATOM     67  C   UNL A   1      45.049  33.869  28.441  1.00  0.00     0.064 A 
ATOM     68  C   UNL A   1      46.278  34.552  28.371  1.00  0.00     0.173 A 
ATOM     69  C   UNL A   1      43.897  34.673  28.297  1.00  0.00     0.173 A 
ATOM     70  F   UNL A   1      47.437  33.889  28.504  1.00  0.00    -0.203 F 
ATOM     71  C   UNL A   1      46.343  35.943  28.267  1.00  0.00     0.198 A 
ATOM     72  C   UNL A   1      43.968  36.055  28.144  1.00  0.00     0.198 A 
ATOM     73  F   UNL A   1      42.656  34.189  28.412  1.00  0.00    -0.203 F 
ATOM     74  F   UNL A   1      47.530  36.558  28.344  1.00  0.00    -0.200 F 
ATOM     75  C   UNL A   1      45.187  36.694  28.164  1.00  0.00     0.200 A 
ATOM     76  F   UNL A   1      42.833  36.765  28.066  1.00  0.00    -0.200 F 
ATOM     77  F   UNL A   1      45.243  38.031  28.134  1.00  0.00    -0.200 F 
ENDBRANCH  53  67
BRANCH  54  78
ATOM     78  C   UNL A   1      36.957  31.779  30.501  1.00  0.00     0.064 A 
ATOM     79  C   UNL A   1      36.035  31.950  31.551  1.00  0.00     0.173 A 
ATOM     80  C   UNL A   1      36.629  32.395  29.280  1.00  0.00     0.173 A 
ATOM     81  F   UNL A   1      36.291  31.438  32.764  1.00  0.00    -0.203 F 
ATOM     82  C   UNL A   1      34.877  32.723  31.398  1.00  0.00     0.198 A 
ATOM     83  C   UNL A   1      35.473  33.167  29.128  1.00  0.00     0.198 A 
ATOM     84  F   UNL A   1      37.477  32.351  28.242  1.00  0.00    -0.203 F 
ATOM     85  F   UNL A   1      34.061  32.924  32.442  1.00  0.00    -0.200 F 
ATOM     86  C   UNL A   1      34.606  33.343  30.190  1.00  0.00     0.200 A 
ATOM     87  F   UNL A   1      35.247  33.802  27.969  1.00  0.00    -0.200 F 
ATOM     88  F   UNL A   1      33.540  34.148  30.063  1.00  0.00    -0.200 F 
ENDBRANCH  54  78
BRANCH  66  89
ATOM     89  C   UNL A   1      42.222  30.486  33.665  1.00  0.00     0.064 A 
ATOM     90  C   UNL A   1      41.914  29.137  33.408  1.00  0.00     0.173 A 
ATOM     91  C   UNL A   1      42.434  30.848  35.002  1.00  0.00     0.173 A 
ATOM     92  F   UNL A   1      41.788  28.684  32.155  1.00  0.00    -0.203 F 
ATOM     93  C   UNL A   1      41.777  28.213  34.445  1.00  0.00     0.198 A 
ATOM     94  C   UNL A   1      42.333  29.917  36.032  1.00  0.00     0.198 A 
ATOM     95  F   UNL A   1      42.781  32.107  35.308  1.00  0.00    -0.203 F 
ATOM     96  F   UNL A   1      41.464  26.936  34.173  1.00  0.00    -0.200 F 
ATOM     97  C   UNL A   1      41.991  28.603  35.756  1.00  0.00     0.200 A 
ATOM     98  F   UNL A   1      42.588  30.291  37.293  1.00  0.00    -0.200 F 
ATOM     99  F   UNL A   1      41.891  27.710  36.751  1.00  0.00    -0.200 F 
ENDBRANCH  66  89
ENDBRANCH  40  41
ENDBRANCH  32  35
ENDBRANCH  30  31
ENDBRANCH  29  30
ENDBRANCH   1  29
TORSDOF 17
ENDMDL
