MODEL 1
REMARK VINA RESULT:     -11.9      0.000      0.000
REMARK SMILES C[C@@H]1CCN(c2cncc(C(=O)NCCCNC(=O)c3ccc(-c4c5nc(c(-c6c(F)c(F)c(F)c(F)c6F)c6ccc([nH]6)c(-c6c(F)c(F)c(F)c(F)c6F)c6nc(c(-c7c(F)c(F)c(F)c(F)c7F)c7ccc4[nH]7)C=C6)C=C5)cc3)n2)[C@H](C)C1
REMARK SMILES IDX 15 1 14 2 13 3 11 4 12 5 10 7 6 8 7 9 83 10 8 11 9 12 5 13
REMARK SMILES IDX 1 14 2 15 3 16 86 17 4 18 84 19 85 20 16 21 17 22 18 23
REMARK SMILES IDX 19 25 20 26 21 27 82 28 22 29 81 30 23 31 24 32 25 33 75 34
REMARK SMILES IDX 26 35 80 36 74 37 76 38 27 39 79 40 73 41 72 42 28 44 60 45
REMARK SMILES IDX 40 46 59 47 41 48 44 49 58 50 77 51 42 52 43 53 57 55 78 56
REMARK SMILES IDX 45 57 29 58 30 59 38 60 31 61 32 62 36 63 39 64 33 65 34 66
REMARK SMILES IDX 37 67 35 68 61 69 62 70 70 71 63 72 64 73 68 74 71 75 65 76
REMARK SMILES IDX 66 77 69 78 67 79 46 80 47 81 55 82 48 83 49 84 53 85 56 86
REMARK SMILES IDX 50 87 51 88 54 89 52 90
REMARK H PARENT 13 6 17 24 76 43 44 54
REMARK Flexibility Score: inf
ROOT
ATOM      1  C   UNL A   1      35.224  33.209  28.000  1.00  0.00     0.042 C 
ENDROOT
BRANCH   1   2
ATOM      2  C   UNL A   1      35.294  34.686  28.379  1.00  0.00     0.118 C 
BRANCH   2   3
ATOM      3  N   UNL A   1      34.001  35.342  28.275  1.00  0.00    -0.351 N 
ATOM      4  C   UNL A   1      33.219  35.958  29.228  1.00  0.00     0.271 C 
ATOM      5  O   UNL A   1      32.153  36.452  28.852  1.00  0.00    -0.267 OA
ATOM      6  H   UNL A   1      33.619  35.347  27.368  1.00  0.00     0.163 HD
BRANCH   4   7
ATOM      7  C   UNL A   1      33.600  36.054  30.668  1.00  0.00     0.148 A 
ATOM      8  C   UNL A   1      34.600  35.152  32.555  1.00  0.00     0.148 A 
ATOM      9  C   UNL A   1      34.240  36.312  33.246  1.00  0.00     0.157 A 
ATOM     10  N   UNL A   1      34.260  35.026  31.253  1.00  0.00    -0.222 NA
ATOM     11  N   UNL A   1      33.582  37.360  32.686  1.00  0.00    -0.258 NA
ATOM     12  C   UNL A   1      33.278  37.204  31.373  1.00  0.00     0.145 A 
BRANCH   8  13
ATOM     13  N   UNL A   1      35.375  34.162  33.113  1.00  0.00    -0.353 N 
ATOM     14  C   UNL A   1      38.056  31.713  34.438  1.00  0.00     0.008 C 
ATOM     15  C   UNL A   1      37.869  33.219  34.226  1.00  0.00    -0.011 C 
ATOM     16  C   UNL A   1      36.767  33.835  35.115  1.00  0.00     0.025 C 
ATOM     17  C   UNL A   1      37.684  33.581  32.744  1.00  0.00     0.028 C 
ATOM     18  C   UNL A   1      35.353  33.827  34.527  1.00  0.00     0.118 C 
ATOM     19  C   UNL A   1      36.251  33.404  32.224  1.00  0.00     0.081 C 
ATOM     20  C   UNL A   1      35.796  31.953  32.102  1.00  0.00     0.031 C 
ENDBRANCH   8  13
ENDBRANCH   4   7
ENDBRANCH   2   3
ENDBRANCH   1   2
BRANCH   1  21
ATOM     21  C   UNL A   1      34.102  32.454  28.711  1.00  0.00     0.118 C 
BRANCH  21  22
ATOM     22  N   UNL A   1      33.649  31.291  27.950  1.00  0.00    -0.352 N 
ATOM     23  C   UNL A   1      34.324  30.179  27.530  1.00  0.00     0.251 C 
ATOM     24  H   UNL A   1      32.697  31.311  27.699  1.00  0.00     0.163 HD
ATOM     25  O   UNL A   1      33.793  29.424  26.706  1.00  0.00    -0.269 OA
BRANCH  23  26
ATOM     26  C   UNL A   1      35.675  29.863  28.035  1.00  0.00     0.039 A 
ATOM     27  C   UNL A   1      35.812  29.391  29.345  1.00  0.00     0.014 A 
ATOM     28  C   UNL A   1      36.810  30.079  27.251  1.00  0.00     0.014 A 
ATOM     29  C   UNL A   1      37.077  29.079  29.845  1.00  0.00     0.010 A 
ATOM     30  C   UNL A   1      38.064  29.699  27.724  1.00  0.00     0.010 A 
ATOM     31  C   UNL A   1      38.211  29.196  29.025  1.00  0.00    -0.014 A 
BRANCH  31  32
ATOM     32  C   UNL A   1      39.555  28.789  29.508  1.00  0.00     0.031 A 
ATOM     33  C   UNL A   1      40.317  29.664  30.463  1.00  0.00     0.074 A 
ATOM     34  C   UNL A   1      40.117  27.662  29.028  1.00  0.00     0.049 A 
ATOM     35  N   UNL A   1      41.532  29.520  30.931  1.00  0.00    -0.248 NA
ATOM     36  C   UNL A   1      39.633  30.878  30.940  1.00  0.00     0.031 C 
ATOM     37  C   UNL A   1      39.496  26.753  28.063  1.00  0.00     0.029 A 
ATOM     38  N   UNL A   1      41.343  27.096  29.275  1.00  0.00    -0.354 N 
ATOM     39  C   UNL A   1      41.763  30.628  31.735  1.00  0.00     0.074 A 
ATOM     40  C   UNL A   1      40.581  31.460  31.660  1.00  0.00     0.031 C 
ATOM     41  C   UNL A   1      40.334  25.734  27.816  1.00  0.00     0.029 A 
ATOM     42  C   UNL A   1      41.567  25.939  28.569  1.00  0.00     0.049 A 
ATOM     43  H   UNL A   1      41.999  27.483  29.899  1.00  0.00     0.167 HD
ATOM     44  C   UNL A   1      42.854  30.914  32.484  1.00  0.00     0.037 A 
ATOM     45  C   UNL A   1      42.650  25.140  28.526  1.00  0.00     0.037 A 
ATOM     46  C   UNL A   1      44.016  30.067  32.580  1.00  0.00     0.049 A 
ATOM     47  C   UNL A   1      43.851  25.487  29.366  1.00  0.00     0.074 A 
ATOM     48  C   UNL A   1      45.143  30.237  33.364  1.00  0.00     0.029 A 
ATOM     49  N   UNL A   1      44.198  28.894  31.865  1.00  0.00    -0.354 N 
ATOM     50  N   UNL A   1      44.029  26.500  30.178  1.00  0.00    -0.248 NA
ATOM     51  C   UNL A   1      45.001  24.576  29.283  1.00  0.00     0.031 C 
ATOM     52  C   UNL A   1      46.029  29.191  33.088  1.00  0.00     0.029 A 
ATOM     53  C   UNL A   1      45.432  28.341  32.172  1.00  0.00     0.049 A 
ATOM     54  H   UNL A   1      43.549  28.510  31.233  1.00  0.00     0.167 HD
ATOM     55  C   UNL A   1      45.292  26.330  30.728  1.00  0.00     0.074 A 
ATOM     56  C   UNL A   1      45.831  25.109  30.167  1.00  0.00     0.031 C 
ATOM     57  C   UNL A   1      45.948  27.116  31.616  1.00  0.00     0.037 A 
BRANCH  44  58
ATOM     58  C   UNL A   1      42.850  32.194  33.268  1.00  0.00     0.064 A 
ATOM     59  C   UNL A   1      43.374  33.383  32.739  1.00  0.00     0.173 A 
ATOM     60  C   UNL A   1      42.260  32.247  34.540  1.00  0.00     0.173 A 
ATOM     61  F   UNL A   1      43.957  33.386  31.531  1.00  0.00    -0.203 F 
ATOM     62  C   UNL A   1      43.329  34.572  33.463  1.00  0.00     0.198 A 
ATOM     63  C   UNL A   1      42.191  33.444  35.249  1.00  0.00     0.198 A 
ATOM     64  F   UNL A   1      41.738  31.141  35.091  1.00  0.00    -0.203 F 
ATOM     65  F   UNL A   1      43.873  35.686  32.954  1.00  0.00    -0.200 F 
ATOM     66  C   UNL A   1      42.729  34.603  34.713  1.00  0.00     0.200 A 
ATOM     67  F   UNL A   1      41.598  33.475  36.451  1.00  0.00    -0.200 F 
ATOM     68  F   UNL A   1      42.674  35.750  35.404  1.00  0.00    -0.200 F 
ENDBRANCH  44  58
BRANCH  45  69
ATOM     69  C   UNL A   1      42.646  23.922  27.675  1.00  0.00     0.064 A 
ATOM     70  C   UNL A   1      42.271  22.678  28.202  1.00  0.00     0.173 A 
ATOM     71  C   UNL A   1      43.036  23.968  26.328  1.00  0.00     0.173 A 
ATOM     72  F   UNL A   1      41.910  22.578  29.489  1.00  0.00    -0.203 F 
ATOM     73  C   UNL A   1      42.311  21.524  27.422  1.00  0.00     0.198 A 
ATOM     74  C   UNL A   1      43.045  22.819  25.542  1.00  0.00     0.198 A 
ATOM     75  F   UNL A   1      43.399  25.135  25.774  1.00  0.00    -0.203 F 
ATOM     76  F   UNL A   1      42.000  20.339  27.966  1.00  0.00    -0.200 F 
ATOM     77  C   UNL A   1      42.695  21.596  26.091  1.00  0.00     0.200 A 
ATOM     78  F   UNL A   1      43.402  22.896  24.252  1.00  0.00    -0.200 F 
ATOM     79  F   UNL A   1      42.733  20.486  25.342  1.00  0.00    -0.200 F 
ENDBRANCH  45  69
BRANCH  57  80
ATOM     80  C   UNL A   1      47.303  26.658  32.072  1.00  0.00     0.064 A 
ATOM     81  C   UNL A   1      48.479  27.119  31.464  1.00  0.00     0.173 A 
ATOM     82  C   UNL A   1      47.424  25.775  33.156  1.00  0.00     0.173 A 
ATOM     83  F   UNL A   1      48.416  27.950  30.413  1.00  0.00    -0.203 F 
ATOM     84  C   UNL A   1      49.728  26.690  31.907  1.00  0.00     0.198 A 
ATOM     85  C   UNL A   1      48.675  25.376  33.618  1.00  0.00     0.198 A 
ATOM     86  F   UNL A   1      46.329  25.312  33.777  1.00  0.00    -0.203 F 
ATOM     87  F   UNL A   1      50.837  27.103  31.279  1.00  0.00    -0.200 F 
ATOM     88  C   UNL A   1      49.825  25.826  32.988  1.00  0.00     0.200 A 
ATOM     89  F   UNL A   1      48.767  24.552  34.671  1.00  0.00    -0.200 F 
ATOM     90  F   UNL A   1      51.027  25.422  33.418  1.00  0.00    -0.200 F 
ENDBRANCH  57  80
ENDBRANCH  31  32
ENDBRANCH  23  26
ENDBRANCH  21  22
ENDBRANCH   1  21
TORSDOF 11
ENDMDL
MODEL 2
REMARK VINA RESULT:     -11.9      3.798     11.776
REMARK SMILES C[C@@H]1CCN(c2cncc(C(=O)NCCCNC(=O)c3ccc(-c4c5nc(c(-c6c(F)c(F)c(F)c(F)c6F)c6ccc([nH]6)c(-c6c(F)c(F)c(F)c(F)c6F)c6nc(c(-c7c(F)c(F)c(F)c(F)c7F)c7ccc4[nH]7)C=C6)C=C5)cc3)n2)[C@H](C)C1
REMARK SMILES IDX 15 1 14 2 13 3 11 4 12 5 10 7 6 8 7 9 83 10 8 11 9 12 5 13
REMARK SMILES IDX 1 14 2 15 3 16 86 17 4 18 84 19 85 20 16 21 17 22 18 23
REMARK SMILES IDX 19 25 20 26 21 27 82 28 22 29 81 30 23 31 24 32 25 33 75 34
REMARK SMILES IDX 26 35 80 36 74 37 76 38 27 39 79 40 73 41 72 42 28 44 60 45
REMARK SMILES IDX 40 46 59 47 41 48 44 49 58 50 77 51 42 52 43 53 57 55 78 56
REMARK SMILES IDX 45 57 29 58 30 59 38 60 31 61 32 62 36 63 39 64 33 65 34 66
REMARK SMILES IDX 37 67 35 68 61 69 62 70 70 71 63 72 64 73 68 74 71 75 65 76
REMARK SMILES IDX 66 77 69 78 67 79 46 80 47 81 55 82 48 83 49 84 53 85 56 86
REMARK SMILES IDX 50 87 51 88 54 89 52 90
REMARK H PARENT 13 6 17 24 76 43 44 54
REMARK Flexibility Score: inf
ROOT
ATOM      1  C   UNL A   1      40.786  21.265  27.597  1.00  0.00     0.042 C 
ENDROOT
BRANCH   1   2
ATOM      2  C   UNL A   1      41.988  20.360  27.858  1.00  0.00     0.118 C 
BRANCH   2   3
ATOM      3  N   UNL A   1      41.916  19.121  27.101  1.00  0.00    -0.351 N 
ATOM      4  C   UNL A   1      42.753  18.598  26.139  1.00  0.00     0.271 C 
ATOM      5  O   UNL A   1      42.453  17.500  25.664  1.00  0.00    -0.267 OA
ATOM      6  H   UNL A   1      41.136  18.559  27.313  1.00  0.00     0.163 HD
BRANCH   4   7
ATOM      7  C   UNL A   1      43.986  19.289  25.659  1.00  0.00     0.148 A 
ATOM      8  C   UNL A   1      45.132  21.233  25.124  1.00  0.00     0.148 A 
ATOM      9  C   UNL A   1      46.232  20.439  24.790  1.00  0.00     0.157 A 
ATOM     10  N   UNL A   1      43.994  20.640  25.552  1.00  0.00    -0.222 NA
ATOM     11  N   UNL A   1      46.254  19.084  24.890  1.00  0.00    -0.258 NA
ATOM     12  C   UNL A   1      45.102  18.529  25.342  1.00  0.00     0.145 A 
BRANCH   8  13
ATOM     13  N   UNL A   1      45.178  22.607  25.133  1.00  0.00    -0.353 N 
ATOM     14  C   UNL A   1      45.391  26.409  25.799  1.00  0.00     0.008 C 
ATOM     15  C   UNL A   1      46.019  25.108  26.310  1.00  0.00    -0.011 C 
ATOM     16  C   UNL A   1      46.879  24.381  25.254  1.00  0.00     0.025 C 
ATOM     17  C   UNL A   1      44.982  24.174  26.953  1.00  0.00     0.028 C 
ATOM     18  C   UNL A   1      46.137  23.381  24.362  1.00  0.00     0.118 C 
ATOM     19  C   UNL A   1      44.198  23.314  25.952  1.00  0.00     0.081 C 
ATOM     20  C   UNL A   1      43.211  24.092  25.087  1.00  0.00     0.031 C 
ENDBRANCH   8  13
ENDBRANCH   4   7
ENDBRANCH   2   3
ENDBRANCH   1   2
BRANCH   1  21
ATOM     21  C   UNL A   1      40.705  21.763  26.155  1.00  0.00     0.118 C 
BRANCH  21  22
ATOM     22  N   UNL A   1      39.340  22.107  25.764  1.00  0.00    -0.352 N 
ATOM     23  C   UNL A   1      38.548  23.165  26.115  1.00  0.00     0.251 C 
ATOM     24  H   UNL A   1      38.919  21.470  25.142  1.00  0.00     0.163 HD
ATOM     25  O   UNL A   1      37.343  23.136  25.837  1.00  0.00    -0.269 OA
BRANCH  23  26
ATOM     26  C   UNL A   1      39.099  24.337  26.822  1.00  0.00     0.039 A 
ATOM     27  C   UNL A   1      39.887  25.246  26.108  1.00  0.00     0.014 A 
ATOM     28  C   UNL A   1      38.896  24.518  28.192  1.00  0.00     0.014 A 
ATOM     29  C   UNL A   1      40.415  26.367  26.752  1.00  0.00     0.010 A 
ATOM     30  C   UNL A   1      39.362  25.672  28.817  1.00  0.00     0.010 A 
ATOM     31  C   UNL A   1      40.127  26.608  28.105  1.00  0.00    -0.014 A 
BRANCH  31  32
ATOM     32  C   UNL A   1      40.608  27.835  28.787  1.00  0.00     0.031 A 
ATOM     33  C   UNL A   1      42.039  27.947  29.233  1.00  0.00     0.074 A 
ATOM     34  C   UNL A   1      39.734  28.822  29.067  1.00  0.00     0.049 A 
ATOM     35  N   UNL A   1      42.623  28.901  29.914  1.00  0.00    -0.248 NA
ATOM     36  C   UNL A   1      42.929  26.826  28.889  1.00  0.00     0.031 C 
ATOM     37  C   UNL A   1      38.310  28.813  28.725  1.00  0.00     0.029 A 
ATOM     38  N   UNL A   1      39.910  30.020  29.715  1.00  0.00    -0.354 N 
ATOM     39  C   UNL A   1      43.936  28.488  30.097  1.00  0.00     0.074 A 
ATOM     40  C   UNL A   1      44.055  27.177  29.493  1.00  0.00     0.031 C 
ATOM     41  C   UNL A   1      37.748  29.955  29.147  1.00  0.00     0.029 A 
ATOM     42  C   UNL A   1      38.758  30.760  29.827  1.00  0.00     0.049 A 
ATOM     43  H   UNL A   1      40.780  30.319  30.066  1.00  0.00     0.167 HD
ATOM     44  C   UNL A   1      44.954  29.151  30.695  1.00  0.00     0.037 A 
ATOM     45  C   UNL A   1      38.540  31.948  30.421  1.00  0.00     0.037 A 
ATOM     46  C   UNL A   1      44.838  30.468  31.267  1.00  0.00     0.049 A 
ATOM     47  C   UNL A   1      39.690  32.659  31.084  1.00  0.00     0.074 A 
ATOM     48  C   UNL A   1      45.828  31.250  31.834  1.00  0.00     0.029 A 
ATOM     49  N   UNL A   1      43.660  31.193  31.344  1.00  0.00    -0.354 N 
ATOM     50  N   UNL A   1      40.944  32.290  31.187  1.00  0.00    -0.248 NA
ATOM     51  C   UNL A   1      39.394  33.955  31.711  1.00  0.00     0.031 C 
ATOM     52  C   UNL A   1      45.239  32.430  32.300  1.00  0.00     0.029 A 
ATOM     53  C   UNL A   1      43.893  32.406  31.973  1.00  0.00     0.049 A 
ATOM     54  H   UNL A   1      42.787  30.893  31.004  1.00  0.00     0.167 HD
ATOM     55  C   UNL A   1      41.591  33.319  31.857  1.00  0.00     0.074 A 
ATOM     56  C   UNL A   1      40.594  34.334  32.124  1.00  0.00     0.031 C 
ATOM     57  C   UNL A   1      42.893  33.414  32.219  1.00  0.00     0.037 A 
BRANCH  44  58
ATOM     58  C   UNL A   1      46.290  28.469  30.763  1.00  0.00     0.064 A 
ATOM     59  C   UNL A   1      46.619  27.596  31.811  1.00  0.00     0.173 A 
ATOM     60  C   UNL A   1      47.230  28.643  29.736  1.00  0.00     0.173 A 
ATOM     61  F   UNL A   1      45.760  27.401  32.822  1.00  0.00    -0.203 F 
ATOM     62  C   UNL A   1      47.848  26.941  31.841  1.00  0.00     0.198 A 
ATOM     63  C   UNL A   1      48.446  27.965  29.754  1.00  0.00     0.198 A 
ATOM     64  F   UNL A   1      46.964  29.461  28.707  1.00  0.00    -0.203 F 
ATOM     65  F   UNL A   1      48.156  26.145  32.873  1.00  0.00    -0.200 F 
ATOM     66  C   UNL A   1      48.756  27.120  30.807  1.00  0.00     0.200 A 
ATOM     67  F   UNL A   1      49.317  28.126  28.747  1.00  0.00    -0.200 F 
ATOM     68  F   UNL A   1      49.933  26.479  30.830  1.00  0.00    -0.200 F 
ENDBRANCH  44  58
BRANCH  45  69
ATOM     69  C   UNL A   1      37.183  32.554  30.403  1.00  0.00     0.064 A 
ATOM     70  C   UNL A   1      36.769  33.358  29.331  1.00  0.00     0.173 A 
ATOM     71  C   UNL A   1      36.281  32.364  31.460  1.00  0.00     0.173 A 
ATOM     72  F   UNL A   1      37.603  33.586  28.306  1.00  0.00    -0.203 F 
ATOM     73  C   UNL A   1      35.517  33.968  29.330  1.00  0.00     0.198 A 
ATOM     74  C   UNL A   1      35.017  32.950  31.443  1.00  0.00     0.198 A 
ATOM     75  F   UNL A   1      36.626  31.600  32.508  1.00  0.00    -0.203 F 
ATOM     76  F   UNL A   1      35.168  34.775  28.318  1.00  0.00    -0.200 F 
ATOM     77  C   UNL A   1      34.641  33.760  30.384  1.00  0.00     0.200 A 
ATOM     78  F   UNL A   1      34.168  32.734  32.457  1.00  0.00    -0.200 F 
ATOM     79  F   UNL A   1      33.437  34.348  30.383  1.00  0.00    -0.200 F 
ENDBRANCH  45  69
BRANCH  57  80
ATOM     80  C   UNL A   1      43.327  34.676  32.905  1.00  0.00     0.064 A 
ATOM     81  C   UNL A   1      43.711  35.813  32.181  1.00  0.00     0.173 A 
ATOM     82  C   UNL A   1      43.322  34.758  34.307  1.00  0.00     0.173 A 
ATOM     83  F   UNL A   1      43.749  35.781  30.841  1.00  0.00    -0.203 F 
ATOM     84  C   UNL A   1      44.101  36.979  32.836  1.00  0.00     0.198 A 
ATOM     85  C   UNL A   1      43.681  35.936  34.956  1.00  0.00     0.198 A 
ATOM     86  F   UNL A   1      42.956  33.700  35.045  1.00  0.00    -0.203 F 
ATOM     87  F   UNL A   1      44.513  38.038  32.125  1.00  0.00    -0.200 F 
ATOM     88  C   UNL A   1      44.078  37.042  34.221  1.00  0.00     0.200 A 
ATOM     89  F   UNL A   1      43.644  35.999  36.294  1.00  0.00    -0.200 F 
ATOM     90  F   UNL A   1      44.446  38.167  34.848  1.00  0.00    -0.200 F 
ENDBRANCH  57  80
ENDBRANCH  31  32
ENDBRANCH  23  26
ENDBRANCH  21  22
ENDBRANCH   1  21
TORSDOF 11
ENDMDL
MODEL 3
REMARK VINA RESULT:     -11.7      1.048      2.086
REMARK SMILES C[C@@H]1CCN(c2cncc(C(=O)NCCCNC(=O)c3ccc(-c4c5nc(c(-c6c(F)c(F)c(F)c(F)c6F)c6ccc([nH]6)c(-c6c(F)c(F)c(F)c(F)c6F)c6nc(c(-c7c(F)c(F)c(F)c(F)c7F)c7ccc4[nH]7)C=C6)C=C5)cc3)n2)[C@H](C)C1
REMARK SMILES IDX 15 1 14 2 13 3 11 4 12 5 10 7 6 8 7 9 83 10 8 11 9 12 5 13
REMARK SMILES IDX 1 14 2 15 3 16 86 17 4 18 84 19 85 20 16 21 17 22 18 23
REMARK SMILES IDX 19 25 20 26 21 27 82 28 22 29 81 30 23 31 24 32 25 33 75 34
REMARK SMILES IDX 26 35 80 36 74 37 76 38 27 39 79 40 73 41 72 42 28 44 60 45
REMARK SMILES IDX 40 46 59 47 41 48 44 49 58 50 77 51 42 52 43 53 57 55 78 56
REMARK SMILES IDX 45 57 29 58 30 59 38 60 31 61 32 62 36 63 39 64 33 65 34 66
REMARK SMILES IDX 37 67 35 68 61 69 62 70 70 71 63 72 64 73 68 74 71 75 65 76
REMARK SMILES IDX 66 77 69 78 67 79 46 80 47 81 55 82 48 83 49 84 53 85 56 86
REMARK SMILES IDX 50 87 51 88 54 89 52 90
REMARK H PARENT 13 6 17 24 76 43 44 54
REMARK Flexibility Score: inf
ROOT
ATOM      1  C   UNL A   1      35.193  33.330  27.937  1.00  0.00     0.042 C 
ENDROOT
BRANCH   1   2
ATOM      2  C   UNL A   1      35.216  34.799  28.354  1.00  0.00     0.118 C 
BRANCH   2   3
ATOM      3  N   UNL A   1      33.892  35.399  28.324  1.00  0.00    -0.351 N 
ATOM      4  C   UNL A   1      33.117  35.934  29.330  1.00  0.00     0.271 C 
ATOM      5  O   UNL A   1      32.018  36.395  29.014  1.00  0.00    -0.267 OA
ATOM      6  H   UNL A   1      33.479  35.429  27.431  1.00  0.00     0.163 HD
BRANCH   4   7
ATOM      7  C   UNL A   1      33.544  35.979  30.760  1.00  0.00     0.148 A 
ATOM      8  C   UNL A   1      34.875  35.208  32.495  1.00  0.00     0.148 A 
ATOM      9  C   UNL A   1      34.243  36.131  33.331  1.00  0.00     0.157 A 
ATOM     10  N   UNL A   1      34.505  35.130  31.197  1.00  0.00    -0.222 NA
ATOM     11  N   UNL A   1      33.279  36.997  32.921  1.00  0.00    -0.258 NA
ATOM     12  C   UNL A   1      32.952  36.903  31.609  1.00  0.00     0.145 A 
BRANCH   8  13
ATOM     13  N   UNL A   1      35.933  34.432  32.906  1.00  0.00    -0.353 N 
ATOM     14  C   UNL A   1      38.562  31.751  33.826  1.00  0.00     0.008 C 
ATOM     15  C   UNL A   1      37.558  32.050  32.708  1.00  0.00    -0.011 C 
ATOM     16  C   UNL A   1      37.891  33.327  31.905  1.00  0.00     0.025 C 
ATOM     17  C   UNL A   1      36.106  32.048  33.212  1.00  0.00     0.028 C 
ATOM     18  C   UNL A   1      37.298  34.631  32.449  1.00  0.00     0.118 C 
ATOM     19  C   UNL A   1      35.660  33.363  33.863  1.00  0.00     0.081 C 
ATOM     20  C   UNL A   1      36.307  33.652  35.214  1.00  0.00     0.031 C 
ENDBRANCH   8  13
ENDBRANCH   4   7
ENDBRANCH   2   3
ENDBRANCH   1   2
BRANCH   1  21
ATOM     21  C   UNL A   1      34.576  32.411  28.991  1.00  0.00     0.118 C 
BRANCH  21  22
ATOM     22  N   UNL A   1      34.027  31.189  28.407  1.00  0.00    -0.352 N 
ATOM     23  C   UNL A   1      34.644  30.043  27.988  1.00  0.00     0.251 C 
ATOM     24  H   UNL A   1      33.049  31.191  28.297  1.00  0.00     0.163 HD
ATOM     25  O   UNL A   1      34.004  29.223  27.318  1.00  0.00    -0.269 OA
BRANCH  23  26
ATOM     26  C   UNL A   1      36.057  29.767  28.313  1.00  0.00     0.039 A 
ATOM     27  C   UNL A   1      36.375  29.304  29.595  1.00  0.00     0.014 A 
ATOM     28  C   UNL A   1      37.075  30.011  27.389  1.00  0.00     0.014 A 
ATOM     29  C   UNL A   1      37.703  29.029  29.927  1.00  0.00     0.010 A 
ATOM     30  C   UNL A   1      38.389  29.668  27.696  1.00  0.00     0.010 A 
ATOM     31  C   UNL A   1      38.718  29.175  28.967  1.00  0.00    -0.014 A 
BRANCH  31  32
ATOM     32  C   UNL A   1      40.123  28.807  29.272  1.00  0.00     0.031 A 
ATOM     33  C   UNL A   1      41.008  29.753  30.034  1.00  0.00     0.074 A 
ATOM     34  C   UNL A   1      40.621  27.648  28.799  1.00  0.00     0.049 A 
ATOM     35  N   UNL A   1      42.281  29.646  30.323  1.00  0.00    -0.248 NA
ATOM     36  C   UNL A   1      40.388  30.998  30.516  1.00  0.00     0.031 C 
ATOM     37  C   UNL A   1      39.875  26.667  28.009  1.00  0.00     0.029 A 
ATOM     38  N   UNL A   1      41.878  27.103  28.901  1.00  0.00    -0.354 N 
ATOM     39  C   UNL A   1      42.616  30.812  30.999  1.00  0.00     0.074 A 
ATOM     40  C   UNL A   1      41.426  31.634  31.040  1.00  0.00     0.031 C 
ATOM     41  C   UNL A   1      40.679  25.634  27.716  1.00  0.00     0.029 A 
ATOM     42  C   UNL A   1      42.008  25.896  28.258  1.00  0.00     0.049 A 
ATOM     43  H   UNL A   1      42.615  27.537  29.388  1.00  0.00     0.167 HD
ATOM     44  C   UNL A   1      43.804  31.155  31.553  1.00  0.00     0.037 A 
ATOM     45  C   UNL A   1      43.082  25.097  28.114  1.00  0.00     0.037 A 
ATOM     46  C   UNL A   1      44.977  30.320  31.536  1.00  0.00     0.049 A 
ATOM     47  C   UNL A   1      44.391  25.509  28.735  1.00  0.00     0.074 A 
ATOM     48  C   UNL A   1      46.206  30.550  32.128  1.00  0.00     0.029 A 
ATOM     49  N   UNL A   1      45.065  29.096  30.892  1.00  0.00    -0.354 N 
ATOM     50  N   UNL A   1      44.676  26.580  29.433  1.00  0.00    -0.248 NA
ATOM     51  C   UNL A   1      45.527  24.595  28.549  1.00  0.00     0.031 C 
ATOM     52  C   UNL A   1      47.054  29.487  31.800  1.00  0.00     0.029 A 
ATOM     53  C   UNL A   1      46.337  28.569  31.051  1.00  0.00     0.049 A 
ATOM     54  H   UNL A   1      44.334  28.664  30.395  1.00  0.00     0.167 HD
ATOM     55  C   UNL A   1      46.009  26.455  29.799  1.00  0.00     0.074 A 
ATOM     56  C   UNL A   1      46.473  25.195  29.256  1.00  0.00     0.031 C 
ATOM     57  C   UNL A   1      46.780  27.306  30.517  1.00  0.00     0.037 A 
BRANCH  44  58
ATOM     58  C   UNL A   1      43.900  32.491  32.230  1.00  0.00     0.064 A 
ATOM     59  C   UNL A   1      43.657  32.639  33.604  1.00  0.00     0.173 A 
ATOM     60  C   UNL A   1      44.300  33.627  31.510  1.00  0.00     0.173 A 
ATOM     61  F   UNL A   1      43.264  31.588  34.337  1.00  0.00    -0.203 F 
ATOM     62  C   UNL A   1      43.787  33.879  34.227  1.00  0.00     0.198 A 
ATOM     63  C   UNL A   1      44.458  34.858  32.141  1.00  0.00     0.198 A 
ATOM     64  F   UNL A   1      44.551  33.540  30.195  1.00  0.00    -0.203 F 
ATOM     65  F   UNL A   1      43.510  34.004  35.532  1.00  0.00    -0.200 F 
ATOM     66  C   UNL A   1      44.196  34.985  33.496  1.00  0.00     0.200 A 
ATOM     67  F   UNL A   1      44.867  35.923  31.437  1.00  0.00    -0.200 F 
ATOM     68  F   UNL A   1      44.335  36.173  34.099  1.00  0.00    -0.200 F 
ENDBRANCH  44  58
BRANCH  45  69
ATOM     69  C   UNL A   1      42.967  23.819  27.366  1.00  0.00     0.064 A 
ATOM     70  C   UNL A   1      42.528  22.650  28.004  1.00  0.00     0.173 A 
ATOM     71  C   UNL A   1      43.311  23.730  26.009  1.00  0.00     0.173 A 
ATOM     72  F   UNL A   1      42.206  22.679  29.306  1.00  0.00    -0.203 F 
ATOM     73  C   UNL A   1      42.462  21.437  27.321  1.00  0.00     0.198 A 
ATOM     74  C   UNL A   1      43.215  22.523  25.319  1.00  0.00     0.198 A 
ATOM     75  F   UNL A   1      43.732  24.819  25.350  1.00  0.00    -0.203 F 
ATOM     76  F   UNL A   1      42.091  20.325  27.970  1.00  0.00    -0.200 F 
ATOM     77  C   UNL A   1      42.803  21.376  25.978  1.00  0.00     0.200 A 
ATOM     78  F   UNL A   1      43.531  22.471  24.018  1.00  0.00    -0.200 F 
ATOM     79  F   UNL A   1      42.740  20.209  25.323  1.00  0.00    -0.200 F 
ENDBRANCH  45  69
BRANCH  57  80
ATOM     80  C   UNL A   1      48.193  26.886  30.798  1.00  0.00     0.064 A 
ATOM     81  C   UNL A   1      48.522  26.105  31.915  1.00  0.00     0.173 A 
ATOM     82  C   UNL A   1      49.226  27.240  29.915  1.00  0.00     0.173 A 
ATOM     83  F   UNL A   1      47.575  25.754  32.797  1.00  0.00    -0.203 F 
ATOM     84  C   UNL A   1      49.838  25.717  32.153  1.00  0.00     0.198 A 
ATOM     85  C   UNL A   1      50.534  26.822  30.140  1.00  0.00     0.198 A 
ATOM     86  F   UNL A   1      48.962  27.981  28.828  1.00  0.00    -0.203 F 
ATOM     87  F   UNL A   1      50.137  25.013  33.254  1.00  0.00    -0.200 F 
ATOM     88  C   UNL A   1      50.841  26.068  31.261  1.00  0.00     0.200 A 
ATOM     89  F   UNL A   1      51.500  27.151  29.270  1.00  0.00    -0.200 F 
ATOM     90  F   UNL A   1      52.105  25.686  31.489  1.00  0.00    -0.200 F 
ENDBRANCH  57  80
ENDBRANCH  31  32
ENDBRANCH  23  26
ENDBRANCH  21  22
ENDBRANCH   1  21
TORSDOF 11
ENDMDL
