MODEL 1
REMARK VINA RESULT:     -12.5      0.000      0.000
REMARK SMILES [NH3+][C@@]1(C(=O)NCCCNC(=O)c2ccc(-c3c4nc(c(-c5c(F)c(F)c(F)c(F)c5F)c5ccc([nH]5)c(-c5c(F)c(F)c(F)c(F)c5F)c5nc(c(-c6c(F)c(F)c(F)c(F)c6F)c6ccc3[nH]6)C=C5)C=C4)cc2)CC[C@@H]([N@H+]2CC[C@H]([NH+]3CCOCC3)C2)C1
REMARK SMILES IDX 7 1 6 2 5 3 3 4 4 5 2 7 75 8 89 9 76 10 77 11 1 12 78 16
REMARK SMILES IDX 79 17 88 18 80 20 81 21 82 22 83 23 87 24 84 26 86 27 85 28
REMARK SMILES IDX 8 29 9 30 10 31 11 33 12 34 13 35 74 36 14 37 73 38 15 39
REMARK SMILES IDX 16 40 17 41 67 42 18 43 72 44 66 45 68 46 19 47 71 48 65 49
REMARK SMILES IDX 64 50 20 52 52 53 32 54 51 55 33 56 36 57 50 58 69 59 34 60
REMARK SMILES IDX 35 61 49 63 70 64 37 65 21 66 22 67 30 68 23 69 24 70 28 71
REMARK SMILES IDX 31 72 25 73 26 74 29 75 27 76 53 77 54 78 62 79 55 80 56 81
REMARK SMILES IDX 60 82 63 83 57 84 58 85 61 86 59 87 38 88 39 89 47 90 40 91
REMARK SMILES IDX 41 92 45 93 48 94 42 95 43 96 46 97 44 98
REMARK H PARENT 5 6 1 13 1 14 1 15 78 19 82 25 9 32 68 51 36 62
REMARK Flexibility Score: inf
ROOT
ATOM      1  C   UNL A   1      31.452  32.356  26.737  1.00  0.00     0.042 C 
ENDROOT
BRANCH   1   2
ATOM      2  C   UNL A   1      31.645  30.897  26.362  1.00  0.00     0.118 C 
BRANCH   2   3
ATOM      3  N   UNL A   1      32.883  30.348  26.853  1.00  0.00    -0.351 N 
ATOM      4  C   UNL A   1      33.514  29.179  26.562  1.00  0.00     0.281 C 
ATOM      5  O   UNL A   1      34.550  28.961  27.203  1.00  0.00    -0.268 OA
ATOM      6  H   UNL A   1      33.350  30.913  27.509  1.00  0.00     0.163 HD
BRANCH   4   7
ATOM      7  C   UNL A   1      32.937  28.114  25.561  1.00  0.00     0.179 C 
ATOM      8  C   UNL A   1      31.408  27.995  25.522  1.00  0.00     0.085 C 
ATOM      9  C   UNL A   1      33.493  26.720  25.865  1.00  0.00     0.144 C 
ATOM     10  C   UNL A   1      31.019  26.623  26.062  1.00  0.00     0.072 C 
ATOM     11  C   UNL A   1      32.305  25.788  26.174  1.00  0.00     0.191 C 
BRANCH   7  12
ATOM     12  N   UNL A   1      33.358  28.540  24.199  1.00  0.00    -0.345 N 
ATOM     13  H   UNL A   1      32.572  28.446  23.556  1.00  0.00     0.345 HD
ATOM     14  H   UNL A   1      34.129  27.953  23.883  1.00  0.00     0.345 HD
ATOM     15  H   UNL A   1      33.660  29.514  24.227  1.00  0.00     0.345 HD
ENDBRANCH   7  12
BRANCH  11  16
ATOM     16  N   UNL A   1      32.233  24.574  25.363  1.00  0.00    -0.327 N 
ATOM     17  C   UNL A   1      30.909  24.272  24.833  1.00  0.00     0.269 C 
ATOM     18  C   UNL A   1      33.172  24.536  24.237  1.00  0.00     0.328 C 
ATOM     19  H   UNL A   1      32.494  23.863  26.048  1.00  0.00     0.348 HD
ATOM     20  C   UNL A   1      31.137  23.396  23.618  1.00  0.00     0.132 C 
ATOM     21  C   UNL A   1      32.641  23.407  23.330  1.00  0.00     0.245 C 
BRANCH  21  22
ATOM     22  N   UNL A   1      33.394  22.145  23.411  1.00  0.00    -0.324 N 
ATOM     23  C   UNL A   1      32.565  20.942  23.596  1.00  0.00     0.291 C 
ATOM     24  C   UNL A   1      34.543  22.102  24.329  1.00  0.00     0.291 C 
ATOM     25  H   UNL A   1      33.791  22.130  22.472  1.00  0.00     0.348 HD
ATOM     26  C   UNL A   1      32.290  20.531  25.056  1.00  0.00     0.221 C 
ATOM     27  C   UNL A   1      34.185  21.761  25.780  1.00  0.00     0.221 C 
ATOM     28  O   UNL A   1      33.476  20.519  25.860  1.00  0.00    -0.370 OA
ENDBRANCH  21  22
ENDBRANCH  11  16
ENDBRANCH   4   7
ENDBRANCH   2   3
ENDBRANCH   1   2
BRANCH   1  29
ATOM     29  C   UNL A   1      32.730  32.999  27.243  1.00  0.00     0.118 C 
BRANCH  29  30
ATOM     30  N   UNL A   1      32.516  34.377  27.670  1.00  0.00    -0.352 N 
ATOM     31  C   UNL A   1      33.043  35.074  28.728  1.00  0.00     0.251 C 
ATOM     32  H   UNL A   1      31.892  34.891  27.108  1.00  0.00     0.163 HD
ATOM     33  O   UNL A   1      32.551  36.147  29.057  1.00  0.00    -0.269 OA
BRANCH  31  34
ATOM     34  C   UNL A   1      34.193  34.525  29.470  1.00  0.00     0.039 A 
ATOM     35  C   UNL A   1      33.971  33.879  30.689  1.00  0.00     0.014 A 
ATOM     36  C   UNL A   1      35.489  34.659  28.971  1.00  0.00     0.014 A 
ATOM     37  C   UNL A   1      35.048  33.309  31.369  1.00  0.00     0.010 A 
ATOM     38  C   UNL A   1      36.537  33.990  29.585  1.00  0.00     0.010 A 
ATOM     39  C   UNL A   1      36.332  33.325  30.800  1.00  0.00    -0.014 A 
BRANCH  39  40
ATOM     40  C   UNL A   1      37.484  32.674  31.467  1.00  0.00     0.031 A 
ATOM     41  C   UNL A   1      38.180  31.520  30.801  1.00  0.00     0.074 A 
ATOM     42  C   UNL A   1      37.850  33.075  32.700  1.00  0.00     0.049 A 
ATOM     43  N   UNL A   1      39.147  30.763  31.253  1.00  0.00    -0.248 NA
ATOM     44  C   UNL A   1      37.701  31.140  29.462  1.00  0.00     0.031 C 
ATOM     45  C   UNL A   1      37.211  34.145  33.467  1.00  0.00     0.029 A 
ATOM     46  N   UNL A   1      38.844  32.620  33.528  1.00  0.00    -0.354 N 
ATOM     47  C   UNL A   1      39.375  29.814  30.266  1.00  0.00     0.074 A 
ATOM     48  C   UNL A   1      38.402  30.043  29.221  1.00  0.00     0.031 C 
ATOM     49  C   UNL A   1      37.848  34.287  34.640  1.00  0.00     0.029 A 
ATOM     50  C   UNL A   1      38.909  33.288  34.728  1.00  0.00     0.049 A 
ATOM     51  H   UNL A   1      39.453  31.886  33.288  1.00  0.00     0.167 HD
ATOM     52  C   UNL A   1      40.331  28.856  30.219  1.00  0.00     0.037 A 
ATOM     53  C   UNL A   1      39.726  33.106  35.781  1.00  0.00     0.037 A 
ATOM     54  C   UNL A   1      41.313  28.656  31.251  1.00  0.00     0.049 A 
ATOM     55  C   UNL A   1      40.777  32.030  35.708  1.00  0.00     0.074 A 
ATOM     56  C   UNL A   1      42.364  27.758  31.278  1.00  0.00     0.029 A 
ATOM     57  N   UNL A   1      41.360  29.365  32.443  1.00  0.00    -0.354 N 
ATOM     58  N   UNL A   1      41.032  31.186  34.736  1.00  0.00    -0.248 NA
ATOM     59  C   UNL A   1      41.657  31.885  36.875  1.00  0.00     0.031 C 
ATOM     60  C   UNL A   1      43.013  27.883  32.511  1.00  0.00     0.029 A 
ATOM     61  C   UNL A   1      42.407  28.905  33.225  1.00  0.00     0.049 A 
ATOM     62  H   UNL A   1      40.742  30.088  32.695  1.00  0.00     0.167 HD
ATOM     63  C   UNL A   1      42.120  30.435  35.160  1.00  0.00     0.074 A 
ATOM     64  C   UNL A   1      42.485  30.934  36.470  1.00  0.00     0.031 C 
ATOM     65  C   UNL A   1      42.761  29.423  34.522  1.00  0.00     0.037 A 
BRANCH  52  66
ATOM     66  C   UNL A   1      40.363  27.960  29.014  1.00  0.00     0.064 A 
ATOM     67  C   UNL A   1      41.141  28.265  27.886  1.00  0.00     0.173 A 
ATOM     68  C   UNL A   1      39.628  26.765  28.998  1.00  0.00     0.173 A 
ATOM     69  F   UNL A   1      41.853  29.401  27.843  1.00  0.00    -0.203 F 
ATOM     70  C   UNL A   1      41.157  27.424  26.776  1.00  0.00     0.198 A 
ATOM     71  C   UNL A   1      39.674  25.909  27.900  1.00  0.00     0.198 A 
ATOM     72  F   UNL A   1      38.870  26.422  30.049  1.00  0.00    -0.203 F 
ATOM     73  F   UNL A   1      41.862  27.766  25.689  1.00  0.00    -0.200 F 
ATOM     74  C   UNL A   1      40.430  26.244  26.787  1.00  0.00     0.200 A 
ATOM     75  F   UNL A   1      38.983  24.761  27.919  1.00  0.00    -0.200 F 
ATOM     76  F   UNL A   1      40.453  25.431  25.722  1.00  0.00    -0.200 F 
ENDBRANCH  52  66
BRANCH  53  77
ATOM     77  C   UNL A   1      39.602  33.976  36.980  1.00  0.00     0.064 A 
ATOM     78  C   UNL A   1      38.833  33.577  38.082  1.00  0.00     0.173 A 
ATOM     79  C   UNL A   1      40.242  35.222  37.048  1.00  0.00     0.173 A 
ATOM     80  F   UNL A   1      38.188  32.402  38.059  1.00  0.00    -0.203 F 
ATOM     81  C   UNL A   1      38.687  34.403  39.195  1.00  0.00     0.198 A 
ATOM     82  C   UNL A   1      40.122  36.032  38.176  1.00  0.00     0.198 A 
ATOM     83  F   UNL A   1      40.998  35.647  36.025  1.00  0.00    -0.203 F 
ATOM     84  F   UNL A   1      37.903  34.020  40.212  1.00  0.00    -0.200 F 
ATOM     85  C   UNL A   1      39.335  35.628  39.243  1.00  0.00     0.200 A 
ATOM     86  F   UNL A   1      40.765  37.207  38.226  1.00  0.00    -0.200 F 
ATOM     87  F   UNL A   1      39.196  36.421  40.314  1.00  0.00    -0.200 F 
ENDBRANCH  53  77
BRANCH  65  88
ATOM     88  C   UNL A   1      43.949  28.818  35.211  1.00  0.00     0.064 A 
ATOM     89  C   UNL A   1      43.825  27.719  36.074  1.00  0.00     0.173 A 
ATOM     90  C   UNL A   1      45.238  29.319  34.968  1.00  0.00     0.173 A 
ATOM     91  F   UNL A   1      42.614  27.211  36.351  1.00  0.00    -0.203 F 
ATOM     92  C   UNL A   1      44.943  27.163  36.690  1.00  0.00     0.198 A 
ATOM     93  C   UNL A   1      46.357  28.738  35.556  1.00  0.00     0.198 A 
ATOM     94  F   UNL A   1      45.413  30.363  34.143  1.00  0.00    -0.203 F 
ATOM     95  F   UNL A   1      44.794  26.148  37.552  1.00  0.00    -0.200 F 
ATOM     96  C   UNL A   1      46.207  27.666  36.424  1.00  0.00     0.200 A 
ATOM     97  F   UNL A   1      47.579  29.214  35.282  1.00  0.00    -0.200 F 
ATOM     98  F   UNL A   1      47.284  27.123  37.009  1.00  0.00    -0.200 F 
ENDBRANCH  65  88
ENDBRANCH  39  40
ENDBRANCH  31  34
ENDBRANCH  29  30
ENDBRANCH   1  29
TORSDOF 13
ENDMDL
MODEL 2
REMARK VINA RESULT:     -12.5      0.220      1.147
REMARK SMILES [NH3+][C@@]1(C(=O)NCCCNC(=O)c2ccc(-c3c4nc(c(-c5c(F)c(F)c(F)c(F)c5F)c5ccc([nH]5)c(-c5c(F)c(F)c(F)c(F)c5F)c5nc(c(-c6c(F)c(F)c(F)c(F)c6F)c6ccc3[nH]6)C=C5)C=C4)cc2)CC[C@@H]([N@H+]2CC[C@H]([NH+]3CCOCC3)C2)C1
REMARK SMILES IDX 7 1 6 2 5 3 3 4 4 5 2 7 75 8 89 9 76 10 77 11 1 12 78 16
REMARK SMILES IDX 79 17 88 18 80 20 81 21 82 22 83 23 87 24 84 26 86 27 85 28
REMARK SMILES IDX 8 29 9 30 10 31 11 33 12 34 13 35 74 36 14 37 73 38 15 39
REMARK SMILES IDX 16 40 17 41 67 42 18 43 72 44 66 45 68 46 19 47 71 48 65 49
REMARK SMILES IDX 64 50 20 52 52 53 32 54 51 55 33 56 36 57 50 58 69 59 34 60
REMARK SMILES IDX 35 61 49 63 70 64 37 65 21 66 22 67 30 68 23 69 24 70 28 71
REMARK SMILES IDX 31 72 25 73 26 74 29 75 27 76 53 77 54 78 62 79 55 80 56 81
REMARK SMILES IDX 60 82 63 83 57 84 58 85 61 86 59 87 38 88 39 89 47 90 40 91
REMARK SMILES IDX 41 92 45 93 48 94 42 95 43 96 46 97 44 98
REMARK H PARENT 5 6 1 13 1 14 1 15 78 19 82 25 9 32 68 51 36 62
REMARK Flexibility Score: inf
ROOT
ATOM      1  C   UNL A   1      31.461  32.383  26.777  1.00  0.00     0.042 C 
ENDROOT
BRANCH   1   2
ATOM      2  C   UNL A   1      31.650  30.907  26.470  1.00  0.00     0.118 C 
BRANCH   2   3
ATOM      3  N   UNL A   1      32.838  30.355  27.069  1.00  0.00    -0.351 N 
ATOM      4  C   UNL A   1      33.530  29.219  26.788  1.00  0.00     0.281 C 
ATOM      5  O   UNL A   1      34.491  28.984  27.531  1.00  0.00    -0.268 OA
ATOM      6  H   UNL A   1      33.212  30.889  27.806  1.00  0.00     0.163 HD
BRANCH   4   7
ATOM      7  C   UNL A   1      33.101  28.203  25.667  1.00  0.00     0.179 C 
ATOM      8  C   UNL A   1      31.610  28.202  25.305  1.00  0.00     0.085 C 
ATOM      9  C   UNL A   1      33.475  26.771  26.055  1.00  0.00     0.144 C 
ATOM     10  C   UNL A   1      31.015  26.862  25.725  1.00  0.00     0.072 C 
ATOM     11  C   UNL A   1      32.183  25.931  26.089  1.00  0.00     0.191 C 
BRANCH   7  12
ATOM     12  N   UNL A   1      33.830  28.601  24.433  1.00  0.00    -0.345 N 
ATOM     13  H   UNL A   1      33.172  28.991  23.760  1.00  0.00     0.345 HD
ATOM     14  H   UNL A   1      34.285  27.782  24.029  1.00  0.00     0.345 HD
ATOM     15  H   UNL A   1      34.534  29.301  24.666  1.00  0.00     0.345 HD
ENDBRANCH   7  12
BRANCH  11  16
ATOM     16  N   UNL A   1      32.196  24.728  25.258  1.00  0.00    -0.327 N 
ATOM     17  C   UNL A   1      30.950  24.465  24.549  1.00  0.00     0.269 C 
ATOM     18  C   UNL A   1      33.279  24.681  24.269  1.00  0.00     0.328 C 
ATOM     19  H   UNL A   1      32.345  24.003  25.961  1.00  0.00     0.348 HD
ATOM     20  C   UNL A   1      31.321  23.597  23.363  1.00  0.00     0.132 C 
ATOM     21  C   UNL A   1      32.850  23.575  23.282  1.00  0.00     0.245 C 
BRANCH  21  22
ATOM     22  N   UNL A   1      33.557  22.294  23.446  1.00  0.00    -0.324 N 
ATOM     23  C   UNL A   1      32.735  21.201  23.994  1.00  0.00     0.291 C 
ATOM     24  C   UNL A   1      34.861  22.325  24.128  1.00  0.00     0.291 C 
ATOM     25  H   UNL A   1      33.763  22.093  22.468  1.00  0.00     0.348 HD
ATOM     26  C   UNL A   1      32.735  21.063  25.529  1.00  0.00     0.221 C 
ATOM     27  C   UNL A   1      34.780  22.259  25.657  1.00  0.00     0.221 C 
ATOM     28  O   UNL A   1      34.053  21.102  26.088  1.00  0.00    -0.370 OA
ENDBRANCH  21  22
ENDBRANCH  11  16
ENDBRANCH   4   7
ENDBRANCH   2   3
ENDBRANCH   1   2
BRANCH   1  29
ATOM     29  C   UNL A   1      32.740  33.045  27.251  1.00  0.00     0.118 C 
BRANCH  29  30
ATOM     30  N   UNL A   1      32.512  34.415  27.699  1.00  0.00    -0.352 N 
ATOM     31  C   UNL A   1      33.028  35.100  28.770  1.00  0.00     0.251 C 
ATOM     32  H   UNL A   1      31.887  34.932  27.142  1.00  0.00     0.163 HD
ATOM     33  O   UNL A   1      32.525  36.163  29.113  1.00  0.00    -0.269 OA
BRANCH  31  34
ATOM     34  C   UNL A   1      34.180  34.549  29.509  1.00  0.00     0.039 A 
ATOM     35  C   UNL A   1      33.964  33.927  30.741  1.00  0.00     0.014 A 
ATOM     36  C   UNL A   1      35.472  34.657  28.993  1.00  0.00     0.014 A 
ATOM     37  C   UNL A   1      35.041  33.356  31.419  1.00  0.00     0.010 A 
ATOM     38  C   UNL A   1      36.518  33.986  29.607  1.00  0.00     0.010 A 
ATOM     39  C   UNL A   1      36.318  33.345  30.836  1.00  0.00    -0.014 A 
BRANCH  39  40
ATOM     40  C   UNL A   1      37.470  32.691  31.501  1.00  0.00     0.031 A 
ATOM     41  C   UNL A   1      38.160  31.534  30.834  1.00  0.00     0.074 A 
ATOM     42  C   UNL A   1      37.840  33.092  32.732  1.00  0.00     0.049 A 
ATOM     43  N   UNL A   1      39.126  30.775  31.285  1.00  0.00    -0.248 NA
ATOM     44  C   UNL A   1      37.678  31.154  29.497  1.00  0.00     0.031 C 
ATOM     45  C   UNL A   1      37.205  34.165  33.500  1.00  0.00     0.029 A 
ATOM     46  N   UNL A   1      38.834  32.636  33.559  1.00  0.00    -0.354 N 
ATOM     47  C   UNL A   1      39.349  29.824  30.299  1.00  0.00     0.074 A 
ATOM     48  C   UNL A   1      38.374  30.054  29.256  1.00  0.00     0.031 C 
ATOM     49  C   UNL A   1      37.846  34.307  34.671  1.00  0.00     0.029 A 
ATOM     50  C   UNL A   1      38.903  33.304  34.758  1.00  0.00     0.049 A 
ATOM     51  H   UNL A   1      39.440  31.898  33.318  1.00  0.00     0.167 HD
ATOM     52  C   UNL A   1      40.302  28.863  30.251  1.00  0.00     0.037 A 
ATOM     53  C   UNL A   1      39.722  33.121  35.809  1.00  0.00     0.037 A 
ATOM     54  C   UNL A   1      41.285  28.660  31.282  1.00  0.00     0.049 A 
ATOM     55  C   UNL A   1      40.769  32.041  35.735  1.00  0.00     0.074 A 
ATOM     56  C   UNL A   1      42.333  27.759  31.308  1.00  0.00     0.029 A 
ATOM     57  N   UNL A   1      41.337  29.371  32.473  1.00  0.00    -0.354 N 
ATOM     58  N   UNL A   1      41.020  31.195  34.764  1.00  0.00    -0.248 NA
ATOM     59  C   UNL A   1      41.651  31.895  36.900  1.00  0.00     0.031 C 
ATOM     60  C   UNL A   1      42.985  27.884  32.539  1.00  0.00     0.029 A 
ATOM     61  C   UNL A   1      42.384  28.908  33.253  1.00  0.00     0.049 A 
ATOM     62  H   UNL A   1      40.721  30.096  32.725  1.00  0.00     0.167 HD
ATOM     63  C   UNL A   1      42.106  30.441  35.186  1.00  0.00     0.074 A 
ATOM     64  C   UNL A   1      42.475  30.941  36.495  1.00  0.00     0.031 C 
ATOM     65  C   UNL A   1      42.742  29.427  34.549  1.00  0.00     0.037 A 
BRANCH  52  66
ATOM     66  C   UNL A   1      40.329  27.965  29.048  1.00  0.00     0.064 A 
ATOM     67  C   UNL A   1      41.090  28.276  27.910  1.00  0.00     0.173 A 
ATOM     68  C   UNL A   1      39.605  26.763  29.042  1.00  0.00     0.173 A 
ATOM     69  F   UNL A   1      41.790  29.419  27.856  1.00  0.00    -0.203 F 
ATOM     70  C   UNL A   1      41.101  27.434  26.801  1.00  0.00     0.198 A 
ATOM     71  C   UNL A   1      39.647  25.905  27.945  1.00  0.00     0.198 A 
ATOM     72  F   UNL A   1      38.863  26.413  30.103  1.00  0.00    -0.203 F 
ATOM     73  F   UNL A   1      41.789  27.781  25.704  1.00  0.00    -0.200 F 
ATOM     74  C   UNL A   1      40.386  26.246  26.822  1.00  0.00     0.200 A 
ATOM     75  F   UNL A   1      38.968  24.750  27.973  1.00  0.00    -0.200 F 
ATOM     76  F   UNL A   1      40.405  25.432  25.758  1.00  0.00    -0.200 F 
ENDBRANCH  52  66
BRANCH  53  77
ATOM     77  C   UNL A   1      39.604  33.992  37.007  1.00  0.00     0.064 A 
ATOM     78  C   UNL A   1      38.842  33.594  38.115  1.00  0.00     0.173 A 
ATOM     79  C   UNL A   1      40.241  35.240  37.070  1.00  0.00     0.173 A 
ATOM     80  F   UNL A   1      38.199  32.417  38.097  1.00  0.00    -0.203 F 
ATOM     81  C   UNL A   1      38.700  34.422  39.227  1.00  0.00     0.198 A 
ATOM     82  C   UNL A   1      40.126  36.052  38.197  1.00  0.00     0.198 A 
ATOM     83  F   UNL A   1      40.990  35.665  36.042  1.00  0.00    -0.203 F 
ATOM     84  F   UNL A   1      37.923  34.039  40.249  1.00  0.00    -0.200 F 
ATOM     85  C   UNL A   1      39.346  35.648  39.270  1.00  0.00     0.200 A 
ATOM     86  F   UNL A   1      40.767  37.228  38.241  1.00  0.00    -0.200 F 
ATOM     87  F   UNL A   1      39.212  36.442  40.340  1.00  0.00    -0.200 F 
ENDBRANCH  53  77
BRANCH  65  88
ATOM     88  C   UNL A   1      43.930  28.818  35.236  1.00  0.00     0.064 A 
ATOM     89  C   UNL A   1      45.232  29.297  35.026  1.00  0.00     0.173 A 
ATOM     90  C   UNL A   1      43.756  27.770  36.152  1.00  0.00     0.173 A 
ATOM     91  F   UNL A   1      45.454  30.289  34.150  1.00  0.00    -0.203 F 
ATOM     92  C   UNL A   1      46.318  28.729  35.686  1.00  0.00     0.198 A 
ATOM     93  C   UNL A   1      44.839  27.228  36.838  1.00  0.00     0.198 A 
ATOM     94  F   UNL A   1      42.530  27.281  36.397  1.00  0.00    -0.203 F 
ATOM     95  F   UNL A   1      47.558  29.166  35.430  1.00  0.00    -0.200 F 
ATOM     96  C   UNL A   1      46.120  27.702  36.597  1.00  0.00     0.200 A 
ATOM     97  F   UNL A   1      44.643  26.250  37.732  1.00  0.00    -0.200 F 
ATOM     98  F   UNL A   1      47.165  27.163  37.241  1.00  0.00    -0.200 F 
ENDBRANCH  65  88
ENDBRANCH  39  40
ENDBRANCH  31  34
ENDBRANCH  29  30
ENDBRANCH   1  29
TORSDOF 13
ENDMDL
MODEL 3
REMARK VINA RESULT:     -12.5      2.205      8.030
REMARK SMILES [NH3+][C@@]1(C(=O)NCCCNC(=O)c2ccc(-c3c4nc(c(-c5c(F)c(F)c(F)c(F)c5F)c5ccc([nH]5)c(-c5c(F)c(F)c(F)c(F)c5F)c5nc(c(-c6c(F)c(F)c(F)c(F)c6F)c6ccc3[nH]6)C=C5)C=C4)cc2)CC[C@@H]([N@H+]2CC[C@H]([NH+]3CCOCC3)C2)C1
REMARK SMILES IDX 7 1 6 2 5 3 3 4 4 5 2 7 75 8 89 9 76 10 77 11 1 12 78 16
REMARK SMILES IDX 79 17 88 18 80 20 81 21 82 22 83 23 87 24 84 26 86 27 85 28
REMARK SMILES IDX 8 29 9 30 10 31 11 33 12 34 13 35 74 36 14 37 73 38 15 39
REMARK SMILES IDX 16 40 17 41 67 42 18 43 72 44 66 45 68 46 19 47 71 48 65 49
REMARK SMILES IDX 64 50 20 52 52 53 32 54 51 55 33 56 36 57 50 58 69 59 34 60
REMARK SMILES IDX 35 61 49 63 70 64 37 65 21 66 22 67 30 68 23 69 24 70 28 71
REMARK SMILES IDX 31 72 25 73 26 74 29 75 27 76 53 77 54 78 62 79 55 80 56 81
REMARK SMILES IDX 60 82 63 83 57 84 58 85 61 86 59 87 38 88 39 89 47 90 40 91
REMARK SMILES IDX 41 92 45 93 48 94 42 95 43 96 46 97 44 98
REMARK H PARENT 5 6 1 13 1 14 1 15 78 19 82 25 9 32 68 51 36 62
REMARK Flexibility Score: inf
ROOT
ATOM      1  C   UNL A   1      31.778  28.778  27.138  1.00  0.00     0.042 C 
ENDROOT
BRANCH   1   2
ATOM      2  C   UNL A   1      31.778  27.282  26.872  1.00  0.00     0.118 C 
BRANCH   2   3
ATOM      3  N   UNL A   1      30.953  26.910  25.751  1.00  0.00    -0.351 N 
ATOM      4  C   UNL A   1      30.817  25.723  25.103  1.00  0.00     0.281 C 
ATOM      5  O   UNL A   1      30.061  25.735  24.123  1.00  0.00    -0.268 OA
ATOM      6  H   UNL A   1      30.395  27.637  25.393  1.00  0.00     0.163 HD
BRANCH   4   7
ATOM      7  C   UNL A   1      31.629  24.432  25.488  1.00  0.00     0.179 C 
ATOM      8  C   UNL A   1      33.155  24.586  25.506  1.00  0.00     0.085 C 
ATOM      9  C   UNL A   1      31.300  23.277  24.540  1.00  0.00     0.144 C 
ATOM     10  C   UNL A   1      33.738  23.731  24.387  1.00  0.00     0.072 C 
ATOM     11  C   UNL A   1      32.608  22.833  23.854  1.00  0.00     0.191 C 
BRANCH   7  12
ATOM     12  N   UNL A   1      31.227  24.078  26.876  1.00  0.00    -0.345 N 
ATOM     13  H   UNL A   1      30.916  24.917  27.365  1.00  0.00     0.345 HD
ATOM     14  H   UNL A   1      32.025  23.674  27.367  1.00  0.00     0.345 HD
ATOM     15  H   UNL A   1      30.467  23.399  26.847  1.00  0.00     0.345 HD
ENDBRANCH   7  12
BRANCH  11  16
ATOM     16  N   UNL A   1      32.936  21.415  23.988  1.00  0.00    -0.327 N 
ATOM     17  C   UNL A   1      34.342  21.137  24.251  1.00  0.00     0.269 C 
ATOM     18  C   UNL A   1      32.153  20.700  25.001  1.00  0.00     0.328 C 
ATOM     19  H   UNL A   1      32.690  21.067  23.060  1.00  0.00     0.348 HD
ATOM     20  C   UNL A   1      34.381  19.774  24.913  1.00  0.00     0.132 C 
ATOM     21  C   UNL A   1      32.934  19.391  25.238  1.00  0.00     0.245 C 
BRANCH  21  22
ATOM     22  N   UNL A   1      32.349  18.200  24.602  1.00  0.00    -0.324 N 
ATOM     23  C   UNL A   1      32.377  16.982  25.430  1.00  0.00     0.291 C 
ATOM     24  C   UNL A   1      32.787  17.881  23.234  1.00  0.00     0.291 C 
ATOM     25  H   UNL A   1      31.384  18.517  24.515  1.00  0.00     0.348 HD
ATOM     26  C   UNL A   1      33.625  16.091  25.275  1.00  0.00     0.221 C 
ATOM     27  C   UNL A   1      34.077  17.056  23.155  1.00  0.00     0.221 C 
ATOM     28  O   UNL A   1      33.961  15.841  23.905  1.00  0.00    -0.370 OA
ENDBRANCH  21  22
ENDBRANCH  11  16
ENDBRANCH   4   7
ENDBRANCH   2   3
ENDBRANCH   1   2
BRANCH   1  29
ATOM     29  C   UNL A   1      32.797  29.518  26.293  1.00  0.00     0.118 C 
BRANCH  29  30
ATOM     30  N   UNL A   1      32.723  30.962  26.487  1.00  0.00    -0.352 N 
ATOM     31  C   UNL A   1      33.457  31.791  27.296  1.00  0.00     0.251 C 
ATOM     32  H   UNL A   1      32.033  31.415  25.949  1.00  0.00     0.163 HD
ATOM     33  O   UNL A   1      33.078  32.939  27.497  1.00  0.00    -0.269 OA
BRANCH  31  34
ATOM     34  C   UNL A   1      34.694  31.296  27.928  1.00  0.00     0.039 A 
ATOM     35  C   UNL A   1      35.786  32.157  28.054  1.00  0.00     0.014 A 
ATOM     36  C   UNL A   1      34.780  29.980  28.384  1.00  0.00     0.014 A 
ATOM     37  C   UNL A   1      36.940  31.712  28.700  1.00  0.00     0.010 A 
ATOM     38  C   UNL A   1      35.878  29.579  29.130  1.00  0.00     0.010 A 
ATOM     39  C   UNL A   1      36.977  30.434  29.279  1.00  0.00    -0.014 A 
BRANCH  39  40
ATOM     40  C   UNL A   1      38.164  29.954  30.026  1.00  0.00     0.031 A 
ATOM     41  C   UNL A   1      38.422  30.454  31.421  1.00  0.00     0.074 A 
ATOM     42  C   UNL A   1      39.042  29.132  29.420  1.00  0.00     0.049 A 
ATOM     43  N   UNL A   1      39.442  30.224  32.207  1.00  0.00    -0.248 NA
ATOM     44  C   UNL A   1      37.417  31.362  31.997  1.00  0.00     0.031 C 
ATOM     45  C   UNL A   1      38.925  28.630  28.050  1.00  0.00     0.029 A 
ATOM     46  N   UNL A   1      40.213  28.584  29.876  1.00  0.00    -0.354 N 
ATOM     47  C   UNL A   1      39.210  30.972  33.354  1.00  0.00     0.074 A 
ATOM     48  C   UNL A   1      37.989  31.716  33.136  1.00  0.00     0.031 C 
ATOM     49  C   UNL A   1      39.964  27.821  27.788  1.00  0.00     0.029 A 
ATOM     50  C   UNL A   1      40.844  27.786  28.952  1.00  0.00     0.049 A 
ATOM     51  H   UNL A   1      40.569  28.746  30.780  1.00  0.00     0.167 HD
ATOM     52  C   UNL A   1      39.932  31.010  34.498  1.00  0.00     0.037 A 
ATOM     53  C   UNL A   1      42.005  27.111  29.034  1.00  0.00     0.037 A 
ATOM     54  C   UNL A   1      41.129  30.243  34.714  1.00  0.00     0.049 A 
ATOM     55  C   UNL A   1      42.794  27.175  30.315  1.00  0.00     0.074 A 
ATOM     56  C   UNL A   1      41.905  30.159  35.856  1.00  0.00     0.029 A 
ATOM     57  N   UNL A   1      41.727  29.429  33.762  1.00  0.00    -0.354 N 
ATOM     58  N   UNL A   1      42.525  27.827  31.422  1.00  0.00    -0.248 NA
ATOM     59  C   UNL A   1      44.044  26.406  30.361  1.00  0.00     0.031 C 
ATOM     60  C   UNL A   1      43.003  29.339  35.577  1.00  0.00     0.029 A 
ATOM     61  C   UNL A   1      42.877  28.860  34.282  1.00  0.00     0.049 A 
ATOM     62  H   UNL A   1      41.384  29.279  32.852  1.00  0.00     0.167 HD
ATOM     63  C   UNL A   1      43.551  27.519  32.304  1.00  0.00     0.074 A 
ATOM     64  C   UNL A   1      44.440  26.611  31.608  1.00  0.00     0.031 C 
ATOM     65  C   UNL A   1      43.743  27.949  33.577  1.00  0.00     0.037 A 
BRANCH  52  66
ATOM     66  C   UNL A   1      39.444  31.905  35.602  1.00  0.00     0.064 A 
ATOM     67  C   UNL A   1      38.536  31.453  36.573  1.00  0.00     0.173 A 
ATOM     68  C   UNL A   1      39.911  33.223  35.707  1.00  0.00     0.173 A 
ATOM     69  F   UNL A   1      38.047  30.205  36.513  1.00  0.00    -0.203 F 
ATOM     70  C   UNL A   1      38.091  32.296  37.588  1.00  0.00     0.198 A 
ATOM     71  C   UNL A   1      39.491  34.053  36.744  1.00  0.00     0.198 A 
ATOM     72  F   UNL A   1      40.781  33.707  34.809  1.00  0.00    -0.203 F 
ATOM     73  F   UNL A   1      37.181  31.859  38.470  1.00  0.00    -0.200 F 
ATOM     74  C   UNL A   1      38.575  33.592  37.677  1.00  0.00     0.200 A 
ATOM     75  F   UNL A   1      39.971  35.301  36.838  1.00  0.00    -0.200 F 
ATOM     76  F   UNL A   1      38.153  34.400  38.660  1.00  0.00    -0.200 F 
ENDBRANCH  52  66
BRANCH  53  77
ATOM     77  C   UNL A   1      42.478  26.299  27.883  1.00  0.00     0.064 A 
ATOM     78  C   UNL A   1      43.398  26.821  26.962  1.00  0.00     0.173 A 
ATOM     79  C   UNL A   1      42.020  24.990  27.674  1.00  0.00     0.173 A 
ATOM     80  F   UNL A   1      43.854  28.074  27.109  1.00  0.00    -0.203 F 
ATOM     81  C   UNL A   1      43.820  26.076  25.863  1.00  0.00     0.198 A 
ATOM     82  C   UNL A   1      42.468  24.233  26.593  1.00  0.00     0.198 A 
ATOM     83  F   UNL A   1      41.147  24.438  28.530  1.00  0.00    -0.203 F 
ATOM     84  F   UNL A   1      44.658  26.619  24.971  1.00  0.00    -0.200 F 
ATOM     85  C   UNL A   1      43.359  24.781  25.681  1.00  0.00     0.200 A 
ATOM     86  F   UNL A   1      42.034  22.976  26.431  1.00  0.00    -0.200 F 
ATOM     87  F   UNL A   1      43.766  24.064  24.626  1.00  0.00    -0.200 F 
ENDBRANCH  53  77
BRANCH  65  88
ATOM     88  C   UNL A   1      44.933  27.408  34.315  1.00  0.00     0.064 A 
ATOM     89  C   UNL A   1      44.870  26.212  35.045  1.00  0.00     0.173 A 
ATOM     90  C   UNL A   1      46.166  28.076  34.254  1.00  0.00     0.173 A 
ATOM     91  F   UNL A   1      43.712  25.542  35.146  1.00  0.00    -0.203 F 
ATOM     92  C   UNL A   1      45.990  25.720  35.709  1.00  0.00     0.198 A 
ATOM     93  C   UNL A   1      47.292  27.563  34.888  1.00  0.00     0.198 A 
ATOM     94  F   UNL A   1      46.282  29.220  33.562  1.00  0.00    -0.203 F 
ATOM     95  F   UNL A   1      45.894  24.604  36.444  1.00  0.00    -0.200 F 
ATOM     96  C   UNL A   1      47.201  26.390  35.623  1.00  0.00     0.200 A 
ATOM     97  F   UNL A   1      48.466  28.202  34.788  1.00  0.00    -0.200 F 
ATOM     98  F   UNL A   1      48.282  25.909  36.254  1.00  0.00    -0.200 F 
ENDBRANCH  65  88
ENDBRANCH  39  40
ENDBRANCH  31  34
ENDBRANCH  29  30
ENDBRANCH   1  29
TORSDOF 13
ENDMDL
