MODEL 1
REMARK VINA RESULT:     -13.0      0.000      0.000
REMARK SMILES Nc1ncc(C(=O)NCCCNC(=O)c2ccc(-c3c4nc(c(-c5c(F)c(F)c(F)c(F)c5F)c5ccc([nH]5)c(-c5c(F)c(F)c(F)c(F)c5F)c5nc(c(-c6c(F)c(F)c(F)c(F)c6F)c6ccc3[nH]6)C=C5)C=C4)cc2)c(-c2ccccc2)n1
REMARK SMILES IDX 10 1 9 2 8 3 6 4 7 5 5 7 2 8 3 9 85 10 4 11 78 12 1 13 79 16
REMARK SMILES IDX 80 17 84 18 81 19 83 20 82 21 11 22 12 23 13 24 14 26 15 27
REMARK SMILES IDX 16 28 77 29 17 30 76 31 18 32 19 33 20 34 70 35 21 36 75 37
REMARK SMILES IDX 69 38 71 39 22 40 74 41 68 42 67 43 23 45 55 46 35 47 54 48
REMARK SMILES IDX 36 49 39 50 53 51 72 52 37 53 38 54 52 56 73 57 40 58 24 59
REMARK SMILES IDX 25 60 33 61 26 62 27 63 31 64 34 65 28 66 29 67 32 68 30 69
REMARK SMILES IDX 56 70 57 71 65 72 58 73 59 74 63 75 66 76 60 77 61 78 64 79
REMARK SMILES IDX 62 80 41 81 42 82 50 83 43 84 44 85 48 86 51 87 45 88 46 89
REMARK SMILES IDX 49 90 47 91
REMARK H PARENT 8 6 1 14 1 15 12 25 71 44 39 55
REMARK Flexibility Score: inf
ROOT
ATOM      1  C   UNL A   1      31.855  29.220  27.097  1.00  0.00     0.042 C 
ENDROOT
BRANCH   1   2
ATOM      2  C   UNL A   1      32.084  27.772  26.696  1.00  0.00     0.118 C 
BRANCH   2   3
ATOM      3  N   UNL A   1      30.923  26.912  26.678  1.00  0.00    -0.352 N 
ATOM      4  C   UNL A   1      30.393  26.161  25.657  1.00  0.00     0.255 C 
ATOM      5  O   UNL A   1      29.445  25.427  25.950  1.00  0.00    -0.269 OA
ATOM      6  H   UNL A   1      30.435  26.858  27.530  1.00  0.00     0.163 HD
BRANCH   4   7
ATOM      7  C   UNL A   1      30.795  26.226  24.231  1.00  0.00     0.084 A 
ATOM      8  C   UNL A   1      31.798  25.999  21.692  1.00  0.00     0.220 A 
ATOM      9  N   UNL A   1      32.226  25.127  22.598  1.00  0.00    -0.221 NA
ATOM     10  N   UNL A   1      30.929  26.975  21.947  1.00  0.00    -0.212 NA
ATOM     11  C   UNL A   1      31.721  25.267  23.845  1.00  0.00     0.131 A 
ATOM     12  C   UNL A   1      30.442  27.100  23.214  1.00  0.00     0.089 A 
BRANCH   8  13
ATOM     13  N   UNL A   1      32.270  25.887  20.420  1.00  0.00    -0.368 N 
ATOM     14  H   UNL A   1      32.580  26.687  19.937  1.00  0.00     0.159 HD
ATOM     15  H   UNL A   1      32.302  25.005  19.983  1.00  0.00     0.159 HD
ENDBRANCH   8  13
BRANCH  12  16
ATOM     16  C   UNL A   1      29.497  28.222  23.309  1.00  0.00     0.001 A 
ATOM     17  C   UNL A   1      28.110  28.061  23.176  1.00  0.00     0.010 A 
ATOM     18  C   UNL A   1      30.003  29.527  23.502  1.00  0.00     0.010 A 
ATOM     19  C   UNL A   1      27.269  29.181  23.138  1.00  0.00     0.001 A 
ATOM     20  C   UNL A   1      29.167  30.642  23.446  1.00  0.00     0.001 A 
ATOM     21  C   UNL A   1      27.801  30.468  23.246  1.00  0.00     0.000 A 
ENDBRANCH  12  16
ENDBRANCH   4   7
ENDBRANCH   2   3
ENDBRANCH   1   2
BRANCH   1  22
ATOM     22  C   UNL A   1      32.467  30.242  26.146  1.00  0.00     0.118 C 
BRANCH  22  23
ATOM     23  N   UNL A   1      32.416  31.625  26.614  1.00  0.00    -0.352 N 
ATOM     24  C   UNL A   1      33.236  32.410  27.388  1.00  0.00     0.251 C 
ATOM     25  H   UNL A   1      31.611  32.102  26.307  1.00  0.00     0.163 HD
ATOM     26  O   UNL A   1      32.853  33.545  27.676  1.00  0.00    -0.269 OA
BRANCH  24  27
ATOM     27  C   UNL A   1      34.530  31.934  27.937  1.00  0.00     0.039 A 
ATOM     28  C   UNL A   1      35.611  32.829  27.980  1.00  0.00     0.014 A 
ATOM     29  C   UNL A   1      34.728  30.633  28.381  1.00  0.00     0.014 A 
ATOM     30  C   UNL A   1      36.826  32.451  28.565  1.00  0.00     0.010 A 
ATOM     31  C   UNL A   1      35.889  30.293  29.071  1.00  0.00     0.010 A 
ATOM     32  C   UNL A   1      36.952  31.199  29.182  1.00  0.00    -0.014 A 
BRANCH  32  33
ATOM     33  C   UNL A   1      38.159  30.803  29.960  1.00  0.00     0.031 A 
ATOM     34  C   UNL A   1      39.152  29.833  29.375  1.00  0.00     0.074 A 
ATOM     35  C   UNL A   1      38.294  31.206  31.240  1.00  0.00     0.049 A 
ATOM     36  N   UNL A   1      40.132  29.189  29.960  1.00  0.00    -0.248 NA
ATOM     37  C   UNL A   1      38.990  29.505  27.949  1.00  0.00     0.031 C 
ATOM     38  C   UNL A   1      37.382  32.104  31.950  1.00  0.00     0.029 A 
ATOM     39  N   UNL A   1      39.242  30.888  32.184  1.00  0.00    -0.354 N 
ATOM     40  C   UNL A   1      40.666  28.350  28.989  1.00  0.00     0.074 A 
ATOM     41  C   UNL A   1      39.874  28.530  27.792  1.00  0.00     0.031 C 
ATOM     42  C   UNL A   1      37.822  32.281  33.205  1.00  0.00     0.029 A 
ATOM     43  C   UNL A   1      39.014  31.465  33.410  1.00  0.00     0.049 A 
ATOM     44  H   UNL A   1      40.011  30.301  31.999  1.00  0.00     0.167 HD
ATOM     45  C   UNL A   1      41.734  27.521  29.081  1.00  0.00     0.037 A 
ATOM     46  C   UNL A   1      39.677  31.338  34.576  1.00  0.00     0.037 A 
ATOM     47  C   UNL A   1      42.559  27.392  30.254  1.00  0.00     0.049 A 
ATOM     48  C   UNL A   1      40.872  30.427  34.646  1.00  0.00     0.074 A 
ATOM     49  C   UNL A   1      43.714  26.648  30.419  1.00  0.00     0.029 A 
ATOM     50  N   UNL A   1      42.319  28.031  31.460  1.00  0.00    -0.354 N 
ATOM     51  N   UNL A   1      41.397  29.680  33.707  1.00  0.00    -0.248 NA
ATOM     52  C   UNL A   1      41.564  30.343  35.939  1.00  0.00     0.031 C 
ATOM     53  C   UNL A   1      44.152  26.808  31.736  1.00  0.00     0.029 A 
ATOM     54  C   UNL A   1      43.296  27.685  32.381  1.00  0.00     0.049 A 
ATOM     55  H   UNL A   1      41.566  28.641  31.638  1.00  0.00     0.167 HD
ATOM     56  C   UNL A   1      42.492  29.054  34.287  1.00  0.00     0.074 A 
ATOM     57  C   UNL A   1      42.566  29.523  35.655  1.00  0.00     0.031 C 
ATOM     58  C   UNL A   1      43.358  28.168  33.736  1.00  0.00     0.037 A 
BRANCH  45  59
ATOM     59  C   UNL A   1      42.082  26.695  27.875  1.00  0.00     0.064 A 
ATOM     60  C   UNL A   1      42.941  27.175  26.874  1.00  0.00     0.173 A 
ATOM     61  C   UNL A   1      41.577  25.393  27.734  1.00  0.00     0.173 A 
ATOM     62  F   UNL A   1      43.442  28.416  26.955  1.00  0.00    -0.203 F 
ATOM     63  C   UNL A   1      43.251  26.398  25.762  1.00  0.00     0.198 A 
ATOM     64  C   UNL A   1      41.916  24.606  26.636  1.00  0.00     0.198 A 
ATOM     65  F   UNL A   1      40.759  24.880  28.664  1.00  0.00    -0.203 F 
ATOM     66  F   UNL A   1      44.028  26.901  24.792  1.00  0.00    -0.200 F 
ATOM     67  C   UNL A   1      42.745  25.113  25.646  1.00  0.00     0.200 A 
ATOM     68  F   UNL A   1      41.438  23.359  26.533  1.00  0.00    -0.200 F 
ATOM     69  F   UNL A   1      43.050  24.364  24.577  1.00  0.00    -0.200 F 
ENDBRANCH  45  59
BRANCH  46  70
ATOM     70  C   UNL A   1      39.232  32.102  35.771  1.00  0.00     0.064 A 
ATOM     71  C   UNL A   1      39.682  33.412  35.987  1.00  0.00     0.173 A 
ATOM     72  C   UNL A   1      38.355  31.548  36.714  1.00  0.00     0.173 A 
ATOM     73  F   UNL A   1      40.538  33.976  35.124  1.00  0.00    -0.203 F 
ATOM     74  C   UNL A   1      39.286  34.133  37.113  1.00  0.00     0.198 A 
ATOM     75  C   UNL A   1      37.938  32.280  37.825  1.00  0.00     0.198 A 
ATOM     76  F   UNL A   1      37.891  30.300  36.550  1.00  0.00    -0.203 F 
ATOM     77  F   UNL A   1      39.765  35.367  37.317  1.00  0.00    -0.200 F 
ATOM     78  C   UNL A   1      38.409  33.568  38.027  1.00  0.00     0.200 A 
ATOM     79  F   UNL A   1      37.079  31.737  38.698  1.00  0.00    -0.200 F 
ATOM     80  F   UNL A   1      38.025  34.264  39.106  1.00  0.00    -0.200 F 
ENDBRANCH  46  70
BRANCH  58  81
ATOM     81  C   UNL A   1      44.478  27.671  34.601  1.00  0.00     0.064 A 
ATOM     82  C   UNL A   1      45.696  28.357  34.690  1.00  0.00     0.173 A 
ATOM     83  C   UNL A   1      44.310  26.521  35.387  1.00  0.00     0.173 A 
ATOM     84  F   UNL A   1      45.910  29.452  33.945  1.00  0.00    -0.203 F 
ATOM     85  C   UNL A   1      46.715  27.900  35.522  1.00  0.00     0.198 A 
ATOM     86  C   UNL A   1      45.319  26.082  36.239  1.00  0.00     0.198 A 
ATOM     87  F   UNL A   1      43.159  25.831  35.341  1.00  0.00    -0.203 F 
ATOM     88  F   UNL A   1      47.887  28.548  35.563  1.00  0.00    -0.200 F 
ATOM     89  C   UNL A   1      46.522  26.769  36.302  1.00  0.00     0.200 A 
ATOM     90  F   UNL A   1      45.127  24.997  37.001  1.00  0.00    -0.200 F 
ATOM     91  F   UNL A   1      47.500  26.337  37.110  1.00  0.00    -0.200 F 
ENDBRANCH  58  81
ENDBRANCH  32  33
ENDBRANCH  24  27
ENDBRANCH  22  23
ENDBRANCH   1  22
TORSDOF 12
ENDMDL
MODEL 2
REMARK VINA RESULT:     -13.0      0.213      1.639
REMARK SMILES Nc1ncc(C(=O)NCCCNC(=O)c2ccc(-c3c4nc(c(-c5c(F)c(F)c(F)c(F)c5F)c5ccc([nH]5)c(-c5c(F)c(F)c(F)c(F)c5F)c5nc(c(-c6c(F)c(F)c(F)c(F)c6F)c6ccc3[nH]6)C=C5)C=C4)cc2)c(-c2ccccc2)n1
REMARK SMILES IDX 10 1 9 2 8 3 6 4 7 5 5 7 2 8 3 9 85 10 4 11 78 12 1 13 79 16
REMARK SMILES IDX 80 17 84 18 81 19 83 20 82 21 11 22 12 23 13 24 14 26 15 27
REMARK SMILES IDX 16 28 77 29 17 30 76 31 18 32 19 33 20 34 70 35 21 36 75 37
REMARK SMILES IDX 69 38 71 39 22 40 74 41 68 42 67 43 23 45 55 46 35 47 54 48
REMARK SMILES IDX 36 49 39 50 53 51 72 52 37 53 38 54 52 56 73 57 40 58 24 59
REMARK SMILES IDX 25 60 33 61 26 62 27 63 31 64 34 65 28 66 29 67 32 68 30 69
REMARK SMILES IDX 56 70 57 71 65 72 58 73 59 74 63 75 66 76 60 77 61 78 64 79
REMARK SMILES IDX 62 80 41 81 42 82 50 83 43 84 44 85 48 86 51 87 45 88 46 89
REMARK SMILES IDX 49 90 47 91
REMARK H PARENT 8 6 1 14 1 15 12 25 71 44 39 55
REMARK Flexibility Score: inf
ROOT
ATOM      1  C   UNL A   1      31.827  28.967  27.177  1.00  0.00     0.042 C 
ENDROOT
BRANCH   1   2
ATOM      2  C   UNL A   1      31.987  27.506  26.790  1.00  0.00     0.118 C 
BRANCH   2   3
ATOM      3  N   UNL A   1      30.776  26.724  26.696  1.00  0.00    -0.352 N 
ATOM      4  C   UNL A   1      30.236  26.052  25.626  1.00  0.00     0.255 C 
ATOM      5  O   UNL A   1      29.234  25.368  25.856  1.00  0.00    -0.269 OA
ATOM      6  H   UNL A   1      30.256  26.664  27.529  1.00  0.00     0.163 HD
BRANCH   4   7
ATOM      7  C   UNL A   1      30.690  26.152  24.218  1.00  0.00     0.084 A 
ATOM      8  C   UNL A   1      31.778  25.980  21.709  1.00  0.00     0.220 A 
ATOM      9  N   UNL A   1      32.149  25.067  22.600  1.00  0.00    -0.221 NA
ATOM     10  N   UNL A   1      30.927  26.972  21.966  1.00  0.00    -0.212 NA
ATOM     11  C   UNL A   1      31.603  25.180  23.833  1.00  0.00     0.131 A 
ATOM     12  C   UNL A   1      30.398  27.069  23.219  1.00  0.00     0.089 A 
BRANCH   8  13
ATOM     13  N   UNL A   1      32.292  25.896  20.452  1.00  0.00    -0.368 N 
ATOM     14  H   UNL A   1      33.016  25.259  20.258  1.00  0.00     0.159 HD
ATOM     15  H   UNL A   1      31.939  26.473  19.736  1.00  0.00     0.159 HD
ENDBRANCH   8  13
BRANCH  12  16
ATOM     16  C   UNL A   1      29.482  28.214  23.319  1.00  0.00     0.001 A 
ATOM     17  C   UNL A   1      28.092  28.089  23.180  1.00  0.00     0.010 A 
ATOM     18  C   UNL A   1      30.020  29.505  23.523  1.00  0.00     0.010 A 
ATOM     19  C   UNL A   1      27.280  29.231  23.148  1.00  0.00     0.001 A 
ATOM     20  C   UNL A   1      29.213  30.640  23.471  1.00  0.00     0.001 A 
ATOM     21  C   UNL A   1      27.844  30.503  23.266  1.00  0.00     0.000 A 
ENDBRANCH  12  16
ENDBRANCH   4   7
ENDBRANCH   2   3
ENDBRANCH   1   2
BRANCH   1  22
ATOM     22  C   UNL A   1      32.500  29.949  26.224  1.00  0.00     0.118 C 
BRANCH  22  23
ATOM     23  N   UNL A   1      32.448  31.347  26.646  1.00  0.00    -0.352 N 
ATOM     24  C   UNL A   1      33.279  32.164  27.374  1.00  0.00     0.251 C 
ATOM     25  H   UNL A   1      31.633  31.808  26.340  1.00  0.00     0.163 HD
ATOM     26  O   UNL A   1      32.894  33.306  27.631  1.00  0.00    -0.269 OA
BRANCH  24  27
ATOM     27  C   UNL A   1      34.588  31.716  27.911  1.00  0.00     0.039 A 
ATOM     28  C   UNL A   1      35.639  32.645  27.978  1.00  0.00     0.014 A 
ATOM     29  C   UNL A   1      34.828  30.410  28.320  1.00  0.00     0.014 A 
ATOM     30  C   UNL A   1      36.866  32.291  28.554  1.00  0.00     0.010 A 
ATOM     31  C   UNL A   1      36.000  30.091  29.001  1.00  0.00     0.010 A 
ATOM     32  C   UNL A   1      37.033  31.028  29.137  1.00  0.00    -0.014 A 
BRANCH  32  33
ATOM     33  C   UNL A   1      38.253  30.650  29.905  1.00  0.00     0.031 A 
ATOM     34  C   UNL A   1      39.237  29.666  29.327  1.00  0.00     0.074 A 
ATOM     35  C   UNL A   1      38.409  31.084  31.172  1.00  0.00     0.049 A 
ATOM     36  N   UNL A   1      40.226  29.037  29.911  1.00  0.00    -0.248 NA
ATOM     37  C   UNL A   1      39.052  29.304  27.913  1.00  0.00     0.031 C 
ATOM     38  C   UNL A   1      37.507  31.999  31.875  1.00  0.00     0.029 A 
ATOM     39  N   UNL A   1      39.371  30.789  32.108  1.00  0.00    -0.354 N 
ATOM     40  C   UNL A   1      40.745  28.175  28.953  1.00  0.00     0.074 A 
ATOM     41  C   UNL A   1      39.933  28.326  27.765  1.00  0.00     0.031 C 
ATOM     42  C   UNL A   1      37.967  32.206  33.118  1.00  0.00     0.029 A 
ATOM     43  C   UNL A   1      39.163  31.396  33.323  1.00  0.00     0.049 A 
ATOM     44  H   UNL A   1      40.137  30.198  31.925  1.00  0.00     0.167 HD
ATOM     45  C   UNL A   1      41.815  27.348  29.047  1.00  0.00     0.037 A 
ATOM     46  C   UNL A   1      39.844  31.297  34.481  1.00  0.00     0.037 A 
ATOM     47  C   UNL A   1      42.658  27.248  30.210  1.00  0.00     0.049 A 
ATOM     48  C   UNL A   1      41.041  30.388  34.554  1.00  0.00     0.074 A 
ATOM     49  C   UNL A   1      43.817  26.508  30.374  1.00  0.00     0.029 A 
ATOM     50  N   UNL A   1      42.437  27.916  31.404  1.00  0.00    -0.354 N 
ATOM     51  N   UNL A   1      41.552  29.618  33.625  1.00  0.00    -0.248 NA
ATOM     52  C   UNL A   1      41.754  30.335  35.837  1.00  0.00     0.031 C 
ATOM     53  C   UNL A   1      44.276  26.699  31.680  1.00  0.00     0.029 A 
ATOM     54  C   UNL A   1      43.429  27.592  32.317  1.00  0.00     0.049 A 
ATOM     55  H   UNL A   1      41.688  28.530  31.579  1.00  0.00     0.167 HD
ATOM     56  C   UNL A   1      42.656  29.007  34.202  1.00  0.00     0.074 A 
ATOM     57  C   UNL A   1      42.752  29.509  35.557  1.00  0.00     0.031 C 
ATOM     58  C   UNL A   1      43.513  28.108  33.659  1.00  0.00     0.037 A 
BRANCH  45  59
ATOM     59  C   UNL A   1      42.143  26.493  27.856  1.00  0.00     0.064 A 
ATOM     60  C   UNL A   1      41.489  25.274  27.621  1.00  0.00     0.173 A 
ATOM     61  C   UNL A   1      43.100  26.913  26.920  1.00  0.00     0.173 A 
ATOM     62  F   UNL A   1      40.573  24.821  28.491  1.00  0.00    -0.203 F 
ATOM     63  C   UNL A   1      41.806  24.491  26.515  1.00  0.00     0.198 A 
ATOM     64  C   UNL A   1      43.391  26.143  25.796  1.00  0.00     0.198 A 
ATOM     65  F   UNL A   1      43.750  28.073  27.090  1.00  0.00    -0.203 F 
ATOM     66  F   UNL A   1      41.207  23.304  26.343  1.00  0.00    -0.200 F 
ATOM     67  C   UNL A   1      42.750  24.929  25.599  1.00  0.00     0.200 A 
ATOM     68  F   UNL A   1      44.294  26.574  24.905  1.00  0.00    -0.200 F 
ATOM     69  F   UNL A   1      43.051  24.176  24.532  1.00  0.00    -0.200 F 
ENDBRANCH  45  59
BRANCH  46  70
ATOM     70  C   UNL A   1      39.419  32.089  35.664  1.00  0.00     0.064 A 
ATOM     71  C   UNL A   1      38.490  31.567  36.576  1.00  0.00     0.173 A 
ATOM     72  C   UNL A   1      39.926  33.374  35.911  1.00  0.00     0.173 A 
ATOM     73  F   UNL A   1      37.962  30.353  36.371  1.00  0.00    -0.203 F 
ATOM     74  C   UNL A   1      38.070  32.308  37.680  1.00  0.00     0.198 A 
ATOM     75  C   UNL A   1      39.525  34.102  37.030  1.00  0.00     0.198 A 
ATOM     76  F   UNL A   1      40.820  33.916  35.072  1.00  0.00    -0.203 F 
ATOM     77  F   UNL A   1      37.150  31.802  38.511  1.00  0.00    -0.200 F 
ATOM     78  C   UNL A   1      38.593  33.571  37.909  1.00  0.00     0.200 A 
ATOM     79  F   UNL A   1      40.044  35.316  37.257  1.00  0.00    -0.200 F 
ATOM     80  F   UNL A   1      38.193  34.280  38.973  1.00  0.00    -0.200 F 
ENDBRANCH  46  70
BRANCH  58  81
ATOM     81  C   UNL A   1      44.647  27.632  34.517  1.00  0.00     0.064 A 
ATOM     82  C   UNL A   1      45.864  28.323  34.575  1.00  0.00     0.173 A 
ATOM     83  C   UNL A   1      44.494  26.497  35.329  1.00  0.00     0.173 A 
ATOM     84  F   UNL A   1      46.064  29.403  33.804  1.00  0.00    -0.203 F 
ATOM     85  C   UNL A   1      46.896  27.886  35.401  1.00  0.00     0.198 A 
ATOM     86  C   UNL A   1      45.517  26.079  36.174  1.00  0.00     0.198 A 
ATOM     87  F   UNL A   1      43.345  25.804  35.314  1.00  0.00    -0.203 F 
ATOM     88  F   UNL A   1      48.067  28.539  35.411  1.00  0.00    -0.200 F 
ATOM     89  C   UNL A   1      46.719  26.771  36.206  1.00  0.00     0.200 A 
ATOM     90  F   UNL A   1      45.340  25.009  36.961  1.00  0.00    -0.200 F 
ATOM     91  F   UNL A   1      47.709  26.358  37.009  1.00  0.00    -0.200 F 
ENDBRANCH  58  81
ENDBRANCH  32  33
ENDBRANCH  24  27
ENDBRANCH  22  23
ENDBRANCH   1  22
TORSDOF 12
ENDMDL
MODEL 3
REMARK VINA RESULT:     -12.9      1.933      3.123
REMARK SMILES Nc1ncc(C(=O)NCCCNC(=O)c2ccc(-c3c4nc(c(-c5c(F)c(F)c(F)c(F)c5F)c5ccc([nH]5)c(-c5c(F)c(F)c(F)c(F)c5F)c5nc(c(-c6c(F)c(F)c(F)c(F)c6F)c6ccc3[nH]6)C=C5)C=C4)cc2)c(-c2ccccc2)n1
REMARK SMILES IDX 10 1 9 2 8 3 6 4 7 5 5 7 2 8 3 9 85 10 4 11 78 12 1 13 79 16
REMARK SMILES IDX 80 17 84 18 81 19 83 20 82 21 11 22 12 23 13 24 14 26 15 27
REMARK SMILES IDX 16 28 77 29 17 30 76 31 18 32 19 33 20 34 70 35 21 36 75 37
REMARK SMILES IDX 69 38 71 39 22 40 74 41 68 42 67 43 23 45 55 46 35 47 54 48
REMARK SMILES IDX 36 49 39 50 53 51 72 52 37 53 38 54 52 56 73 57 40 58 24 59
REMARK SMILES IDX 25 60 33 61 26 62 27 63 31 64 34 65 28 66 29 67 32 68 30 69
REMARK SMILES IDX 56 70 57 71 65 72 58 73 59 74 63 75 66 76 60 77 61 78 64 79
REMARK SMILES IDX 62 80 41 81 42 82 50 83 43 84 44 85 48 86 51 87 45 88 46 89
REMARK SMILES IDX 49 90 47 91
REMARK H PARENT 8 6 1 14 1 15 12 25 71 44 39 55
REMARK Flexibility Score: inf
ROOT
ATOM      1  C   UNL A   1      31.459  32.069  26.552  1.00  0.00     0.042 C 
ENDROOT
BRANCH   1   2
ATOM      2  C   UNL A   1      31.615  30.567  26.380  1.00  0.00     0.118 C 
BRANCH   2   3
ATOM      3  N   UNL A   1      32.402  30.122  25.253  1.00  0.00    -0.352 N 
ATOM      4  C   UNL A   1      32.045  29.353  24.172  1.00  0.00     0.255 C 
ATOM      5  O   UNL A   1      32.899  29.210  23.292  1.00  0.00    -0.269 OA
ATOM      6  H   UNL A   1      33.341  30.414  25.262  1.00  0.00     0.163 HD
BRANCH   4   7
ATOM      7  C   UNL A   1      30.771  28.608  24.018  1.00  0.00     0.084 A 
ATOM      8  C   UNL A   1      28.638  26.893  23.918  1.00  0.00     0.220 A 
ATOM      9  N   UNL A   1      29.768  26.432  24.443  1.00  0.00    -0.221 NA
ATOM     10  N   UNL A   1      28.487  28.122  23.431  1.00  0.00    -0.212 NA
ATOM     11  C   UNL A   1      30.808  27.297  24.472  1.00  0.00     0.131 A 
ATOM     12  C   UNL A   1      29.552  28.972  23.465  1.00  0.00     0.089 A 
BRANCH   8  13
ATOM     13  N   UNL A   1      27.561  26.059  23.881  1.00  0.00    -0.368 N 
ATOM     14  H   UNL A   1      26.759  26.314  23.371  1.00  0.00     0.159 HD
ATOM     15  H   UNL A   1      27.587  25.201  24.363  1.00  0.00     0.159 HD
ENDBRANCH   8  13
BRANCH  12  16
ATOM     16  C   UNL A   1      29.204  30.280  22.892  1.00  0.00     0.001 A 
ATOM     17  C   UNL A   1      29.119  31.449  23.663  1.00  0.00     0.010 A 
ATOM     18  C   UNL A   1      28.901  30.364  21.514  1.00  0.00     0.010 A 
ATOM     19  C   UNL A   1      28.650  32.639  23.092  1.00  0.00     0.001 A 
ATOM     20  C   UNL A   1      28.416  31.545  20.952  1.00  0.00     0.001 A 
ATOM     21  C   UNL A   1      28.275  32.678  21.747  1.00  0.00     0.000 A 
ENDBRANCH  12  16
ENDBRANCH   4   7
ENDBRANCH   2   3
ENDBRANCH   1   2
BRANCH   1  22
ATOM     22  C   UNL A   1      32.666  32.761  27.177  1.00  0.00     0.118 C 
BRANCH  22  23
ATOM     23  N   UNL A   1      32.411  34.111  27.673  1.00  0.00    -0.352 N 
ATOM     24  C   UNL A   1      33.013  34.923  28.604  1.00  0.00     0.251 C 
ATOM     25  H   UNL A   1      31.632  34.535  27.244  1.00  0.00     0.163 HD
ATOM     26  O   UNL A   1      32.486  36.008  28.857  1.00  0.00    -0.269 OA
BRANCH  24  27
ATOM     27  C   UNL A   1      34.229  34.530  29.357  1.00  0.00     0.039 A 
ATOM     28  C   UNL A   1      34.075  33.961  30.631  1.00  0.00     0.014 A 
ATOM     29  C   UNL A   1      35.515  34.729  28.870  1.00  0.00     0.014 A 
ATOM     30  C   UNL A   1      35.188  33.498  31.345  1.00  0.00     0.010 A 
ATOM     31  C   UNL A   1      36.609  34.162  29.520  1.00  0.00     0.010 A 
ATOM     32  C   UNL A   1      36.462  33.530  30.761  1.00  0.00    -0.014 A 
BRANCH  32  33
ATOM     33  C   UNL A   1      37.656  32.908  31.399  1.00  0.00     0.031 A 
ATOM     34  C   UNL A   1      38.344  31.741  30.741  1.00  0.00     0.074 A 
ATOM     35  C   UNL A   1      38.040  33.301  32.631  1.00  0.00     0.049 A 
ATOM     36  N   UNL A   1      39.242  30.920  31.229  1.00  0.00    -0.248 NA
ATOM     37  C   UNL A   1      37.929  31.423  29.365  1.00  0.00     0.031 C 
ATOM     38  C   UNL A   1      37.432  34.385  33.406  1.00  0.00     0.029 A 
ATOM     39  N   UNL A   1      39.020  32.814  33.462  1.00  0.00    -0.354 N 
ATOM     40  C   UNL A   1      39.459  29.968  30.241  1.00  0.00     0.074 A 
ATOM     41  C   UNL A   1      38.568  30.283  29.146  1.00  0.00     0.031 C 
ATOM     42  C   UNL A   1      38.062  34.493  34.585  1.00  0.00     0.029 A 
ATOM     43  C   UNL A   1      39.080  33.452  34.678  1.00  0.00     0.049 A 
ATOM     44  H   UNL A   1      39.622  32.077  33.211  1.00  0.00     0.167 HD
ATOM     45  C   UNL A   1      40.339  28.937  30.237  1.00  0.00     0.037 A 
ATOM     46  C   UNL A   1      39.852  33.215  35.756  1.00  0.00     0.037 A 
ATOM     47  C   UNL A   1      41.269  28.664  31.301  1.00  0.00     0.049 A 
ATOM     48  C   UNL A   1      40.836  32.078  35.719  1.00  0.00     0.074 A 
ATOM     49  C   UNL A   1      42.261  27.700  31.355  1.00  0.00     0.029 A 
ATOM     50  N   UNL A   1      41.327  29.365  32.496  1.00  0.00    -0.354 N 
ATOM     51  N   UNL A   1      41.068  31.217  34.759  1.00  0.00    -0.248 NA
ATOM     52  C   UNL A   1      41.663  31.878  36.917  1.00  0.00     0.031 C 
ATOM     53  C   UNL A   1      42.894  27.793  32.598  1.00  0.00     0.029 A 
ATOM     54  C   UNL A   1      42.327  28.843  33.302  1.00  0.00     0.049 A 
ATOM     55  H   UNL A   1      40.745  30.122  32.737  1.00  0.00     0.167 HD
ATOM     56  C   UNL A   1      42.081  30.390  35.225  1.00  0.00     0.074 A 
ATOM     57  C   UNL A   1      42.430  30.862  36.548  1.00  0.00     0.031 C 
ATOM     58  C   UNL A   1      42.667  29.332  34.614  1.00  0.00     0.037 A 
BRANCH  45  59
ATOM     59  C   UNL A   1      40.347  28.030  29.038  1.00  0.00     0.064 A 
ATOM     60  C   UNL A   1      41.106  28.326  27.896  1.00  0.00     0.173 A 
ATOM     61  C   UNL A   1      39.613  26.834  29.045  1.00  0.00     0.173 A 
ATOM     62  F   UNL A   1      41.818  29.462  27.833  1.00  0.00    -0.203 F 
ATOM     63  C   UNL A   1      41.102  27.478  26.792  1.00  0.00     0.198 A 
ATOM     64  C   UNL A   1      39.637  25.971  27.951  1.00  0.00     0.198 A 
ATOM     65  F   UNL A   1      38.877  26.498  30.114  1.00  0.00    -0.203 F 
ATOM     66  F   UNL A   1      41.790  27.811  25.691  1.00  0.00    -0.200 F 
ATOM     67  C   UNL A   1      40.374  26.298  26.823  1.00  0.00     0.200 A 
ATOM     68  F   UNL A   1      38.944  24.825  27.988  1.00  0.00    -0.200 F 
ATOM     69  F   UNL A   1      40.375  25.480  25.761  1.00  0.00    -0.200 F 
ENDBRANCH  45  59
BRANCH  46  70
ATOM     70  C   UNL A   1      39.736  34.080  36.958  1.00  0.00     0.064 A 
ATOM     71  C   UNL A   1      38.927  33.696  38.038  1.00  0.00     0.173 A 
ATOM     72  C   UNL A   1      40.423  35.298  37.059  1.00  0.00     0.173 A 
ATOM     73  F   UNL A   1      38.234  32.550  37.980  1.00  0.00    -0.203 F 
ATOM     74  C   UNL A   1      38.796  34.507  39.164  1.00  0.00     0.198 A 
ATOM     75  C   UNL A   1      40.313  36.095  38.197  1.00  0.00     0.198 A 
ATOM     76  F   UNL A   1      41.214  35.708  36.056  1.00  0.00    -0.203 F 
ATOM     77  F   UNL A   1      37.983  34.136  40.162  1.00  0.00    -0.200 F 
ATOM     78  C   UNL A   1      39.494  35.702  39.245  1.00  0.00     0.200 A 
ATOM     79  F   UNL A   1      41.000  37.242  38.279  1.00  0.00    -0.200 F 
ATOM     80  F   UNL A   1      39.372  36.478  40.331  1.00  0.00    -0.200 F 
ENDBRANCH  46  70
BRANCH  58  81
ATOM     81  C   UNL A   1      43.767  28.631  35.354  1.00  0.00     0.064 A 
ATOM     82  C   UNL A   1      43.498  27.592  36.254  1.00  0.00     0.173 A 
ATOM     83  C   UNL A   1      45.108  28.972  35.120  1.00  0.00     0.173 A 
ATOM     84  F   UNL A   1      42.231  27.242  36.523  1.00  0.00    -0.203 F 
ATOM     85  C   UNL A   1      44.533  26.929  36.910  1.00  0.00     0.198 A 
ATOM     86  C   UNL A   1      46.140  28.289  35.756  1.00  0.00     0.198 A 
ATOM     87  F   UNL A   1      45.417  29.957  34.262  1.00  0.00    -0.203 F 
ATOM     88  F   UNL A   1      44.253  25.965  37.797  1.00  0.00    -0.200 F 
ATOM     89  C   UNL A   1      45.852  27.272  36.653  1.00  0.00     0.200 A 
ATOM     90  F   UNL A   1      47.415  28.612  35.498  1.00  0.00    -0.200 F 
ATOM     91  F   UNL A   1      46.847  26.626  37.277  1.00  0.00    -0.200 F 
ENDBRANCH  58  81
ENDBRANCH  32  33
ENDBRANCH  24  27
ENDBRANCH  22  23
ENDBRANCH   1  22
TORSDOF 12
ENDMDL
