MODEL 1
REMARK VINA RESULT:     -13.4      0.000      0.000
REMARK SMILES COc1ccccc1C(=O)N/C(=C/c1ccc2c(c1)OCO2)C(=O)Nc1ccc(C(=O)NCCCNC(=O)c2ccc(-c3c4nc(c(-c5c(F)c(F)c(F)c(F)c5F)c5ccc([nH]5)c(-c5c(F)c(F)c(F)c(F)c5F)c5nc(c(-c6c(F)c(F)c(F)c(F)c6F)c6ccc3[nH]6)C=C5)C=C4)cc2)cc1
REMARK SMILES IDX 30 1 31 2 32 3 29 5 26 6 27 7 103 8 28 9 102 10 25 11 23 12
REMARK SMILES IDX 24 13 12 15 13 16 11 17 9 18 10 19 8 21 3 22 4 23 5 24 7 25
REMARK SMILES IDX 6 26 2 27 1 28 14 29 15 30 19 31 16 32 18 33 17 34 20 35
REMARK SMILES IDX 22 36 21 37 33 38 34 39 35 40 36 41 37 42 38 44 39 45 40 46
REMARK SMILES IDX 101 47 41 48 100 49 42 50 43 51 44 52 94 53 45 54 99 55
REMARK SMILES IDX 93 56 95 57 46 58 98 59 92 60 91 61 47 63 79 64 59 65 78 66
REMARK SMILES IDX 60 67 63 68 77 69 96 70 61 71 62 72 76 74 97 75 64 76 48 77
REMARK SMILES IDX 49 78 57 79 50 80 51 81 55 82 58 83 52 84 53 85 56 86 54 87
REMARK SMILES IDX 80 88 81 89 89 90 82 91 83 92 87 93 90 94 84 95 85 96 88 97
REMARK SMILES IDX 86 98 65 99 66 100 74 101 67 102 68 103 72 104 75 105 69 106
REMARK SMILES IDX 70 107 73 108 71 109
REMARK H PARENT 32 4 25 14 11 20 36 43 95 62 63 73
REMARK Flexibility Score: inf
ROOT
ATOM      1  C   UNL A   1      37.672  23.514  25.783  1.00  0.00     0.251 C 
ATOM      2  O   UNL A   1      38.506  24.358  26.110  1.00  0.00    -0.269 OA
ATOM      3  N   UNL A   1      38.138  22.359  25.201  1.00  0.00    -0.352 N 
ATOM      4  H   UNL A   1      39.118  22.269  25.221  1.00  0.00     0.163 HD
ENDROOT
BRANCH   1   5
ATOM      5  C   UNL A   1      36.241  23.702  26.161  1.00  0.00     0.039 A 
ATOM      6  C   UNL A   1      33.476  23.327  26.512  1.00  0.00     0.041 A 
ATOM      7  C   UNL A   1      34.391  22.739  27.395  1.00  0.00     0.027 A 
ATOM      8  C   UNL A   1      33.944  24.281  25.617  1.00  0.00     0.027 A 
ATOM      9  C   UNL A   1      35.765  22.894  27.198  1.00  0.00     0.016 A 
ATOM     10  C   UNL A   1      35.323  24.504  25.480  1.00  0.00     0.016 A 
BRANCH   6  11
ATOM     11  N   UNL A   1      32.160  22.841  26.570  1.00  0.00    -0.321 N 
ATOM     12  C   UNL A   1      31.102  22.797  25.702  1.00  0.00     0.272 C 
ATOM     13  O   UNL A   1      30.085  22.204  26.085  1.00  0.00    -0.267 OA
ATOM     14  H   UNL A   1      31.947  22.435  27.441  1.00  0.00     0.170 HD
BRANCH  12  15
ATOM     15  C   UNL A   1      31.134  23.288  24.271  1.00  0.00     0.108 C 
ATOM     16  C   UNL A   1      31.782  22.589  23.307  1.00  0.00     0.040 C 
BRANCH  15  17
ATOM     17  N   UNL A   1      30.278  24.292  23.843  1.00  0.00    -0.317 N 
ATOM     18  C   UNL A   1      30.183  25.649  24.071  1.00  0.00     0.259 C 
ATOM     19  O   UNL A   1      29.162  26.223  23.682  1.00  0.00    -0.269 OA
ATOM     20  H   UNL A   1      29.578  23.960  23.235  1.00  0.00     0.170 HD
BRANCH  18  21
ATOM     21  C   UNL A   1      31.219  26.463  24.735  1.00  0.00     0.082 A 
ATOM     22  C   UNL A   1      32.274  27.093  24.067  1.00  0.00     0.131 A 
ATOM     23  C   UNL A   1      33.291  27.698  24.814  1.00  0.00     0.047 A 
ATOM     24  C   UNL A   1      33.192  27.800  26.202  1.00  0.00     0.004 A 
ATOM     25  C   UNL A   1      31.091  26.624  26.127  1.00  0.00     0.018 A 
ATOM     26  C   UNL A   1      32.071  27.299  26.857  1.00  0.00     0.001 A 
BRANCH  22  27
ATOM     27  O   UNL A   1      32.458  27.126  22.711  1.00  0.00    -0.496 OA
ATOM     28  C   UNL A   1      33.279  26.083  22.193  1.00  0.00     0.278 C 
ENDBRANCH  22  27
ENDBRANCH  18  21
ENDBRANCH  15  17
BRANCH  16  29
ATOM     29  C   UNL A   1      32.526  21.343  23.528  1.00  0.00    -0.019 A 
ATOM     30  C   UNL A   1      33.836  21.395  24.048  1.00  0.00     0.012 A 
ATOM     31  C   UNL A   1      31.867  20.116  23.392  1.00  0.00     0.058 A 
ATOM     32  C   UNL A   1      34.410  20.257  24.624  1.00  0.00     0.051 A 
ATOM     33  C   UNL A   1      32.416  19.043  24.043  1.00  0.00     0.166 A 
ATOM     34  C   UNL A   1      33.637  19.119  24.672  1.00  0.00     0.165 A 
ATOM     35  O   UNL A   1      31.778  17.866  24.287  1.00  0.00    -0.454 OA
ATOM     36  O   UNL A   1      33.894  18.003  25.409  1.00  0.00    -0.454 OA
ATOM     37  C   UNL A   1      32.597  17.370  25.362  1.00  0.00     0.468 C 
ENDBRANCH  16  29
ENDBRANCH  12  15
ENDBRANCH   6  11
ENDBRANCH   1   5
BRANCH   3  38
ATOM     38  C   UNL A   1      37.457  21.247  24.565  1.00  0.00     0.118 C 
BRANCH  38  39
ATOM     39  C   UNL A   1      38.149  19.941  24.938  1.00  0.00     0.042 C 
BRANCH  39  40
ATOM     40  C   UNL A   1      39.084  20.115  26.125  1.00  0.00     0.118 C 
BRANCH  40  41
ATOM     41  N   UNL A   1      40.219  19.205  26.050  1.00  0.00    -0.352 N 
ATOM     42  C   UNL A   1      41.558  19.480  26.055  1.00  0.00     0.251 C 
ATOM     43  H   UNL A   1      39.986  18.251  25.986  1.00  0.00     0.163 HD
ATOM     44  O   UNL A   1      42.359  18.593  25.743  1.00  0.00    -0.269 OA
BRANCH  42  45
ATOM     45  C   UNL A   1      42.056  20.828  26.403  1.00  0.00     0.039 A 
ATOM     46  C   UNL A   1      42.205  21.769  25.383  1.00  0.00     0.014 A 
ATOM     47  C   UNL A   1      42.399  21.163  27.717  1.00  0.00     0.014 A 
ATOM     48  C   UNL A   1      42.652  23.055  25.689  1.00  0.00     0.010 A 
ATOM     49  C   UNL A   1      42.749  22.473  28.034  1.00  0.00     0.010 A 
ATOM     50  C   UNL A   1      42.896  23.430  27.022  1.00  0.00    -0.014 A 
BRANCH  50  51
ATOM     51  C   UNL A   1      43.295  24.823  27.347  1.00  0.00     0.031 A 
ATOM     52  C   UNL A   1      44.689  25.312  27.065  1.00  0.00     0.074 A 
ATOM     53  C   UNL A   1      42.397  25.643  27.924  1.00  0.00     0.049 A 
ATOM     54  N   UNL A   1      45.193  26.509  27.227  1.00  0.00    -0.248 NA
ATOM     55  C   UNL A   1      45.654  24.323  26.561  1.00  0.00     0.031 C 
ATOM     56  C   UNL A   1      41.042  25.259  28.326  1.00  0.00     0.029 A 
ATOM     57  N   UNL A   1      42.482  26.968  28.269  1.00  0.00    -0.354 N 
ATOM     58  C   UNL A   1      46.527  26.414  26.856  1.00  0.00     0.074 A 
ATOM     59  C   UNL A   1      46.773  25.029  26.522  1.00  0.00     0.031 C 
ATOM     60  C   UNL A   1      40.409  26.333  28.821  1.00  0.00     0.029 A 
ATOM     61  C   UNL A   1      41.322  27.472  28.803  1.00  0.00     0.049 A 
ATOM     62  H   UNL A   1      43.298  27.506  28.146  1.00  0.00     0.167 HD
ATOM     63  C   UNL A   1      47.456  27.398  26.778  1.00  0.00     0.037 A 
ATOM     64  C   UNL A   1      41.023  28.716  29.222  1.00  0.00     0.037 A 
ATOM     65  C   UNL A   1      47.199  28.778  27.099  1.00  0.00     0.049 A 
ATOM     66  C   UNL A   1      42.058  29.798  29.087  1.00  0.00     0.074 A 
ATOM     67  C   UNL A   1      48.045  29.866  26.980  1.00  0.00     0.029 A 
ATOM     68  N   UNL A   1      46.003  29.259  27.615  1.00  0.00    -0.354 N 
ATOM     69  N   UNL A   1      43.286  29.718  28.636  1.00  0.00    -0.248 NA
ATOM     70  C   UNL A   1      41.656  31.148  29.499  1.00  0.00     0.031 C 
ATOM     71  C   UNL A   1      47.385  30.993  27.482  1.00  0.00     0.029 A 
ATOM     72  C   UNL A   1      46.100  30.623  27.849  1.00  0.00     0.049 A 
ATOM     73  H   UNL A   1      45.204  28.713  27.789  1.00  0.00     0.167 HD
ATOM     74  C   UNL A   1      43.799  31.007  28.693  1.00  0.00     0.074 A 
ATOM     75  C   UNL A   1      42.734  31.853  29.193  1.00  0.00     0.031 C 
ATOM     76  C   UNL A   1      45.038  31.451  28.363  1.00  0.00     0.037 A 
BRANCH  63  77
ATOM     77  C   UNL A   1      48.841  27.011  26.335  1.00  0.00     0.064 A 
ATOM     78  C   UNL A   1      49.233  27.073  24.987  1.00  0.00     0.173 A 
ATOM     79  C   UNL A   1      49.799  26.598  27.273  1.00  0.00     0.173 A 
ATOM     80  F   UNL A   1      48.357  27.451  24.045  1.00  0.00    -0.203 F 
ATOM     81  C   UNL A   1      50.516  26.698  24.595  1.00  0.00     0.198 A 
ATOM     82  C   UNL A   1      51.091  26.258  26.881  1.00  0.00     0.198 A 
ATOM     83  F   UNL A   1      49.482  26.525  28.576  1.00  0.00    -0.203 F 
ATOM     84  F   UNL A   1      50.847  26.707  23.295  1.00  0.00    -0.200 F 
ATOM     85  C   UNL A   1      51.446  26.299  25.542  1.00  0.00     0.200 A 
ATOM     86  F   UNL A   1      51.993  25.887  27.801  1.00  0.00    -0.200 F 
ATOM     87  F   UNL A   1      52.681  25.943  25.163  1.00  0.00    -0.200 F 
ENDBRANCH  63  77
BRANCH  64  88
ATOM     88  C   UNL A   1      39.672  29.004  29.771  1.00  0.00     0.064 A 
ATOM     89  C   UNL A   1      39.384  28.813  31.129  1.00  0.00     0.173 A 
ATOM     90  C   UNL A   1      38.645  29.492  28.950  1.00  0.00     0.173 A 
ATOM     91  F   UNL A   1      40.327  28.334  31.953  1.00  0.00    -0.203 F 
ATOM     92  C   UNL A   1      38.115  29.078  31.641  1.00  0.00     0.198 A 
ATOM     93  C   UNL A   1      37.387  29.789  29.468  1.00  0.00     0.198 A 
ATOM     94  F   UNL A   1      38.873  29.703  27.644  1.00  0.00    -0.203 F 
ATOM     95  F   UNL A   1      37.854  28.845  32.934  1.00  0.00    -0.200 F 
ATOM     96  C   UNL A   1      37.120  29.574  30.811  1.00  0.00     0.200 A 
ATOM     97  F   UNL A   1      36.435  30.286  28.667  1.00  0.00    -0.200 F 
ATOM     98  F   UNL A   1      35.904  29.840  31.306  1.00  0.00    -0.200 F 
ENDBRANCH  64  88
BRANCH  76  99
ATOM     99  C   UNL A   1      45.295  32.923  28.516  1.00  0.00     0.064 A 
ATOM    100  C   UNL A   1      45.832  33.463  29.696  1.00  0.00     0.173 A 
ATOM    101  C   UNL A   1      44.995  33.810  27.470  1.00  0.00     0.173 A 
ATOM    102  F   UNL A   1      46.126  32.661  30.731  1.00  0.00    -0.203 F 
ATOM    103  C   UNL A   1      46.009  34.836  29.841  1.00  0.00     0.198 A 
ATOM    104  C   UNL A   1      45.211  35.178  27.605  1.00  0.00     0.198 A 
ATOM    105  F   UNL A   1      44.491  33.349  26.316  1.00  0.00    -0.203 F 
ATOM    106  F   UNL A   1      46.450  35.333  31.005  1.00  0.00    -0.200 F 
ATOM    107  C   UNL A   1      45.701  35.692  28.795  1.00  0.00     0.200 A 
ATOM    108  F   UNL A   1      44.929  36.002  26.585  1.00  0.00    -0.200 F 
ATOM    109  F   UNL A   1      45.867  37.014  28.938  1.00  0.00    -0.200 F 
ENDBRANCH  76  99
ENDBRANCH  50  51
ENDBRANCH  42  45
ENDBRANCH  40  41
ENDBRANCH  39  40
ENDBRANCH  38  39
ENDBRANCH   3  38
TORSDOF 16
ENDMDL
MODEL 2
REMARK VINA RESULT:     -13.3      0.702      6.912
REMARK SMILES COc1ccccc1C(=O)N/C(=C/c1ccc2c(c1)OCO2)C(=O)Nc1ccc(C(=O)NCCCNC(=O)c2ccc(-c3c4nc(c(-c5c(F)c(F)c(F)c(F)c5F)c5ccc([nH]5)c(-c5c(F)c(F)c(F)c(F)c5F)c5nc(c(-c6c(F)c(F)c(F)c(F)c6F)c6ccc3[nH]6)C=C5)C=C4)cc2)cc1
REMARK SMILES IDX 30 1 31 2 32 3 29 5 26 6 27 7 103 8 28 9 102 10 25 11 23 12
REMARK SMILES IDX 24 13 12 15 13 16 11 17 9 18 10 19 8 21 3 22 4 23 5 24 7 25
REMARK SMILES IDX 6 26 2 27 1 28 14 29 15 30 19 31 16 32 18 33 17 34 20 35
REMARK SMILES IDX 22 36 21 37 33 38 34 39 35 40 36 41 37 42 38 44 39 45 40 46
REMARK SMILES IDX 101 47 41 48 100 49 42 50 43 51 44 52 94 53 45 54 99 55
REMARK SMILES IDX 93 56 95 57 46 58 98 59 92 60 91 61 47 63 79 64 59 65 78 66
REMARK SMILES IDX 60 67 63 68 77 69 96 70 61 71 62 72 76 74 97 75 64 76 48 77
REMARK SMILES IDX 49 78 57 79 50 80 51 81 55 82 58 83 52 84 53 85 56 86 54 87
REMARK SMILES IDX 80 88 81 89 89 90 82 91 83 92 87 93 90 94 84 95 85 96 88 97
REMARK SMILES IDX 86 98 65 99 66 100 74 101 67 102 68 103 72 104 75 105 69 106
REMARK SMILES IDX 70 107 73 108 71 109
REMARK H PARENT 32 4 25 14 11 20 36 43 95 62 63 73
REMARK Flexibility Score: inf
ROOT
ATOM      1  C   UNL A   1      37.664  23.515  25.745  1.00  0.00     0.251 C 
ATOM      2  O   UNL A   1      38.486  24.379  26.052  1.00  0.00    -0.269 OA
ATOM      3  N   UNL A   1      38.144  22.356  25.185  1.00  0.00    -0.352 N 
ATOM      4  H   UNL A   1      39.125  22.281  25.203  1.00  0.00     0.163 HD
ENDROOT
BRANCH   1   5
ATOM      5  C   UNL A   1      36.231  23.690  26.125  1.00  0.00     0.039 A 
ATOM      6  C   UNL A   1      33.469  23.291  26.475  1.00  0.00     0.041 A 
ATOM      7  C   UNL A   1      34.389  22.705  27.355  1.00  0.00     0.027 A 
ATOM      8  C   UNL A   1      33.929  24.254  25.586  1.00  0.00     0.027 A 
ATOM      9  C   UNL A   1      35.762  22.872  27.158  1.00  0.00     0.016 A 
ATOM     10  C   UNL A   1      35.307  24.489  25.449  1.00  0.00     0.016 A 
BRANCH   6  11
ATOM     11  N   UNL A   1      32.158  22.794  26.531  1.00  0.00    -0.321 N 
ATOM     12  C   UNL A   1      31.105  22.731  25.657  1.00  0.00     0.272 C 
ATOM     13  O   UNL A   1      30.091  22.133  26.041  1.00  0.00    -0.267 OA
ATOM     14  H   UNL A   1      31.943  22.397  27.406  1.00  0.00     0.170 HD
BRANCH  12  15
ATOM     15  C   UNL A   1      31.141  23.206  24.222  1.00  0.00     0.108 C 
ATOM     16  C   UNL A   1      31.802  22.502  23.269  1.00  0.00     0.040 C 
BRANCH  15  17
ATOM     17  N   UNL A   1      30.279  24.196  23.776  1.00  0.00    -0.317 N 
ATOM     18  C   UNL A   1      30.152  25.550  24.009  1.00  0.00     0.259 C 
ATOM     19  O   UNL A   1      29.131  26.107  23.596  1.00  0.00    -0.269 OA
ATOM     20  H   UNL A   1      29.602  23.855  23.147  1.00  0.00     0.170 HD
BRANCH  18  21
ATOM     21  C   UNL A   1      31.154  26.379  24.707  1.00  0.00     0.082 A 
ATOM     22  C   UNL A   1      32.162  27.103  24.063  1.00  0.00     0.131 A 
ATOM     23  C   UNL A   1      33.157  27.718  24.830  1.00  0.00     0.047 A 
ATOM     24  C   UNL A   1      33.077  27.732  26.223  1.00  0.00     0.004 A 
ATOM     25  C   UNL A   1      31.041  26.449  26.107  1.00  0.00     0.018 A 
ATOM     26  C   UNL A   1      31.996  27.133  26.862  1.00  0.00     0.001 A 
BRANCH  22  27
ATOM     27  O   UNL A   1      32.320  27.226  22.708  1.00  0.00    -0.496 OA
ATOM     28  C   UNL A   1      33.650  27.513  22.286  1.00  0.00     0.278 C 
ENDBRANCH  22  27
ENDBRANCH  18  21
ENDBRANCH  15  17
BRANCH  16  29
ATOM     29  C   UNL A   1      32.557  21.265  23.510  1.00  0.00    -0.019 A 
ATOM     30  C   UNL A   1      33.882  21.338  23.986  1.00  0.00     0.012 A 
ATOM     31  C   UNL A   1      31.897  20.033  23.437  1.00  0.00     0.058 A 
ATOM     32  C   UNL A   1      34.478  20.222  24.582  1.00  0.00     0.051 A 
ATOM     33  C   UNL A   1      32.470  18.984  24.108  1.00  0.00     0.166 A 
ATOM     34  C   UNL A   1      33.710  19.084  24.694  1.00  0.00     0.165 A 
ATOM     35  O   UNL A   1      31.843  17.816  24.413  1.00  0.00    -0.454 OA
ATOM     36  O   UNL A   1      33.994  17.995  25.461  1.00  0.00    -0.454 OA
ATOM     37  C   UNL A   1      32.698  17.358  25.477  1.00  0.00     0.468 C 
ENDBRANCH  16  29
ENDBRANCH  12  15
ENDBRANCH   6  11
ENDBRANCH   1   5
BRANCH   3  38
ATOM     38  C   UNL A   1      37.478  21.222  24.574  1.00  0.00     0.118 C 
BRANCH  38  39
ATOM     39  C   UNL A   1      38.237  19.941  24.905  1.00  0.00     0.042 C 
BRANCH  39  40
ATOM     40  C   UNL A   1      39.175  20.130  26.088  1.00  0.00     0.118 C 
BRANCH  40  41
ATOM     41  N   UNL A   1      40.282  19.186  26.048  1.00  0.00    -0.352 N 
ATOM     42  C   UNL A   1      41.629  19.422  26.038  1.00  0.00     0.251 C 
ATOM     43  H   UNL A   1      40.022  18.236  26.024  1.00  0.00     0.163 HD
ATOM     44  O   UNL A   1      42.403  18.501  25.761  1.00  0.00    -0.269 OA
BRANCH  42  45
ATOM     45  C   UNL A   1      42.166  20.768  26.329  1.00  0.00     0.039 A 
ATOM     46  C   UNL A   1      42.412  21.635  25.263  1.00  0.00     0.014 A 
ATOM     47  C   UNL A   1      42.452  21.174  27.637  1.00  0.00     0.014 A 
ATOM     48  C   UNL A   1      42.898  22.919  25.512  1.00  0.00     0.010 A 
ATOM     49  C   UNL A   1      42.841  22.487  27.891  1.00  0.00     0.010 A 
ATOM     50  C   UNL A   1      43.085  23.369  26.831  1.00  0.00    -0.014 A 
BRANCH  50  51
ATOM     51  C   UNL A   1      43.528  24.762  27.090  1.00  0.00     0.031 A 
ATOM     52  C   UNL A   1      42.563  25.796  27.602  1.00  0.00     0.074 A 
ATOM     53  C   UNL A   1      44.807  25.101  26.839  1.00  0.00     0.049 A 
ATOM     54  N   UNL A   1      42.787  27.041  27.940  1.00  0.00    -0.248 NA
ATOM     55  C   UNL A   1      41.154  25.391  27.723  1.00  0.00     0.031 C 
ATOM     56  C   UNL A   1      45.815  24.210  26.260  1.00  0.00     0.029 A 
ATOM     57  N   UNL A   1      45.480  26.278  27.041  1.00  0.00    -0.354 N 
ATOM     58  C   UNL A   1      41.554  27.565  28.303  1.00  0.00     0.074 A 
ATOM     59  C   UNL A   1      40.574  26.525  28.083  1.00  0.00     0.031 C 
ATOM     60  C   UNL A   1      46.988  24.858  26.194  1.00  0.00     0.029 A 
ATOM     61  C   UNL A   1      46.808  26.218  26.694  1.00  0.00     0.049 A 
ATOM     62  H   UNL A   1      45.053  27.090  27.399  1.00  0.00     0.167 HD
ATOM     63  C   UNL A   1      41.270  28.794  28.798  1.00  0.00     0.037 A 
ATOM     64  C   UNL A   1      47.775  27.151  26.779  1.00  0.00     0.037 A 
ATOM     65  C   UNL A   1      42.255  29.819  29.028  1.00  0.00     0.049 A 
ATOM     66  C   UNL A   1      47.442  28.492  27.369  1.00  0.00     0.074 A 
ATOM     67  C   UNL A   1      42.086  31.068  29.598  1.00  0.00     0.029 A 
ATOM     68  N   UNL A   1      43.597  29.715  28.688  1.00  0.00    -0.354 N 
ATOM     69  N   UNL A   1      46.291  28.943  27.807  1.00  0.00    -0.248 NA
ATOM     70  C   UNL A   1      48.549  29.447  27.497  1.00  0.00     0.031 C 
ATOM     71  C   UNL A   1      43.310  31.744  29.545  1.00  0.00     0.029 A 
ATOM     72  C   UNL A   1      44.261  30.890  29.007  1.00  0.00     0.049 A 
ATOM     73  H   UNL A   1      44.015  28.924  28.280  1.00  0.00     0.167 HD
ATOM     74  C   UNL A   1      46.537  30.225  28.278  1.00  0.00     0.074 A 
ATOM     75  C   UNL A   1      47.955  30.466  28.100  1.00  0.00     0.031 C 
ATOM     76  C   UNL A   1      45.670  31.123  28.809  1.00  0.00     0.037 A 
BRANCH  63  77
ATOM     77  C   UNL A   1      39.831  29.098  29.117  1.00  0.00     0.064 A 
ATOM     78  C   UNL A   1      39.329  29.023  30.427  1.00  0.00     0.173 A 
ATOM     79  C   UNL A   1      38.947  29.496  28.102  1.00  0.00     0.173 A 
ATOM     80  F   UNL A   1      40.125  28.638  31.435  1.00  0.00    -0.203 F 
ATOM     81  C   UNL A   1      37.990  29.296  30.699  1.00  0.00     0.198 A 
ATOM     82  C   UNL A   1      37.618  29.802  28.385  1.00  0.00     0.198 A 
ATOM     83  F   UNL A   1      39.372  29.592  26.833  1.00  0.00    -0.203 F 
ATOM     84  F   UNL A   1      37.521  29.157  31.948  1.00  0.00    -0.200 F 
ATOM     85  C   UNL A   1      37.138  29.692  29.681  1.00  0.00     0.200 A 
ATOM     86  F   UNL A   1      36.800  30.200  27.401  1.00  0.00    -0.200 F 
ATOM     87  F   UNL A   1      35.852  29.959  29.946  1.00  0.00    -0.200 F 
ENDBRANCH  63  77
BRANCH  64  88
ATOM     88  C   UNL A   1      49.153  26.826  26.326  1.00  0.00     0.064 A 
ATOM     89  C   UNL A   1      49.554  27.050  25.002  1.00  0.00     0.173 A 
ATOM     90  C   UNL A   1      50.102  26.300  27.214  1.00  0.00     0.173 A 
ATOM     91  F   UNL A   1      48.679  27.538  24.110  1.00  0.00    -0.203 F 
ATOM     92  C   UNL A   1      50.845  26.740  24.578  1.00  0.00     0.198 A 
ATOM     93  C   UNL A   1      51.402  26.022  26.799  1.00  0.00     0.198 A 
ATOM     94  F   UNL A   1      49.772  26.078  28.496  1.00  0.00    -0.203 F 
ATOM     95  F   UNL A   1      51.189  26.923  23.297  1.00  0.00    -0.200 F 
ATOM     96  C   UNL A   1      51.771  26.234  25.479  1.00  0.00     0.200 A 
ATOM     97  F   UNL A   1      52.298  25.552  27.677  1.00  0.00    -0.200 F 
ATOM     98  F   UNL A   1      53.015  25.948  25.075  1.00  0.00    -0.200 F 
ENDBRANCH  64  88
BRANCH  76  99
ATOM     99  C   UNL A   1      46.241  32.441  29.252  1.00  0.00     0.064 A 
ATOM    100  C   UNL A   1      46.736  32.634  30.552  1.00  0.00     0.173 A 
ATOM    101  C   UNL A   1      46.288  33.529  28.367  1.00  0.00     0.173 A 
ATOM    102  F   UNL A   1      46.705  31.630  31.442  1.00  0.00    -0.203 F 
ATOM    103  C   UNL A   1      47.208  33.878  30.962  1.00  0.00     0.198 A 
ATOM    104  C   UNL A   1      46.797  34.760  28.769  1.00  0.00     0.198 A 
ATOM    105  F   UNL A   1      45.839  33.399  27.109  1.00  0.00    -0.203 F 
ATOM    106  F   UNL A   1      47.603  34.057  32.230  1.00  0.00    -0.200 F 
ATOM    107  C   UNL A   1      47.241  34.938  30.070  1.00  0.00     0.200 A 
ATOM    108  F   UNL A   1      46.845  35.780  27.900  1.00  0.00    -0.200 F 
ATOM    109  F   UNL A   1      47.690  36.137  30.468  1.00  0.00    -0.200 F 
ENDBRANCH  76  99
ENDBRANCH  50  51
ENDBRANCH  42  45
ENDBRANCH  40  41
ENDBRANCH  39  40
ENDBRANCH  38  39
ENDBRANCH   3  38
TORSDOF 16
ENDMDL
MODEL 3
REMARK VINA RESULT:     -13.2      1.455      7.777
REMARK SMILES COc1ccccc1C(=O)N/C(=C/c1ccc2c(c1)OCO2)C(=O)Nc1ccc(C(=O)NCCCNC(=O)c2ccc(-c3c4nc(c(-c5c(F)c(F)c(F)c(F)c5F)c5ccc([nH]5)c(-c5c(F)c(F)c(F)c(F)c5F)c5nc(c(-c6c(F)c(F)c(F)c(F)c6F)c6ccc3[nH]6)C=C5)C=C4)cc2)cc1
REMARK SMILES IDX 30 1 31 2 32 3 29 5 26 6 27 7 103 8 28 9 102 10 25 11 23 12
REMARK SMILES IDX 24 13 12 15 13 16 11 17 9 18 10 19 8 21 3 22 4 23 5 24 7 25
REMARK SMILES IDX 6 26 2 27 1 28 14 29 15 30 19 31 16 32 18 33 17 34 20 35
REMARK SMILES IDX 22 36 21 37 33 38 34 39 35 40 36 41 37 42 38 44 39 45 40 46
REMARK SMILES IDX 101 47 41 48 100 49 42 50 43 51 44 52 94 53 45 54 99 55
REMARK SMILES IDX 93 56 95 57 46 58 98 59 92 60 91 61 47 63 79 64 59 65 78 66
REMARK SMILES IDX 60 67 63 68 77 69 96 70 61 71 62 72 76 74 97 75 64 76 48 77
REMARK SMILES IDX 49 78 57 79 50 80 51 81 55 82 58 83 52 84 53 85 56 86 54 87
REMARK SMILES IDX 80 88 81 89 89 90 82 91 83 92 87 93 90 94 84 95 85 96 88 97
REMARK SMILES IDX 86 98 65 99 66 100 74 101 67 102 68 103 72 104 75 105 69 106
REMARK SMILES IDX 70 107 73 108 71 109
REMARK H PARENT 32 4 25 14 11 20 36 43 95 62 63 73
REMARK Flexibility Score: inf
ROOT
ATOM      1  C   UNL A   1      38.050  22.897  25.651  1.00  0.00     0.251 C 
ATOM      2  O   UNL A   1      38.746  23.742  26.212  1.00  0.00    -0.269 OA
ATOM      3  N   UNL A   1      38.493  21.596  25.676  1.00  0.00    -0.352 N 
ATOM      4  H   UNL A   1      39.272  21.451  26.260  1.00  0.00     0.163 HD
ENDROOT
BRANCH   1   5
ATOM      5  C   UNL A   1      36.710  23.278  25.114  1.00  0.00     0.039 A 
ATOM      6  C   UNL A   1      34.638  24.540  23.693  1.00  0.00     0.041 A 
ATOM      7  C   UNL A   1      35.405  23.535  23.088  1.00  0.00     0.027 A 
ATOM      8  C   UNL A   1      34.761  24.729  25.063  1.00  0.00     0.027 A 
ATOM      9  C   UNL A   1      36.459  22.935  23.782  1.00  0.00     0.016 A 
ATOM     10  C   UNL A   1      35.764  24.057  25.782  1.00  0.00     0.016 A 
BRANCH   6  11
ATOM     11  N   UNL A   1      33.851  25.320  22.831  1.00  0.00    -0.321 N 
ATOM     12  C   UNL A   1      32.539  25.310  22.438  1.00  0.00     0.272 C 
ATOM     13  O   UNL A   1      32.167  26.228  21.696  1.00  0.00    -0.267 OA
ATOM     14  H   UNL A   1      34.363  26.046  22.407  1.00  0.00     0.170 HD
BRANCH  12  15
ATOM     15  C   UNL A   1      31.488  24.353  22.955  1.00  0.00     0.108 C 
ATOM     16  C   UNL A   1      30.435  24.799  23.684  1.00  0.00     0.040 C 
BRANCH  15  17
ATOM     17  N   UNL A   1      31.402  23.057  22.468  1.00  0.00    -0.317 N 
ATOM     18  C   UNL A   1      31.864  21.828  22.893  1.00  0.00     0.259 C 
ATOM     19  O   UNL A   1      31.778  20.883  22.105  1.00  0.00    -0.269 OA
ATOM     20  H   UNL A   1      30.894  23.000  21.627  1.00  0.00     0.170 HD
BRANCH  18  21
ATOM     21  C   UNL A   1      32.442  21.564  24.225  1.00  0.00     0.082 A 
ATOM     22  C   UNL A   1      31.859  21.967  25.431  1.00  0.00     0.131 A 
ATOM     23  C   UNL A   1      32.576  21.810  26.622  1.00  0.00     0.047 A 
ATOM     24  C   UNL A   1      33.798  21.137  26.636  1.00  0.00     0.004 A 
ATOM     25  C   UNL A   1      33.642  20.829  24.251  1.00  0.00     0.018 A 
ATOM     26  C   UNL A   1      34.313  20.608  25.455  1.00  0.00     0.001 A 
BRANCH  22  27
ATOM     27  O   UNL A   1      30.641  22.578  25.567  1.00  0.00    -0.496 OA
ATOM     28  C   UNL A   1      30.361  23.067  26.876  1.00  0.00     0.278 C 
ENDBRANCH  22  27
ENDBRANCH  18  21
ENDBRANCH  15  17
BRANCH  16  29
ATOM     29  C   UNL A   1      30.213  26.197  24.073  1.00  0.00    -0.019 A 
ATOM     30  C   UNL A   1      31.166  26.858  24.876  1.00  0.00     0.012 A 
ATOM     31  C   UNL A   1      29.156  26.911  23.497  1.00  0.00     0.058 A 
ATOM     32  C   UNL A   1      31.188  28.255  24.937  1.00  0.00     0.051 A 
ATOM     33  C   UNL A   1      29.258  28.278  23.501  1.00  0.00     0.166 A 
ATOM     34  C   UNL A   1      30.264  28.932  24.172  1.00  0.00     0.165 A 
ATOM     35  O   UNL A   1      28.510  29.119  22.736  1.00  0.00    -0.454 OA
ATOM     36  O   UNL A   1      30.280  30.263  23.883  1.00  0.00    -0.454 OA
ATOM     37  C   UNL A   1      29.349  30.288  22.780  1.00  0.00     0.468 C 
ENDBRANCH  16  29
ENDBRANCH  12  15
ENDBRANCH   6  11
ENDBRANCH   1   5
BRANCH   3  38
ATOM     38  C   UNL A   1      38.028  20.396  25.006  1.00  0.00     0.118 C 
BRANCH  38  39
ATOM     39  C   UNL A   1      38.927  19.221  25.376  1.00  0.00     0.042 C 
BRANCH  39  40
ATOM     40  C   UNL A   1      40.081  19.652  26.269  1.00  0.00     0.118 C 
BRANCH  40  41
ATOM     41  N   UNL A   1      41.262  18.828  26.049  1.00  0.00    -0.352 N 
ATOM     42  C   UNL A   1      42.564  19.203  25.866  1.00  0.00     0.251 C 
ATOM     43  H   UNL A   1      41.097  17.857  26.030  1.00  0.00     0.163 HD
ATOM     44  O   UNL A   1      43.381  18.372  25.458  1.00  0.00    -0.269 OA
BRANCH  42  45
ATOM     45  C   UNL A   1      42.998  20.592  26.126  1.00  0.00     0.039 A 
ATOM     46  C   UNL A   1      43.416  21.374  25.048  1.00  0.00     0.014 A 
ATOM     47  C   UNL A   1      43.021  21.120  27.421  1.00  0.00     0.014 A 
ATOM     48  C   UNL A   1      43.810  22.695  25.263  1.00  0.00     0.010 A 
ATOM     49  C   UNL A   1      43.318  22.466  27.620  1.00  0.00     0.010 A 
ATOM     50  C   UNL A   1      43.733  23.264  26.547  1.00  0.00    -0.014 A 
BRANCH  50  51
ATOM     51  C   UNL A   1      44.078  24.694  26.754  1.00  0.00     0.031 A 
ATOM     52  C   UNL A   1      43.055  25.669  27.265  1.00  0.00     0.074 A 
ATOM     53  C   UNL A   1      45.322  25.116  26.454  1.00  0.00     0.049 A 
ATOM     54  N   UNL A   1      43.197  26.937  27.561  1.00  0.00    -0.248 NA
ATOM     55  C   UNL A   1      41.684  25.167  27.440  1.00  0.00     0.031 C 
ATOM     56  C   UNL A   1      46.376  24.284  25.870  1.00  0.00     0.029 A 
ATOM     57  N   UNL A   1      45.912  26.345  26.602  1.00  0.00    -0.354 N 
ATOM     58  C   UNL A   1      41.939  27.381  27.946  1.00  0.00     0.074 A 
ATOM     59  C   UNL A   1      41.032  26.266  27.785  1.00  0.00     0.031 C 
ATOM     60  C   UNL A   1      47.496  25.014  25.750  1.00  0.00     0.029 A 
ATOM     61  C   UNL A   1      47.230  26.371  26.217  1.00  0.00     0.049 A 
ATOM     62  H   UNL A   1      45.436  27.134  26.950  1.00  0.00     0.167 HD
ATOM     63  C   UNL A   1      41.579  28.600  28.416  1.00  0.00     0.037 A 
ATOM     64  C   UNL A   1      48.128  27.374  26.246  1.00  0.00     0.037 A 
ATOM     65  C   UNL A   1      42.493  29.701  28.587  1.00  0.00     0.049 A 
ATOM     66  C   UNL A   1      47.714  28.705  26.809  1.00  0.00     0.074 A 
ATOM     67  C   UNL A   1      42.248  30.951  29.126  1.00  0.00     0.029 A 
ATOM     68  N   UNL A   1      43.828  29.684  28.209  1.00  0.00    -0.354 N 
ATOM     69  N   UNL A   1      46.546  29.083  27.268  1.00  0.00    -0.248 NA
ATOM     70  C   UNL A   1      48.751  29.741  26.876  1.00  0.00     0.031 C 
ATOM     71  C   UNL A   1      43.417  31.712  29.017  1.00  0.00     0.029 A 
ATOM     72  C   UNL A   1      44.413  30.914  28.475  1.00  0.00     0.049 A 
ATOM     73  H   UNL A   1      44.292  28.913  27.811  1.00  0.00     0.167 HD
ATOM     74  C   UNL A   1      46.711  30.394  27.696  1.00  0.00     0.074 A 
ATOM     75  C   UNL A   1      48.102  30.732  27.468  1.00  0.00     0.031 C 
ATOM     76  C   UNL A   1      45.795  31.242  28.228  1.00  0.00     0.037 A 
BRANCH  63  77
ATOM     77  C   UNL A   1      40.132  28.808  28.769  1.00  0.00     0.064 A 
ATOM     78  C   UNL A   1      39.187  29.221  27.815  1.00  0.00     0.173 A 
ATOM     79  C   UNL A   1      39.677  28.568  30.075  1.00  0.00     0.173 A 
ATOM     80  F   UNL A   1      39.566  29.475  26.554  1.00  0.00    -0.203 F 
ATOM     81  C   UNL A   1      37.853  29.421  28.165  1.00  0.00     0.198 A 
ATOM     82  C   UNL A   1      38.336  28.736  30.412  1.00  0.00     0.198 A 
ATOM     83  F   UNL A   1      40.533  28.167  31.027  1.00  0.00    -0.203 F 
ATOM     84  F   UNL A   1      36.984  29.874  27.251  1.00  0.00    -0.200 F 
ATOM     85  C   UNL A   1      37.427  29.172  29.460  1.00  0.00     0.200 A 
ATOM     86  F   UNL A   1      37.924  28.479  31.661  1.00  0.00    -0.200 F 
ATOM     87  F   UNL A   1      36.143  29.361  29.794  1.00  0.00    -0.200 F 
ENDBRANCH  63  77
BRANCH  64  88
ATOM     88  C   UNL A   1      49.513  27.137  25.761  1.00  0.00     0.064 A 
ATOM     89  C   UNL A   1      49.849  27.306  24.411  1.00  0.00     0.173 A 
ATOM     90  C   UNL A   1      50.533  26.751  26.643  1.00  0.00     0.173 A 
ATOM     91  F   UNL A   1      48.906  27.659  23.525  1.00  0.00    -0.203 F 
ATOM     92  C   UNL A   1      51.146  27.078  23.958  1.00  0.00     0.198 A 
ATOM     93  C   UNL A   1      51.837  26.556  26.195  1.00  0.00     0.198 A 
ATOM     94  F   UNL A   1      50.266  26.586  27.947  1.00  0.00    -0.203 F 
ATOM     95  F   UNL A   1      51.430  27.205  22.655  1.00  0.00    -0.200 F 
ATOM     96  C   UNL A   1      52.142  26.711  24.851  1.00  0.00     0.200 A 
ATOM     97  F   UNL A   1      52.800  26.221  27.065  1.00  0.00    -0.200 F 
ATOM     98  F   UNL A   1      53.392  26.504  24.417  1.00  0.00    -0.200 F 
ENDBRANCH  64  88
BRANCH  76  99
ATOM     99  C   UNL A   1      46.280  32.610  28.616  1.00  0.00     0.064 A 
ATOM    100  C   UNL A   1      46.784  32.881  29.898  1.00  0.00     0.173 A 
ATOM    101  C   UNL A   1      46.234  33.669  27.696  1.00  0.00     0.173 A 
ATOM    102  F   UNL A   1      46.840  31.908  30.821  1.00  0.00    -0.203 F 
ATOM    103  C   UNL A   1      47.174  34.168  30.258  1.00  0.00     0.198 A 
ATOM    104  C   UNL A   1      46.663  34.945  28.048  1.00  0.00     0.198 A 
ATOM    105  F   UNL A   1      45.773  33.465  26.452  1.00  0.00    -0.203 F 
ATOM    106  F   UNL A   1      47.580  34.417  31.512  1.00  0.00    -0.200 F 
ATOM    107  C   UNL A   1      47.117  35.198  29.332  1.00  0.00     0.200 A 
ATOM    108  F   UNL A   1      46.623  35.936  27.145  1.00  0.00    -0.200 F 
ATOM    109  F   UNL A   1      47.487  36.437  29.682  1.00  0.00    -0.200 F 
ENDBRANCH  76  99
ENDBRANCH  50  51
ENDBRANCH  42  45
ENDBRANCH  40  41
ENDBRANCH  39  40
ENDBRANCH  38  39
ENDBRANCH   3  38
TORSDOF 16
ENDMDL
