MODEL 1
REMARK VINA RESULT:     -11.7      0.000      0.000
REMARK SMILES CCC[C@H](C)C(=O)N1CC[C@H](C(=O)NCCCNC(=O)c2ccc(-c3c4nc(c(-c5c(F)c(F)c(F)c(F)c5F)c5ccc([nH]5)c(-c5c(F)c(F)c(F)c(F)c5F)c5nc(c(-c6c(F)c(F)c(F)c(F)c6F)c6ccc3[nH]6)C=C5)C=C4)cc2)[C@@H]1C
REMARK SMILES IDX 15 1 14 2 12 3 13 4 11 6 8 7 9 8 84 9 10 10 85 11 6 12 7 13
REMARK SMILES IDX 4 14 5 15 3 16 2 17 1 18 16 19 17 20 18 21 19 22 20 24 21 25
REMARK SMILES IDX 22 26 83 27 23 28 82 29 24 30 25 31 26 32 76 33 27 34 81 35
REMARK SMILES IDX 75 36 77 37 28 38 80 39 74 40 73 41 29 43 61 44 41 45 60 46
REMARK SMILES IDX 42 47 45 48 59 49 78 50 43 51 44 52 58 54 79 55 46 56 30 57
REMARK SMILES IDX 31 58 39 59 32 60 33 61 37 62 40 63 34 64 35 65 38 66 36 67
REMARK SMILES IDX 62 68 63 69 71 70 64 71 65 72 69 73 72 74 66 75 67 76 70 77
REMARK SMILES IDX 68 78 47 79 48 80 56 81 49 82 50 83 54 84 57 85 51 86 52 87
REMARK SMILES IDX 55 88 53 89
REMARK H PARENT 14 5 18 23 77 42 45 53
REMARK Flexibility Score: inf
ROOT
ATOM      1  C   UNL A   1      36.914  20.248  24.893  1.00  0.00     0.117 C 
ENDROOT
BRANCH   1   2
ATOM      2  N   UNL A   1      35.637  19.562  25.001  1.00  0.00    -0.356 N 
ATOM      3  C   UNL A   1      34.361  20.021  24.860  1.00  0.00     0.225 C 
ATOM      4  O   UNL A   1      33.447  19.201  24.941  1.00  0.00    -0.275 OA
ATOM      5  H   UNL A   1      35.706  18.603  25.212  1.00  0.00     0.163 HD
BRANCH   3   6
ATOM      6  C   UNL A   1      34.105  21.505  24.650  1.00  0.00     0.102 C 
ATOM      7  N   UNL A   1      32.746  23.138  25.728  1.00  0.00    -0.339 N 
ATOM      8  C   UNL A   1      31.868  22.453  24.800  1.00  0.00     0.120 C 
ATOM      9  C   UNL A   1      33.934  22.315  25.958  1.00  0.00     0.094 C 
ATOM     10  C   UNL A   1      32.824  21.779  23.835  1.00  0.00     0.037 C 
ATOM     11  C   UNL A   1      33.695  21.454  27.207  1.00  0.00     0.032 C 
BRANCH   7  12
ATOM     12  C   UNL A   1      32.287  24.236  26.421  1.00  0.00     0.225 C 
ATOM     13  O   UNL A   1      31.379  24.112  27.252  1.00  0.00    -0.275 OA
BRANCH  12  14
ATOM     14  C   UNL A   1      32.737  25.658  26.046  1.00  0.00     0.075 C 
ATOM     15  C   UNL A   1      33.988  25.793  25.187  1.00  0.00     0.018 C 
BRANCH  14  16
ATOM     16  C   UNL A   1      31.523  26.430  25.490  1.00  0.00     0.013 C 
BRANCH  16  17
ATOM     17  C   UNL A   1      31.407  27.875  25.992  1.00  0.00    -0.003 C 
ATOM     18  C   UNL A   1      31.807  28.069  27.445  1.00  0.00     0.004 C 
ENDBRANCH  16  17
ENDBRANCH  14  16
ENDBRANCH  12  14
ENDBRANCH   7  12
ENDBRANCH   3   6
ENDBRANCH   1   2
BRANCH   1  19
ATOM     19  C   UNL A   1      38.119  19.314  25.000  1.00  0.00     0.042 C 
BRANCH  19  20
ATOM     20  C   UNL A   1      39.234  19.797  25.928  1.00  0.00     0.118 C 
BRANCH  20  21
ATOM     21  N   UNL A   1      40.373  18.892  25.953  1.00  0.00    -0.352 N 
ATOM     22  C   UNL A   1      41.713  19.165  26.050  1.00  0.00     0.251 C 
ATOM     23  H   UNL A   1      40.145  17.936  25.891  1.00  0.00     0.163 HD
ATOM     24  O   UNL A   1      42.528  18.257  25.871  1.00  0.00    -0.269 OA
BRANCH  22  25
ATOM     25  C   UNL A   1      42.202  20.530  26.347  1.00  0.00     0.039 A 
ATOM     26  C   UNL A   1      42.636  21.333  25.285  1.00  0.00     0.014 A 
ATOM     27  C   UNL A   1      42.291  21.009  27.657  1.00  0.00     0.014 A 
ATOM     28  C   UNL A   1      43.104  22.626  25.529  1.00  0.00     0.010 A 
ATOM     29  C   UNL A   1      42.702  22.323  27.894  1.00  0.00     0.010 A 
ATOM     30  C   UNL A   1      43.117  23.143  26.834  1.00  0.00    -0.014 A 
BRANCH  30  31
ATOM     31  C   UNL A   1      43.567  24.535  27.103  1.00  0.00     0.031 A 
ATOM     32  C   UNL A   1      42.599  25.563  27.622  1.00  0.00     0.074 A 
ATOM     33  C   UNL A   1      44.838  24.891  26.831  1.00  0.00     0.049 A 
ATOM     34  N   UNL A   1      42.791  26.836  27.862  1.00  0.00    -0.248 NA
ATOM     35  C   UNL A   1      41.227  25.105  27.885  1.00  0.00     0.031 C 
ATOM     36  C   UNL A   1      45.865  24.004  26.285  1.00  0.00     0.029 A 
ATOM     37  N   UNL A   1      45.479  26.099  26.967  1.00  0.00    -0.354 N 
ATOM     38  C   UNL A   1      41.565  27.332  28.284  1.00  0.00     0.074 A 
ATOM     39  C   UNL A   1      40.624  26.234  28.228  1.00  0.00     0.031 C 
ATOM     40  C   UNL A   1      47.010  24.691  26.147  1.00  0.00     0.029 A 
ATOM     41  C   UNL A   1      46.791  26.073  26.566  1.00  0.00     0.049 A 
ATOM     42  H   UNL A   1      45.039  26.906  27.319  1.00  0.00     0.167 HD
ATOM     43  C   UNL A   1      41.255  28.584  28.700  1.00  0.00     0.037 A 
ATOM     44  C   UNL A   1      47.715  27.053  26.532  1.00  0.00     0.037 A 
ATOM     45  C   UNL A   1      42.196  29.670  28.789  1.00  0.00     0.049 A 
ATOM     46  C   UNL A   1      47.348  28.431  27.010  1.00  0.00     0.074 A 
ATOM     47  C   UNL A   1      41.991  30.955  29.263  1.00  0.00     0.029 A 
ATOM     48  N   UNL A   1      43.524  29.598  28.395  1.00  0.00    -0.354 N 
ATOM     49  N   UNL A   1      46.203  28.870  27.470  1.00  0.00    -0.248 NA
ATOM     50  C   UNL A   1      48.408  29.449  26.971  1.00  0.00     0.031 C 
ATOM     51  C   UNL A   1      43.185  31.671  29.120  1.00  0.00     0.029 A 
ATOM     52  C   UNL A   1      44.144  30.821  28.597  1.00  0.00     0.049 A 
ATOM     53  H   UNL A   1      43.962  28.797  28.026  1.00  0.00     0.167 HD
ATOM     54  C   UNL A   1      46.407  30.203  27.797  1.00  0.00     0.074 A 
ATOM     55  C   UNL A   1      47.792  30.499  27.497  1.00  0.00     0.031 C 
ATOM     56  C   UNL A   1      45.526  31.100  28.300  1.00  0.00     0.037 A 
BRANCH  43  57
ATOM     57  C   UNL A   1      39.833  28.851  29.099  1.00  0.00     0.064 A 
ATOM     58  C   UNL A   1      39.401  28.693  30.425  1.00  0.00     0.173 A 
ATOM     59  C   UNL A   1      38.903  29.311  28.155  1.00  0.00     0.173 A 
ATOM     60  F   UNL A   1      40.249  28.246  31.363  1.00  0.00    -0.203 F 
ATOM     61  C   UNL A   1      38.081  28.957  30.783  1.00  0.00     0.198 A 
ATOM     62  C   UNL A   1      37.592  29.601  28.523  1.00  0.00     0.198 A 
ATOM     63  F   UNL A   1      39.267  29.486  26.876  1.00  0.00    -0.203 F 
ATOM     64  F   UNL A   1      37.680  28.756  32.046  1.00  0.00    -0.200 F 
ATOM     65  C   UNL A   1      37.180  29.418  29.836  1.00  0.00     0.200 A 
ATOM     66  F   UNL A   1      36.725  30.057  27.608  1.00  0.00    -0.200 F 
ATOM     67  F   UNL A   1      35.913  29.679  30.185  1.00  0.00    -0.200 F 
ENDBRANCH  43  57
BRANCH  44  68
ATOM     68  C   UNL A   1      49.088  26.758  26.051  1.00  0.00     0.064 A 
ATOM     69  C   UNL A   1      49.451  27.001  24.718  1.00  0.00     0.173 A 
ATOM     70  C   UNL A   1      50.064  26.230  26.908  1.00  0.00     0.173 A 
ATOM     71  F   UNL A   1      48.544  27.484  23.856  1.00  0.00    -0.203 F 
ATOM     72  C   UNL A   1      50.732  26.709  24.257  1.00  0.00     0.198 A 
ATOM     73  C   UNL A   1      51.353  25.963  26.451  1.00  0.00     0.198 A 
ATOM     74  F   UNL A   1      49.768  25.985  28.192  1.00  0.00    -0.203 F 
ATOM     75  F   UNL A   1      51.040  26.912  22.968  1.00  0.00    -0.200 F 
ATOM     76  C   UNL A   1      51.684  26.195  25.125  1.00  0.00     0.200 A 
ATOM     77  F   UNL A   1      52.275  25.480  27.297  1.00  0.00    -0.200 F 
ATOM     78  F   UNL A   1      52.918  25.921  24.682  1.00  0.00    -0.200 F 
ENDBRANCH  44  68
BRANCH  56  79
ATOM     79  C   UNL A   1      46.039  32.481  28.587  1.00  0.00     0.064 A 
ATOM     80  C   UNL A   1      46.620  32.807  29.821  1.00  0.00     0.173 A 
ATOM     81  C   UNL A   1      45.981  33.479  27.602  1.00  0.00     0.173 A 
ATOM     82  F   UNL A   1      46.683  31.892  30.800  1.00  0.00    -0.203 F 
ATOM     83  C   UNL A   1      47.105  34.089  30.067  1.00  0.00     0.198 A 
ATOM     84  C   UNL A   1      46.490  34.752  27.842  1.00  0.00     0.198 A 
ATOM     85  F   UNL A   1      45.440  33.216  26.404  1.00  0.00    -0.203 F 
ATOM     86  F   UNL A   1      47.617  34.390  31.267  1.00  0.00    -0.200 F 
ATOM     87  C   UNL A   1      47.046  35.058  29.076  1.00  0.00     0.200 A 
ATOM     88  F   UNL A   1      46.442  35.683  26.881  1.00  0.00    -0.200 F 
ATOM     89  F   UNL A   1      47.518  36.289  29.312  1.00  0.00    -0.200 F 
ENDBRANCH  56  79
ENDBRANCH  30  31
ENDBRANCH  22  25
ENDBRANCH  20  21
ENDBRANCH  19  20
ENDBRANCH   1  19
TORSDOF 14
ENDMDL
MODEL 2
REMARK VINA RESULT:     -11.7      5.971     11.558
REMARK SMILES CCC[C@H](C)C(=O)N1CC[C@H](C(=O)NCCCNC(=O)c2ccc(-c3c4nc(c(-c5c(F)c(F)c(F)c(F)c5F)c5ccc([nH]5)c(-c5c(F)c(F)c(F)c(F)c5F)c5nc(c(-c6c(F)c(F)c(F)c(F)c6F)c6ccc3[nH]6)C=C5)C=C4)cc2)[C@@H]1C
REMARK SMILES IDX 15 1 14 2 12 3 13 4 11 6 8 7 9 8 84 9 10 10 85 11 6 12 7 13
REMARK SMILES IDX 4 14 5 15 3 16 2 17 1 18 16 19 17 20 18 21 19 22 20 24 21 25
REMARK SMILES IDX 22 26 83 27 23 28 82 29 24 30 25 31 26 32 76 33 27 34 81 35
REMARK SMILES IDX 75 36 77 37 28 38 80 39 74 40 73 41 29 43 61 44 41 45 60 46
REMARK SMILES IDX 42 47 45 48 59 49 78 50 43 51 44 52 58 54 79 55 46 56 30 57
REMARK SMILES IDX 31 58 39 59 32 60 33 61 37 62 40 63 34 64 35 65 38 66 36 67
REMARK SMILES IDX 62 68 63 69 71 70 64 71 65 72 69 73 72 74 66 75 67 76 70 77
REMARK SMILES IDX 68 78 47 79 48 80 56 81 49 82 50 83 54 84 57 85 51 86 52 87
REMARK SMILES IDX 55 88 53 89
REMARK H PARENT 14 5 18 23 77 42 45 53
REMARK Flexibility Score: inf
ROOT
ATOM      1  C   UNL A   1      31.585  30.786  26.096  1.00  0.00     0.117 C 
ENDROOT
BRANCH   1   2
ATOM      2  N   UNL A   1      30.829  30.644  24.862  1.00  0.00    -0.356 N 
ATOM      3  C   UNL A   1      30.546  29.544  24.109  1.00  0.00     0.225 C 
ATOM      4  O   UNL A   1      29.820  29.697  23.126  1.00  0.00    -0.275 OA
ATOM      5  H   UNL A   1      30.460  31.487  24.512  1.00  0.00     0.163 HD
BRANCH   3   6
ATOM      6  C   UNL A   1      31.153  28.198  24.470  1.00  0.00     0.102 C 
ATOM      7  N   UNL A   1      32.524  26.619  23.328  1.00  0.00    -0.339 N 
ATOM      8  C   UNL A   1      31.169  26.338  22.900  1.00  0.00     0.120 C 
ATOM      9  C   UNL A   1      32.575  27.964  23.902  1.00  0.00     0.094 C 
ATOM     10  C   UNL A   1      30.314  27.009  23.957  1.00  0.00     0.037 C 
ATOM     11  C   UNL A   1      32.983  28.950  22.797  1.00  0.00     0.032 C 
BRANCH   7  12
ATOM     12  C   UNL A   1      33.552  25.789  22.939  1.00  0.00     0.225 C 
ATOM     13  O   UNL A   1      33.820  25.651  21.739  1.00  0.00    -0.275 OA
BRANCH  12  14
ATOM     14  C   UNL A   1      34.253  24.865  23.950  1.00  0.00     0.075 C 
ATOM     15  C   UNL A   1      33.828  24.973  25.409  1.00  0.00     0.018 C 
BRANCH  14  16
ATOM     16  C   UNL A   1      34.222  23.423  23.404  1.00  0.00     0.013 C 
BRANCH  16  17
ATOM     17  C   UNL A   1      35.364  22.531  23.908  1.00  0.00    -0.003 C 
ATOM     18  C   UNL A   1      36.706  22.795  23.248  1.00  0.00     0.004 C 
ENDBRANCH  16  17
ENDBRANCH  14  16
ENDBRANCH  12  14
ENDBRANCH   7  12
ENDBRANCH   3   6
ENDBRANCH   1   2
BRANCH   1  19
ATOM     19  C   UNL A   1      31.410  32.149  26.766  1.00  0.00     0.042 C 
BRANCH  19  20
ATOM     20  C   UNL A   1      32.710  32.869  27.121  1.00  0.00     0.118 C 
BRANCH  20  21
ATOM     21  N   UNL A   1      32.484  34.211  27.634  1.00  0.00    -0.352 N 
ATOM     22  C   UNL A   1      33.064  34.858  28.696  1.00  0.00     0.251 C 
ATOM     23  H   UNL A   1      31.812  34.736  27.143  1.00  0.00     0.163 HD
ATOM     24  O   UNL A   1      32.598  35.935  29.074  1.00  0.00    -0.269 OA
BRANCH  22  25
ATOM     25  C   UNL A   1      34.226  34.281  29.408  1.00  0.00     0.039 A 
ATOM     26  C   UNL A   1      33.993  33.471  30.526  1.00  0.00     0.014 A 
ATOM     27  C   UNL A   1      35.539  34.570  29.026  1.00  0.00     0.014 A 
ATOM     28  C   UNL A   1      35.067  32.910  31.223  1.00  0.00     0.010 A 
ATOM     29  C   UNL A   1      36.609  33.961  29.685  1.00  0.00     0.010 A 
ATOM     30  C   UNL A   1      36.385  33.129  30.793  1.00  0.00    -0.014 A 
BRANCH  30  31
ATOM     31  C   UNL A   1      37.535  32.499  31.495  1.00  0.00     0.031 A 
ATOM     32  C   UNL A   1      38.267  31.341  30.874  1.00  0.00     0.074 A 
ATOM     33  C   UNL A   1      37.890  32.936  32.719  1.00  0.00     0.049 A 
ATOM     34  N   UNL A   1      39.253  30.628  31.359  1.00  0.00    -0.248 NA
ATOM     35  C   UNL A   1      37.815  30.913  29.542  1.00  0.00     0.031 C 
ATOM     36  C   UNL A   1      37.237  34.021  33.452  1.00  0.00     0.029 A 
ATOM     37  N   UNL A   1      38.883  32.512  33.569  1.00  0.00    -0.354 N 
ATOM     38  C   UNL A   1      39.526  29.660  30.402  1.00  0.00     0.074 A 
ATOM     39  C   UNL A   1      38.575  29.848  29.327  1.00  0.00     0.031 C 
ATOM     40  C   UNL A   1      37.855  34.189  34.632  1.00  0.00     0.029 A 
ATOM     41  C   UNL A   1      38.927  33.204  34.753  1.00  0.00     0.049 A 
ATOM     42  H   UNL A   1      39.505  31.780  33.348  1.00  0.00     0.167 HD
ATOM     43  C   UNL A   1      40.495  28.712  30.408  1.00  0.00     0.037 A 
ATOM     44  C   UNL A   1      39.736  33.060  35.821  1.00  0.00     0.037 A 
ATOM     45  C   UNL A   1      41.464  28.544  31.460  1.00  0.00     0.049 A 
ATOM     46  C   UNL A   1      40.810  32.007  35.798  1.00  0.00     0.074 A 
ATOM     47  C   UNL A   1      42.524  27.656  31.524  1.00  0.00     0.029 A 
ATOM     48  N   UNL A   1      41.490  29.281  32.634  1.00  0.00    -0.354 N 
ATOM     49  N   UNL A   1      41.100  31.142  34.858  1.00  0.00    -0.248 NA
ATOM     50  C   UNL A   1      41.675  31.918  36.983  1.00  0.00     0.031 C 
ATOM     51  C   UNL A   1      43.169  27.830  32.753  1.00  0.00     0.029 A 
ATOM     52  C   UNL A   1      42.537  28.854  33.437  1.00  0.00     0.049 A 
ATOM     53  H   UNL A   1      40.858  30.000  32.865  1.00  0.00     0.167 HD
ATOM     54  C   UNL A   1      42.192  30.422  35.325  1.00  0.00     0.074 A 
ATOM     55  C   UNL A   1      42.523  30.963  36.627  1.00  0.00     0.031 C 
ATOM     56  C   UNL A   1      42.859  29.406  34.728  1.00  0.00     0.037 A 
BRANCH  43  57
ATOM     57  C   UNL A   1      40.560  27.779  29.235  1.00  0.00     0.064 A 
ATOM     58  C   UNL A   1      39.709  26.667  29.133  1.00  0.00     0.173 A 
ATOM     59  C   UNL A   1      41.453  28.021  28.180  1.00  0.00     0.173 A 
ATOM     60  F   UNL A   1      38.844  26.386  30.119  1.00  0.00    -0.203 F 
ATOM     61  C   UNL A   1      39.771  25.817  28.031  1.00  0.00     0.198 A 
ATOM     62  C   UNL A   1      41.493  27.185  27.068  1.00  0.00     0.198 A 
ATOM     63  F   UNL A   1      42.282  29.074  28.225  1.00  0.00    -0.203 F 
ATOM     64  F   UNL A   1      38.980  24.737  27.976  1.00  0.00    -0.200 F 
ATOM     65  C   UNL A   1      40.656  26.080  26.997  1.00  0.00     0.200 A 
ATOM     66  F   UNL A   1      42.340  27.447  26.063  1.00  0.00    -0.200 F 
ATOM     67  F   UNL A   1      40.708  25.265  25.935  1.00  0.00    -0.200 F 
ENDBRANCH  43  57
BRANCH  44  68
ATOM     68  C   UNL A   1      39.578  33.956  36.994  1.00  0.00     0.064 A 
ATOM     69  C   UNL A   1      38.814  33.561  38.102  1.00  0.00     0.173 A 
ATOM     70  C   UNL A   1      40.183  35.220  37.034  1.00  0.00     0.173 A 
ATOM     71  F   UNL A   1      38.198  32.370  38.099  1.00  0.00    -0.203 F 
ATOM     72  C   UNL A   1      38.647  34.405  39.198  1.00  0.00     0.198 A 
ATOM     73  C   UNL A   1      40.036  36.052  38.142  1.00  0.00     0.198 A 
ATOM     74  F   UNL A   1      40.927  35.641  36.002  1.00  0.00    -0.203 F 
ATOM     75  F   UNL A   1      37.879  34.019  40.226  1.00  0.00    -0.200 F 
ATOM     76  C   UNL A   1      39.262  35.647  39.220  1.00  0.00     0.200 A 
ATOM     77  F   UNL A   1      40.644  37.246  38.165  1.00  0.00    -0.200 F 
ATOM     78  F   UNL A   1      39.107  36.455  40.277  1.00  0.00    -0.200 F 
ENDBRANCH  44  68
BRANCH  56  79
ATOM     79  C   UNL A   1      44.033  28.829  35.462  1.00  0.00     0.064 A 
ATOM     80  C   UNL A   1      45.334  29.318  35.269  1.00  0.00     0.173 A 
ATOM     81  C   UNL A   1      43.850  27.799  36.398  1.00  0.00     0.173 A 
ATOM     82  F   UNL A   1      45.562  30.290  34.374  1.00  0.00    -0.203 F 
ATOM     83  C   UNL A   1      46.411  28.782  35.969  1.00  0.00     0.198 A 
ATOM     84  C   UNL A   1      44.926  27.283  37.115  1.00  0.00     0.198 A 
ATOM     85  F   UNL A   1      42.625  27.301  36.623  1.00  0.00    -0.203 F 
ATOM     86  F   UNL A   1      47.650  29.235  35.737  1.00  0.00    -0.200 F 
ATOM     87  C   UNL A   1      46.205  27.771  36.896  1.00  0.00     0.200 A 
ATOM     88  F   UNL A   1      44.724  26.314  38.018  1.00  0.00    -0.200 F 
ATOM     89  F   UNL A   1      47.242  27.260  37.573  1.00  0.00    -0.200 F 
ENDBRANCH  56  79
ENDBRANCH  30  31
ENDBRANCH  22  25
ENDBRANCH  20  21
ENDBRANCH  19  20
ENDBRANCH   1  19
TORSDOF 14
ENDMDL
MODEL 3
REMARK VINA RESULT:     -11.6      0.277      2.014
REMARK SMILES CCC[C@H](C)C(=O)N1CC[C@H](C(=O)NCCCNC(=O)c2ccc(-c3c4nc(c(-c5c(F)c(F)c(F)c(F)c5F)c5ccc([nH]5)c(-c5c(F)c(F)c(F)c(F)c5F)c5nc(c(-c6c(F)c(F)c(F)c(F)c6F)c6ccc3[nH]6)C=C5)C=C4)cc2)[C@@H]1C
REMARK SMILES IDX 15 1 14 2 12 3 13 4 11 6 8 7 9 8 84 9 10 10 85 11 6 12 7 13
REMARK SMILES IDX 4 14 5 15 3 16 2 17 1 18 16 19 17 20 18 21 19 22 20 24 21 25
REMARK SMILES IDX 22 26 83 27 23 28 82 29 24 30 25 31 26 32 76 33 27 34 81 35
REMARK SMILES IDX 75 36 77 37 28 38 80 39 74 40 73 41 29 43 61 44 41 45 60 46
REMARK SMILES IDX 42 47 45 48 59 49 78 50 43 51 44 52 58 54 79 55 46 56 30 57
REMARK SMILES IDX 31 58 39 59 32 60 33 61 37 62 40 63 34 64 35 65 38 66 36 67
REMARK SMILES IDX 62 68 63 69 71 70 64 71 65 72 69 73 72 74 66 75 67 76 70 77
REMARK SMILES IDX 68 78 47 79 48 80 56 81 49 82 50 83 54 84 57 85 51 86 52 87
REMARK SMILES IDX 55 88 53 89
REMARK H PARENT 14 5 18 23 77 42 45 53
REMARK Flexibility Score: inf
ROOT
ATOM      1  C   UNL A   1      36.682  20.327  24.927  1.00  0.00     0.117 C 
ENDROOT
BRANCH   1   2
ATOM      2  N   UNL A   1      35.436  19.580  25.001  1.00  0.00    -0.356 N 
ATOM      3  C   UNL A   1      34.145  19.977  24.821  1.00  0.00     0.225 C 
ATOM      4  O   UNL A   1      33.269  19.113  24.880  1.00  0.00    -0.275 OA
ATOM      5  H   UNL A   1      35.545  18.627  25.219  1.00  0.00     0.163 HD
BRANCH   3   6
ATOM      6  C   UNL A   1      33.824  21.446  24.595  1.00  0.00     0.102 C 
ATOM      7  N   UNL A   1      32.519  23.070  25.751  1.00  0.00    -0.339 N 
ATOM      8  C   UNL A   1      31.581  22.332  24.928  1.00  0.00     0.120 C 
ATOM      9  C   UNL A   1      33.748  22.289  25.892  1.00  0.00     0.094 C 
ATOM     10  C   UNL A   1      32.465  21.659  23.896  1.00  0.00     0.037 C 
ATOM     11  C   UNL A   1      33.653  21.460  27.180  1.00  0.00     0.032 C 
BRANCH   7  12
ATOM     12  C   UNL A   1      32.092  24.175  26.454  1.00  0.00     0.225 C 
ATOM     13  O   UNL A   1      31.151  24.079  27.251  1.00  0.00    -0.275 OA
BRANCH  12  14
ATOM     14  C   UNL A   1      32.625  25.580  26.126  1.00  0.00     0.075 C 
ATOM     15  C   UNL A   1      33.432  25.742  24.845  1.00  0.00     0.018 C 
BRANCH  14  16
ATOM     16  C   UNL A   1      31.466  26.590  26.255  1.00  0.00     0.013 C 
BRANCH  16  17
ATOM     17  C   UNL A   1      31.870  28.051  26.019  1.00  0.00    -0.003 C 
ATOM     18  C   UNL A   1      31.778  28.935  27.251  1.00  0.00     0.004 C 
ENDBRANCH  16  17
ENDBRANCH  14  16
ENDBRANCH  12  14
ENDBRANCH   7  12
ENDBRANCH   3   6
ENDBRANCH   1   2
BRANCH   1  19
ATOM     19  C   UNL A   1      37.927  19.443  24.980  1.00  0.00     0.042 C 
BRANCH  19  20
ATOM     20  C   UNL A   1      39.103  20.024  25.764  1.00  0.00     0.118 C 
BRANCH  20  21
ATOM     21  N   UNL A   1      40.198  19.078  25.915  1.00  0.00    -0.352 N 
ATOM     22  C   UNL A   1      41.534  19.303  26.126  1.00  0.00     0.251 C 
ATOM     23  H   UNL A   1      39.939  18.129  25.857  1.00  0.00     0.163 HD
ATOM     24  O   UNL A   1      42.325  18.360  26.044  1.00  0.00    -0.269 OA
BRANCH  22  25
ATOM     25  C   UNL A   1      42.049  20.656  26.432  1.00  0.00     0.039 A 
ATOM     26  C   UNL A   1      42.345  21.517  25.369  1.00  0.00     0.014 A 
ATOM     27  C   UNL A   1      42.294  21.069  27.745  1.00  0.00     0.014 A 
ATOM     28  C   UNL A   1      42.834  22.802  25.622  1.00  0.00     0.010 A 
ATOM     29  C   UNL A   1      42.724  22.373  27.999  1.00  0.00     0.010 A 
ATOM     30  C   UNL A   1      43.003  23.251  26.941  1.00  0.00    -0.014 A 
BRANCH  30  31
ATOM     31  C   UNL A   1      43.475  24.633  27.225  1.00  0.00     0.031 A 
ATOM     32  C   UNL A   1      42.528  25.665  27.771  1.00  0.00     0.074 A 
ATOM     33  C   UNL A   1      44.747  24.975  26.943  1.00  0.00     0.049 A 
ATOM     34  N   UNL A   1      42.741  26.932  28.028  1.00  0.00    -0.248 NA
ATOM     35  C   UNL A   1      41.153  25.222  28.044  1.00  0.00     0.031 C 
ATOM     36  C   UNL A   1      45.755  24.083  26.371  1.00  0.00     0.029 A 
ATOM     37  N   UNL A   1      45.407  26.172  27.089  1.00  0.00    -0.354 N 
ATOM     38  C   UNL A   1      41.526  27.438  28.473  1.00  0.00     0.074 A 
ATOM     39  C   UNL A   1      40.570  26.354  28.411  1.00  0.00     0.031 C 
ATOM     40  C   UNL A   1      46.909  24.756  26.230  1.00  0.00     0.029 A 
ATOM     41  C   UNL A   1      46.714  26.134  26.672  1.00  0.00     0.049 A 
ATOM     42  H   UNL A   1      44.982  26.979  27.458  1.00  0.00     0.167 HD
ATOM     43  C   UNL A   1      41.239  28.688  28.912  1.00  0.00     0.037 A 
ATOM     44  C   UNL A   1      47.650  27.102  26.641  1.00  0.00     0.037 A 
ATOM     45  C   UNL A   1      42.196  29.759  29.006  1.00  0.00     0.049 A 
ATOM     46  C   UNL A   1      47.308  28.477  27.144  1.00  0.00     0.074 A 
ATOM     47  C   UNL A   1      42.014  31.039  29.501  1.00  0.00     0.029 A 
ATOM     48  N   UNL A   1      43.518  29.675  28.594  1.00  0.00    -0.354 N 
ATOM     49  N   UNL A   1      46.175  28.924  27.625  1.00  0.00    -0.248 NA
ATOM     50  C   UNL A   1      48.381  29.481  27.108  1.00  0.00     0.031 C 
ATOM     51  C   UNL A   1      43.216  31.741  29.354  1.00  0.00     0.029 A 
ATOM     52  C   UNL A   1      44.157  30.886  28.807  1.00  0.00     0.049 A 
ATOM     53  H   UNL A   1      43.940  28.874  28.207  1.00  0.00     0.167 HD
ATOM     54  C   UNL A   1      46.401  30.250  27.970  1.00  0.00     0.074 A 
ATOM     55  C   UNL A   1      47.787  30.532  27.658  1.00  0.00     0.031 C 
ATOM     56  C   UNL A   1      45.539  31.151  28.498  1.00  0.00     0.037 A 
BRANCH  43  57
ATOM     57  C   UNL A   1      39.826  28.968  29.331  1.00  0.00     0.064 A 
ATOM     58  C   UNL A   1      38.869  29.441  28.420  1.00  0.00     0.173 A 
ATOM     59  C   UNL A   1      39.411  28.720  30.648  1.00  0.00     0.173 A 
ATOM     60  F   UNL A   1      39.218  29.703  27.151  1.00  0.00    -0.203 F 
ATOM     61  C   UNL A   1      37.558  29.683  28.819  1.00  0.00     0.198 A 
ATOM     62  C   UNL A   1      38.091  28.937  31.037  1.00  0.00     0.198 A 
ATOM     63  F   UNL A   1      40.283  28.260  31.557  1.00  0.00    -0.203 F 
ATOM     64  F   UNL A   1      36.673  30.178  27.942  1.00  0.00    -0.200 F 
ATOM     65  C   UNL A   1      37.167  29.424  30.124  1.00  0.00     0.200 A 
ATOM     66  F   UNL A   1      37.713  28.675  32.296  1.00  0.00    -0.200 F 
ATOM     67  F   UNL A   1      35.903  29.651  30.504  1.00  0.00    -0.200 F 
ENDBRANCH  43  57
BRANCH  44  68
ATOM     68  C   UNL A   1      49.013  26.796  26.139  1.00  0.00     0.064 A 
ATOM     69  C   UNL A   1      50.000  26.292  26.999  1.00  0.00     0.173 A 
ATOM     70  C   UNL A   1      49.360  27.000  24.796  1.00  0.00     0.173 A 
ATOM     71  F   UNL A   1      49.721  26.103  28.297  1.00  0.00    -0.203 F 
ATOM     72  C   UNL A   1      51.286  26.021  26.538  1.00  0.00     0.198 A 
ATOM     73  C   UNL A   1      50.639  26.703  24.331  1.00  0.00     0.198 A 
ATOM     74  F   UNL A   1      48.450  27.474  23.933  1.00  0.00    -0.203 F 
ATOM     75  F   UNL A   1      52.221  25.579  27.391  1.00  0.00    -0.200 F 
ATOM     76  C   UNL A   1      51.604  26.221  25.204  1.00  0.00     0.200 A 
ATOM     77  F   UNL A   1      50.938  26.884  23.037  1.00  0.00    -0.200 F 
ATOM     78  F   UNL A   1      52.838  25.954  24.759  1.00  0.00    -0.200 F 
ENDBRANCH  44  68
BRANCH  56  79
ATOM     79  C   UNL A   1      46.074  32.520  28.799  1.00  0.00     0.064 A 
ATOM     80  C   UNL A   1      45.991  33.564  27.866  1.00  0.00     0.173 A 
ATOM     81  C   UNL A   1      46.644  32.800  30.051  1.00  0.00     0.173 A 
ATOM     82  F   UNL A   1      45.470  33.342  26.651  1.00  0.00    -0.203 F 
ATOM     83  C   UNL A   1      46.479  34.832  28.167  1.00  0.00     0.198 A 
ATOM     84  C   UNL A   1      47.108  34.076  30.358  1.00  0.00     0.198 A 
ATOM     85  F   UNL A   1      46.742  31.837  30.980  1.00  0.00    -0.203 F 
ATOM     86  F   UNL A   1      46.429  35.803  27.246  1.00  0.00    -0.200 F 
ATOM     87  C   UNL A   1      47.031  35.089  29.414  1.00  0.00     0.200 A 
ATOM     88  F   UNL A   1      47.630  34.325  31.566  1.00  0.00    -0.200 F 
ATOM     89  F   UNL A   1      47.495  36.312  29.704  1.00  0.00    -0.200 F 
ENDBRANCH  56  79
ENDBRANCH  30  31
ENDBRANCH  22  25
ENDBRANCH  20  21
ENDBRANCH  19  20
ENDBRANCH   1  19
TORSDOF 14
ENDMDL
