MODEL 1
REMARK VINA RESULT:     -13.3      0.000      0.000
REMARK SMILES O=C(NCCCNC(=O)[C@@H]1C=C[C@H](NC(=O)[C@@H]2Cc3ccccc3O2)C1)c1ccc(-c2c3nc(c(-c4c(F)c(F)c(F)c(F)c4F)c4ccc([nH]4)c(-c4c(F)c(F)c(F)c(F)c4F)c4nc(c(-c5c(F)c(F)c(F)c(F)c5F)c5ccc2[nH]5)C=C4)C=C3)cc1
REMARK SMILES IDX 5 1 4 2 3 3 1 4 2 5 27 7 28 8 89 9 29 10 88 11 30 12 31 13
REMARK SMILES IDX 32 14 82 15 33 16 87 17 81 18 83 19 34 20 86 21 80 22 79 23
REMARK SMILES IDX 35 25 67 26 47 27 66 28 48 29 51 30 65 31 84 32 49 33 50 34
REMARK SMILES IDX 64 36 85 37 52 38 36 39 37 40 45 41 38 42 39 43 43 44 46 45
REMARK SMILES IDX 40 46 41 47 44 48 42 49 68 50 69 51 77 52 70 53 71 54 75 55
REMARK SMILES IDX 78 56 72 57 73 58 76 59 74 60 53 61 54 62 62 63 55 64 56 65
REMARK SMILES IDX 60 66 63 67 57 68 58 69 61 70 59 71 6 72 7 73 8 74 9 76
REMARK SMILES IDX 10 77 11 78 26 79 12 80 13 81 14 82 15 83 16 85 17 86 18 87
REMARK SMILES IDX 25 88 19 89 24 90 20 91 23 92 21 93 22 94
REMARK H PARENT 3 6 83 24 51 35 7 75 14 84
REMARK Flexibility Score: inf
ROOT
ATOM      1  C   UNL A   1      31.388  32.439  26.453  1.00  0.00     0.042 C 
ENDROOT
BRANCH   1   2
ATOM      2  C   UNL A   1      32.601  32.942  27.241  1.00  0.00     0.118 C 
BRANCH   2   3
ATOM      3  N   UNL A   1      32.443  34.324  27.661  1.00  0.00    -0.352 N 
ATOM      4  O   UNL A   1      32.594  36.099  29.032  1.00  0.00    -0.269 OA
ATOM      5  C   UNL A   1      33.045  35.001  28.684  1.00  0.00     0.251 C 
ATOM      6  H   UNL A   1      31.807  34.853  27.127  1.00  0.00     0.163 HD
BRANCH   5   7
ATOM      7  C   UNL A   1      34.213  34.442  29.394  1.00  0.00     0.039 A 
ATOM      8  C   UNL A   1      34.065  33.644  30.535  1.00  0.00     0.014 A 
ATOM      9  C   UNL A   1      35.484  34.642  28.846  1.00  0.00     0.014 A 
ATOM     10  C   UNL A   1      35.189  33.119  31.173  1.00  0.00     0.010 A 
ATOM     11  C   UNL A   1      36.603  34.070  29.454  1.00  0.00     0.010 A 
ATOM     12  C   UNL A   1      36.467  33.315  30.629  1.00  0.00    -0.014 A 
BRANCH  12  13
ATOM     13  C   UNL A   1      37.664  32.690  31.248  1.00  0.00     0.031 A 
ATOM     14  C   UNL A   1      38.374  31.561  30.562  1.00  0.00     0.074 A 
ATOM     15  C   UNL A   1      38.070  33.101  32.463  1.00  0.00     0.049 A 
ATOM     16  N   UNL A   1      39.363  30.818  30.995  1.00  0.00    -0.248 NA
ATOM     17  C   UNL A   1      37.901  31.208  29.215  1.00  0.00     0.031 C 
ATOM     18  C   UNL A   1      37.452  34.178  33.237  1.00  0.00     0.029 A 
ATOM     19  N   UNL A   1      39.083  32.647  33.271  1.00  0.00    -0.354 N 
ATOM     20  C   UNL A   1      39.615  29.899  29.986  1.00  0.00     0.074 A 
ATOM     21  C   UNL A   1      38.661  30.161  28.929  1.00  0.00     0.031 C 
ATOM     22  C   UNL A   1      38.093  34.299  34.408  1.00  0.00     0.029 A 
ATOM     23  C   UNL A   1      39.135  33.278  34.488  1.00  0.00     0.049 A 
ATOM     24  H   UNL A   1      39.710  31.937  33.003  1.00  0.00     0.167 HD
ATOM     25  C   UNL A   1      40.561  28.929  29.948  1.00  0.00     0.037 A 
ATOM     26  C   UNL A   1      39.910  33.041  35.564  1.00  0.00     0.037 A 
ATOM     27  C   UNL A   1      41.515  28.682  30.997  1.00  0.00     0.049 A 
ATOM     28  C   UNL A   1      40.936  31.946  35.509  1.00  0.00     0.074 A 
ATOM     29  C   UNL A   1      42.548  27.761  31.025  1.00  0.00     0.029 A 
ATOM     30  N   UNL A   1      41.546  29.354  32.211  1.00  0.00    -0.354 N 
ATOM     31  N   UNL A   1      41.201  31.114  34.531  1.00  0.00    -0.248 NA
ATOM     32  C   UNL A   1      41.771  31.756  36.703  1.00  0.00     0.031 C 
ATOM     33  C   UNL A   1      43.173  27.842  32.274  1.00  0.00     0.029 A 
ATOM     34  C   UNL A   1      42.562  28.847  33.007  1.00  0.00     0.049 A 
ATOM     35  H   UNL A   1      40.936  30.081  32.470  1.00  0.00     0.167 HD
ATOM     36  C   UNL A   1      42.244  30.317  34.981  1.00  0.00     0.074 A 
ATOM     37  C   UNL A   1      42.569  30.767  36.318  1.00  0.00     0.031 C 
ATOM     38  C   UNL A   1      42.879  29.308  34.335  1.00  0.00     0.037 A 
BRANCH  25  39
ATOM     39  C   UNL A   1      40.592  28.044  28.736  1.00  0.00     0.064 A 
ATOM     40  C   UNL A   1      41.349  28.369  27.601  1.00  0.00     0.173 A 
ATOM     41  C   UNL A   1      39.868  26.841  28.719  1.00  0.00     0.173 A 
ATOM     42  F   UNL A   1      42.052  29.512  27.562  1.00  0.00    -0.203 F 
ATOM     43  C   UNL A   1      41.352  27.542  26.480  1.00  0.00     0.198 A 
ATOM     44  C   UNL A   1      39.896  26.002  27.608  1.00  0.00     0.198 A 
ATOM     45  F   UNL A   1      39.134  26.479  29.781  1.00  0.00    -0.203 F 
ATOM     46  F   UNL A   1      42.040  27.899  25.387  1.00  0.00    -0.200 F 
ATOM     47  C   UNL A   1      40.630  26.358  26.486  1.00  0.00     0.200 A 
ATOM     48  F   UNL A   1      39.206  24.854  27.620  1.00  0.00    -0.200 F 
ATOM     49  F   UNL A   1      40.633  25.565  25.407  1.00  0.00    -0.200 F 
ENDBRANCH  25  39
BRANCH  26  50
ATOM     50  C   UNL A   1      39.725  33.869  36.782  1.00  0.00     0.064 A 
ATOM     51  C   UNL A   1      40.344  35.119  36.905  1.00  0.00     0.173 A 
ATOM     52  C   UNL A   1      38.882  33.448  37.821  1.00  0.00     0.173 A 
ATOM     53  F   UNL A   1      41.174  35.553  35.945  1.00  0.00    -0.203 F 
ATOM     54  C   UNL A   1      40.124  35.920  38.024  1.00  0.00     0.198 A 
ATOM     55  C   UNL A   1      38.645  34.261  38.928  1.00  0.00     0.198 A 
ATOM     56  F   UNL A   1      38.264  32.260  37.745  1.00  0.00    -0.203 F 
ATOM     57  F   UNL A   1      40.743  37.104  38.129  1.00  0.00    -0.200 F 
ATOM     58  C   UNL A   1      39.268  35.495  39.029  1.00  0.00     0.200 A 
ATOM     59  F   UNL A   1      37.804  33.852  39.888  1.00  0.00    -0.200 F 
ATOM     60  F   UNL A   1      39.043  36.275  40.095  1.00  0.00    -0.200 F 
ENDBRANCH  26  50
BRANCH  38  61
ATOM     61  C   UNL A   1      44.014  28.636  35.048  1.00  0.00     0.064 A 
ATOM     62  C   UNL A   1      45.321  29.140  34.987  1.00  0.00     0.173 A 
ATOM     63  C   UNL A   1      43.776  27.516  35.859  1.00  0.00     0.173 A 
ATOM     64  F   UNL A   1      45.601  30.199  34.213  1.00  0.00    -0.203 F 
ATOM     65  C   UNL A   1      46.351  28.542  35.710  1.00  0.00     0.198 A 
ATOM     66  C   UNL A   1      44.802  26.935  36.597  1.00  0.00     0.198 A 
ATOM     67  F   UNL A   1      42.541  27.000  35.953  1.00  0.00    -0.203 F 
ATOM     68  F   UNL A   1      47.599  29.023  35.618  1.00  0.00    -0.200 F 
ATOM     69  C   UNL A   1      46.089  27.447  36.521  1.00  0.00     0.200 A 
ATOM     70  F   UNL A   1      44.545  25.885  37.389  1.00  0.00    -0.200 F 
ATOM     71  F   UNL A   1      47.078  26.883  37.228  1.00  0.00    -0.200 F 
ENDBRANCH  38  61
ENDBRANCH  12  13
ENDBRANCH   5   7
ENDBRANCH   2   3
ENDBRANCH   1   2
BRANCH   1  72
ATOM     72  C   UNL A   1      31.180  30.918  26.504  1.00  0.00     0.117 C 
BRANCH  72  73
ATOM     73  N   UNL A   1      31.949  30.223  25.486  1.00  0.00    -0.356 N 
ATOM     74  C   UNL A   1      32.893  29.309  25.870  1.00  0.00     0.227 C 
ATOM     75  H   UNL A   1      31.793  30.408  24.532  1.00  0.00     0.163 HD
ATOM     76  O   UNL A   1      34.072  29.647  25.804  1.00  0.00    -0.274 OA
BRANCH  74  77
ATOM     77  C   UNL A   1      32.413  27.952  26.390  1.00  0.00     0.103 C 
ATOM     78  C   UNL A   1      33.469  26.919  26.137  1.00  0.00    -0.016 C 
ATOM     79  C   UNL A   1      31.198  27.417  25.594  1.00  0.00     0.047 C 
ATOM     80  C   UNL A   1      33.084  25.991  25.254  1.00  0.00    -0.006 C 
ATOM     81  C   UNL A   1      31.668  26.167  24.827  1.00  0.00     0.106 C 
BRANCH  81  82
ATOM     82  N   UNL A   1      31.542  26.074  23.375  1.00  0.00    -0.347 N 
ATOM     83  C   UNL A   1      31.128  26.901  22.365  1.00  0.00     0.261 C 
ATOM     84  H   UNL A   1      31.827  25.195  23.036  1.00  0.00     0.164 HD
ATOM     85  O   UNL A   1      31.319  26.527  21.206  1.00  0.00    -0.271 OA
BRANCH  83  86
ATOM     86  C   UNL A   1      30.412  28.202  22.687  1.00  0.00     0.266 C 
ATOM     87  C   UNL A   1      28.934  27.961  23.014  1.00  0.00     0.095 C 
ATOM     88  O   UNL A   1      30.438  29.268  21.715  1.00  0.00    -0.480 OA
ATOM     89  C   UNL A   1      28.524  29.385  22.993  1.00  0.00    -0.002 A 
ATOM     90  C   UNL A   1      29.422  30.076  22.185  1.00  0.00     0.123 A 
ATOM     91  C   UNL A   1      27.483  30.036  23.628  1.00  0.00     0.008 A 
ATOM     92  C   UNL A   1      29.308  31.430  21.959  1.00  0.00     0.047 A 
ATOM     93  C   UNL A   1      27.367  31.415  23.438  1.00  0.00     0.001 A 
ATOM     94  C   UNL A   1      28.269  32.107  22.606  1.00  0.00     0.004 A 
ENDBRANCH  83  86
ENDBRANCH  81  82
ENDBRANCH  74  77
ENDBRANCH  72  73
ENDBRANCH   1  72
TORSDOF 12
ENDMDL
MODEL 2
REMARK VINA RESULT:     -13.3      1.749      3.491
REMARK SMILES O=C(NCCCNC(=O)[C@@H]1C=C[C@H](NC(=O)[C@@H]2Cc3ccccc3O2)C1)c1ccc(-c2c3nc(c(-c4c(F)c(F)c(F)c(F)c4F)c4ccc([nH]4)c(-c4c(F)c(F)c(F)c(F)c4F)c4nc(c(-c5c(F)c(F)c(F)c(F)c5F)c5ccc2[nH]5)C=C4)C=C3)cc1
REMARK SMILES IDX 5 1 4 2 3 3 1 4 2 5 27 7 28 8 89 9 29 10 88 11 30 12 31 13
REMARK SMILES IDX 32 14 82 15 33 16 87 17 81 18 83 19 34 20 86 21 80 22 79 23
REMARK SMILES IDX 35 25 67 26 47 27 66 28 48 29 51 30 65 31 84 32 49 33 50 34
REMARK SMILES IDX 64 36 85 37 52 38 36 39 37 40 45 41 38 42 39 43 43 44 46 45
REMARK SMILES IDX 40 46 41 47 44 48 42 49 68 50 69 51 77 52 70 53 71 54 75 55
REMARK SMILES IDX 78 56 72 57 73 58 76 59 74 60 53 61 54 62 62 63 55 64 56 65
REMARK SMILES IDX 60 66 63 67 57 68 58 69 61 70 59 71 6 72 7 73 8 74 9 76
REMARK SMILES IDX 10 77 11 78 26 79 12 80 13 81 14 82 15 83 16 85 17 86 18 87
REMARK SMILES IDX 25 88 19 89 24 90 20 91 23 92 21 93 22 94
REMARK H PARENT 3 6 83 24 51 35 7 75 14 84
REMARK Flexibility Score: inf
ROOT
ATOM      1  C   UNL A   1      31.402  32.328  26.688  1.00  0.00     0.042 C 
ENDROOT
BRANCH   1   2
ATOM      2  C   UNL A   1      32.704  32.957  27.195  1.00  0.00     0.118 C 
BRANCH   2   3
ATOM      3  N   UNL A   1      32.504  34.316  27.671  1.00  0.00    -0.352 N 
ATOM      4  O   UNL A   1      32.568  36.027  29.126  1.00  0.00    -0.269 OA
ATOM      5  C   UNL A   1      33.052  34.954  28.746  1.00  0.00     0.251 C 
ATOM      6  H   UNL A   1      31.879  34.858  27.137  1.00  0.00     0.163 HD
BRANCH   5   7
ATOM      7  C   UNL A   1      34.203  34.383  29.476  1.00  0.00     0.039 A 
ATOM      8  C   UNL A   1      34.028  33.585  30.611  1.00  0.00     0.014 A 
ATOM      9  C   UNL A   1      35.485  34.573  28.950  1.00  0.00     0.014 A 
ATOM     10  C   UNL A   1      35.136  33.047  31.267  1.00  0.00     0.010 A 
ATOM     11  C   UNL A   1      36.589  33.990  29.576  1.00  0.00     0.010 A 
ATOM     12  C   UNL A   1      36.425  33.234  30.747  1.00  0.00    -0.014 A 
BRANCH  12  13
ATOM     13  C   UNL A   1      37.605  32.596  31.385  1.00  0.00     0.031 A 
ATOM     14  C   UNL A   1      38.291  31.434  30.730  1.00  0.00     0.074 A 
ATOM     15  C   UNL A   1      38.017  33.028  32.590  1.00  0.00     0.049 A 
ATOM     16  N   UNL A   1      39.260  30.679  31.184  1.00  0.00    -0.248 NA
ATOM     17  C   UNL A   1      37.813  31.059  29.391  1.00  0.00     0.031 C 
ATOM     18  C   UNL A   1      37.423  34.138  33.336  1.00  0.00     0.029 A 
ATOM     19  N   UNL A   1      39.018  32.571  33.413  1.00  0.00    -0.354 N 
ATOM     20  C   UNL A   1      39.494  29.730  30.199  1.00  0.00     0.074 A 
ATOM     21  C   UNL A   1      38.549  29.988  29.133  1.00  0.00     0.031 C 
ATOM     22  C   UNL A   1      38.064  34.273  34.506  1.00  0.00     0.029 A 
ATOM     23  C   UNL A   1      39.081  33.230  34.614  1.00  0.00     0.049 A 
ATOM     24  H   UNL A   1      39.629  31.840  33.164  1.00  0.00     0.167 HD
ATOM     25  C   UNL A   1      40.417  28.738  30.188  1.00  0.00     0.037 A 
ATOM     26  C   UNL A   1      39.847  33.002  35.698  1.00  0.00     0.037 A 
ATOM     27  C   UNL A   1      41.362  28.494  31.246  1.00  0.00     0.049 A 
ATOM     28  C   UNL A   1      40.847  31.882  35.674  1.00  0.00     0.074 A 
ATOM     29  C   UNL A   1      42.373  27.551  31.300  1.00  0.00     0.029 A 
ATOM     30  N   UNL A   1      41.405  29.195  32.443  1.00  0.00    -0.354 N 
ATOM     31  N   UNL A   1      41.095  31.020  34.718  1.00  0.00    -0.248 NA
ATOM     32  C   UNL A   1      41.675  31.702  36.874  1.00  0.00     0.031 C 
ATOM     33  C   UNL A   1      42.996  27.648  32.549  1.00  0.00     0.029 A 
ATOM     34  C   UNL A   1      42.407  28.685  33.254  1.00  0.00     0.049 A 
ATOM     35  H   UNL A   1      40.812  29.943  32.682  1.00  0.00     0.167 HD
ATOM     36  C   UNL A   1      42.119  30.211  35.190  1.00  0.00     0.074 A 
ATOM     37  C   UNL A   1      42.450  30.686  36.517  1.00  0.00     0.031 C 
ATOM     38  C   UNL A   1      42.731  29.171  34.572  1.00  0.00     0.037 A 
BRANCH  25  39
ATOM     39  C   UNL A   1      40.431  27.822  28.999  1.00  0.00     0.064 A 
ATOM     40  C   UNL A   1      41.214  28.091  27.867  1.00  0.00     0.173 A 
ATOM     41  C   UNL A   1      39.663  26.647  29.001  1.00  0.00     0.173 A 
ATOM     42  F   UNL A   1      41.958  29.206  27.809  1.00  0.00    -0.203 F 
ATOM     43  C   UNL A   1      41.200  27.237  26.766  1.00  0.00     0.198 A 
ATOM     44  C   UNL A   1      39.674  25.780  27.911  1.00  0.00     0.198 A 
ATOM     45  F   UNL A   1      38.903  26.338  30.062  1.00  0.00    -0.203 F 
ATOM     46  F   UNL A   1      41.914  27.542  25.674  1.00  0.00    -0.200 F 
ATOM     47  C   UNL A   1      40.435  26.081  26.791  1.00  0.00     0.200 A 
ATOM     48  F   UNL A   1      38.943  24.658  27.942  1.00  0.00    -0.200 F 
ATOM     49  F   UNL A   1      40.422  25.261  25.732  1.00  0.00    -0.200 F 
ENDBRANCH  25  39
BRANCH  26  50
ATOM     50  C   UNL A   1      39.679  33.864  36.895  1.00  0.00     0.064 A 
ATOM     51  C   UNL A   1      40.306  35.114  36.978  1.00  0.00     0.173 A 
ATOM     52  C   UNL A   1      38.843  33.477  37.953  1.00  0.00     0.173 A 
ATOM     53  F   UNL A   1      41.128  35.517  35.999  1.00  0.00    -0.203 F 
ATOM     54  C   UNL A   1      40.101  35.947  38.076  1.00  0.00     0.198 A 
ATOM     55  C   UNL A   1      38.621  34.321  39.039  1.00  0.00     0.198 A 
ATOM     56  F   UNL A   1      38.218  32.291  37.915  1.00  0.00    -0.203 F 
ATOM     57  F   UNL A   1      40.727  37.129  38.142  1.00  0.00    -0.200 F 
ATOM     58  C   UNL A   1      39.252  35.554  39.100  1.00  0.00     0.200 A 
ATOM     59  F   UNL A   1      37.787  33.944  40.018  1.00  0.00    -0.200 F 
ATOM     60  F   UNL A   1      39.041  36.364  40.146  1.00  0.00    -0.200 F 
ENDBRANCH  26  50
BRANCH  38  61
ATOM     61  C   UNL A   1      43.848  28.491  35.305  1.00  0.00     0.064 A 
ATOM     62  C   UNL A   1      43.614  27.399  36.152  1.00  0.00     0.173 A 
ATOM     63  C   UNL A   1      45.177  28.892  35.098  1.00  0.00     0.173 A 
ATOM     64  F   UNL A   1      42.359  26.989  36.393  1.00  0.00    -0.203 F 
ATOM     65  C   UNL A   1      44.671  26.736  36.772  1.00  0.00     0.198 A 
ATOM     66  C   UNL A   1      46.232  28.213  35.701  1.00  0.00     0.198 A 
ATOM     67  F   UNL A   1      45.452  29.928  34.293  1.00  0.00    -0.203 F 
ATOM     68  F   UNL A   1      44.424  25.711  37.599  1.00  0.00    -0.200 F 
ATOM     69  C   UNL A   1      45.978  27.138  36.538  1.00  0.00     0.200 A 
ATOM     70  F   UNL A   1      47.494  28.595  35.465  1.00  0.00    -0.200 F 
ATOM     71  F   UNL A   1      46.994  26.488  37.123  1.00  0.00    -0.200 F 
ENDBRANCH  38  61
ENDBRANCH  12  13
ENDBRANCH   5   7
ENDBRANCH   2   3
ENDBRANCH   1   2
BRANCH   1  72
ATOM     72  C   UNL A   1      31.410  30.793  26.646  1.00  0.00     0.117 C 
BRANCH  72  73
ATOM     73  N   UNL A   1      31.408  30.281  25.286  1.00  0.00    -0.356 N 
ATOM     74  C   UNL A   1      32.300  29.302  24.939  1.00  0.00     0.227 C 
ATOM     75  H   UNL A   1      30.773  30.634  24.622  1.00  0.00     0.163 HD
ATOM     76  O   UNL A   1      33.276  29.632  24.270  1.00  0.00    -0.274 OA
BRANCH  74  77
ATOM     77  C   UNL A   1      32.041  27.880  25.442  1.00  0.00     0.103 C 
ATOM     78  C   UNL A   1      33.349  27.185  25.670  1.00  0.00    -0.016 C 
ATOM     79  C   UNL A   1      31.353  26.997  24.372  1.00  0.00     0.047 C 
ATOM     80  C   UNL A   1      33.543  26.160  24.833  1.00  0.00    -0.006 C 
ATOM     81  C   UNL A   1      32.365  25.912  23.957  1.00  0.00     0.106 C 
BRANCH  81  82
ATOM     82  N   UNL A   1      32.771  25.744  22.565  1.00  0.00    -0.347 N 
ATOM     83  C   UNL A   1      33.162  24.700  21.769  1.00  0.00     0.261 C 
ATOM     84  H   UNL A   1      32.762  26.597  22.073  1.00  0.00     0.164 HD
ATOM     85  O   UNL A   1      33.277  24.915  20.561  1.00  0.00    -0.271 OA
BRANCH  83  86
ATOM     86  C   UNL A   1      33.491  23.351  22.386  1.00  0.00     0.266 C 
ATOM     87  C   UNL A   1      32.238  22.677  22.957  1.00  0.00     0.095 C 
ATOM     88  O   UNL A   1      34.488  23.289  23.427  1.00  0.00    -0.480 OA
ATOM     89  C   UNL A   1      32.946  21.594  23.682  1.00  0.00    -0.002 A 
ATOM     90  C   UNL A   1      34.237  22.039  23.957  1.00  0.00     0.123 A 
ATOM     91  C   UNL A   1      32.528  20.332  24.055  1.00  0.00     0.008 A 
ATOM     92  C   UNL A   1      35.149  21.257  24.630  1.00  0.00     0.047 A 
ATOM     93  C   UNL A   1      33.447  19.510  24.711  1.00  0.00     0.001 A 
ATOM     94  C   UNL A   1      34.747  19.970  25.001  1.00  0.00     0.004 A 
ENDBRANCH  83  86
ENDBRANCH  81  82
ENDBRANCH  74  77
ENDBRANCH  72  73
ENDBRANCH   1  72
TORSDOF 12
ENDMDL
MODEL 3
REMARK VINA RESULT:     -13.3      1.953      3.980
REMARK SMILES O=C(NCCCNC(=O)[C@@H]1C=C[C@H](NC(=O)[C@@H]2Cc3ccccc3O2)C1)c1ccc(-c2c3nc(c(-c4c(F)c(F)c(F)c(F)c4F)c4ccc([nH]4)c(-c4c(F)c(F)c(F)c(F)c4F)c4nc(c(-c5c(F)c(F)c(F)c(F)c5F)c5ccc2[nH]5)C=C4)C=C3)cc1
REMARK SMILES IDX 5 1 4 2 3 3 1 4 2 5 27 7 28 8 89 9 29 10 88 11 30 12 31 13
REMARK SMILES IDX 32 14 82 15 33 16 87 17 81 18 83 19 34 20 86 21 80 22 79 23
REMARK SMILES IDX 35 25 67 26 47 27 66 28 48 29 51 30 65 31 84 32 49 33 50 34
REMARK SMILES IDX 64 36 85 37 52 38 36 39 37 40 45 41 38 42 39 43 43 44 46 45
REMARK SMILES IDX 40 46 41 47 44 48 42 49 68 50 69 51 77 52 70 53 71 54 75 55
REMARK SMILES IDX 78 56 72 57 73 58 76 59 74 60 53 61 54 62 62 63 55 64 56 65
REMARK SMILES IDX 60 66 63 67 57 68 58 69 61 70 59 71 6 72 7 73 8 74 9 76
REMARK SMILES IDX 10 77 11 78 26 79 12 80 13 81 14 82 15 83 16 85 17 86 18 87
REMARK SMILES IDX 25 88 19 89 24 90 20 91 23 92 21 93 22 94
REMARK H PARENT 3 6 83 24 51 35 7 75 14 84
REMARK Flexibility Score: inf
ROOT
ATOM      1  C   UNL A   1      31.226  32.275  26.627  1.00  0.00     0.042 C 
ENDROOT
BRANCH   1   2
ATOM      2  C   UNL A   1      32.514  32.823  27.249  1.00  0.00     0.118 C 
BRANCH   2   3
ATOM      3  N   UNL A   1      32.386  34.222  27.623  1.00  0.00    -0.352 N 
ATOM      4  O   UNL A   1      32.589  36.040  28.929  1.00  0.00    -0.269 OA
ATOM      5  C   UNL A   1      33.016  34.923  28.612  1.00  0.00     0.251 C 
ATOM      6  H   UNL A   1      31.750  34.743  27.082  1.00  0.00     0.163 HD
BRANCH   5   7
ATOM      7  C   UNL A   1      34.186  34.369  29.322  1.00  0.00     0.039 A 
ATOM      8  C   UNL A   1      34.041  33.560  30.455  1.00  0.00     0.014 A 
ATOM      9  C   UNL A   1      35.458  34.587  28.781  1.00  0.00     0.014 A 
ATOM     10  C   UNL A   1      35.168  33.040  31.093  1.00  0.00     0.010 A 
ATOM     11  C   UNL A   1      36.580  34.021  29.388  1.00  0.00     0.010 A 
ATOM     12  C   UNL A   1      36.447  33.254  30.556  1.00  0.00    -0.014 A 
BRANCH  12  13
ATOM     13  C   UNL A   1      37.647  32.634  31.175  1.00  0.00     0.031 A 
ATOM     14  C   UNL A   1      38.359  31.505  30.492  1.00  0.00     0.074 A 
ATOM     15  C   UNL A   1      38.054  33.052  32.387  1.00  0.00     0.049 A 
ATOM     16  N   UNL A   1      39.351  30.767  30.925  1.00  0.00    -0.248 NA
ATOM     17  C   UNL A   1      37.884  31.146  29.147  1.00  0.00     0.031 C 
ATOM     18  C   UNL A   1      37.435  34.130  33.158  1.00  0.00     0.029 A 
ATOM     19  N   UNL A   1      39.071  32.604  33.194  1.00  0.00    -0.354 N 
ATOM     20  C   UNL A   1      39.604  29.845  29.919  1.00  0.00     0.074 A 
ATOM     21  C   UNL A   1      38.646  30.100  28.863  1.00  0.00     0.031 C 
ATOM     22  C   UNL A   1      38.079  34.258  34.328  1.00  0.00     0.029 A 
ATOM     23  C   UNL A   1      39.124  33.240  34.409  1.00  0.00     0.049 A 
ATOM     24  H   UNL A   1      39.700  31.895  32.927  1.00  0.00     0.167 HD
ATOM     25  C   UNL A   1      40.552  28.878  29.882  1.00  0.00     0.037 A 
ATOM     26  C   UNL A   1      39.902  33.010  35.484  1.00  0.00     0.037 A 
ATOM     27  C   UNL A   1      41.510  28.638  30.929  1.00  0.00     0.049 A 
ATOM     28  C   UNL A   1      40.932  31.917  35.430  1.00  0.00     0.074 A 
ATOM     29  C   UNL A   1      42.546  27.721  30.958  1.00  0.00     0.029 A 
ATOM     30  N   UNL A   1      41.542  29.314  32.140  1.00  0.00    -0.354 N 
ATOM     31  N   UNL A   1      41.197  31.082  34.455  1.00  0.00    -0.248 NA
ATOM     32  C   UNL A   1      41.770  31.735  36.623  1.00  0.00     0.031 C 
ATOM     33  C   UNL A   1      43.174  27.808  32.205  1.00  0.00     0.029 A 
ATOM     34  C   UNL A   1      42.561  28.814  32.936  1.00  0.00     0.049 A 
ATOM     35  H   UNL A   1      40.930  30.041  32.399  1.00  0.00     0.167 HD
ATOM     36  C   UNL A   1      42.244  30.291  34.905  1.00  0.00     0.074 A 
ATOM     37  C   UNL A   1      42.570  30.747  36.240  1.00  0.00     0.031 C 
ATOM     38  C   UNL A   1      42.880  29.281  34.262  1.00  0.00     0.037 A 
BRANCH  25  39
ATOM     39  C   UNL A   1      40.584  27.988  28.673  1.00  0.00     0.064 A 
ATOM     40  C   UNL A   1      41.340  28.310  27.537  1.00  0.00     0.173 A 
ATOM     41  C   UNL A   1      39.860  26.785  28.661  1.00  0.00     0.173 A 
ATOM     42  F   UNL A   1      42.041  29.453  27.493  1.00  0.00    -0.203 F 
ATOM     43  C   UNL A   1      41.343  27.478  26.419  1.00  0.00     0.198 A 
ATOM     44  C   UNL A   1      39.889  25.942  27.553  1.00  0.00     0.198 A 
ATOM     45  F   UNL A   1      39.127  26.426  29.725  1.00  0.00    -0.203 F 
ATOM     46  F   UNL A   1      42.029  27.832  25.324  1.00  0.00    -0.200 F 
ATOM     47  C   UNL A   1      40.621  26.294  26.430  1.00  0.00     0.200 A 
ATOM     48  F   UNL A   1      39.200  24.793  27.570  1.00  0.00    -0.200 F 
ATOM     49  F   UNL A   1      40.624  25.496  25.354  1.00  0.00    -0.200 F 
ENDBRANCH  25  39
BRANCH  26  50
ATOM     50  C   UNL A   1      39.718  33.842  36.699  1.00  0.00     0.064 A 
ATOM     51  C   UNL A   1      40.331  35.096  36.814  1.00  0.00     0.173 A 
ATOM     52  C   UNL A   1      38.882  33.421  37.743  1.00  0.00     0.173 A 
ATOM     53  F   UNL A   1      41.154  35.530  35.850  1.00  0.00    -0.203 F 
ATOM     54  C   UNL A   1      40.111  35.900  37.930  1.00  0.00     0.198 A 
ATOM     55  C   UNL A   1      38.644  34.237  38.847  1.00  0.00     0.198 A 
ATOM     56  F   UNL A   1      38.269  32.230  37.675  1.00  0.00    -0.203 F 
ATOM     57  F   UNL A   1      40.724  37.087  38.028  1.00  0.00    -0.200 F 
ATOM     58  C   UNL A   1      39.261  35.475  38.940  1.00  0.00     0.200 A 
ATOM     59  F   UNL A   1      37.809  33.828  39.813  1.00  0.00    -0.200 F 
ATOM     60  F   UNL A   1      39.036  36.258  40.004  1.00  0.00    -0.200 F 
ENDBRANCH  26  50
BRANCH  38  61
ATOM     61  C   UNL A   1      44.019  28.615  34.974  1.00  0.00     0.064 A 
ATOM     62  C   UNL A   1      43.834  27.446  35.726  1.00  0.00     0.173 A 
ATOM     63  C   UNL A   1      45.324  29.114  34.842  1.00  0.00     0.173 A 
ATOM     64  F   UNL A   1      42.602  26.941  35.894  1.00  0.00    -0.203 F 
ATOM     65  C   UNL A   1      44.914  26.804  36.325  1.00  0.00     0.198 A 
ATOM     66  C   UNL A   1      46.405  28.457  35.423  1.00  0.00     0.198 A 
ATOM     67  F   UNL A   1      45.553  30.227  34.129  1.00  0.00    -0.203 F 
ATOM     68  F   UNL A   1      44.712  25.702  37.061  1.00  0.00    -0.200 F 
ATOM     69  C   UNL A   1      46.199  27.304  36.165  1.00  0.00     0.200 A 
ATOM     70  F   UNL A   1      47.645  28.934  35.257  1.00  0.00    -0.200 F 
ATOM     71  F   UNL A   1      47.239  26.674  36.729  1.00  0.00    -0.200 F 
ENDBRANCH  38  61
ENDBRANCH  12  13
ENDBRANCH   5   7
ENDBRANCH   2   3
ENDBRANCH   1   2
BRANCH   1  72
ATOM     72  C   UNL A   1      31.418  31.012  25.774  1.00  0.00     0.117 C 
BRANCH  72  73
ATOM     73  N   UNL A   1      32.291  30.043  26.415  1.00  0.00    -0.356 N 
ATOM     74  C   UNL A   1      31.919  28.726  26.446  1.00  0.00     0.227 C 
ATOM     75  H   UNL A   1      33.141  30.332  26.821  1.00  0.00     0.163 HD
ATOM     76  O   UNL A   1      31.493  28.281  27.509  1.00  0.00    -0.274 OA
BRANCH  74  77
ATOM     77  C   UNL A   1      32.022  27.917  25.151  1.00  0.00     0.103 C 
ATOM     78  C   UNL A   1      30.659  27.446  24.747  1.00  0.00    -0.016 C 
ATOM     79  C   UNL A   1      32.809  26.598  25.347  1.00  0.00     0.047 C 
ATOM     80  C   UNL A   1      30.532  26.116  24.807  1.00  0.00    -0.006 C 
ATOM     81  C   UNL A   1      31.810  25.440  25.163  1.00  0.00     0.106 C 
BRANCH  81  82
ATOM     82  N   UNL A   1      31.603  24.441  26.209  1.00  0.00    -0.347 N 
ATOM     83  C   UNL A   1      32.338  23.429  26.767  1.00  0.00     0.261 C 
ATOM     84  H   UNL A   1      30.710  24.515  26.616  1.00  0.00     0.164 HD
ATOM     85  O   UNL A   1      31.882  22.881  27.772  1.00  0.00    -0.271 OA
BRANCH  83  86
ATOM     86  C   UNL A   1      33.636  22.980  26.118  1.00  0.00     0.266 C 
ATOM     87  C   UNL A   1      33.803  21.458  26.194  1.00  0.00     0.095 C 
ATOM     88  O   UNL A   1      34.878  23.543  26.591  1.00  0.00    -0.480 OA
ATOM     89  C   UNL A   1      35.217  21.423  25.752  1.00  0.00    -0.002 A 
ATOM     90  C   UNL A   1      35.789  22.656  26.052  1.00  0.00     0.123 A 
ATOM     91  C   UNL A   1      35.945  20.427  25.128  1.00  0.00     0.008 A 
ATOM     92  C   UNL A   1      37.107  22.938  25.765  1.00  0.00     0.047 A 
ATOM     93  C   UNL A   1      37.275  20.703  24.800  1.00  0.00     0.001 A 
ATOM     94  C   UNL A   1      37.853  21.947  25.120  1.00  0.00     0.004 A 
ENDBRANCH  83  86
ENDBRANCH  81  82
ENDBRANCH  74  77
ENDBRANCH  72  73
ENDBRANCH   1  72
TORSDOF 12
ENDMDL
