MODEL 1
REMARK VINA RESULT:     -13.6      0.000      0.000
REMARK SMILES C[N@H+]1[C@H]2CC[C@@H]1[C@@H](C(=O)NCCCNC(=O)c1ccc(-c3c4nc(c(-c5c(F)c(F)c(F)c(F)c5F)c5ccc([nH]5)c(-c5c(F)c(F)c(F)c(F)c5F)c5nc(c(-c6c(F)c(F)c(F)c(F)c6F)c6ccc3[nH]6)C=C5)C=C4)cc1)[C@@H](OC(=O)c1ccccc1)C2
REMARK SMILES IDX 11 1 10 2 8 3 9 4 7 6 1 7 2 8 3 9 6 10 4 12 90 13 5 14 80 15
REMARK SMILES IDX 81 16 82 17 83 18 84 19 85 20 89 21 86 22 88 23 87 24 12 25
REMARK SMILES IDX 13 26 14 27 15 28 16 30 17 31 18 32 79 33 19 34 78 35 20 36
REMARK SMILES IDX 21 37 22 38 72 39 23 40 77 41 71 42 73 43 24 44 76 45 70 46
REMARK SMILES IDX 69 47 25 49 57 50 37 51 56 52 38 53 41 54 55 55 74 56 39 57
REMARK SMILES IDX 40 58 54 60 75 61 42 62 26 63 27 64 35 65 28 66 29 67 33 68
REMARK SMILES IDX 36 69 30 70 31 71 34 72 32 73 58 74 59 75 67 76 60 77 61 78
REMARK SMILES IDX 65 79 68 80 62 81 63 82 66 83 64 84 43 85 44 86 52 87 45 88
REMARK SMILES IDX 46 89 50 90 53 91 47 92 48 93 51 94 49 95
REMARK H PARENT 10 5 2 11 14 29 73 48 41 59
REMARK Flexibility Score: inf
ROOT
ATOM      1  C   UNL A   1      31.506  30.628  26.431  1.00  0.00     0.117 C 
ENDROOT
BRANCH   1   2
ATOM      2  N   UNL A   1      32.255  30.034  25.330  1.00  0.00    -0.355 N 
ATOM      3  C   UNL A   1      32.024  28.973  24.506  1.00  0.00     0.232 C 
ATOM      4  O   UNL A   1      32.622  29.022  23.420  1.00  0.00    -0.274 OA
ATOM      5  H   UNL A   1      33.105  30.495  25.144  1.00  0.00     0.163 HD
BRANCH   3   6
ATOM      6  C   UNL A   1      31.170  27.724  24.808  1.00  0.00     0.177 C 
ATOM      7  C   UNL A   1      34.105  25.707  25.444  1.00  0.00     0.333 C 
ATOM      8  N   UNL A   1      32.860  26.077  24.814  1.00  0.00    -0.332 N 
ATOM      9  C   UNL A   1      32.156  25.152  23.929  1.00  0.00     0.188 C 
ATOM     10  C   UNL A   1      31.856  26.657  25.676  1.00  0.00     0.200 C 
ATOM     11  H   UNL A   1      33.304  26.767  24.208  1.00  0.00     0.348 HD
ATOM     12  C   UNL A   1      31.278  24.399  24.909  1.00  0.00     0.071 C 
ATOM     13  C   UNL A   1      31.317  25.998  22.906  1.00  0.00     0.111 C 
ATOM     14  C   UNL A   1      30.970  25.433  26.000  1.00  0.00     0.072 C 
ATOM     15  C   UNL A   1      30.489  27.134  23.563  1.00  0.00     0.201 C 
BRANCH  15  16
ATOM     16  O   UNL A   1      29.918  28.236  22.786  1.00  0.00    -0.457 OA
BRANCH  16  17
ATOM     17  C   UNL A   1      28.652  28.673  22.918  1.00  0.00     0.338 C 
ATOM     18  O   UNL A   1      27.685  27.997  23.245  1.00  0.00    -0.246 OA
BRANCH  17  19
ATOM     19  C   UNL A   1      28.499  30.115  22.564  1.00  0.00     0.060 A 
ATOM     20  C   UNL A   1      28.783  31.061  23.565  1.00  0.00     0.015 A 
ATOM     21  C   UNL A   1      28.141  30.568  21.289  1.00  0.00     0.015 A 
ATOM     22  C   UNL A   1      28.750  32.430  23.292  1.00  0.00     0.001 A 
ATOM     23  C   UNL A   1      28.117  31.944  21.015  1.00  0.00     0.001 A 
ATOM     24  C   UNL A   1      28.430  32.871  22.011  1.00  0.00     0.000 A 
ENDBRANCH  17  19
ENDBRANCH  16  17
ENDBRANCH  15  16
ENDBRANCH   3   6
ENDBRANCH   1   2
BRANCH   1  25
ATOM     25  C   UNL A   1      31.495  32.139  26.529  1.00  0.00     0.042 C 
BRANCH  25  26
ATOM     26  C   UNL A   1      32.623  32.685  27.361  1.00  0.00     0.118 C 
BRANCH  26  27
ATOM     27  N   UNL A   1      32.474  34.126  27.525  1.00  0.00    -0.352 N 
ATOM     28  C   UNL A   1      32.984  34.923  28.526  1.00  0.00     0.251 C 
ATOM     29  H   UNL A   1      31.945  34.586  26.834  1.00  0.00     0.163 HD
ATOM     30  O   UNL A   1      32.466  36.005  28.781  1.00  0.00    -0.269 OA
BRANCH  28  31
ATOM     31  C   UNL A   1      34.154  34.453  29.302  1.00  0.00     0.039 A 
ATOM     32  C   UNL A   1      33.972  33.854  30.550  1.00  0.00     0.014 A 
ATOM     33  C   UNL A   1      35.439  34.606  28.781  1.00  0.00     0.014 A 
ATOM     34  C   UNL A   1      35.075  33.340  31.235  1.00  0.00     0.010 A 
ATOM     35  C   UNL A   1      36.514  33.986  29.399  1.00  0.00     0.010 A 
ATOM     36  C   UNL A   1      36.349  33.360  30.641  1.00  0.00    -0.014 A 
BRANCH  36  37
ATOM     37  C   UNL A   1      37.536  32.749  31.288  1.00  0.00     0.031 A 
ATOM     38  C   UNL A   1      38.234  31.595  30.621  1.00  0.00     0.074 A 
ATOM     39  C   UNL A   1      37.915  33.159  32.514  1.00  0.00     0.049 A 
ATOM     40  N   UNL A   1      39.190  30.827  31.079  1.00  0.00    -0.248 NA
ATOM     41  C   UNL A   1      37.766  31.229  29.274  1.00  0.00     0.031 C 
ATOM     42  C   UNL A   1      37.281  34.233  33.280  1.00  0.00     0.029 A 
ATOM     43  N   UNL A   1      38.912  32.706  33.342  1.00  0.00    -0.354 N 
ATOM     44  C   UNL A   1      39.419  29.881  30.088  1.00  0.00     0.074 A 
ATOM     45  C   UNL A   1      38.463  30.128  29.033  1.00  0.00     0.031 C 
ATOM     46  C   UNL A   1      37.915  34.369  34.456  1.00  0.00     0.029 A 
ATOM     47  C   UNL A   1      38.962  33.358  34.550  1.00  0.00     0.049 A 
ATOM     48  H   UNL A   1      39.531  31.982  33.094  1.00  0.00     0.167 HD
ATOM     49  C   UNL A   1      40.360  28.909  30.052  1.00  0.00     0.037 A 
ATOM     50  C   UNL A   1      39.748  33.145  35.622  1.00  0.00     0.037 A 
ATOM     51  C   UNL A   1      41.326  28.690  31.097  1.00  0.00     0.049 A 
ATOM     52  C   UNL A   1      40.768  32.039  35.569  1.00  0.00     0.074 A 
ATOM     53  C   UNL A   1      42.372  27.787  31.128  1.00  0.00     0.029 A 
ATOM     54  N   UNL A   1      41.353  29.380  32.301  1.00  0.00    -0.354 N 
ATOM     55  N   UNL A   1      41.034  31.206  34.593  1.00  0.00    -0.248 NA
ATOM     56  C   UNL A   1      41.594  31.842  36.768  1.00  0.00     0.031 C 
ATOM     57  C   UNL A   1      42.993  27.885  32.377  1.00  0.00     0.029 A 
ATOM     58  C   UNL A   1      42.373  28.891  33.101  1.00  0.00     0.049 A 
ATOM     59  H   UNL A   1      40.740  30.108  32.550  1.00  0.00     0.167 HD
ATOM     60  C   UNL A   1      42.067  30.398  35.050  1.00  0.00     0.074 A 
ATOM     61  C   UNL A   1      42.396  30.858  36.384  1.00  0.00     0.031 C 
ATOM     62  C   UNL A   1      42.682  29.363  34.427  1.00  0.00     0.037 A 
BRANCH  49  63
ATOM     63  C   UNL A   1      40.393  28.010  28.850  1.00  0.00     0.064 A 
ATOM     64  C   UNL A   1      41.136  28.335  27.704  1.00  0.00     0.173 A 
ATOM     65  C   UNL A   1      39.702  26.789  28.855  1.00  0.00     0.173 A 
ATOM     66  F   UNL A   1      41.807  29.494  27.639  1.00  0.00    -0.203 F 
ATOM     67  C   UNL A   1      41.158  27.487  26.598  1.00  0.00     0.198 A 
ATOM     68  C   UNL A   1      39.755  25.927  27.763  1.00  0.00     0.198 A 
ATOM     69  F   UNL A   1      38.980  26.425  29.926  1.00  0.00    -0.203 F 
ATOM     70  F   UNL A   1      41.829  27.845  25.495  1.00  0.00    -0.200 F 
ATOM     71  C   UNL A   1      40.475  26.281  26.632  1.00  0.00     0.200 A 
ATOM     72  F   UNL A   1      39.107  24.755  27.803  1.00  0.00    -0.200 F 
ATOM     73  F   UNL A   1      40.505  25.463  25.571  1.00  0.00    -0.200 F 
ENDBRANCH  49  63
BRANCH  50  74
ATOM     74  C   UNL A   1      39.599  33.995  36.835  1.00  0.00     0.064 A 
ATOM     75  C   UNL A   1      38.810  33.577  37.914  1.00  0.00     0.173 A 
ATOM     76  C   UNL A   1      40.239  35.239  36.941  1.00  0.00     0.173 A 
ATOM     77  F   UNL A   1      38.160  32.405  37.854  1.00  0.00    -0.203 F 
ATOM     78  C   UNL A   1      38.648  34.377  39.044  1.00  0.00     0.198 A 
ATOM     79  C   UNL A   1      40.104  36.024  38.084  1.00  0.00     0.198 A 
ATOM     80  F   UNL A   1      41.009  35.686  35.938  1.00  0.00    -0.203 F 
ATOM     81  F   UNL A   1      37.848  33.974  40.040  1.00  0.00    -0.200 F 
ATOM     82  C   UNL A   1      39.302  35.598  39.130  1.00  0.00     0.200 A 
ATOM     83  F   UNL A   1      40.751  37.195  38.170  1.00  0.00    -0.200 F 
ATOM     84  F   UNL A   1      39.151  36.365  40.219  1.00  0.00    -0.200 F 
ENDBRANCH  50  74
BRANCH  62  85
ATOM     85  C   UNL A   1      43.779  28.662  35.172  1.00  0.00     0.064 A 
ATOM     86  C   UNL A   1      45.116  29.073  35.066  1.00  0.00     0.173 A 
ATOM     87  C   UNL A   1      43.482  27.612  36.054  1.00  0.00     0.173 A 
ATOM     88  F   UNL A   1      45.454  30.062  34.225  1.00  0.00    -0.203 F 
ATOM     89  C   UNL A   1      46.116  28.447  35.804  1.00  0.00     0.198 A 
ATOM     90  C   UNL A   1      44.480  27.011  36.816  1.00  0.00     0.198 A 
ATOM     91  F   UNL A   1      42.217  27.186  36.199  1.00  0.00    -0.203 F 
ATOM     92  F   UNL A   1      47.392  28.829  35.657  1.00  0.00    -0.200 F 
ATOM     93  C   UNL A   1      45.797  27.426  36.686  1.00  0.00     0.200 A 
ATOM     94  F   UNL A   1      44.166  26.037  37.680  1.00  0.00    -0.200 F 
ATOM     95  F   UNL A   1      46.760  26.837  37.408  1.00  0.00    -0.200 F 
ENDBRANCH  62  85
ENDBRANCH  36  37
ENDBRANCH  28  31
ENDBRANCH  26  27
ENDBRANCH  25  26
ENDBRANCH   1  25
TORSDOF 13
ENDMDL
MODEL 2
REMARK VINA RESULT:     -13.5      0.084      1.123
REMARK SMILES C[N@H+]1[C@H]2CC[C@@H]1[C@@H](C(=O)NCCCNC(=O)c1ccc(-c3c4nc(c(-c5c(F)c(F)c(F)c(F)c5F)c5ccc([nH]5)c(-c5c(F)c(F)c(F)c(F)c5F)c5nc(c(-c6c(F)c(F)c(F)c(F)c6F)c6ccc3[nH]6)C=C5)C=C4)cc1)[C@@H](OC(=O)c1ccccc1)C2
REMARK SMILES IDX 11 1 10 2 8 3 9 4 7 6 1 7 2 8 3 9 6 10 4 12 90 13 5 14 80 15
REMARK SMILES IDX 81 16 82 17 83 18 84 19 85 20 89 21 86 22 88 23 87 24 12 25
REMARK SMILES IDX 13 26 14 27 15 28 16 30 17 31 18 32 79 33 19 34 78 35 20 36
REMARK SMILES IDX 21 37 22 38 72 39 23 40 77 41 71 42 73 43 24 44 76 45 70 46
REMARK SMILES IDX 69 47 25 49 57 50 37 51 56 52 38 53 41 54 55 55 74 56 39 57
REMARK SMILES IDX 40 58 54 60 75 61 42 62 26 63 27 64 35 65 28 66 29 67 33 68
REMARK SMILES IDX 36 69 30 70 31 71 34 72 32 73 58 74 59 75 67 76 60 77 61 78
REMARK SMILES IDX 65 79 68 80 62 81 63 82 66 83 64 84 43 85 44 86 52 87 45 88
REMARK SMILES IDX 46 89 50 90 53 91 47 92 48 93 51 94 49 95
REMARK H PARENT 10 5 2 11 14 29 73 48 41 59
REMARK Flexibility Score: inf
ROOT
ATOM      1  C   UNL A   1      31.516  30.629  26.467  1.00  0.00     0.117 C 
ENDROOT
BRANCH   1   2
ATOM      2  N   UNL A   1      32.199  30.070  25.307  1.00  0.00    -0.355 N 
ATOM      3  C   UNL A   1      31.918  29.034  24.465  1.00  0.00     0.232 C 
ATOM      4  O   UNL A   1      32.452  29.117  23.347  1.00  0.00    -0.274 OA
ATOM      5  H   UNL A   1      33.038  30.536  25.085  1.00  0.00     0.163 HD
BRANCH   3   6
ATOM      6  C   UNL A   1      31.082  27.777  24.777  1.00  0.00     0.177 C 
ATOM      7  C   UNL A   1      34.042  25.816  25.470  1.00  0.00     0.333 C 
ATOM      8  N   UNL A   1      32.796  26.157  24.823  1.00  0.00    -0.332 N 
ATOM      9  C   UNL A   1      32.115  25.208  23.945  1.00  0.00     0.188 C 
ATOM     10  C   UNL A   1      31.775  26.733  25.667  1.00  0.00     0.200 C 
ATOM     11  H   UNL A   1      33.236  26.845  24.211  1.00  0.00     0.348 HD
ATOM     12  C   UNL A   1      31.240  24.457  24.928  1.00  0.00     0.071 C 
ATOM     13  C   UNL A   1      31.273  26.026  22.902  1.00  0.00     0.111 C 
ATOM     14  C   UNL A   1      30.906  25.501  26.001  1.00  0.00     0.072 C 
ATOM     15  C   UNL A   1      30.422  27.158  23.535  1.00  0.00     0.201 C 
BRANCH  15  16
ATOM     16  O   UNL A   1      29.840  28.239  22.737  1.00  0.00    -0.457 OA
BRANCH  16  17
ATOM     17  C   UNL A   1      28.593  28.715  22.908  1.00  0.00     0.338 C 
ATOM     18  O   UNL A   1      27.612  28.064  23.240  1.00  0.00    -0.246 OA
BRANCH  17  19
ATOM     19  C   UNL A   1      28.482  30.171  22.595  1.00  0.00     0.060 A 
ATOM     20  C   UNL A   1      28.852  31.080  23.601  1.00  0.00     0.015 A 
ATOM     21  C   UNL A   1      28.082  30.668  21.348  1.00  0.00     0.015 A 
ATOM     22  C   UNL A   1      28.861  32.456  23.361  1.00  0.00     0.001 A 
ATOM     23  C   UNL A   1      28.101  32.050  21.107  1.00  0.00     0.001 A 
ATOM     24  C   UNL A   1      28.499  32.940  22.107  1.00  0.00     0.000 A 
ENDBRANCH  17  19
ENDBRANCH  16  17
ENDBRANCH  15  16
ENDBRANCH   3   6
ENDBRANCH   1   2
BRANCH   1  25
ATOM     25  C   UNL A   1      31.476  32.138  26.589  1.00  0.00     0.042 C 
BRANCH  25  26
ATOM     26  C   UNL A   1      32.650  32.701  27.343  1.00  0.00     0.118 C 
BRANCH  26  27
ATOM     27  N   UNL A   1      32.493  34.140  27.515  1.00  0.00    -0.352 N 
ATOM     28  C   UNL A   1      32.990  34.933  28.525  1.00  0.00     0.251 C 
ATOM     29  H   UNL A   1      31.966  34.602  26.822  1.00  0.00     0.163 HD
ATOM     30  O   UNL A   1      32.464  36.011  28.782  1.00  0.00    -0.269 OA
BRANCH  28  31
ATOM     31  C   UNL A   1      34.155  34.464  29.308  1.00  0.00     0.039 A 
ATOM     32  C   UNL A   1      33.965  33.858  30.551  1.00  0.00     0.014 A 
ATOM     33  C   UNL A   1      35.444  34.625  28.799  1.00  0.00     0.014 A 
ATOM     34  C   UNL A   1      35.065  33.345  31.243  1.00  0.00     0.010 A 
ATOM     35  C   UNL A   1      36.516  34.006  29.422  1.00  0.00     0.010 A 
ATOM     36  C   UNL A   1      36.343  33.373  30.659  1.00  0.00    -0.014 A 
BRANCH  36  37
ATOM     37  C   UNL A   1      37.528  32.764  31.313  1.00  0.00     0.031 A 
ATOM     38  C   UNL A   1      38.234  31.613  30.648  1.00  0.00     0.074 A 
ATOM     39  C   UNL A   1      37.897  33.172  32.542  1.00  0.00     0.049 A 
ATOM     40  N   UNL A   1      39.188  30.847  31.110  1.00  0.00    -0.248 NA
ATOM     41  C   UNL A   1      37.776  31.249  29.296  1.00  0.00     0.031 C 
ATOM     42  C   UNL A   1      37.255  34.242  33.306  1.00  0.00     0.029 A 
ATOM     43  N   UNL A   1      38.890  32.719  33.376  1.00  0.00    -0.354 N 
ATOM     44  C   UNL A   1      39.427  29.903  30.118  1.00  0.00     0.074 A 
ATOM     45  C   UNL A   1      38.476  30.151  29.058  1.00  0.00     0.031 C 
ATOM     46  C   UNL A   1      37.881  34.377  34.487  1.00  0.00     0.029 A 
ATOM     47  C   UNL A   1      38.930  33.368  34.586  1.00  0.00     0.049 A 
ATOM     48  H   UNL A   1      39.513  31.997  33.130  1.00  0.00     0.167 HD
ATOM     49  C   UNL A   1      40.370  28.935  30.086  1.00  0.00     0.037 A 
ATOM     50  C   UNL A   1      39.710  33.155  35.663  1.00  0.00     0.037 A 
ATOM     51  C   UNL A   1      41.329  28.716  31.137  1.00  0.00     0.049 A 
ATOM     52  C   UNL A   1      40.733  32.052  35.613  1.00  0.00     0.074 A 
ATOM     53  C   UNL A   1      42.378  27.815  31.173  1.00  0.00     0.029 A 
ATOM     54  N   UNL A   1      41.347  29.402  32.343  1.00  0.00    -0.354 N 
ATOM     55  N   UNL A   1      41.008  31.222  34.637  1.00  0.00    -0.248 NA
ATOM     56  C   UNL A   1      41.552  31.854  36.817  1.00  0.00     0.031 C 
ATOM     57  C   UNL A   1      42.990  27.911  32.426  1.00  0.00     0.029 A 
ATOM     58  C   UNL A   1      42.362  28.914  33.149  1.00  0.00     0.049 A 
ATOM     59  H   UNL A   1      40.730  30.128  32.589  1.00  0.00     0.167 HD
ATOM     60  C   UNL A   1      42.039  30.416  35.100  1.00  0.00     0.074 A 
ATOM     61  C   UNL A   1      42.358  30.873  36.436  1.00  0.00     0.031 C 
ATOM     62  C   UNL A   1      42.662  29.384  34.478  1.00  0.00     0.037 A 
BRANCH  49  63
ATOM     63  C   UNL A   1      40.414  28.039  28.882  1.00  0.00     0.064 A 
ATOM     64  C   UNL A   1      39.701  26.830  28.833  1.00  0.00     0.173 A 
ATOM     65  C   UNL A   1      41.148  28.409  27.745  1.00  0.00     0.173 A 
ATOM     66  F   UNL A   1      38.990  26.422  29.895  1.00  0.00    -0.203 F 
ATOM     67  C   UNL A   1      39.749  26.013  27.706  1.00  0.00     0.198 A 
ATOM     68  C   UNL A   1      41.166  27.607  26.607  1.00  0.00     0.198 A 
ATOM     69  F   UNL A   1      41.844  29.556  27.734  1.00  0.00    -0.203 F 
ATOM     70  F   UNL A   1      39.105  24.837  27.706  1.00  0.00    -0.200 F 
ATOM     71  C   UNL A   1      40.475  26.406  26.592  1.00  0.00     0.200 A 
ATOM     72  F   UNL A   1      41.855  27.996  25.525  1.00  0.00    -0.200 F 
ATOM     73  F   UNL A   1      40.513  25.622  25.505  1.00  0.00    -0.200 F 
ENDBRANCH  49  63
BRANCH  50  74
ATOM     74  C   UNL A   1      39.551  34.001  36.876  1.00  0.00     0.064 A 
ATOM     75  C   UNL A   1      38.767  33.572  37.956  1.00  0.00     0.173 A 
ATOM     76  C   UNL A   1      40.173  35.254  36.983  1.00  0.00     0.173 A 
ATOM     77  F   UNL A   1      38.133  32.391  37.895  1.00  0.00    -0.203 F 
ATOM     78  C   UNL A   1      38.596  34.369  39.086  1.00  0.00     0.198 A 
ATOM     79  C   UNL A   1      40.030  36.036  38.127  1.00  0.00     0.198 A 
ATOM     80  F   UNL A   1      40.937  35.712  35.981  1.00  0.00    -0.203 F 
ATOM     81  F   UNL A   1      37.802  33.954  40.082  1.00  0.00    -0.200 F 
ATOM     82  C   UNL A   1      39.233  35.598  39.174  1.00  0.00     0.200 A 
ATOM     83  F   UNL A   1      40.661  37.214  38.214  1.00  0.00    -0.200 F 
ATOM     84  F   UNL A   1      39.074  36.361  40.263  1.00  0.00    -0.200 F 
ENDBRANCH  50  74
BRANCH  62  85
ATOM     85  C   UNL A   1      43.755  28.684  35.229  1.00  0.00     0.064 A 
ATOM     86  C   UNL A   1      45.086  29.122  35.164  1.00  0.00     0.173 A 
ATOM     87  C   UNL A   1      43.459  27.604  36.075  1.00  0.00     0.173 A 
ATOM     88  F   UNL A   1      45.423  30.140  34.358  1.00  0.00    -0.203 F 
ATOM     89  C   UNL A   1      46.082  28.496  35.907  1.00  0.00     0.198 A 
ATOM     90  C   UNL A   1      44.452  27.002  36.843  1.00  0.00     0.198 A 
ATOM     91  F   UNL A   1      42.201  27.151  36.180  1.00  0.00    -0.203 F 
ATOM     92  F   UNL A   1      47.353  28.906  35.799  1.00  0.00    -0.200 F 
ATOM     93  C   UNL A   1      45.763  27.445  36.754  1.00  0.00     0.200 A 
ATOM     94  F   UNL A   1      44.139  25.999  37.673  1.00  0.00    -0.200 F 
ATOM     95  F   UNL A   1      46.721  26.855  37.482  1.00  0.00    -0.200 F 
ENDBRANCH  62  85
ENDBRANCH  36  37
ENDBRANCH  28  31
ENDBRANCH  26  27
ENDBRANCH  25  26
ENDBRANCH   1  25
TORSDOF 13
ENDMDL
MODEL 3
REMARK VINA RESULT:     -13.3      6.271     11.824
REMARK SMILES C[N@H+]1[C@H]2CC[C@@H]1[C@@H](C(=O)NCCCNC(=O)c1ccc(-c3c4nc(c(-c5c(F)c(F)c(F)c(F)c5F)c5ccc([nH]5)c(-c5c(F)c(F)c(F)c(F)c5F)c5nc(c(-c6c(F)c(F)c(F)c(F)c6F)c6ccc3[nH]6)C=C5)C=C4)cc1)[C@@H](OC(=O)c1ccccc1)C2
REMARK SMILES IDX 11 1 10 2 8 3 9 4 7 6 1 7 2 8 3 9 6 10 4 12 90 13 5 14 80 15
REMARK SMILES IDX 81 16 82 17 83 18 84 19 85 20 89 21 86 22 88 23 87 24 12 25
REMARK SMILES IDX 13 26 14 27 15 28 16 30 17 31 18 32 79 33 19 34 78 35 20 36
REMARK SMILES IDX 21 37 22 38 72 39 23 40 77 41 71 42 73 43 24 44 76 45 70 46
REMARK SMILES IDX 69 47 25 49 57 50 37 51 56 52 38 53 41 54 55 55 74 56 39 57
REMARK SMILES IDX 40 58 54 60 75 61 42 62 26 63 27 64 35 65 28 66 29 67 33 68
REMARK SMILES IDX 36 69 30 70 31 71 34 72 32 73 58 74 59 75 67 76 60 77 61 78
REMARK SMILES IDX 65 79 68 80 62 81 63 82 66 83 64 84 43 85 44 86 52 87 45 88
REMARK SMILES IDX 46 89 50 90 53 91 47 92 48 93 51 94 49 95
REMARK H PARENT 10 5 2 11 14 29 73 48 41 59
REMARK Flexibility Score: inf
ROOT
ATOM      1  C   UNL A   1      37.135  20.754  24.560  1.00  0.00     0.117 C 
ENDROOT
BRANCH   1   2
ATOM      2  N   UNL A   1      36.636  21.798  25.448  1.00  0.00    -0.355 N 
ATOM      3  C   UNL A   1      35.493  22.541  25.467  1.00  0.00     0.232 C 
ATOM      4  O   UNL A   1      35.192  22.998  26.582  1.00  0.00    -0.274 OA
ATOM      5  H   UNL A   1      37.253  22.011  26.185  1.00  0.00     0.163 HD
BRANCH   3   6
ATOM      6  C   UNL A   1      34.600  22.915  24.267  1.00  0.00     0.177 C 
ATOM      7  C   UNL A   1      33.700  26.089  25.751  1.00  0.00     0.333 C 
ATOM      8  N   UNL A   1      33.480  24.786  25.167  1.00  0.00    -0.332 N 
ATOM      9  C   UNL A   1      32.141  24.344  24.786  1.00  0.00     0.188 C 
ATOM     10  C   UNL A   1      34.354  24.420  24.076  1.00  0.00     0.200 C 
ATOM     11  H   UNL A   1      33.706  24.296  26.033  1.00  0.00     0.348 HD
ATOM     12  C   UNL A   1      32.047  24.848  23.359  1.00  0.00     0.071 C 
ATOM     13  C   UNL A   1      32.102  22.777  24.868  1.00  0.00     0.111 C 
ATOM     14  C   UNL A   1      33.491  24.774  22.845  1.00  0.00     0.072 C 
ATOM     15  C   UNL A   1      33.309  22.084  24.183  1.00  0.00     0.201 C 
BRANCH  15  16
ATOM     16  O   UNL A   1      33.650  20.681  24.429  1.00  0.00    -0.457 OA
BRANCH  16  17
ATOM     17  C   UNL A   1      33.019  19.641  23.853  1.00  0.00     0.338 C 
ATOM     18  O   UNL A   1      32.153  19.709  22.992  1.00  0.00    -0.246 OA
BRANCH  17  19
ATOM     19  C   UNL A   1      33.445  18.325  24.414  1.00  0.00     0.060 A 
ATOM     20  C   UNL A   1      32.476  17.569  25.099  1.00  0.00     0.015 A 
ATOM     21  C   UNL A   1      34.728  17.789  24.251  1.00  0.00     0.015 A 
ATOM     22  C   UNL A   1      32.767  16.290  25.577  1.00  0.00     0.001 A 
ATOM     23  C   UNL A   1      35.015  16.500  24.725  1.00  0.00     0.001 A 
ATOM     24  C   UNL A   1      34.034  15.750  25.377  1.00  0.00     0.000 A 
ENDBRANCH  17  19
ENDBRANCH  16  17
ENDBRANCH  15  16
ENDBRANCH   3   6
ENDBRANCH   1   2
BRANCH   1  25
ATOM     25  C   UNL A   1      38.015  19.685  25.172  1.00  0.00     0.042 C 
BRANCH  25  26
ATOM     26  C   UNL A   1      39.260  20.239  25.811  1.00  0.00     0.118 C 
BRANCH  26  27
ATOM     27  N   UNL A   1      40.214  19.167  26.065  1.00  0.00    -0.352 N 
ATOM     28  C   UNL A   1      41.587  19.250  26.127  1.00  0.00     0.251 C 
ATOM     29  H   UNL A   1      39.828  18.272  26.211  1.00  0.00     0.163 HD
ATOM     30  O   UNL A   1      42.278  18.254  25.936  1.00  0.00    -0.269 OA
BRANCH  28  31
ATOM     31  C   UNL A   1      42.222  20.556  26.410  1.00  0.00     0.039 A 
ATOM     32  C   UNL A   1      42.708  21.341  25.362  1.00  0.00     0.014 A 
ATOM     33  C   UNL A   1      42.330  21.005  27.727  1.00  0.00     0.014 A 
ATOM     34  C   UNL A   1      43.229  22.609  25.634  1.00  0.00     0.010 A 
ATOM     35  C   UNL A   1      42.729  22.307  27.983  1.00  0.00     0.010 A 
ATOM     36  C   UNL A   1      43.199  23.119  26.943  1.00  0.00    -0.014 A 
BRANCH  36  37
ATOM     37  C   UNL A   1      43.659  24.492  27.271  1.00  0.00     0.031 A 
ATOM     38  C   UNL A   1      42.664  25.514  27.749  1.00  0.00     0.074 A 
ATOM     39  C   UNL A   1      44.938  24.841  27.037  1.00  0.00     0.049 A 
ATOM     40  N   UNL A   1      42.825  26.797  27.948  1.00  0.00    -0.248 NA
ATOM     41  C   UNL A   1      41.293  25.037  27.997  1.00  0.00     0.031 C 
ATOM     42  C   UNL A   1      45.979  23.949  26.524  1.00  0.00     0.029 A 
ATOM     43  N   UNL A   1      45.577  26.049  27.178  1.00  0.00    -0.354 N 
ATOM     44  C   UNL A   1      41.577  27.280  28.322  1.00  0.00     0.074 A 
ATOM     45  C   UNL A   1      40.655  26.168  28.260  1.00  0.00     0.031 C 
ATOM     46  C   UNL A   1      47.130  24.633  26.413  1.00  0.00     0.029 A 
ATOM     47  C   UNL A   1      46.895  26.022  26.792  1.00  0.00     0.049 A 
ATOM     48  H   UNL A   1      45.132  26.857  27.522  1.00  0.00     0.167 HD
ATOM     49  C   UNL A   1      41.237  28.531  28.705  1.00  0.00     0.037 A 
ATOM     50  C   UNL A   1      47.804  27.014  26.726  1.00  0.00     0.037 A 
ATOM     51  C   UNL A   1      42.169  29.624  28.788  1.00  0.00     0.049 A 
ATOM     52  C   UNL A   1      47.393  28.404  27.131  1.00  0.00     0.074 A 
ATOM     53  C   UNL A   1      41.949  30.913  29.240  1.00  0.00     0.029 A 
ATOM     54  N   UNL A   1      43.500  29.555  28.400  1.00  0.00    -0.354 N 
ATOM     55  N   UNL A   1      46.232  28.831  27.565  1.00  0.00    -0.248 NA
ATOM     56  C   UNL A   1      48.419  29.452  27.033  1.00  0.00     0.031 C 
ATOM     57  C   UNL A   1      43.130  31.642  29.065  1.00  0.00     0.029 A 
ATOM     58  C   UNL A   1      44.103  30.792  28.561  1.00  0.00     0.049 A 
ATOM     59  H   UNL A   1      43.949  28.748  28.062  1.00  0.00     0.167 HD
ATOM     60  C   UNL A   1      46.391  30.188  27.808  1.00  0.00     0.074 A 
ATOM     61  C   UNL A   1      47.768  30.510  27.496  1.00  0.00     0.031 C 
ATOM     62  C   UNL A   1      45.476  31.090  28.243  1.00  0.00     0.037 A 
BRANCH  49  63
ATOM     63  C   UNL A   1      39.801  28.789  29.062  1.00  0.00     0.064 A 
ATOM     64  C   UNL A   1      39.325  28.629  30.373  1.00  0.00     0.173 A 
ATOM     65  C   UNL A   1      38.895  29.239  28.089  1.00  0.00     0.173 A 
ATOM     66  F   UNL A   1      40.144  28.192  31.341  1.00  0.00    -0.203 F 
ATOM     67  C   UNL A   1      37.990  28.876  30.688  1.00  0.00     0.198 A 
ATOM     68  C   UNL A   1      37.571  29.519  28.415  1.00  0.00     0.198 A 
ATOM     69  F   UNL A   1      39.297  29.415  26.822  1.00  0.00    -0.203 F 
ATOM     70  F   UNL A   1      37.547  28.661  31.934  1.00  0.00    -0.200 F 
ATOM     71  C   UNL A   1      37.117  29.328  29.710  1.00  0.00     0.200 A 
ATOM     72  F   UNL A   1      36.732  29.971  27.472  1.00  0.00    -0.200 F 
ATOM     73  F   UNL A   1      35.836  29.574  30.017  1.00  0.00    -0.200 F 
ENDBRANCH  49  63
BRANCH  50  74
ATOM     74  C   UNL A   1      49.186  26.726  26.258  1.00  0.00     0.064 A 
ATOM     75  C   UNL A   1      49.537  26.882  24.910  1.00  0.00     0.173 A 
ATOM     76  C   UNL A   1      50.184  26.290  27.142  1.00  0.00     0.173 A 
ATOM     77  F   UNL A   1      48.614  27.276  24.020  1.00  0.00    -0.203 F 
ATOM     78  C   UNL A   1      50.824  26.594  24.461  1.00  0.00     0.198 A 
ATOM     79  C   UNL A   1      51.480  26.034  26.699  1.00  0.00     0.198 A 
ATOM     80  F   UNL A   1      49.904  26.127  28.444  1.00  0.00    -0.203 F 
ATOM     81  F   UNL A   1      51.118  26.705  23.158  1.00  0.00    -0.200 F 
ATOM     82  C   UNL A   1      51.797  26.177  25.357  1.00  0.00     0.200 A 
ATOM     83  F   UNL A   1      52.420  25.648  27.572  1.00  0.00    -0.200 F 
ATOM     84  F   UNL A   1      53.036  25.905  24.926  1.00  0.00    -0.200 F 
ENDBRANCH  50  74
BRANCH  62  85
ATOM     85  C   UNL A   1      45.934  32.509  28.415  1.00  0.00     0.064 A 
ATOM     86  C   UNL A   1      46.516  32.950  29.612  1.00  0.00     0.173 A 
ATOM     87  C   UNL A   1      45.852  33.418  27.350  1.00  0.00     0.173 A 
ATOM     88  F   UNL A   1      46.603  32.124  30.665  1.00  0.00    -0.203 F 
ATOM     89  C   UNL A   1      46.984  34.254  29.741  1.00  0.00     0.198 A 
ATOM     90  C   UNL A   1      46.352  34.711  27.471  1.00  0.00     0.198 A 
ATOM     91  F   UNL A   1      45.311  33.044  26.180  1.00  0.00    -0.203 F 
ATOM     92  F   UNL A   1      47.500  34.667  30.907  1.00  0.00    -0.200 F 
ATOM     93  C   UNL A   1      46.913  35.130  28.668  1.00  0.00     0.200 A 
ATOM     94  F   UNL A   1      46.298  35.549  26.427  1.00  0.00    -0.200 F 
ATOM     95  F   UNL A   1      47.380  36.380  28.789  1.00  0.00    -0.200 F 
ENDBRANCH  62  85
ENDBRANCH  36  37
ENDBRANCH  28  31
ENDBRANCH  26  27
ENDBRANCH  25  26
ENDBRANCH   1  25
TORSDOF 13
ENDMDL
