MODEL 1
REMARK VINA RESULT:     -12.7      0.000      0.000
REMARK SMILES O=C(NCCCNC(=O)[C@@H]1c2ccccc2C(=O)N(C2CCCC2)C12CCCCC2)c1ccc(-c2c3nc(c(-c4c(F)c(F)c(F)c(F)c4F)c4ccc([nH]4)c(-c4c(F)c(F)c(F)c(F)c4F)c4nc(c(-c5c(F)c(F)c(F)c(F)c5F)c5ccc2[nH]5)C=C4)C=C3)cc1
REMARK SMILES IDX 4 1 3 2 1 3 2 4 31 6 32 7 93 8 33 9 92 10 34 11 35 12 36 13
REMARK SMILES IDX 86 14 37 15 91 16 85 17 87 18 38 19 90 20 84 21 83 22 39 24
REMARK SMILES IDX 71 25 51 26 70 27 52 28 55 29 69 30 88 31 53 32 54 33 68 35
REMARK SMILES IDX 89 36 56 37 40 38 41 39 49 40 42 41 43 42 47 43 50 44 44 45
REMARK SMILES IDX 45 46 48 47 46 48 72 49 73 50 81 51 74 52 75 53 79 54 82 55
REMARK SMILES IDX 76 56 77 57 80 58 78 59 57 60 58 61 66 62 59 63 60 64 64 65
REMARK SMILES IDX 67 66 61 67 62 68 65 69 63 70 5 71 6 72 7 73 8 74 9 76 10 77
REMARK SMILES IDX 11 78 25 79 12 80 16 81 19 82 26 83 30 84 13 85 15 86 17 87
REMARK SMILES IDX 27 88 29 89 14 90 18 91 28 92 20 93 21 94 24 95 22 96 23 97
REMARK H PARENT 3 5 87 23 55 34 7 75
REMARK Flexibility Score: inf
ROOT
ATOM      1  C   UNL A   1      39.322  20.529  26.507  1.00  0.00     0.118 C 
ENDROOT
BRANCH   1   2
ATOM      2  N   UNL A   1      40.268  19.490  26.128  1.00  0.00    -0.352 N 
ATOM      3  O   UNL A   1      42.223  18.435  25.751  1.00  0.00    -0.269 OA
ATOM      4  C   UNL A   1      41.644  19.462  26.081  1.00  0.00     0.251 C 
ATOM      5  H   UNL A   1      39.843  18.646  25.852  1.00  0.00     0.163 HD
BRANCH   4   6
ATOM      6  C   UNL A   1      42.417  20.694  26.333  1.00  0.00     0.039 A 
ATOM      7  C   UNL A   1      42.826  21.463  25.241  1.00  0.00     0.014 A 
ATOM      8  C   UNL A   1      42.663  21.138  27.626  1.00  0.00     0.014 A 
ATOM      9  C   UNL A   1      43.361  22.734  25.457  1.00  0.00     0.010 A 
ATOM     10  C   UNL A   1      43.022  22.460  27.833  1.00  0.00     0.010 A 
ATOM     11  C   UNL A   1      43.393  23.272  26.752  1.00  0.00    -0.014 A 
BRANCH  11  12
ATOM     12  C   UNL A   1      43.853  24.658  27.017  1.00  0.00     0.031 A 
ATOM     13  C   UNL A   1      42.875  25.669  27.558  1.00  0.00     0.074 A 
ATOM     14  C   UNL A   1      45.110  25.027  26.699  1.00  0.00     0.049 A 
ATOM     15  N   UNL A   1      43.022  26.959  27.720  1.00  0.00    -0.248 NA
ATOM     16  C   UNL A   1      41.530  25.178  27.906  1.00  0.00     0.031 C 
ATOM     17  C   UNL A   1      46.125  24.159  26.095  1.00  0.00     0.029 A 
ATOM     18  N   UNL A   1      45.754  26.231  26.844  1.00  0.00    -0.354 N 
ATOM     19  C   UNL A   1      41.781  27.427  28.132  1.00  0.00     0.074 A 
ATOM     20  C   UNL A   1      40.872  26.305  28.122  1.00  0.00     0.031 C 
ATOM     21  C   UNL A   1      47.278  24.839  25.983  1.00  0.00     0.029 A 
ATOM     22  C   UNL A   1      47.075  26.201  26.463  1.00  0.00     0.049 A 
ATOM     23  H   UNL A   1      45.311  27.040  27.188  1.00  0.00     0.167 HD
ATOM     24  C   UNL A   1      41.441  28.671  28.538  1.00  0.00     0.037 A 
ATOM     25  C   UNL A   1      48.014  27.164  26.513  1.00  0.00     0.037 A 
ATOM     26  C   UNL A   1      42.381  29.749  28.657  1.00  0.00     0.049 A 
ATOM     27  C   UNL A   1      47.634  28.519  27.047  1.00  0.00     0.074 A 
ATOM     28  C   UNL A   1      42.169  31.025  29.143  1.00  0.00     0.029 A 
ATOM     29  N   UNL A   1      43.723  29.659  28.321  1.00  0.00    -0.354 N 
ATOM     30  N   UNL A   1      46.468  28.936  27.479  1.00  0.00    -0.248 NA
ATOM     31  C   UNL A   1      48.693  29.536  27.105  1.00  0.00     0.031 C 
ATOM     32  C   UNL A   1      43.382  31.715  29.087  1.00  0.00     0.029 A 
ATOM     33  C   UNL A   1      44.354  30.858  28.594  1.00  0.00     0.049 A 
ATOM     34  H   UNL A   1      44.160  28.862  27.943  1.00  0.00     0.167 HD
ATOM     35  C   UNL A   1      46.657  30.249  27.881  1.00  0.00     0.074 A 
ATOM     36  C   UNL A   1      48.053  30.561  27.654  1.00  0.00     0.031 C 
ATOM     37  C   UNL A   1      45.754  31.122  28.388  1.00  0.00     0.037 A 
BRANCH  24  38
ATOM     38  C   UNL A   1      40.018  28.917  28.940  1.00  0.00     0.064 A 
ATOM     39  C   UNL A   1      39.051  29.309  28.002  1.00  0.00     0.173 A 
ATOM     40  C   UNL A   1      39.602  28.708  30.263  1.00  0.00     0.173 A 
ATOM     41  F   UNL A   1      39.401  29.536  26.726  1.00  0.00    -0.203 F 
ATOM     42  C   UNL A   1      37.726  29.506  28.377  1.00  0.00     0.198 A 
ATOM     43  C   UNL A   1      38.268  28.876  30.628  1.00  0.00     0.198 A 
ATOM     44  F   UNL A   1      40.485  28.330  31.199  1.00  0.00    -0.203 F 
ATOM     45  F   UNL A   1      36.831  29.925  27.472  1.00  0.00    -0.200 F 
ATOM     46  C   UNL A   1      37.333  29.280  29.687  1.00  0.00     0.200 A 
ATOM     47  F   UNL A   1      37.887  28.645  31.892  1.00  0.00    -0.200 F 
ATOM     48  F   UNL A   1      36.053  29.455  30.043  1.00  0.00    -0.200 F 
ENDBRANCH  24  38
BRANCH  25  49
ATOM     49  C   UNL A   1      49.413  26.860  26.114  1.00  0.00     0.064 A 
ATOM     50  C   UNL A   1      50.334  26.375  27.055  1.00  0.00     0.173 A 
ATOM     51  C   UNL A   1      49.858  27.021  24.794  1.00  0.00     0.173 A 
ATOM     52  F   UNL A   1      49.960  26.219  28.334  1.00  0.00    -0.203 F 
ATOM     53  C   UNL A   1      51.647  26.077  26.696  1.00  0.00     0.198 A 
ATOM     54  C   UNL A   1      51.165  26.699  24.429  1.00  0.00     0.198 A 
ATOM     55  F   UNL A   1      49.017  27.472  23.851  1.00  0.00    -0.203 F 
ATOM     56  F   UNL A   1      52.511  25.648  27.625  1.00  0.00    -0.200 F 
ATOM     57  C   UNL A   1      52.060  26.233  25.382  1.00  0.00     0.200 A 
ATOM     58  F   UNL A   1      51.557  26.836  23.155  1.00  0.00    -0.200 F 
ATOM     59  F   UNL A   1      53.319  25.937  25.034  1.00  0.00    -0.200 F 
ENDBRANCH  25  49
BRANCH  37  60
ATOM     60  C   UNL A   1      46.236  32.488  28.763  1.00  0.00     0.064 A 
ATOM     61  C   UNL A   1      46.186  33.549  27.851  1.00  0.00     0.173 A 
ATOM     62  C   UNL A   1      46.618  32.763  30.086  1.00  0.00     0.173 A 
ATOM     63  F   UNL A   1      45.832  33.327  26.577  1.00  0.00    -0.203 F 
ATOM     64  C   UNL A   1      46.495  34.845  28.252  1.00  0.00     0.198 A 
ATOM     65  C   UNL A   1      46.906  34.063  30.487  1.00  0.00     0.198 A 
ATOM     66  F   UNL A   1      46.668  31.777  30.993  1.00  0.00    -0.203 F 
ATOM     67  F   UNL A   1      46.446  35.848  27.364  1.00  0.00    -0.200 F 
ATOM     68  C   UNL A   1      46.841  35.103  29.571  1.00  0.00     0.200 A 
ATOM     69  F   UNL A   1      47.222  34.313  31.765  1.00  0.00    -0.200 F 
ATOM     70  F   UNL A   1      47.107  36.357  29.961  1.00  0.00    -0.200 F 
ENDBRANCH  37  60
ENDBRANCH  11  12
ENDBRANCH   4   6
ENDBRANCH   1   2
BRANCH   1  71
ATOM     71  C   UNL A   1      38.890  21.455  25.378  1.00  0.00     0.042 C 
BRANCH  71  72
ATOM     72  C   UNL A   1      37.389  21.517  25.146  1.00  0.00     0.117 C 
BRANCH  72  73
ATOM     73  N   UNL A   1      36.801  22.771  25.567  1.00  0.00    -0.355 N 
ATOM     74  C   UNL A   1      35.502  23.183  25.465  1.00  0.00     0.229 C 
ATOM     75  H   UNL A   1      37.421  23.413  25.983  1.00  0.00     0.163 HD
ATOM     76  O   UNL A   1      35.201  24.203  26.084  1.00  0.00    -0.274 OA
BRANCH  74  77
ATOM     77  C   UNL A   1      34.545  22.425  24.540  1.00  0.00     0.135 C 
ATOM     78  C   UNL A   1      33.937  23.307  23.438  1.00  0.00    -0.020 A 
ATOM     79  C   UNL A   1      33.404  21.553  25.196  1.00  0.00     0.059 C 
ATOM     80  C   UNL A   1      34.403  24.596  23.126  1.00  0.00     0.005 A 
ATOM     81  C   UNL A   1      32.869  22.788  22.680  1.00  0.00     0.044 A 
ATOM     82  N   UNL A   1      32.884  20.701  24.022  1.00  0.00    -0.329 N 
ATOM     83  C   UNL A   1      32.178  22.398  25.722  1.00  0.00     0.030 C 
ATOM     84  C   UNL A   1      33.824  20.698  26.427  1.00  0.00     0.030 C 
ATOM     85  C   UNL A   1      33.784  25.363  22.135  1.00  0.00     0.000 A 
ATOM     86  C   UNL A   1      32.258  23.559  21.681  1.00  0.00     0.014 A 
ATOM     87  C   UNL A   1      32.409  21.384  22.879  1.00  0.00     0.254 C 
ATOM     88  C   UNL A   1      32.405  23.189  27.009  1.00  0.00     0.002 C 
ATOM     89  C   UNL A   1      34.080  21.458  27.732  1.00  0.00     0.002 C 
ATOM     90  C   UNL A   1      32.708  24.850  21.419  1.00  0.00     0.001 A 
ATOM     91  O   UNL A   1      31.731  20.857  22.001  1.00  0.00    -0.269 OA
ATOM     92  C   UNL A   1      32.903  22.318  28.145  1.00  0.00     0.000 C 
BRANCH  82  93
ATOM     93  C   UNL A   1      33.165  19.269  23.778  1.00  0.00     0.086 C 
ATOM     94  C   UNL A   1      34.535  18.773  24.247  1.00  0.00     0.025 C 
ATOM     95  C   UNL A   1      32.153  18.202  24.204  1.00  0.00     0.025 C 
ATOM     96  C   UNL A   1      34.413  17.264  24.114  1.00  0.00     0.002 C 
ATOM     97  C   UNL A   1      32.991  16.972  24.578  1.00  0.00     0.002 C 
ENDBRANCH  82  93
ENDBRANCH  74  77
ENDBRANCH  72  73
ENDBRANCH  71  72
ENDBRANCH   1  71
TORSDOF 11
ENDMDL
MODEL 2
REMARK VINA RESULT:     -12.7      0.204      1.570
REMARK SMILES O=C(NCCCNC(=O)[C@@H]1c2ccccc2C(=O)N(C2CCCC2)C12CCCCC2)c1ccc(-c2c3nc(c(-c4c(F)c(F)c(F)c(F)c4F)c4ccc([nH]4)c(-c4c(F)c(F)c(F)c(F)c4F)c4nc(c(-c5c(F)c(F)c(F)c(F)c5F)c5ccc2[nH]5)C=C4)C=C3)cc1
REMARK SMILES IDX 4 1 3 2 1 3 2 4 31 6 32 7 93 8 33 9 92 10 34 11 35 12 36 13
REMARK SMILES IDX 86 14 37 15 91 16 85 17 87 18 38 19 90 20 84 21 83 22 39 24
REMARK SMILES IDX 71 25 51 26 70 27 52 28 55 29 69 30 88 31 53 32 54 33 68 35
REMARK SMILES IDX 89 36 56 37 40 38 41 39 49 40 42 41 43 42 47 43 50 44 44 45
REMARK SMILES IDX 45 46 48 47 46 48 72 49 73 50 81 51 74 52 75 53 79 54 82 55
REMARK SMILES IDX 76 56 77 57 80 58 78 59 57 60 58 61 66 62 59 63 60 64 64 65
REMARK SMILES IDX 67 66 61 67 62 68 65 69 63 70 5 71 6 72 7 73 8 74 9 76 10 77
REMARK SMILES IDX 11 78 25 79 12 80 16 81 19 82 26 83 30 84 13 85 15 86 17 87
REMARK SMILES IDX 27 88 29 89 14 90 18 91 28 92 20 93 21 94 24 95 22 96 23 97
REMARK H PARENT 3 5 87 23 55 34 7 75
REMARK Flexibility Score: inf
ROOT
ATOM      1  C   UNL A   1      39.381  20.533  26.525  1.00  0.00     0.118 C 
ENDROOT
BRANCH   1   2
ATOM      2  N   UNL A   1      40.328  19.498  26.139  1.00  0.00    -0.352 N 
ATOM      3  O   UNL A   1      42.284  18.449  25.751  1.00  0.00    -0.269 OA
ATOM      4  C   UNL A   1      41.704  19.474  26.086  1.00  0.00     0.251 C 
ATOM      5  H   UNL A   1      39.905  18.652  25.865  1.00  0.00     0.163 HD
BRANCH   4   6
ATOM      6  C   UNL A   1      42.475  20.708  26.334  1.00  0.00     0.039 A 
ATOM      7  C   UNL A   1      42.892  21.469  25.239  1.00  0.00     0.014 A 
ATOM      8  C   UNL A   1      42.710  21.162  27.626  1.00  0.00     0.014 A 
ATOM      9  C   UNL A   1      43.425  22.741  25.450  1.00  0.00     0.010 A 
ATOM     10  C   UNL A   1      43.067  22.486  27.826  1.00  0.00     0.010 A 
ATOM     11  C   UNL A   1      43.446  23.289  26.742  1.00  0.00    -0.014 A 
BRANCH  11  12
ATOM     12  C   UNL A   1      43.904  24.677  27.000  1.00  0.00     0.031 A 
ATOM     13  C   UNL A   1      42.928  25.687  27.547  1.00  0.00     0.074 A 
ATOM     14  C   UNL A   1      45.157  25.050  26.671  1.00  0.00     0.049 A 
ATOM     15  N   UNL A   1      43.071  26.977  27.705  1.00  0.00    -0.248 NA
ATOM     16  C   UNL A   1      41.587  25.192  27.907  1.00  0.00     0.031 C 
ATOM     17  C   UNL A   1      46.171  24.184  26.061  1.00  0.00     0.029 A 
ATOM     18  N   UNL A   1      45.798  26.256  26.808  1.00  0.00    -0.354 N 
ATOM     19  C   UNL A   1      41.832  27.442  28.126  1.00  0.00     0.074 A 
ATOM     20  C   UNL A   1      40.927  26.317  28.126  1.00  0.00     0.031 C 
ATOM     21  C   UNL A   1      47.320  24.868  25.938  1.00  0.00     0.029 A 
ATOM     22  C   UNL A   1      47.116  26.229  26.417  1.00  0.00     0.049 A 
ATOM     23  H   UNL A   1      45.356  27.064  27.153  1.00  0.00     0.167 HD
ATOM     24  C   UNL A   1      41.492  28.686  28.532  1.00  0.00     0.037 A 
ATOM     25  C   UNL A   1      48.053  27.196  26.456  1.00  0.00     0.037 A 
ATOM     26  C   UNL A   1      42.429  29.767  28.641  1.00  0.00     0.049 A 
ATOM     27  C   UNL A   1      47.672  28.551  26.991  1.00  0.00     0.074 A 
ATOM     28  C   UNL A   1      42.217  31.044  29.126  1.00  0.00     0.029 A 
ATOM     29  N   UNL A   1      43.768  29.681  28.294  1.00  0.00    -0.354 N 
ATOM     30  N   UNL A   1      46.508  28.965  27.431  1.00  0.00    -0.248 NA
ATOM     31  C   UNL A   1      48.728  29.572  27.037  1.00  0.00     0.031 C 
ATOM     32  C   UNL A   1      43.427  31.737  29.059  1.00  0.00     0.029 A 
ATOM     33  C   UNL A   1      44.398  30.882  28.559  1.00  0.00     0.049 A 
ATOM     34  H   UNL A   1      44.205  28.884  27.915  1.00  0.00     0.167 HD
ATOM     35  C   UNL A   1      46.696  30.280  27.829  1.00  0.00     0.074 A 
ATOM     36  C   UNL A   1      48.089  30.595  27.590  1.00  0.00     0.031 C 
ATOM     37  C   UNL A   1      45.795  31.151  28.342  1.00  0.00     0.037 A 
BRANCH  24  38
ATOM     38  C   UNL A   1      40.071  28.928  28.945  1.00  0.00     0.064 A 
ATOM     39  C   UNL A   1      39.094  29.310  28.014  1.00  0.00     0.173 A 
ATOM     40  C   UNL A   1      39.668  28.725  30.274  1.00  0.00     0.173 A 
ATOM     41  F   UNL A   1      39.432  29.531  26.734  1.00  0.00    -0.203 F 
ATOM     42  C   UNL A   1      37.771  29.503  28.400  1.00  0.00     0.198 A 
ATOM     43  C   UNL A   1      38.337  28.889  30.650  1.00  0.00     0.198 A 
ATOM     44  F   UNL A   1      40.561  28.356  31.204  1.00  0.00    -0.203 F 
ATOM     45  F   UNL A   1      36.867  29.913  27.500  1.00  0.00    -0.200 F 
ATOM     46  C   UNL A   1      37.391  29.283  29.715  1.00  0.00     0.200 A 
ATOM     47  F   UNL A   1      37.968  28.664  31.918  1.00  0.00    -0.200 F 
ATOM     48  F   UNL A   1      36.114  29.455  30.081  1.00  0.00    -0.200 F 
ENDBRANCH  24  38
BRANCH  25  49
ATOM     49  C   UNL A   1      49.450  26.896  26.046  1.00  0.00     0.064 A 
ATOM     50  C   UNL A   1      49.851  27.058  24.711  1.00  0.00     0.173 A 
ATOM     51  C   UNL A   1      50.416  26.468  26.967  1.00  0.00     0.173 A 
ATOM     52  F   UNL A   1      48.960  27.452  23.790  1.00  0.00    -0.203 F 
ATOM     53  C   UNL A   1      51.159  26.790  24.312  1.00  0.00     0.198 A 
ATOM     54  C   UNL A   1      51.730  26.223  26.572  1.00  0.00     0.198 A 
ATOM     55  F   UNL A   1      50.089  26.306  28.258  1.00  0.00    -0.203 F 
ATOM     56  F   UNL A   1      51.503  26.922  23.024  1.00  0.00    -0.200 F 
ATOM     57  C   UNL A   1      52.099  26.379  25.243  1.00  0.00     0.200 A 
ATOM     58  F   UNL A   1      52.641  25.840  27.477  1.00  0.00    -0.200 F 
ATOM     59  F   UNL A   1      53.359  26.129  24.861  1.00  0.00    -0.200 F 
ENDBRANCH  25  49
BRANCH  37  60
ATOM     60  C   UNL A   1      46.276  32.519  28.710  1.00  0.00     0.064 A 
ATOM     61  C   UNL A   1      46.856  32.770  29.960  1.00  0.00     0.173 A 
ATOM     62  C   UNL A   1      46.282  33.546  27.754  1.00  0.00     0.173 A 
ATOM     63  F   UNL A   1      46.864  31.816  30.903  1.00  0.00    -0.203 F 
ATOM     64  C   UNL A   1      47.435  34.003  30.239  1.00  0.00     0.198 A 
ATOM     65  C   UNL A   1      46.881  34.771  28.029  1.00  0.00     0.198 A 
ATOM     66  F   UNL A   1      45.748  33.343  26.541  1.00  0.00    -0.203 F 
ATOM     67  F   UNL A   1      47.981  34.227  31.443  1.00  0.00    -0.200 F 
ATOM     68  C   UNL A   1      47.459  34.997  29.270  1.00  0.00     0.200 A 
ATOM     69  F   UNL A   1      46.919  35.723  27.088  1.00  0.00    -0.200 F 
ATOM     70  F   UNL A   1      48.045  36.173  29.532  1.00  0.00    -0.200 F 
ENDBRANCH  37  60
ENDBRANCH  11  12
ENDBRANCH   4   6
ENDBRANCH   1   2
BRANCH   1  71
ATOM     71  C   UNL A   1      38.840  21.377  25.377  1.00  0.00     0.042 C 
BRANCH  71  72
ATOM     72  C   UNL A   1      37.324  21.427  25.285  1.00  0.00     0.117 C 
BRANCH  72  73
ATOM     73  N   UNL A   1      36.778  22.722  25.630  1.00  0.00    -0.355 N 
ATOM     74  C   UNL A   1      35.502  23.183  25.463  1.00  0.00     0.229 C 
ATOM     75  H   UNL A   1      37.410  23.355  26.041  1.00  0.00     0.163 HD
ATOM     76  O   UNL A   1      35.225  24.242  26.026  1.00  0.00    -0.274 OA
BRANCH  74  77
ATOM     77  C   UNL A   1      34.546  22.426  24.537  1.00  0.00     0.135 C 
ATOM     78  C   UNL A   1      33.937  23.309  23.436  1.00  0.00    -0.020 A 
ATOM     79  C   UNL A   1      33.405  21.554  25.193  1.00  0.00     0.059 C 
ATOM     80  C   UNL A   1      34.403  24.599  23.125  1.00  0.00     0.005 A 
ATOM     81  C   UNL A   1      32.869  22.791  22.677  1.00  0.00     0.044 A 
ATOM     82  N   UNL A   1      32.885  20.702  24.018  1.00  0.00    -0.329 N 
ATOM     83  C   UNL A   1      32.179  22.398  25.720  1.00  0.00     0.030 C 
ATOM     84  C   UNL A   1      33.825  20.698  26.423  1.00  0.00     0.030 C 
ATOM     85  C   UNL A   1      33.783  25.367  22.134  1.00  0.00     0.000 A 
ATOM     86  C   UNL A   1      32.258  23.562  21.679  1.00  0.00     0.014 A 
ATOM     87  C   UNL A   1      32.410  21.387  22.875  1.00  0.00     0.254 C 
ATOM     88  C   UNL A   1      32.405  23.188  27.007  1.00  0.00     0.002 C 
ATOM     89  C   UNL A   1      34.081  21.456  27.728  1.00  0.00     0.002 C 
ATOM     90  C   UNL A   1      32.708  24.853  21.418  1.00  0.00     0.001 A 
ATOM     91  O   UNL A   1      31.732  20.859  21.997  1.00  0.00    -0.269 OA
ATOM     92  C   UNL A   1      32.903  22.316  28.143  1.00  0.00     0.000 C 
BRANCH  82  93
ATOM     93  C   UNL A   1      33.166  19.271  23.773  1.00  0.00     0.086 C 
ATOM     94  C   UNL A   1      34.532  18.772  24.251  1.00  0.00     0.025 C 
ATOM     95  C   UNL A   1      32.150  18.204  24.189  1.00  0.00     0.025 C 
ATOM     96  C   UNL A   1      34.409  17.264  24.113  1.00  0.00     0.002 C 
ATOM     97  C   UNL A   1      32.984  16.972  24.566  1.00  0.00     0.002 C 
ENDBRANCH  82  93
ENDBRANCH  74  77
ENDBRANCH  72  73
ENDBRANCH  71  72
ENDBRANCH   1  71
TORSDOF 11
ENDMDL
MODEL 3
REMARK VINA RESULT:     -12.6      0.558      7.350
REMARK SMILES O=C(NCCCNC(=O)[C@@H]1c2ccccc2C(=O)N(C2CCCC2)C12CCCCC2)c1ccc(-c2c3nc(c(-c4c(F)c(F)c(F)c(F)c4F)c4ccc([nH]4)c(-c4c(F)c(F)c(F)c(F)c4F)c4nc(c(-c5c(F)c(F)c(F)c(F)c5F)c5ccc2[nH]5)C=C4)C=C3)cc1
REMARK SMILES IDX 4 1 3 2 1 3 2 4 31 6 32 7 93 8 33 9 92 10 34 11 35 12 36 13
REMARK SMILES IDX 86 14 37 15 91 16 85 17 87 18 38 19 90 20 84 21 83 22 39 24
REMARK SMILES IDX 71 25 51 26 70 27 52 28 55 29 69 30 88 31 53 32 54 33 68 35
REMARK SMILES IDX 89 36 56 37 40 38 41 39 49 40 42 41 43 42 47 43 50 44 44 45
REMARK SMILES IDX 45 46 48 47 46 48 72 49 73 50 81 51 74 52 75 53 79 54 82 55
REMARK SMILES IDX 76 56 77 57 80 58 78 59 57 60 58 61 66 62 59 63 60 64 64 65
REMARK SMILES IDX 67 66 61 67 62 68 65 69 63 70 5 71 6 72 7 73 8 74 9 76 10 77
REMARK SMILES IDX 11 78 25 79 12 80 16 81 19 82 26 83 30 84 13 85 15 86 17 87
REMARK SMILES IDX 27 88 29 89 14 90 18 91 28 92 20 93 21 94 24 95 22 96 23 97
REMARK H PARENT 3 5 87 23 55 34 7 75
REMARK Flexibility Score: inf
ROOT
ATOM      1  C   UNL A   1      39.279  20.411  26.509  1.00  0.00     0.118 C 
ENDROOT
BRANCH   1   2
ATOM      2  N   UNL A   1      40.314  19.463  26.125  1.00  0.00    -0.352 N 
ATOM      3  O   UNL A   1      42.355  18.587  25.750  1.00  0.00    -0.269 OA
ATOM      4  C   UNL A   1      41.687  19.555  26.088  1.00  0.00     0.251 C 
ATOM      5  H   UNL A   1      39.966  18.588  25.837  1.00  0.00     0.163 HD
BRANCH   4   6
ATOM      6  C   UNL A   1      42.349  20.847  26.358  1.00  0.00     0.039 A 
ATOM      7  C   UNL A   1      42.591  21.713  25.289  1.00  0.00     0.014 A 
ATOM      8  C   UNL A   1      42.648  21.245  27.656  1.00  0.00     0.014 A 
ATOM      9  C   UNL A   1      43.010  23.019  25.544  1.00  0.00     0.010 A 
ATOM     10  C   UNL A   1      42.886  22.585  27.917  1.00  0.00     0.010 A 
ATOM     11  C   UNL A   1      43.087  23.488  26.864  1.00  0.00    -0.014 A 
BRANCH  11  12
ATOM     12  C   UNL A   1      43.423  24.899  27.180  1.00  0.00     0.031 A 
ATOM     13  C   UNL A   1      44.807  25.413  26.877  1.00  0.00     0.074 A 
ATOM     14  C   UNL A   1      42.525  25.685  27.807  1.00  0.00     0.049 A 
ATOM     15  N   UNL A   1      45.356  26.555  27.204  1.00  0.00    -0.248 NA
ATOM     16  C   UNL A   1      45.719  24.499  26.166  1.00  0.00     0.031 C 
ATOM     17  C   UNL A   1      41.180  25.277  28.224  1.00  0.00     0.029 A 
ATOM     18  N   UNL A   1      42.604  26.998  28.200  1.00  0.00    -0.354 N 
ATOM     19  C   UNL A   1      46.678  26.466  26.786  1.00  0.00     0.074 A 
ATOM     20  C   UNL A   1      46.874  25.138  26.256  1.00  0.00     0.031 C 
ATOM     21  C   UNL A   1      40.541  26.333  28.753  1.00  0.00     0.029 A 
ATOM     22  C   UNL A   1      41.442  27.480  28.754  1.00  0.00     0.049 A 
ATOM     23  H   UNL A   1      43.417  27.543  28.094  1.00  0.00     0.167 HD
ATOM     24  C   UNL A   1      47.630  27.426  26.793  1.00  0.00     0.037 A 
ATOM     25  C   UNL A   1      41.140  28.715  29.198  1.00  0.00     0.037 A 
ATOM     26  C   UNL A   1      47.390  28.776  27.213  1.00  0.00     0.049 A 
ATOM     27  C   UNL A   1      42.190  29.790  29.118  1.00  0.00     0.074 A 
ATOM     28  C   UNL A   1      48.254  29.855  27.178  1.00  0.00     0.029 A 
ATOM     29  N   UNL A   1      46.181  29.239  27.709  1.00  0.00    -0.354 N 
ATOM     30  N   UNL A   1      43.422  29.706  28.677  1.00  0.00    -0.248 NA
ATOM     31  C   UNL A   1      41.814  31.129  29.593  1.00  0.00     0.031 C 
ATOM     32  C   UNL A   1      47.571  30.970  27.667  1.00  0.00     0.029 A 
ATOM     33  C   UNL A   1      46.274  30.591  27.979  1.00  0.00     0.049 A 
ATOM     34  H   UNL A   1      45.377  28.688  27.849  1.00  0.00     0.167 HD
ATOM     35  C   UNL A   1      43.958  30.979  28.797  1.00  0.00     0.074 A 
ATOM     36  C   UNL A   1      42.916  31.824  29.342  1.00  0.00     0.031 C 
ATOM     37  C   UNL A   1      45.205  31.410  28.489  1.00  0.00     0.037 A 
BRANCH  24  38
ATOM     38  C   UNL A   1      48.993  27.070  26.278  1.00  0.00     0.064 A 
ATOM     39  C   UNL A   1      49.989  26.570  27.130  1.00  0.00     0.173 A 
ATOM     40  C   UNL A   1      49.291  27.177  24.911  1.00  0.00     0.173 A 
ATOM     41  F   UNL A   1      49.757  26.462  28.448  1.00  0.00    -0.203 F 
ATOM     42  C   UNL A   1      51.240  26.213  26.638  1.00  0.00     0.198 A 
ATOM     43  C   UNL A   1      50.535  26.789  24.418  1.00  0.00     0.198 A 
ATOM     44  F   UNL A   1      48.373  27.646  24.052  1.00  0.00    -0.203 F 
ATOM     45  F   UNL A   1      52.189  25.782  27.480  1.00  0.00    -0.200 F 
ATOM     46  C   UNL A   1      51.510  26.314  25.283  1.00  0.00     0.200 A 
ATOM     47  F   UNL A   1      50.790  26.875  23.106  1.00  0.00    -0.200 F 
ATOM     48  F   UNL A   1      52.711  25.955  24.809  1.00  0.00    -0.200 F 
ENDBRANCH  24  38
BRANCH  25  49
ATOM     49  C   UNL A   1      39.768  29.015  29.687  1.00  0.00     0.064 A 
ATOM     50  C   UNL A   1      38.784  29.486  28.804  1.00  0.00     0.173 A 
ATOM     51  C   UNL A   1      39.400  28.819  31.025  1.00  0.00     0.173 A 
ATOM     52  F   UNL A   1      39.091  29.703  27.517  1.00  0.00    -0.203 F 
ATOM     53  C   UNL A   1      37.492  29.763  29.244  1.00  0.00     0.198 A 
ATOM     54  C   UNL A   1      38.100  29.074  31.460  1.00  0.00     0.198 A 
ATOM     55  F   UNL A   1      40.299  28.361  31.910  1.00  0.00    -0.203 F 
ATOM     56  F   UNL A   1      36.583  30.244  28.384  1.00  0.00    -0.200 F 
ATOM     57  C   UNL A   1      37.148  29.551  30.570  1.00  0.00     0.200 A 
ATOM     58  F   UNL A   1      37.766  28.853  32.739  1.00  0.00    -0.200 F 
ATOM     59  F   UNL A   1      35.903  29.809  30.991  1.00  0.00    -0.200 F 
ENDBRANCH  25  49
BRANCH  37  60
ATOM     60  C   UNL A   1      45.516  32.858  28.699  1.00  0.00     0.064 A 
ATOM     61  C   UNL A   1      46.159  33.298  29.863  1.00  0.00     0.173 A 
ATOM     62  C   UNL A   1      45.295  33.785  27.669  1.00  0.00     0.173 A 
ATOM     63  F   UNL A   1      46.384  32.445  30.873  1.00  0.00    -0.203 F 
ATOM     64  C   UNL A   1      46.579  34.618  29.986  1.00  0.00     0.198 A 
ATOM     65  C   UNL A   1      45.734  35.098  27.787  1.00  0.00     0.198 A 
ATOM     66  F   UNL A   1      44.693  33.400  26.533  1.00  0.00    -0.203 F 
ATOM     67  F   UNL A   1      47.189  35.024  31.109  1.00  0.00    -0.200 F 
ATOM     68  C   UNL A   1      46.379  35.513  28.943  1.00  0.00     0.200 A 
ATOM     69  F   UNL A   1      45.557  35.956  26.773  1.00  0.00    -0.200 F 
ATOM     70  F   UNL A   1      46.812  36.776  29.052  1.00  0.00    -0.200 F 
ENDBRANCH  37  60
ENDBRANCH  11  12
ENDBRANCH   4   6
ENDBRANCH   1   2
BRANCH   1  71
ATOM     71  C   UNL A   1      38.880  21.408  25.428  1.00  0.00     0.042 C 
BRANCH  71  72
ATOM     72  C   UNL A   1      37.387  21.491  25.161  1.00  0.00     0.117 C 
BRANCH  72  73
ATOM     73  N   UNL A   1      36.806  22.752  25.573  1.00  0.00    -0.355 N 
ATOM     74  C   UNL A   1      35.509  23.170  25.465  1.00  0.00     0.229 C 
ATOM     75  H   UNL A   1      37.428  23.392  25.986  1.00  0.00     0.163 HD
ATOM     76  O   UNL A   1      35.213  24.196  26.078  1.00  0.00    -0.274 OA
BRANCH  74  77
ATOM     77  C   UNL A   1      34.549  22.413  24.543  1.00  0.00     0.135 C 
ATOM     78  C   UNL A   1      33.942  23.294  23.441  1.00  0.00    -0.020 A 
ATOM     79  C   UNL A   1      33.407  21.545  25.203  1.00  0.00     0.059 C 
ATOM     80  C   UNL A   1      34.409  24.582  23.126  1.00  0.00     0.005 A 
ATOM     81  C   UNL A   1      32.871  22.776  22.685  1.00  0.00     0.044 A 
ATOM     82  N   UNL A   1      32.884  20.691  24.032  1.00  0.00    -0.329 N 
ATOM     83  C   UNL A   1      32.184  22.393  25.730  1.00  0.00     0.030 C 
ATOM     84  C   UNL A   1      33.827  20.692  26.435  1.00  0.00     0.030 C 
ATOM     85  C   UNL A   1      33.790  25.348  22.133  1.00  0.00     0.000 A 
ATOM     86  C   UNL A   1      32.260  23.545  21.686  1.00  0.00     0.014 A 
ATOM     87  C   UNL A   1      32.409  21.373  22.888  1.00  0.00     0.254 C 
ATOM     88  C   UNL A   1      32.415  23.187  27.014  1.00  0.00     0.002 C 
ATOM     89  C   UNL A   1      34.088  21.453  27.738  1.00  0.00     0.002 C 
ATOM     90  C   UNL A   1      32.712  24.835  21.420  1.00  0.00     0.001 A 
ATOM     91  O   UNL A   1      31.728  20.845  22.012  1.00  0.00    -0.269 OA
ATOM     92  C   UNL A   1      32.913  22.317  28.152  1.00  0.00     0.000 C 
BRANCH  82  93
ATOM     93  C   UNL A   1      33.161  19.258  23.791  1.00  0.00     0.086 C 
ATOM     94  C   UNL A   1      34.535  18.762  24.251  1.00  0.00     0.025 C 
ATOM     95  C   UNL A   1      32.151  18.194  24.228  1.00  0.00     0.025 C 
ATOM     96  C   UNL A   1      34.410  17.253  24.124  1.00  0.00     0.002 C 
ATOM     97  C   UNL A   1      32.991  16.964  24.600  1.00  0.00     0.002 C 
ENDBRANCH  82  93
ENDBRANCH  74  77
ENDBRANCH  72  73
ENDBRANCH  71  72
ENDBRANCH   1  71
TORSDOF 11
ENDMDL
