MODEL 1
REMARK VINA RESULT:     -12.1      0.000      0.000
REMARK SMILES CC(C)C[C@@H](CNc1ccc(C(=O)N(C)C)nn1)C(=O)NCCCNC(=O)c1ccc(-c2c3nc(c(-c4c(F)c(F)c(F)c(F)c4F)c4ccc([nH]4)c(-c4c(F)c(F)c(F)c(F)c4F)c4nc(c(-c5c(F)c(F)c(F)c(F)c5F)c5ccc2[nH]5)C=C4)C=C3)cc1
REMARK SMILES IDX 22 1 21 2 19 3 20 4 5 6 4 7 2 8 1 9 3 10 6 11 7 12 8 14 9 15
REMARK SMILES IDX 18 16 10 17 17 18 11 19 12 20 13 21 14 22 15 23 16 24 23 25
REMARK SMILES IDX 24 26 25 27 26 28 27 30 28 31 29 32 90 33 30 34 89 35 31 36
REMARK SMILES IDX 32 37 33 38 83 39 34 40 88 41 82 42 84 43 35 44 87 45 81 46
REMARK SMILES IDX 80 47 36 49 68 50 48 51 67 52 49 53 52 54 66 55 85 56 50 57
REMARK SMILES IDX 51 58 65 60 86 61 53 62 37 63 38 64 46 65 39 66 40 67 44 68
REMARK SMILES IDX 47 69 41 70 42 71 45 72 43 73 69 74 70 75 78 76 71 77 72 78
REMARK SMILES IDX 76 79 79 80 73 81 74 82 77 83 75 84 54 85 55 86 63 87 56 88
REMARK SMILES IDX 57 89 61 90 64 91 58 92 59 93 62 94 60 95
REMARK H PARENT 21 5 7 13 25 29 84 48 52 59
REMARK Flexibility Score: inf
ROOT
ATOM      1  C   UNL A   1      32.420  27.288  26.538  1.00  0.00     0.117 C 
ENDROOT
BRANCH   1   2
ATOM      2  N   UNL A   1      31.439  26.279  26.870  1.00  0.00    -0.356 N 
ATOM      3  C   UNL A   1      31.339  24.995  26.435  1.00  0.00     0.224 C 
ATOM      4  O   UNL A   1      30.585  24.243  27.059  1.00  0.00    -0.275 OA
ATOM      5  H   UNL A   1      30.740  26.563  27.503  1.00  0.00     0.163 HD
BRANCH   3   6
ATOM      6  C   UNL A   1      32.099  24.475  25.216  1.00  0.00     0.098 C 
BRANCH   6   7
ATOM      7  C   UNL A   1      32.939  23.222  25.523  1.00  0.00     0.018 C 
BRANCH   7   8
ATOM      8  C   UNL A   1      34.429  23.297  25.152  1.00  0.00    -0.017 C 
ATOM      9  C   UNL A   1      34.713  22.743  23.756  1.00  0.00     0.007 C 
ATOM     10  C   UNL A   1      34.898  24.753  25.232  1.00  0.00     0.007 C 
ENDBRANCH   7   8
ENDBRANCH   6   7
BRANCH   6  11
ATOM     11  C   UNL A   1      31.279  24.543  23.914  1.00  0.00     0.128 C 
BRANCH  11  12
ATOM     12  N   UNL A   1      29.917  25.043  24.017  1.00  0.00    -0.368 N 
ATOM     13  H   UNL A   1      29.223  24.431  24.353  1.00  0.00     0.162 HD
BRANCH  12  14
ATOM     14  C   UNL A   1      29.542  26.325  23.671  1.00  0.00     0.148 A 
ATOM     15  C   UNL A   1      28.257  26.818  23.839  1.00  0.00     0.051 A 
ATOM     16  N   UNL A   1      30.470  27.120  23.103  1.00  0.00    -0.132 NA
ATOM     17  C   UNL A   1      27.908  28.076  23.343  1.00  0.00     0.040 A 
ATOM     18  N   UNL A   1      30.137  28.372  22.593  1.00  0.00    -0.143 NA
ATOM     19  C   UNL A   1      28.875  28.836  22.715  1.00  0.00     0.151 A 
BRANCH  19  20
ATOM     20  C   UNL A   1      28.563  30.125  22.028  1.00  0.00     0.273 C 
ATOM     21  O   UNL A   1      28.152  30.073  20.868  1.00  0.00    -0.267 OA
ATOM     22  N   UNL A   1      28.688  31.352  22.701  1.00  0.00    -0.343 N 
ATOM     23  C   UNL A   1      29.334  31.568  23.985  1.00  0.00     0.146 C 
ATOM     24  C   UNL A   1      28.250  32.541  21.987  1.00  0.00     0.146 C 
ENDBRANCH  19  20
ENDBRANCH  12  14
ENDBRANCH  11  12
ENDBRANCH   6  11
ENDBRANCH   3   6
ENDBRANCH   1   2
BRANCH   1  25
ATOM     25  C   UNL A   1      31.862  28.694  26.509  1.00  0.00     0.042 C 
BRANCH  25  26
ATOM     26  C   UNL A   1      32.830  29.698  25.913  1.00  0.00     0.118 C 
BRANCH  26  27
ATOM     27  N   UNL A   1      32.598  31.064  26.373  1.00  0.00    -0.352 N 
ATOM     28  C   UNL A   1      33.298  31.846  27.257  1.00  0.00     0.251 C 
ATOM     29  H   UNL A   1      31.804  31.498  25.984  1.00  0.00     0.163 HD
ATOM     30  O   UNL A   1      32.847  32.929  27.617  1.00  0.00    -0.269 OA
BRANCH  28  31
ATOM     31  C   UNL A   1      34.581  31.378  27.810  1.00  0.00     0.039 A 
ATOM     32  C   UNL A   1      35.615  32.303  27.971  1.00  0.00     0.014 A 
ATOM     33  C   UNL A   1      34.766  30.046  28.178  1.00  0.00     0.014 A 
ATOM     34  C   UNL A   1      36.805  31.901  28.572  1.00  0.00     0.010 A 
ATOM     35  C   UNL A   1      35.893  29.682  28.901  1.00  0.00     0.010 A 
ATOM     36  C   UNL A   1      36.934  30.600  29.085  1.00  0.00    -0.014 A 
BRANCH  36  37
ATOM     37  C   UNL A   1      38.162  30.186  29.804  1.00  0.00     0.031 A 
ATOM     38  C   UNL A   1      38.412  30.659  31.209  1.00  0.00     0.074 A 
ATOM     39  C   UNL A   1      39.066  29.416  29.168  1.00  0.00     0.049 A 
ATOM     40  N   UNL A   1      39.418  30.391  32.004  1.00  0.00    -0.248 NA
ATOM     41  C   UNL A   1      37.425  31.584  31.790  1.00  0.00     0.031 C 
ATOM     42  C   UNL A   1      38.969  28.971  27.776  1.00  0.00     0.029 A 
ATOM     43  N   UNL A   1      40.239  28.862  29.611  1.00  0.00    -0.354 N 
ATOM     44  C   UNL A   1      39.187  31.122  33.162  1.00  0.00     0.074 A 
ATOM     45  C   UNL A   1      37.994  31.906  32.941  1.00  0.00     0.031 C 
ATOM     46  C   UNL A   1      40.006  28.167  27.497  1.00  0.00     0.029 A 
ATOM     47  C   UNL A   1      40.858  28.069  28.677  1.00  0.00     0.049 A 
ATOM     48  H   UNL A   1      40.603  29.018  30.512  1.00  0.00     0.167 HD
ATOM     49  C   UNL A   1      39.885  31.109  34.321  1.00  0.00     0.037 A 
ATOM     50  C   UNL A   1      41.981  27.334  28.771  1.00  0.00     0.037 A 
ATOM     51  C   UNL A   1      41.055  30.301  34.541  1.00  0.00     0.049 A 
ATOM     52  C   UNL A   1      42.719  27.310  30.082  1.00  0.00     0.074 A 
ATOM     53  C   UNL A   1      41.809  30.165  35.693  1.00  0.00     0.029 A 
ATOM     54  N   UNL A   1      41.639  29.486  33.581  1.00  0.00    -0.354 N 
ATOM     55  N   UNL A   1      42.445  27.939  31.200  1.00  0.00    -0.248 NA
ATOM     56  C   UNL A   1      43.912  26.457  30.148  1.00  0.00     0.031 C 
ATOM     57  C   UNL A   1      42.877  29.306  35.415  1.00  0.00     0.029 A 
ATOM     58  C   UNL A   1      42.756  28.858  34.109  1.00  0.00     0.049 A 
ATOM     59  H   UNL A   1      41.310  29.372  32.660  1.00  0.00     0.167 HD
ATOM     60  C   UNL A   1      43.413  27.537  32.110  1.00  0.00     0.074 A 
ATOM     61  C   UNL A   1      44.263  26.590  31.418  1.00  0.00     0.031 C 
ATOM     62  C   UNL A   1      43.588  27.919  33.400  1.00  0.00     0.037 A 
BRANCH  49  63
ATOM     63  C   UNL A   1      39.393  31.988  35.437  1.00  0.00     0.064 A 
ATOM     64  C   UNL A   1      39.787  33.331  35.549  1.00  0.00     0.173 A 
ATOM     65  C   UNL A   1      38.501  31.487  36.398  1.00  0.00     0.173 A 
ATOM     66  F   UNL A   1      40.650  33.857  34.666  1.00  0.00    -0.203 F 
ATOM     67  C   UNL A   1      39.336  34.127  36.597  1.00  0.00     0.198 A 
ATOM     68  C   UNL A   1      38.023  32.298  37.425  1.00  0.00     0.198 A 
ATOM     69  F   UNL A   1      38.090  30.212  36.341  1.00  0.00    -0.203 F 
ATOM     70  F   UNL A   1      39.774  35.390  36.714  1.00  0.00    -0.200 F 
ATOM     71  C   UNL A   1      38.448  33.614  37.529  1.00  0.00     0.200 A 
ATOM     72  F   UNL A   1      37.155  31.803  38.318  1.00  0.00    -0.200 F 
ATOM     73  F   UNL A   1      38.007  34.384  38.532  1.00  0.00    -0.200 F 
ENDBRANCH  49  63
BRANCH  50  74
ATOM     74  C   UNL A   1      42.441  26.524  27.612  1.00  0.00     0.064 A 
ATOM     75  C   UNL A   1      41.915  25.246  27.371  1.00  0.00     0.173 A 
ATOM     76  C   UNL A   1      43.416  27.004  26.726  1.00  0.00     0.173 A 
ATOM     77  F   UNL A   1      40.992  24.735  28.200  1.00  0.00    -0.203 F 
ATOM     78  C   UNL A   1      42.366  24.471  26.306  1.00  0.00     0.198 A 
ATOM     79  C   UNL A   1      43.842  26.241  25.642  1.00  0.00     0.198 A 
ATOM     80  F   UNL A   1      43.945  28.224  26.905  1.00  0.00    -0.203 F 
ATOM     81  F   UNL A   1      41.884  23.232  26.130  1.00  0.00    -0.200 F 
ATOM     82  C   UNL A   1      43.326  24.970  25.439  1.00  0.00     0.200 A 
ATOM     83  F   UNL A   1      44.757  26.734  24.796  1.00  0.00    -0.200 F 
ATOM     84  F   UNL A   1      43.757  24.225  24.412  1.00  0.00    -0.200 F 
ENDBRANCH  50  74
BRANCH  62  85
ATOM     85  C   UNL A   1      44.721  27.278  34.148  1.00  0.00     0.064 A 
ATOM     86  C   UNL A   1      45.999  27.856  34.191  1.00  0.00     0.173 A 
ATOM     87  C   UNL A   1      44.523  26.069  34.833  1.00  0.00     0.173 A 
ATOM     88  F   UNL A   1      46.243  29.005  33.543  1.00  0.00    -0.203 F 
ATOM     89  C   UNL A   1      47.049  27.220  34.848  1.00  0.00     0.198 A 
ATOM     90  C   UNL A   1      45.566  25.457  35.522  1.00  0.00     0.198 A 
ATOM     91  F   UNL A   1      43.318  25.480  34.835  1.00  0.00    -0.203 F 
ATOM     92  F   UNL A   1      48.278  27.754  34.813  1.00  0.00    -0.200 F 
ATOM     93  C   UNL A   1      46.831  26.025  35.516  1.00  0.00     0.200 A 
ATOM     94  F   UNL A   1      45.349  24.311  36.182  1.00  0.00    -0.200 F 
ATOM     95  F   UNL A   1      47.844  25.413  36.145  1.00  0.00    -0.200 F 
ENDBRANCH  62  85
ENDBRANCH  36  37
ENDBRANCH  28  31
ENDBRANCH  26  27
ENDBRANCH  25  26
ENDBRANCH   1  25
TORSDOF 16
ENDMDL
MODEL 2
REMARK VINA RESULT:     -12.0      4.805     10.040
REMARK SMILES CC(C)C[C@@H](CNc1ccc(C(=O)N(C)C)nn1)C(=O)NCCCNC(=O)c1ccc(-c2c3nc(c(-c4c(F)c(F)c(F)c(F)c4F)c4ccc([nH]4)c(-c4c(F)c(F)c(F)c(F)c4F)c4nc(c(-c5c(F)c(F)c(F)c(F)c5F)c5ccc2[nH]5)C=C4)C=C3)cc1
REMARK SMILES IDX 22 1 21 2 19 3 20 4 5 6 4 7 2 8 1 9 3 10 6 11 7 12 8 14 9 15
REMARK SMILES IDX 18 16 10 17 17 18 11 19 12 20 13 21 14 22 15 23 16 24 23 25
REMARK SMILES IDX 24 26 25 27 26 28 27 30 28 31 29 32 90 33 30 34 89 35 31 36
REMARK SMILES IDX 32 37 33 38 83 39 34 40 88 41 82 42 84 43 35 44 87 45 81 46
REMARK SMILES IDX 80 47 36 49 68 50 48 51 67 52 49 53 52 54 66 55 85 56 50 57
REMARK SMILES IDX 51 58 65 60 86 61 53 62 37 63 38 64 46 65 39 66 40 67 44 68
REMARK SMILES IDX 47 69 41 70 42 71 45 72 43 73 69 74 70 75 78 76 71 77 72 78
REMARK SMILES IDX 76 79 79 80 73 81 74 82 77 83 75 84 54 85 55 86 63 87 56 88
REMARK SMILES IDX 57 89 61 90 64 91 58 92 59 93 62 94 60 95
REMARK H PARENT 21 5 7 13 25 29 84 48 52 59
REMARK Flexibility Score: inf
ROOT
ATOM      1  C   UNL A   1      36.654  20.438  25.012  1.00  0.00     0.117 C 
ENDROOT
BRANCH   1   2
ATOM      2  N   UNL A   1      35.594  19.453  24.997  1.00  0.00    -0.356 N 
ATOM      3  C   UNL A   1      34.249  19.634  24.925  1.00  0.00     0.224 C 
ATOM      4  O   UNL A   1      33.559  18.648  24.653  1.00  0.00    -0.275 OA
ATOM      5  H   UNL A   1      35.889  18.516  25.047  1.00  0.00     0.163 HD
BRANCH   3   6
ATOM      6  C   UNL A   1      33.581  20.985  25.183  1.00  0.00     0.098 C 
BRANCH   6   7
ATOM      7  C   UNL A   1      32.313  21.198  24.337  1.00  0.00     0.018 C 
BRANCH   7   8
ATOM      8  C   UNL A   1      32.432  22.200  23.177  1.00  0.00    -0.017 C 
ATOM      9  C   UNL A   1      31.395  23.320  23.263  1.00  0.00     0.007 C 
ATOM     10  C   UNL A   1      33.841  22.803  23.171  1.00  0.00     0.007 C 
ENDBRANCH   7   8
ENDBRANCH   6   7
BRANCH   6  11
ATOM     11  C   UNL A   1      33.585  21.391  26.668  1.00  0.00     0.128 C 
BRANCH  11  12
ATOM     12  N   UNL A   1      32.481  22.220  27.128  1.00  0.00    -0.368 N 
ATOM     13  H   UNL A   1      31.804  21.808  27.712  1.00  0.00     0.162 HD
BRANCH  12  14
ATOM     14  C   UNL A   1      32.330  23.549  26.793  1.00  0.00     0.148 A 
ATOM     15  C   UNL A   1      33.371  24.349  26.349  1.00  0.00     0.051 A 
ATOM     16  N   UNL A   1      31.111  24.103  26.948  1.00  0.00    -0.132 NA
ATOM     17  C   UNL A   1      33.184  25.721  26.158  1.00  0.00     0.040 A 
ATOM     18  N   UNL A   1      30.909  25.469  26.774  1.00  0.00    -0.143 NA
ATOM     19  C   UNL A   1      31.932  26.258  26.384  1.00  0.00     0.151 A 
BRANCH  19  20
ATOM     20  C   UNL A   1      31.671  27.728  26.347  1.00  0.00     0.273 C 
ATOM     21  O   UNL A   1      31.710  28.346  27.412  1.00  0.00    -0.267 OA
ATOM     22  N   UNL A   1      31.438  28.391  25.131  1.00  0.00    -0.343 N 
ATOM     23  C   UNL A   1      31.177  27.764  23.845  1.00  0.00     0.146 C 
ATOM     24  C   UNL A   1      31.310  29.839  25.184  1.00  0.00     0.146 C 
ENDBRANCH  19  20
ENDBRANCH  12  14
ENDBRANCH  11  12
ENDBRANCH   6  11
ENDBRANCH   3   6
ENDBRANCH   1   2
BRANCH   1  25
ATOM     25  C   UNL A   1      38.020  19.866  24.702  1.00  0.00     0.042 C 
BRANCH  25  26
ATOM     26  C   UNL A   1      39.046  20.186  25.772  1.00  0.00     0.118 C 
BRANCH  26  27
ATOM     27  N   UNL A   1      40.115  19.194  25.859  1.00  0.00    -0.352 N 
ATOM     28  C   UNL A   1      41.459  19.341  26.088  1.00  0.00     0.251 C 
ATOM     29  H   UNL A   1      39.821  18.264  25.731  1.00  0.00     0.163 HD
ATOM     30  O   UNL A   1      42.214  18.379  25.978  1.00  0.00    -0.269 OA
BRANCH  28  31
ATOM     31  C   UNL A   1      42.017  20.660  26.432  1.00  0.00     0.039 A 
ATOM     32  C   UNL A   1      42.253  21.575  25.402  1.00  0.00     0.014 A 
ATOM     33  C   UNL A   1      42.297  21.004  27.754  1.00  0.00     0.014 A 
ATOM     34  C   UNL A   1      42.698  22.856  25.714  1.00  0.00     0.010 A 
ATOM     35  C   UNL A   1      42.604  22.318  28.073  1.00  0.00     0.010 A 
ATOM     36  C   UNL A   1      42.829  23.253  27.055  1.00  0.00    -0.014 A 
BRANCH  36  37
ATOM     37  C   UNL A   1      43.218  24.640  27.401  1.00  0.00     0.031 A 
ATOM     38  C   UNL A   1      44.617  25.122  27.137  1.00  0.00     0.074 A 
ATOM     39  C   UNL A   1      42.314  25.447  27.989  1.00  0.00     0.049 A 
ATOM     40  N   UNL A   1      45.139  26.303  27.355  1.00  0.00    -0.248 NA
ATOM     41  C   UNL A   1      45.571  24.142  26.591  1.00  0.00     0.031 C 
ATOM     42  C   UNL A   1      40.955  25.058  28.371  1.00  0.00     0.029 A 
ATOM     43  N   UNL A   1      42.397  26.764  28.359  1.00  0.00    -0.354 N 
ATOM     44  C   UNL A   1      46.474  26.199  26.986  1.00  0.00     0.074 A 
ATOM     45  C   UNL A   1      46.705  24.824  26.608  1.00  0.00     0.031 C 
ATOM     46  C   UNL A   1      40.313  26.128  28.867  1.00  0.00     0.029 A 
ATOM     47  C   UNL A   1      41.226  27.265  28.872  1.00  0.00     0.049 A 
ATOM     48  H   UNL A   1      43.218  27.300  28.266  1.00  0.00     0.167 HD
ATOM     49  C   UNL A   1      47.412  27.172  26.930  1.00  0.00     0.037 A 
ATOM     50  C   UNL A   1      40.923  28.510  29.285  1.00  0.00     0.037 A 
ATOM     51  C   UNL A   1      47.163  28.546  27.280  1.00  0.00     0.049 A 
ATOM     52  C   UNL A   1      41.973  29.580  29.178  1.00  0.00     0.074 A 
ATOM     53  C   UNL A   1      48.022  29.627  27.208  1.00  0.00     0.029 A 
ATOM     54  N   UNL A   1      45.955  29.024  27.770  1.00  0.00    -0.354 N 
ATOM     55  N   UNL A   1      43.209  29.491  28.747  1.00  0.00    -0.248 NA
ATOM     56  C   UNL A   1      41.579  30.931  29.597  1.00  0.00     0.031 C 
ATOM     57  C   UNL A   1      47.349  30.751  27.700  1.00  0.00     0.029 A 
ATOM     58  C   UNL A   1      46.051  30.383  28.021  1.00  0.00     0.049 A 
ATOM     59  H   UNL A   1      45.149  28.479  27.918  1.00  0.00     0.167 HD
ATOM     60  C   UNL A   1      43.731  30.775  28.817  1.00  0.00     0.074 A 
ATOM     61  C   UNL A   1      42.667  31.628  29.307  1.00  0.00     0.031 C 
ATOM     62  C   UNL A   1      44.978  31.211  28.510  1.00  0.00     0.037 A 
BRANCH  49  63
ATOM     63  C   UNL A   1      48.788  26.784  26.464  1.00  0.00     0.064 A 
ATOM     64  C   UNL A   1      49.737  26.234  27.340  1.00  0.00     0.173 A 
ATOM     65  C   UNL A   1      49.156  26.945  25.119  1.00  0.00     0.173 A 
ATOM     66  F   UNL A   1      49.443  26.072  28.639  1.00  0.00    -0.203 F 
ATOM     67  C   UNL A   1      51.012  25.894  26.897  1.00  0.00     0.198 A 
ATOM     68  C   UNL A   1      50.421  26.570  24.672  1.00  0.00     0.198 A 
ATOM     69  F   UNL A   1      48.289  27.464  24.237  1.00  0.00    -0.203 F 
ATOM     70  F   UNL A   1      51.920  25.427  27.766  1.00  0.00    -0.200 F 
ATOM     71  C   UNL A   1      51.351  26.054  25.562  1.00  0.00     0.200 A 
ATOM     72  F   UNL A   1      50.742  26.714  23.379  1.00  0.00    -0.200 F 
ATOM     73  F   UNL A   1      52.575  25.718  25.135  1.00  0.00    -0.200 F 
ENDBRANCH  49  63
BRANCH  50  74
ATOM     74  C   UNL A   1      39.556  28.817  29.782  1.00  0.00     0.064 A 
ATOM     75  C   UNL A   1      38.572  29.323  28.920  1.00  0.00     0.173 A 
ATOM     76  C   UNL A   1      39.205  28.617  31.124  1.00  0.00     0.173 A 
ATOM     77  F   UNL A   1      38.862  29.547  27.629  1.00  0.00    -0.203 F 
ATOM     78  C   UNL A   1      37.299  29.643  29.388  1.00  0.00     0.198 A 
ATOM     79  C   UNL A   1      37.922  28.907  31.584  1.00  0.00     0.198 A 
ATOM     80  F   UNL A   1      40.105  28.126  31.989  1.00  0.00    -0.203 F 
ATOM     81  F   UNL A   1      36.395  30.175  28.553  1.00  0.00    -0.200 F 
ATOM     82  C   UNL A   1      36.974  29.430  30.718  1.00  0.00     0.200 A 
ATOM     83  F   UNL A   1      37.605  28.683  32.867  1.00  0.00    -0.200 F 
ATOM     84  F   UNL A   1      35.749  29.735  31.167  1.00  0.00    -0.200 F 
ENDBRANCH  50  74
BRANCH  62  85
ATOM     85  C   UNL A   1      45.237  32.683  28.660  1.00  0.00     0.064 A 
ATOM     86  C   UNL A   1      45.769  33.222  29.841  1.00  0.00     0.173 A 
ATOM     87  C   UNL A   1      44.950  33.564  27.607  1.00  0.00     0.173 A 
ATOM     88  F   UNL A   1      46.050  32.423  30.882  1.00  0.00    -0.203 F 
ATOM     89  C   UNL A   1      45.955  34.595  29.980  1.00  0.00     0.198 A 
ATOM     90  C   UNL A   1      45.175  34.931  27.735  1.00  0.00     0.198 A 
ATOM     91  F   UNL A   1      44.452  33.100  26.452  1.00  0.00    -0.203 F 
ATOM     92  F   UNL A   1      46.394  35.094  31.144  1.00  0.00    -0.200 F 
ATOM     93  C   UNL A   1      45.662  35.447  28.926  1.00  0.00     0.200 A 
ATOM     94  F   UNL A   1      44.907  35.752  26.710  1.00  0.00    -0.200 F 
ATOM     95  F   UNL A   1      45.838  36.768  29.064  1.00  0.00    -0.200 F 
ENDBRANCH  62  85
ENDBRANCH  36  37
ENDBRANCH  28  31
ENDBRANCH  26  27
ENDBRANCH  25  26
ENDBRANCH   1  25
TORSDOF 16
ENDMDL
MODEL 3
REMARK VINA RESULT:     -12.0      2.217      4.568
REMARK SMILES CC(C)C[C@@H](CNc1ccc(C(=O)N(C)C)nn1)C(=O)NCCCNC(=O)c1ccc(-c2c3nc(c(-c4c(F)c(F)c(F)c(F)c4F)c4ccc([nH]4)c(-c4c(F)c(F)c(F)c(F)c4F)c4nc(c(-c5c(F)c(F)c(F)c(F)c5F)c5ccc2[nH]5)C=C4)C=C3)cc1
REMARK SMILES IDX 22 1 21 2 19 3 20 4 5 6 4 7 2 8 1 9 3 10 6 11 7 12 8 14 9 15
REMARK SMILES IDX 18 16 10 17 17 18 11 19 12 20 13 21 14 22 15 23 16 24 23 25
REMARK SMILES IDX 24 26 25 27 26 28 27 30 28 31 29 32 90 33 30 34 89 35 31 36
REMARK SMILES IDX 32 37 33 38 83 39 34 40 88 41 82 42 84 43 35 44 87 45 81 46
REMARK SMILES IDX 80 47 36 49 68 50 48 51 67 52 49 53 52 54 66 55 85 56 50 57
REMARK SMILES IDX 51 58 65 60 86 61 53 62 37 63 38 64 46 65 39 66 40 67 44 68
REMARK SMILES IDX 47 69 41 70 42 71 45 72 43 73 69 74 70 75 78 76 71 77 72 78
REMARK SMILES IDX 76 79 79 80 73 81 74 82 77 83 75 84 54 85 55 86 63 87 56 88
REMARK SMILES IDX 57 89 61 90 64 91 58 92 59 93 62 94 60 95
REMARK H PARENT 21 5 7 13 25 29 84 48 52 59
REMARK Flexibility Score: inf
ROOT
ATOM      1  C   UNL A   1      31.634  30.719  26.043  1.00  0.00     0.117 C 
ENDROOT
BRANCH   1   2
ATOM      2  N   UNL A   1      30.900  30.615  24.801  1.00  0.00    -0.356 N 
ATOM      3  C   UNL A   1      30.675  29.526  24.020  1.00  0.00     0.224 C 
ATOM      4  O   UNL A   1      29.798  29.621  23.156  1.00  0.00    -0.275 OA
ATOM      5  H   UNL A   1      30.507  31.456  24.473  1.00  0.00     0.163 HD
BRANCH   3   6
ATOM      6  C   UNL A   1      31.468  28.228  24.163  1.00  0.00     0.098 C 
BRANCH   6   7
ATOM      7  C   UNL A   1      30.571  27.002  24.413  1.00  0.00     0.018 C 
BRANCH   7   8
ATOM      8  C   UNL A   1      30.470  26.520  25.869  1.00  0.00    -0.017 C 
ATOM      9  C   UNL A   1      30.374  24.999  25.977  1.00  0.00     0.007 C 
ATOM     10  C   UNL A   1      31.692  27.014  26.651  1.00  0.00     0.007 C 
ENDBRANCH   7   8
ENDBRANCH   6   7
BRANCH   6  11
ATOM     11  C   UNL A   1      32.646  28.123  23.178  1.00  0.00     0.128 C 
BRANCH  11  12
ATOM     12  N   UNL A   1      32.787  26.872  22.448  1.00  0.00    -0.368 N 
ATOM     13  H   UNL A   1      32.382  26.809  21.553  1.00  0.00     0.162 HD
BRANCH  12  14
ATOM     14  C   UNL A   1      33.456  25.770  22.939  1.00  0.00     0.148 A 
ATOM     15  C   UNL A   1      33.990  25.706  24.216  1.00  0.00     0.051 A 
ATOM     16  N   UNL A   1      33.630  24.720  22.113  1.00  0.00    -0.132 NA
ATOM     17  C   UNL A   1      34.774  24.617  24.606  1.00  0.00     0.040 A 
ATOM     18  N   UNL A   1      34.418  23.633  22.479  1.00  0.00    -0.143 NA
ATOM     19  C   UNL A   1      34.976  23.588  23.707  1.00  0.00     0.151 A 
BRANCH  19  20
ATOM     20  C   UNL A   1      35.912  22.457  23.980  1.00  0.00     0.273 C 
ATOM     21  O   UNL A   1      37.075  22.565  23.584  1.00  0.00    -0.267 OA
ATOM     22  N   UNL A   1      35.494  21.330  24.707  1.00  0.00    -0.343 N 
ATOM     23  C   UNL A   1      34.124  20.994  25.060  1.00  0.00     0.146 C 
ATOM     24  C   UNL A   1      36.508  20.336  25.021  1.00  0.00     0.146 C 
ENDBRANCH  19  20
ENDBRANCH  12  14
ENDBRANCH  11  12
ENDBRANCH   6  11
ENDBRANCH   3   6
ENDBRANCH   1   2
BRANCH   1  25
ATOM     25  C   UNL A   1      31.359  31.996  26.808  1.00  0.00     0.042 C 
BRANCH  25  26
ATOM     26  C   UNL A   1      32.627  32.738  27.186  1.00  0.00     0.118 C 
BRANCH  26  27
ATOM     27  N   UNL A   1      32.378  34.098  27.656  1.00  0.00    -0.352 N 
ATOM     28  C   UNL A   1      32.992  34.836  28.635  1.00  0.00     0.251 C 
ATOM     29  H   UNL A   1      31.646  34.564  27.191  1.00  0.00     0.163 HD
ATOM     30  O   UNL A   1      32.531  35.923  28.972  1.00  0.00    -0.269 OA
BRANCH  28  31
ATOM     31  C   UNL A   1      34.191  34.318  29.317  1.00  0.00     0.039 A 
ATOM     32  C   UNL A   1      34.022  33.536  30.463  1.00  0.00     0.014 A 
ATOM     33  C   UNL A   1      35.471  34.586  28.833  1.00  0.00     0.014 A 
ATOM     34  C   UNL A   1      35.136  32.966  31.073  1.00  0.00     0.010 A 
ATOM     35  C   UNL A   1      36.561  33.905  29.355  1.00  0.00     0.010 A 
ATOM     36  C   UNL A   1      36.408  33.106  30.494  1.00  0.00    -0.014 A 
BRANCH  36  37
ATOM     37  C   UNL A   1      37.588  32.431  31.085  1.00  0.00     0.031 A 
ATOM     38  C   UNL A   1      38.060  32.802  32.463  1.00  0.00     0.074 A 
ATOM     39  C   UNL A   1      38.250  31.512  30.357  1.00  0.00     0.049 A 
ATOM     40  N   UNL A   1      39.060  32.313  33.153  1.00  0.00    -0.248 NA
ATOM     41  C   UNL A   1      37.343  33.892  33.146  1.00  0.00     0.031 C 
ATOM     42  C   UNL A   1      37.933  31.136  28.977  1.00  0.00     0.029 A 
ATOM     43  N   UNL A   1      39.321  30.719  30.677  1.00  0.00    -0.354 N 
ATOM     44  C   UNL A   1      39.094  33.042  34.335  1.00  0.00     0.074 A 
ATOM     45  C   UNL A   1      38.072  34.058  34.238  1.00  0.00     0.031 C 
ATOM     46  C   UNL A   1      38.752  30.146  28.591  1.00  0.00     0.029 A 
ATOM     47  C   UNL A   1      39.674  29.844  29.680  1.00  0.00     0.049 A 
ATOM     48  H   UNL A   1      39.793  30.772  31.540  1.00  0.00     0.167 HD
ATOM     49  C   UNL A   1      39.881  32.854  35.420  1.00  0.00     0.037 A 
ATOM     50  C   UNL A   1      40.626  28.894  29.657  1.00  0.00     0.037 A 
ATOM     51  C   UNL A   1      40.876  31.819  35.517  1.00  0.00     0.049 A 
ATOM     52  C   UNL A   1      41.463  28.682  30.889  1.00  0.00     0.074 A 
ATOM     53  C   UNL A   1      41.690  31.500  36.588  1.00  0.00     0.029 A 
ATOM     54  N   UNL A   1      41.187  30.931  34.496  1.00  0.00    -0.354 N 
ATOM     55  N   UNL A   1      41.431  29.321  32.034  1.00  0.00    -0.248 NA
ATOM     56  C   UNL A   1      42.457  27.603  30.831  1.00  0.00     0.031 C 
ATOM     57  C   UNL A   1      42.529  30.450  36.198  1.00  0.00     0.029 A 
ATOM     58  C   UNL A   1      42.196  30.074  34.906  1.00  0.00     0.049 A 
ATOM     59  H   UNL A   1      40.756  30.912  33.612  1.00  0.00     0.167 HD
ATOM     60  C   UNL A   1      42.377  28.705  32.841  1.00  0.00     0.074 A 
ATOM     61  C   UNL A   1      42.946  27.625  32.061  1.00  0.00     0.031 C 
ATOM     62  C   UNL A   1      42.747  29.007  34.111  1.00  0.00     0.037 A 
BRANCH  49  63
ATOM     63  C   UNL A   1      39.687  33.782  36.586  1.00  0.00     0.064 A 
ATOM     64  C   UNL A   1      40.310  35.039  36.643  1.00  0.00     0.173 A 
ATOM     65  C   UNL A   1      38.852  33.419  37.654  1.00  0.00     0.173 A 
ATOM     66  F   UNL A   1      41.131  35.430  35.656  1.00  0.00    -0.203 F 
ATOM     67  C   UNL A   1      40.133  35.880  37.737  1.00  0.00     0.198 A 
ATOM     68  C   UNL A   1      38.648  34.279  38.731  1.00  0.00     0.198 A 
ATOM     69  F   UNL A   1      38.229  32.231  37.654  1.00  0.00    -0.203 F 
ATOM     70  F   UNL A   1      40.787  37.050  37.794  1.00  0.00    -0.200 F 
ATOM     71  C   UNL A   1      39.296  35.505  38.776  1.00  0.00     0.200 A 
ATOM     72  F   UNL A   1      37.829  33.919  39.728  1.00  0.00    -0.200 F 
ATOM     73  F   UNL A   1      39.120  36.319  39.825  1.00  0.00    -0.200 F 
ENDBRANCH  49  63
BRANCH  50  74
ATOM     74  C   UNL A   1      40.799  28.041  28.452  1.00  0.00     0.064 A 
ATOM     75  C   UNL A   1      41.607  28.458  27.383  1.00  0.00     0.173 A 
ATOM     76  C   UNL A   1      40.160  26.798  28.338  1.00  0.00     0.173 A 
ATOM     77  F   UNL A   1      42.227  29.646  27.436  1.00  0.00    -0.203 F 
ATOM     78  C   UNL A   1      41.746  27.677  26.238  1.00  0.00     0.198 A 
ATOM     79  C   UNL A   1      40.326  26.004  27.207  1.00  0.00     0.198 A 
ATOM     80  F   UNL A   1      39.384  26.347  29.336  1.00  0.00    -0.203 F 
ATOM     81  F   UNL A   1      42.482  28.124  25.210  1.00  0.00    -0.200 F 
ATOM     82  C   UNL A   1      41.110  26.449  26.152  1.00  0.00     0.200 A 
ATOM     83  F   UNL A   1      39.724  24.808  27.134  1.00  0.00    -0.200 F 
ATOM     84  F   UNL A   1      41.246  25.696  25.051  1.00  0.00    -0.200 F 
ENDBRANCH  50  74
BRANCH  62  85
ATOM     85  C   UNL A   1      43.790  28.127  34.739  1.00  0.00     0.064 A 
ATOM     86  C   UNL A   1      43.448  26.955  35.431  1.00  0.00     0.173 A 
ATOM     87  C   UNL A   1      45.149  28.462  34.646  1.00  0.00     0.173 A 
ATOM     88  F   UNL A   1      42.162  26.596  35.559  1.00  0.00    -0.203 F 
ATOM     89  C   UNL A   1      44.425  26.179  36.049  1.00  0.00     0.198 A 
ATOM     90  C   UNL A   1      46.126  27.662  35.232  1.00  0.00     0.198 A 
ATOM     91  F   UNL A   1      45.532  29.565  33.986  1.00  0.00    -0.203 F 
ATOM     92  F   UNL A   1      44.068  25.105  36.768  1.00  0.00    -0.200 F 
ATOM     93  C   UNL A   1      45.762  26.531  35.946  1.00  0.00     0.200 A 
ATOM     94  F   UNL A   1      47.419  27.994  35.116  1.00  0.00    -0.200 F 
ATOM     95  F   UNL A   1      46.700  25.785  36.545  1.00  0.00    -0.200 F 
ENDBRANCH  62  85
ENDBRANCH  36  37
ENDBRANCH  28  31
ENDBRANCH  26  27
ENDBRANCH  25  26
ENDBRANCH   1  25
TORSDOF 16
ENDMDL
