MODEL 1
REMARK VINA RESULT:     -12.3      0.000      0.000
REMARK SMILES CCC(CC)([NH2+]CC(=O)Nc1ccc(C)cc1)C(=O)NCCCNC(=O)c1ccc(-c2c3nc(c(-c4c(F)c(F)c(F)c(F)c4F)c4ccc([nH]4)c(-c4c(F)c(F)c(F)c(F)c4F)c4nc(c(-c5c(F)c(F)c(F)c(F)c5F)c5ccc2[nH]5)C=C4)C=C3)cc1
REMARK SMILES IDX 21 1 20 2 18 3 19 4 3 6 2 7 1 8 4 9 5 10 6 11 7 14 8 15 9 16
REMARK SMILES IDX 10 17 11 19 12 20 17 21 13 22 16 23 14 24 15 25 22 26 23 27
REMARK SMILES IDX 24 28 25 29 26 31 27 32 28 33 89 34 29 35 88 36 30 37 31 38
REMARK SMILES IDX 32 39 82 40 33 41 87 42 81 43 83 44 34 45 86 46 80 47 79 48
REMARK SMILES IDX 35 50 67 51 47 52 66 53 48 54 51 55 65 56 84 57 49 58 50 59
REMARK SMILES IDX 64 61 85 62 52 63 36 64 37 65 45 66 38 67 39 68 43 69 46 70
REMARK SMILES IDX 40 71 41 72 44 73 42 74 68 75 69 76 77 77 70 78 71 79 75 80
REMARK SMILES IDX 78 81 72 82 73 83 76 84 74 85 53 86 54 87 62 88 55 89 56 90
REMARK SMILES IDX 60 91 63 92 57 93 58 94 61 95 59 96
REMARK H PARENT 20 5 6 12 6 13 10 18 24 30 83 49 51 60
REMARK Flexibility Score: inf
ROOT
ATOM      1  C   UNL A   1      37.194  20.239  24.629  1.00  0.00     0.118 C 
ENDROOT
BRANCH   1   2
ATOM      2  N   UNL A   1      35.959  20.421  25.416  1.00  0.00    -0.351 N 
ATOM      3  C   UNL A   1      34.680  20.713  24.937  1.00  0.00     0.281 C 
ATOM      4  O   UNL A   1      33.894  19.756  24.949  1.00  0.00    -0.268 OA
ATOM      5  H   UNL A   1      36.047  20.324  26.392  1.00  0.00     0.163 HD
BRANCH   3   6
ATOM      6  C   UNL A   1      34.144  22.260  24.800  1.00  0.00     0.175 C 
BRANCH   6   7
ATOM      7  C   UNL A   1      35.481  23.020  24.416  1.00  0.00     0.076 C 
ATOM      8  C   UNL A   1      35.933  24.084  25.448  1.00  0.00     0.011 C 
ENDBRANCH   6   7
BRANCH   6   9
ATOM      9  C   UNL A   1      33.484  23.176  25.895  1.00  0.00     0.076 C 
ATOM     10  C   UNL A   1      32.016  22.868  26.246  1.00  0.00     0.011 C 
ENDBRANCH   6   9
BRANCH   6  11
ATOM     11  N   UNL A   1      33.188  22.213  23.706  1.00  0.00    -0.326 N 
ATOM     12  H   UNL A   1      32.295  22.529  24.085  1.00  0.00     0.347 HD
ATOM     13  H   UNL A   1      33.256  21.247  23.386  1.00  0.00     0.347 HD
BRANCH  11  14
ATOM     14  C   UNL A   1      33.419  22.985  22.475  1.00  0.00     0.363 C 
BRANCH  14  15
ATOM     15  C   UNL A   1      33.070  24.457  22.093  1.00  0.00     0.279 C 
ATOM     16  O   UNL A   1      33.175  24.696  20.867  1.00  0.00    -0.268 OA
ATOM     17  N   UNL A   1      32.410  25.471  22.728  1.00  0.00    -0.321 N 
ATOM     18  H   UNL A   1      31.901  25.976  22.053  1.00  0.00     0.170 HD
BRANCH  17  19
ATOM     19  C   UNL A   1      32.181  26.071  23.992  1.00  0.00     0.041 A 
ATOM     20  C   UNL A   1      30.997  26.080  24.706  1.00  0.00     0.026 A 
ATOM     21  C   UNL A   1      33.280  26.621  24.662  1.00  0.00     0.026 A 
ATOM     22  C   UNL A   1      30.822  26.777  25.909  1.00  0.00     0.005 A 
ATOM     23  C   UNL A   1      33.134  27.300  25.892  1.00  0.00     0.005 A 
ATOM     24  C   UNL A   1      31.883  27.445  26.489  1.00  0.00    -0.051 A 
ATOM     25  C   UNL A   1      31.660  28.224  27.750  1.00  0.00     0.044 C 
ENDBRANCH  17  19
ENDBRANCH  14  15
ENDBRANCH  11  14
ENDBRANCH   6  11
ENDBRANCH   3   6
ENDBRANCH   1   2
BRANCH   1  26
ATOM     26  C   UNL A   1      38.497  20.374  25.431  1.00  0.00     0.042 C 
BRANCH  26  27
ATOM     27  C   UNL A   1      38.929  21.812  25.716  1.00  0.00     0.118 C 
BRANCH  27  28
ATOM     28  N   UNL A   1      40.310  21.965  26.206  1.00  0.00    -0.352 N 
ATOM     29  C   UNL A   1      40.946  23.117  26.683  1.00  0.00     0.251 C 
ATOM     30  H   UNL A   1      40.859  21.148  26.196  1.00  0.00     0.163 HD
ATOM     31  O   UNL A   1      42.048  23.091  27.165  1.00  0.00    -0.269 OA
BRANCH  29  32
ATOM     32  C   UNL A   1      40.149  24.371  26.677  1.00  0.00     0.039 A 
ATOM     33  C   UNL A   1      40.746  25.488  26.087  1.00  0.00     0.014 A 
ATOM     34  C   UNL A   1      39.135  24.500  27.617  1.00  0.00     0.014 A 
ATOM     35  C   UNL A   1      40.566  26.725  26.692  1.00  0.00     0.010 A 
ATOM     36  C   UNL A   1      39.050  25.705  28.288  1.00  0.00     0.010 A 
ATOM     37  C   UNL A   1      39.852  26.785  27.888  1.00  0.00    -0.014 A 
BRANCH  37  38
ATOM     38  C   UNL A   1      40.055  27.854  28.864  1.00  0.00     0.031 A 
ATOM     39  C   UNL A   1      39.149  29.022  28.884  1.00  0.00     0.074 A 
ATOM     40  C   UNL A   1      41.045  27.759  29.789  1.00  0.00     0.049 A 
ATOM     41  N   UNL A   1      39.442  30.138  29.461  1.00  0.00    -0.248 NA
ATOM     42  C   UNL A   1      37.871  29.069  28.175  1.00  0.00     0.031 C 
ATOM     43  C   UNL A   1      41.212  28.574  30.993  1.00  0.00     0.029 A 
ATOM     44  N   UNL A   1      42.251  27.031  29.704  1.00  0.00    -0.354 N 
ATOM     45  C   UNL A   1      38.312  30.914  29.463  1.00  0.00     0.074 A 
ATOM     46  C   UNL A   1      37.416  30.272  28.539  1.00  0.00     0.031 C 
ATOM     47  C   UNL A   1      42.505  28.568  31.349  1.00  0.00     0.029 A 
ATOM     48  C   UNL A   1      43.230  27.853  30.317  1.00  0.00     0.049 A 
ATOM     49  H   UNL A   1      42.384  26.141  29.304  1.00  0.00     0.167 HD
ATOM     50  C   UNL A   1      38.228  31.939  30.353  1.00  0.00     0.037 A 
ATOM     51  C   UNL A   1      44.312  28.332  29.639  1.00  0.00     0.037 A 
ATOM     52  C   UNL A   1      39.537  32.256  30.917  1.00  0.00     0.049 A 
ATOM     53  C   UNL A   1      44.440  29.837  29.643  1.00  0.00     0.074 A 
ATOM     54  C   UNL A   1      40.120  32.089  32.160  1.00  0.00     0.029 A 
ATOM     55  N   UNL A   1      40.556  32.640  30.051  1.00  0.00    -0.354 N 
ATOM     56  N   UNL A   1      43.483  30.642  30.012  1.00  0.00    -0.248 NA
ATOM     57  C   UNL A   1      45.623  30.556  29.175  1.00  0.00     0.031 C 
ATOM     58  C   UNL A   1      41.520  32.293  32.011  1.00  0.00     0.029 A 
ATOM     59  C   UNL A   1      41.776  32.632  30.694  1.00  0.00     0.049 A 
ATOM     60  H   UNL A   1      40.425  32.884  29.106  1.00  0.00     0.167 HD
ATOM     61  C   UNL A   1      43.859  31.939  29.776  1.00  0.00     0.074 A 
ATOM     62  C   UNL A   1      45.222  31.834  29.291  1.00  0.00     0.031 C 
ATOM     63  C   UNL A   1      42.991  32.975  29.965  1.00  0.00     0.037 A 
BRANCH  50  64
ATOM     64  C   UNL A   1      36.939  32.561  30.844  1.00  0.00     0.064 A 
ATOM     65  C   UNL A   1      36.231  33.466  30.022  1.00  0.00     0.173 A 
ATOM     66  C   UNL A   1      36.421  32.425  32.151  1.00  0.00     0.173 A 
ATOM     67  F   UNL A   1      36.623  33.708  28.763  1.00  0.00    -0.203 F 
ATOM     68  C   UNL A   1      35.112  34.173  30.475  1.00  0.00     0.198 A 
ATOM     69  C   UNL A   1      35.268  33.087  32.581  1.00  0.00     0.198 A 
ATOM     70  F   UNL A   1      37.040  31.706  33.093  1.00  0.00    -0.203 F 
ATOM     71  F   UNL A   1      34.520  35.068  29.671  1.00  0.00    -0.200 F 
ATOM     72  C   UNL A   1      34.622  33.973  31.749  1.00  0.00     0.200 A 
ATOM     73  F   UNL A   1      34.813  32.880  33.826  1.00  0.00    -0.200 F 
ATOM     74  F   UNL A   1      33.547  34.646  32.183  1.00  0.00    -0.200 F 
ENDBRANCH  50  64
BRANCH  51  75
ATOM     75  C   UNL A   1      44.766  27.436  28.548  1.00  0.00     0.064 A 
ATOM     76  C   UNL A   1      45.408  26.237  28.907  1.00  0.00     0.173 A 
ATOM     77  C   UNL A   1      44.254  27.532  27.252  1.00  0.00     0.173 A 
ATOM     78  F   UNL A   1      45.932  26.111  30.135  1.00  0.00    -0.203 F 
ATOM     79  C   UNL A   1      45.411  25.132  28.063  1.00  0.00     0.198 A 
ATOM     80  C   UNL A   1      44.279  26.429  26.395  1.00  0.00     0.198 A 
ATOM     81  F   UNL A   1      43.616  28.643  26.857  1.00  0.00    -0.203 F 
ATOM     82  F   UNL A   1      45.912  23.964  28.492  1.00  0.00    -0.200 F 
ATOM     83  C   UNL A   1      44.820  25.221  26.815  1.00  0.00     0.200 A 
ATOM     84  F   UNL A   1      43.677  26.503  25.199  1.00  0.00    -0.200 F 
ATOM     85  F   UNL A   1      44.725  24.134  26.037  1.00  0.00    -0.200 F 
ENDBRANCH  51  75
BRANCH  63  86
ATOM     86  C   UNL A   1      43.193  34.408  29.526  1.00  0.00     0.064 A 
ATOM     87  C   UNL A   1      43.303  35.501  30.403  1.00  0.00     0.173 A 
ATOM     88  C   UNL A   1      43.442  34.701  28.162  1.00  0.00     0.173 A 
ATOM     89  F   UNL A   1      43.206  35.344  31.730  1.00  0.00    -0.203 F 
ATOM     90  C   UNL A   1      43.584  36.793  29.946  1.00  0.00     0.198 A 
ATOM     91  C   UNL A   1      43.782  35.979  27.717  1.00  0.00     0.198 A 
ATOM     92  F   UNL A   1      43.390  33.746  27.221  1.00  0.00    -0.203 F 
ATOM     93  F   UNL A   1      43.642  37.807  30.821  1.00  0.00    -0.200 F 
ATOM     94  C   UNL A   1      43.838  37.030  28.608  1.00  0.00     0.200 A 
ATOM     95  F   UNL A   1      44.075  36.179  26.424  1.00  0.00    -0.200 F 
ATOM     96  F   UNL A   1      44.158  38.259  28.183  1.00  0.00    -0.200 F 
ENDBRANCH  63  86
ENDBRANCH  37  38
ENDBRANCH  29  32
ENDBRANCH  27  28
ENDBRANCH  26  27
ENDBRANCH   1  26
TORSDOF 16
ENDMDL
MODEL 2
REMARK VINA RESULT:     -12.2      1.531      2.288
REMARK SMILES CCC(CC)([NH2+]CC(=O)Nc1ccc(C)cc1)C(=O)NCCCNC(=O)c1ccc(-c2c3nc(c(-c4c(F)c(F)c(F)c(F)c4F)c4ccc([nH]4)c(-c4c(F)c(F)c(F)c(F)c4F)c4nc(c(-c5c(F)c(F)c(F)c(F)c5F)c5ccc2[nH]5)C=C4)C=C3)cc1
REMARK SMILES IDX 21 1 20 2 18 3 19 4 3 6 2 7 1 8 4 9 5 10 6 11 7 14 8 15 9 16
REMARK SMILES IDX 10 17 11 19 12 20 17 21 13 22 16 23 14 24 15 25 22 26 23 27
REMARK SMILES IDX 24 28 25 29 26 31 27 32 28 33 89 34 29 35 88 36 30 37 31 38
REMARK SMILES IDX 32 39 82 40 33 41 87 42 81 43 83 44 34 45 86 46 80 47 79 48
REMARK SMILES IDX 35 50 67 51 47 52 66 53 48 54 51 55 65 56 84 57 49 58 50 59
REMARK SMILES IDX 64 61 85 62 52 63 36 64 37 65 45 66 38 67 39 68 43 69 46 70
REMARK SMILES IDX 40 71 41 72 44 73 42 74 68 75 69 76 77 77 70 78 71 79 75 80
REMARK SMILES IDX 78 81 72 82 73 83 76 84 74 85 53 86 54 87 62 88 55 89 56 90
REMARK SMILES IDX 60 91 63 92 57 93 58 94 61 95 59 96
REMARK H PARENT 20 5 6 12 6 13 10 18 24 30 83 49 51 60
REMARK Flexibility Score: inf
ROOT
ATOM      1  C   UNL A   1      37.301  21.006  24.805  1.00  0.00     0.118 C 
ENDROOT
BRANCH   1   2
ATOM      2  N   UNL A   1      35.980  20.986  25.465  1.00  0.00    -0.351 N 
ATOM      3  C   UNL A   1      34.733  21.221  24.881  1.00  0.00     0.281 C 
ATOM      4  O   UNL A   1      34.049  20.205  24.702  1.00  0.00    -0.268 OA
ATOM      5  H   UNL A   1      35.978  20.783  26.428  1.00  0.00     0.163 HD
BRANCH   3   6
ATOM      6  C   UNL A   1      34.064  22.721  24.854  1.00  0.00     0.175 C 
BRANCH   6   7
ATOM      7  C   UNL A   1      34.437  23.202  23.390  1.00  0.00     0.076 C 
ATOM      8  C   UNL A   1      33.285  23.081  22.361  1.00  0.00     0.011 C 
ENDBRANCH   6   7
BRANCH   6   9
ATOM      9  C   UNL A   1      34.391  23.965  25.760  1.00  0.00     0.076 C 
ATOM     10  C   UNL A   1      34.296  25.345  25.082  1.00  0.00     0.011 C 
ENDBRANCH   6   9
BRANCH   6  11
ATOM     11  N   UNL A   1      32.640  22.482  25.022  1.00  0.00    -0.326 N 
ATOM     12  H   UNL A   1      32.479  21.503  24.786  1.00  0.00     0.347 HD
ATOM     13  H   UNL A   1      32.218  23.193  24.425  1.00  0.00     0.347 HD
BRANCH  11  14
ATOM     14  C   UNL A   1      31.989  22.714  26.321  1.00  0.00     0.363 C 
BRANCH  14  15
ATOM     15  C   UNL A   1      30.706  23.513  26.710  1.00  0.00     0.279 C 
ATOM     16  O   UNL A   1      30.015  22.951  27.593  1.00  0.00    -0.268 OA
ATOM     17  N   UNL A   1      30.300  24.804  26.527  1.00  0.00    -0.321 N 
ATOM     18  H   UNL A   1      29.798  25.084  27.326  1.00  0.00     0.170 HD
BRANCH  17  19
ATOM     19  C   UNL A   1      30.328  25.893  25.618  1.00  0.00     0.041 A 
ATOM     20  C   UNL A   1      29.572  26.038  24.470  1.00  0.00     0.026 A 
ATOM     21  C   UNL A   1      31.112  27.003  25.955  1.00  0.00     0.026 A 
ATOM     22  C   UNL A   1      29.724  27.101  23.571  1.00  0.00     0.005 A 
ATOM     23  C   UNL A   1      31.254  28.102  25.079  1.00  0.00     0.005 A 
ATOM     24  C   UNL A   1      30.614  28.123  23.842  1.00  0.00    -0.051 A 
ATOM     25  C   UNL A   1      30.794  29.224  22.842  1.00  0.00     0.044 C 
ENDBRANCH  17  19
ENDBRANCH  14  15
ENDBRANCH  11  14
ENDBRANCH   6  11
ENDBRANCH   3   6
ENDBRANCH   1   2
BRANCH   1  26
ATOM     26  C   UNL A   1      38.497  21.142  25.759  1.00  0.00     0.042 C 
BRANCH  26  27
ATOM     27  C   UNL A   1      38.912  22.580  26.067  1.00  0.00     0.118 C 
BRANCH  27  28
ATOM     28  N   UNL A   1      40.350  22.775  26.321  1.00  0.00    -0.352 N 
ATOM     29  C   UNL A   1      41.011  23.925  26.767  1.00  0.00     0.251 C 
ATOM     30  H   UNL A   1      40.923  21.992  26.154  1.00  0.00     0.163 HD
ATOM     31  O   UNL A   1      42.181  23.927  27.048  1.00  0.00    -0.269 OA
BRANCH  29  32
ATOM     32  C   UNL A   1      40.173  25.131  26.995  1.00  0.00     0.039 A 
ATOM     33  C   UNL A   1      40.526  26.281  26.283  1.00  0.00     0.014 A 
ATOM     34  C   UNL A   1      39.445  25.202  28.176  1.00  0.00     0.014 A 
ATOM     35  C   UNL A   1      40.447  27.505  26.933  1.00  0.00     0.010 A 
ATOM     36  C   UNL A   1      39.478  26.401  28.863  1.00  0.00     0.010 A 
ATOM     37  C   UNL A   1      40.081  27.524  28.278  1.00  0.00    -0.014 A 
BRANCH  37  38
ATOM     38  C   UNL A   1      40.479  28.604  29.178  1.00  0.00     0.031 A 
ATOM     39  C   UNL A   1      39.536  29.700  29.485  1.00  0.00     0.074 A 
ATOM     40  C   UNL A   1      41.697  28.582  29.777  1.00  0.00     0.049 A 
ATOM     41  N   UNL A   1      39.903  30.835  29.979  1.00  0.00    -0.248 NA
ATOM     42  C   UNL A   1      38.109  29.653  29.174  1.00  0.00     0.031 C 
ATOM     43  C   UNL A   1      42.146  29.406  30.901  1.00  0.00     0.029 A 
ATOM     44  N   UNL A   1      42.876  27.947  29.332  1.00  0.00    -0.354 N 
ATOM     45  C   UNL A   1      38.769  31.524  30.324  1.00  0.00     0.074 A 
ATOM     46  C   UNL A   1      37.693  30.818  29.682  1.00  0.00     0.031 C 
ATOM     47  C   UNL A   1      43.484  29.496  30.870  1.00  0.00     0.029 A 
ATOM     48  C   UNL A   1      43.929  28.839  29.657  1.00  0.00     0.049 A 
ATOM     49  H   UNL A   1      42.952  27.070  28.890  1.00  0.00     0.167 HD
ATOM     50  C   UNL A   1      38.872  32.538  31.224  1.00  0.00     0.037 A 
ATOM     51  C   UNL A   1      44.734  29.399  28.709  1.00  0.00     0.037 A 
ATOM     52  C   UNL A   1      40.262  32.951  31.395  1.00  0.00     0.049 A 
ATOM     53  C   UNL A   1      44.749  30.909  28.711  1.00  0.00     0.074 A 
ATOM     54  C   UNL A   1      41.189  32.826  32.414  1.00  0.00     0.029 A 
ATOM     55  N   UNL A   1      40.958  33.412  30.282  1.00  0.00    -0.354 N 
ATOM     56  N   UNL A   1      43.885  31.640  29.357  1.00  0.00    -0.248 NA
ATOM     57  C   UNL A   1      45.692  31.716  27.939  1.00  0.00     0.031 C 
ATOM     58  C   UNL A   1      42.469  33.136  31.874  1.00  0.00     0.029 A 
ATOM     59  C   UNL A   1      42.309  33.495  30.547  1.00  0.00     0.049 A 
ATOM     60  H   UNL A   1      40.543  33.648  29.420  1.00  0.00     0.167 HD
ATOM     61  C   UNL A   1      44.083  32.961  29.054  1.00  0.00     0.074 A 
ATOM     62  C   UNL A   1      45.252  32.960  28.195  1.00  0.00     0.031 C 
ATOM     63  C   UNL A   1      43.234  33.929  29.509  1.00  0.00     0.037 A 
BRANCH  50  64
ATOM     64  C   UNL A   1      37.739  33.061  32.080  1.00  0.00     0.064 A 
ATOM     65  C   UNL A   1      36.695  33.809  31.492  1.00  0.00     0.173 A 
ATOM     66  C   UNL A   1      37.688  32.986  33.489  1.00  0.00     0.173 A 
ATOM     67  F   UNL A   1      36.629  33.979  30.163  1.00  0.00    -0.203 F 
ATOM     68  C   UNL A   1      35.697  34.430  32.251  1.00  0.00     0.198 A 
ATOM     69  C   UNL A   1      36.657  33.558  34.240  1.00  0.00     0.198 A 
ATOM     70  F   UNL A   1      38.662  32.424  34.211  1.00  0.00    -0.203 F 
ATOM     71  F   UNL A   1      34.769  35.182  31.642  1.00  0.00    -0.200 F 
ATOM     72  C   UNL A   1      35.670  34.293  33.623  1.00  0.00     0.200 A 
ATOM     73  F   UNL A   1      36.654  33.415  35.574  1.00  0.00    -0.200 F 
ATOM     74  F   UNL A   1      34.713  34.884  34.351  1.00  0.00    -0.200 F 
ENDBRANCH  50  64
BRANCH  51  75
ATOM     75  C   UNL A   1      44.916  28.541  27.513  1.00  0.00     0.064 A 
ATOM     76  C   UNL A   1      45.759  27.421  27.630  1.00  0.00     0.173 A 
ATOM     77  C   UNL A   1      44.020  28.567  26.441  1.00  0.00     0.173 A 
ATOM     78  F   UNL A   1      46.648  27.366  28.632  1.00  0.00    -0.203 F 
ATOM     79  C   UNL A   1      45.613  26.311  26.804  1.00  0.00     0.198 A 
ATOM     80  C   UNL A   1      43.891  27.461  25.596  1.00  0.00     0.198 A 
ATOM     81  F   UNL A   1      43.179  29.599  26.286  1.00  0.00    -0.203 F 
ATOM     82  F   UNL A   1      46.341  25.207  27.033  1.00  0.00    -0.200 F 
ATOM     83  C   UNL A   1      44.658  26.322  25.803  1.00  0.00     0.200 A 
ATOM     84  F   UNL A   1      42.944  27.456  24.648  1.00  0.00    -0.200 F 
ATOM     85  F   UNL A   1      44.439  25.220  25.072  1.00  0.00    -0.200 F 
ENDBRANCH  51  75
BRANCH  63  86
ATOM     86  C   UNL A   1      43.198  35.374  29.063  1.00  0.00     0.064 A 
ATOM     87  C   UNL A   1      42.678  35.814  27.834  1.00  0.00     0.173 A 
ATOM     88  C   UNL A   1      43.564  36.403  29.967  1.00  0.00     0.173 A 
ATOM     89  F   UNL A   1      42.187  34.951  26.934  1.00  0.00    -0.203 F 
ATOM     90  C   UNL A   1      42.583  37.173  27.512  1.00  0.00     0.198 A 
ATOM     91  C   UNL A   1      43.411  37.757  29.667  1.00  0.00     0.198 A 
ATOM     92  F   UNL A   1      44.056  36.122  31.183  1.00  0.00    -0.203 F 
ATOM     93  F   UNL A   1      42.113  37.539  26.311  1.00  0.00    -0.200 F 
ATOM     94  C   UNL A   1      42.935  38.143  28.432  1.00  0.00     0.200 A 
ATOM     95  F   UNL A   1      43.710  38.681  30.591  1.00  0.00    -0.200 F 
ATOM     96  F   UNL A   1      42.794  39.442  28.139  1.00  0.00    -0.200 F 
ENDBRANCH  63  86
ENDBRANCH  37  38
ENDBRANCH  29  32
ENDBRANCH  27  28
ENDBRANCH  26  27
ENDBRANCH   1  26
TORSDOF 16
ENDMDL
MODEL 3
REMARK VINA RESULT:     -12.1      3.258      9.424
REMARK SMILES CCC(CC)([NH2+]CC(=O)Nc1ccc(C)cc1)C(=O)NCCCNC(=O)c1ccc(-c2c3nc(c(-c4c(F)c(F)c(F)c(F)c4F)c4ccc([nH]4)c(-c4c(F)c(F)c(F)c(F)c4F)c4nc(c(-c5c(F)c(F)c(F)c(F)c5F)c5ccc2[nH]5)C=C4)C=C3)cc1
REMARK SMILES IDX 21 1 20 2 18 3 19 4 3 6 2 7 1 8 4 9 5 10 6 11 7 14 8 15 9 16
REMARK SMILES IDX 10 17 11 19 12 20 17 21 13 22 16 23 14 24 15 25 22 26 23 27
REMARK SMILES IDX 24 28 25 29 26 31 27 32 28 33 89 34 29 35 88 36 30 37 31 38
REMARK SMILES IDX 32 39 82 40 33 41 87 42 81 43 83 44 34 45 86 46 80 47 79 48
REMARK SMILES IDX 35 50 67 51 47 52 66 53 48 54 51 55 65 56 84 57 49 58 50 59
REMARK SMILES IDX 64 61 85 62 52 63 36 64 37 65 45 66 38 67 39 68 43 69 46 70
REMARK SMILES IDX 40 71 41 72 44 73 42 74 68 75 69 76 77 77 70 78 71 79 75 80
REMARK SMILES IDX 78 81 72 82 73 83 76 84 74 85 53 86 54 87 62 88 55 89 56 90
REMARK SMILES IDX 60 91 63 92 57 93 58 94 61 95 59 96
REMARK H PARENT 20 5 6 12 6 13 10 18 24 30 83 49 51 60
REMARK Flexibility Score: inf
ROOT
ATOM      1  C   UNL A   1      31.343  30.773  26.549  1.00  0.00     0.118 C 
ENDROOT
BRANCH   1   2
ATOM      2  N   UNL A   1      31.421  30.594  25.085  1.00  0.00    -0.351 N 
ATOM      3  C   UNL A   1      30.962  29.509  24.335  1.00  0.00     0.281 C 
ATOM      4  O   UNL A   1      29.920  29.723  23.702  1.00  0.00    -0.268 OA
ATOM      5  H   UNL A   1      31.844  31.326  24.579  1.00  0.00     0.163 HD
BRANCH   3   6
ATOM      6  C   UNL A   1      31.940  28.240  23.971  1.00  0.00     0.175 C 
BRANCH   6   7
ATOM      7  C   UNL A   1      31.328  27.102  24.889  1.00  0.00     0.076 C 
ATOM      8  C   UNL A   1      32.221  26.694  26.088  1.00  0.00     0.011 C 
ENDBRANCH   6   7
BRANCH   6   9
ATOM      9  C   UNL A   1      33.494  28.101  24.174  1.00  0.00     0.076 C 
ATOM     10  C   UNL A   1      34.380  28.678  23.055  1.00  0.00     0.011 C 
ENDBRANCH   6   9
BRANCH   6  11
ATOM     11  N   UNL A   1      31.711  28.005  22.555  1.00  0.00    -0.326 N 
ATOM     12  H   UNL A   1      32.482  28.451  22.057  1.00  0.00     0.347 HD
ATOM     13  H   UNL A   1      30.772  28.376  22.412  1.00  0.00     0.347 HD
BRANCH  11  14
ATOM     14  C   UNL A   1      31.608  26.635  22.029  1.00  0.00     0.363 C 
BRANCH  14  15
ATOM     15  C   UNL A   1      32.693  25.552  21.736  1.00  0.00     0.279 C 
ATOM     16  O   UNL A   1      33.002  25.468  20.524  1.00  0.00    -0.268 OA
ATOM     17  N   UNL A   1      33.588  24.871  22.511  1.00  0.00    -0.321 N 
ATOM     18  H   UNL A   1      34.416  24.753  21.993  1.00  0.00     0.170 HD
BRANCH  17  19
ATOM     19  C   UNL A   1      33.773  24.269  23.782  1.00  0.00     0.041 A 
ATOM     20  C   UNL A   1      34.815  24.490  24.663  1.00  0.00     0.026 A 
ATOM     21  C   UNL A   1      32.751  23.444  24.268  1.00  0.00     0.026 A 
ATOM     22  C   UNL A   1      34.979  23.784  25.862  1.00  0.00     0.005 A 
ATOM     23  C   UNL A   1      32.881  22.748  25.490  1.00  0.00     0.005 A 
ATOM     24  C   UNL A   1      34.035  22.859  26.263  1.00  0.00    -0.051 A 
ATOM     25  C   UNL A   1      34.257  22.083  27.525  1.00  0.00     0.044 C 
ENDBRANCH  17  19
ENDBRANCH  14  15
ENDBRANCH  11  14
ENDBRANCH   6  11
ENDBRANCH   3   6
ENDBRANCH   1   2
BRANCH   1  26
ATOM     26  C   UNL A   1      32.621  30.399  27.313  1.00  0.00     0.042 C 
BRANCH  26  27
ATOM     27  C   UNL A   1      33.836  31.270  26.996  1.00  0.00     0.118 C 
BRANCH  27  28
ATOM     28  N   UNL A   1      34.379  32.026  28.138  1.00  0.00    -0.352 N 
ATOM     29  C   UNL A   1      35.367  31.641  29.052  1.00  0.00     0.251 C 
ATOM     30  H   UNL A   1      33.995  32.922  28.278  1.00  0.00     0.163 HD
ATOM     31  O   UNL A   1      35.810  32.396  29.878  1.00  0.00    -0.269 OA
BRANCH  29  32
ATOM     32  C   UNL A   1      35.939  30.280  28.883  1.00  0.00     0.039 A 
ATOM     33  C   UNL A   1      36.294  29.602  30.052  1.00  0.00     0.014 A 
ATOM     34  C   UNL A   1      36.509  29.963  27.657  1.00  0.00     0.014 A 
ATOM     35  C   UNL A   1      37.462  28.851  30.046  1.00  0.00     0.010 A 
ATOM     36  C   UNL A   1      37.730  29.316  27.680  1.00  0.00     0.010 A 
ATOM     37  C   UNL A   1      38.254  28.858  28.899  1.00  0.00    -0.014 A 
BRANCH  37  38
ATOM     38  C   UNL A   1      39.691  28.594  28.943  1.00  0.00     0.031 A 
ATOM     39  C   UNL A   1      40.207  27.247  28.623  1.00  0.00     0.074 A 
ATOM     40  C   UNL A   1      40.563  29.595  29.229  1.00  0.00     0.049 A 
ATOM     41  N   UNL A   1      41.387  26.842  28.954  1.00  0.00    -0.248 NA
ATOM     42  C   UNL A   1      39.408  26.203  27.983  1.00  0.00     0.031 C 
ATOM     43  C   UNL A   1      42.015  29.584  29.041  1.00  0.00     0.029 A 
ATOM     44  N   UNL A   1      40.327  30.771  29.972  1.00  0.00    -0.354 N 
ATOM     45  C   UNL A   1      41.605  25.641  28.330  1.00  0.00     0.074 A 
ATOM     46  C   UNL A   1      40.311  25.224  27.860  1.00  0.00     0.031 C 
ATOM     47  C   UNL A   1      42.571  30.467  29.884  1.00  0.00     0.029 A 
ATOM     48  C   UNL A   1      41.509  30.982  30.726  1.00  0.00     0.049 A 
ATOM     49  H   UNL A   1      39.514  31.327  29.968  1.00  0.00     0.167 HD
ATOM     50  C   UNL A   1      42.885  25.211  28.173  1.00  0.00     0.037 A 
ATOM     51  C   UNL A   1      41.517  30.984  32.090  1.00  0.00     0.037 A 
ATOM     52  C   UNL A   1      43.799  25.954  29.037  1.00  0.00     0.049 A 
ATOM     53  C   UNL A   1      42.454  29.976  32.714  1.00  0.00     0.074 A 
ATOM     54  C   UNL A   1      44.782  26.902  28.816  1.00  0.00     0.029 A 
ATOM     55  N   UNL A   1      43.591  25.913  30.413  1.00  0.00    -0.354 N 
ATOM     56  N   UNL A   1      43.009  29.000  32.052  1.00  0.00    -0.248 NA
ATOM     57  C   UNL A   1      42.789  29.947  34.135  1.00  0.00     0.031 C 
ATOM     58  C   UNL A   1      45.101  27.493  30.071  1.00  0.00     0.029 A 
ATOM     59  C   UNL A   1      44.351  26.869  31.053  1.00  0.00     0.049 A 
ATOM     60  H   UNL A   1      42.984  25.285  30.868  1.00  0.00     0.167 HD
ATOM     61  C   UNL A   1      43.691  28.188  32.920  1.00  0.00     0.074 A 
ATOM     62  C   UNL A   1      43.558  28.846  34.206  1.00  0.00     0.031 C 
ATOM     63  C   UNL A   1      44.267  27.024  32.499  1.00  0.00     0.037 A 
BRANCH  50  64
ATOM     64  C   UNL A   1      43.351  24.226  27.123  1.00  0.00     0.064 A 
ATOM     65  C   UNL A   1      42.997  22.862  27.226  1.00  0.00     0.173 A 
ATOM     66  C   UNL A   1      44.255  24.523  26.079  1.00  0.00     0.173 A 
ATOM     67  F   UNL A   1      42.162  22.435  28.184  1.00  0.00    -0.203 F 
ATOM     68  C   UNL A   1      43.510  21.887  26.363  1.00  0.00     0.198 A 
ATOM     69  C   UNL A   1      44.719  23.557  25.183  1.00  0.00     0.198 A 
ATOM     70  F   UNL A   1      44.787  25.739  25.919  1.00  0.00    -0.203 F 
ATOM     71  F   UNL A   1      43.190  20.599  26.549  1.00  0.00    -0.200 F 
ATOM     72  C   UNL A   1      44.359  22.236  25.333  1.00  0.00     0.200 A 
ATOM     73  F   UNL A   1      45.547  23.919  24.191  1.00  0.00    -0.200 F 
ATOM     74  F   UNL A   1      44.848  21.304  24.503  1.00  0.00    -0.200 F 
ENDBRANCH  50  64
BRANCH  51  75
ATOM     75  C   UNL A   1      40.242  31.451  32.684  1.00  0.00     0.064 A 
ATOM     76  C   UNL A   1      39.964  32.830  32.644  1.00  0.00     0.173 A 
ATOM     77  C   UNL A   1      39.172  30.583  32.914  1.00  0.00     0.173 A 
ATOM     78  F   UNL A   1      40.966  33.699  32.447  1.00  0.00    -0.203 F 
ATOM     79  C   UNL A   1      38.660  33.311  32.684  1.00  0.00     0.198 A 
ATOM     80  C   UNL A   1      37.863  31.069  32.979  1.00  0.00     0.198 A 
ATOM     81  F   UNL A   1      39.369  29.258  32.946  1.00  0.00    -0.203 F 
ATOM     82  F   UNL A   1      38.424  34.620  32.505  1.00  0.00    -0.200 F 
ATOM     83  C   UNL A   1      37.606  32.425  32.824  1.00  0.00     0.200 A 
ATOM     84  F   UNL A   1      36.839  30.211  33.080  1.00  0.00    -0.200 F 
ATOM     85  F   UNL A   1      36.343  32.868  32.759  1.00  0.00    -0.200 F 
ENDBRANCH  51  75
BRANCH  63  86
ATOM     86  C   UNL A   1      44.837  25.934  33.379  1.00  0.00     0.064 A 
ATOM     87  C   UNL A   1      44.071  25.113  34.225  1.00  0.00     0.173 A 
ATOM     88  C   UNL A   1      46.204  25.578  33.270  1.00  0.00     0.173 A 
ATOM     89  F   UNL A   1      42.744  25.265  34.331  1.00  0.00    -0.203 F 
ATOM     90  C   UNL A   1      44.637  24.057  34.946  1.00  0.00     0.198 A 
ATOM     91  C   UNL A   1      46.754  24.487  33.943  1.00  0.00     0.198 A 
ATOM     92  F   UNL A   1      47.044  26.265  32.481  1.00  0.00    -0.203 F 
ATOM     93  F   UNL A   1      43.869  23.328  35.768  1.00  0.00    -0.200 F 
ATOM     94  C   UNL A   1      45.973  23.734  34.795  1.00  0.00     0.200 A 
ATOM     95  F   UNL A   1      48.038  24.159  33.744  1.00  0.00    -0.200 F 
ATOM     96  F   UNL A   1      46.499  22.690  35.448  1.00  0.00    -0.200 F 
ENDBRANCH  63  86
ENDBRANCH  37  38
ENDBRANCH  29  32
ENDBRANCH  27  28
ENDBRANCH  26  27
ENDBRANCH   1  26
TORSDOF 16
ENDMDL
