MODEL 1
REMARK VINA RESULT:      -9.9      0.000      0.000
REMARK SMILES COc1ccc(Br)cc1S(=O)(=O)N(C)CC(=O)NCCCNC(=O)c1ccc(-c2c3nc(c(-c4c(F)c(F)c(F)c(F)c4F)c4ccc([nH]4)c(-c4c(F)c(F)c(F)c(F)c4F)c4nc(c(-c5c(F)c(F)c(F)c(F)c5F)c5ccc2[nH]5)C=C4)C=C3)cc1
REMARK SMILES IDX 19 1 18 2 16 3 17 4 15 6 13 7 14 8 10 9 11 10 12 11 9 12
REMARK SMILES IDX 3 13 4 14 5 15 8 16 6 17 7 18 2 19 1 20 20 21 21 22 22 23
REMARK SMILES IDX 23 24 24 26 25 27 26 28 87 29 27 30 86 31 28 32 29 33 30 34
REMARK SMILES IDX 80 35 31 36 85 37 79 38 81 39 32 40 84 41 78 42 77 43 33 45
REMARK SMILES IDX 65 46 45 47 64 48 46 49 49 50 63 51 82 52 47 53 48 54 62 56
REMARK SMILES IDX 83 57 50 58 34 59 35 60 43 61 36 62 37 63 41 64 44 65 38 66
REMARK SMILES IDX 39 67 42 68 40 69 66 70 67 71 75 72 68 73 69 74 73 75 76 76
REMARK SMILES IDX 70 77 71 78 74 79 72 80 51 81 52 82 60 83 53 84 54 85 58 86
REMARK SMILES IDX 61 87 55 88 56 89 59 90 57 91
REMARK H PARENT 18 5 22 25 81 44 49 55
REMARK Flexibility Score: inf
ROOT
ATOM      1  C   UNL A   1      33.546  35.075  28.782  1.00  0.00     0.117 C 
ENDROOT
BRANCH   1   2
ATOM      2  N   UNL A   1      33.267  34.955  30.201  1.00  0.00    -0.355 N 
ATOM      3  C   UNL A   1      34.019  34.466  31.234  1.00  0.00     0.235 C 
ATOM      4  O   UNL A   1      33.530  34.557  32.364  1.00  0.00    -0.274 OA
ATOM      5  H   UNL A   1      32.380  35.287  30.469  1.00  0.00     0.163 HD
BRANCH   3   6
ATOM      6  C   UNL A   1      35.413  33.869  31.020  1.00  0.00     0.202 C 
BRANCH   6   7
ATOM      7  N   UNL A   1      36.392  33.920  32.161  1.00  0.00    -0.191 NA
ATOM      8  C   UNL A   1      37.719  34.363  31.736  1.00  0.00     0.125 C 
BRANCH   7   9
ATOM      9  S   UNL A   1      36.255  32.589  33.208  1.00  0.00     0.247 S 
ATOM     10  O   UNL A   1      35.619  31.539  32.427  1.00  0.00    -0.207 OA
ATOM     11  O   UNL A   1      35.649  33.080  34.427  1.00  0.00    -0.207 OA
BRANCH   9  12
ATOM     12  C   UNL A   1      37.813  31.880  33.706  1.00  0.00     0.125 A 
ATOM     13  C   UNL A   1      38.834  32.480  34.447  1.00  0.00     0.138 A 
ATOM     14  C   UNL A   1      40.047  31.782  34.610  1.00  0.00     0.049 A 
ATOM     15  C   UNL A   1      40.247  30.520  34.045  1.00  0.00     0.019 A 
ATOM     16  C   UNL A   1      38.011  30.585  33.171  1.00  0.00     0.041 A 
ATOM     17  C   UNL A   1      39.219  29.918  33.338  1.00  0.00     0.019 A 
ATOM     18  Br  UNL A   1      39.467  28.202  32.591  1.00  0.00    -0.051 Br
BRANCH  13  19
ATOM     19  O   UNL A   1      38.641  33.683  35.061  1.00  0.00    -0.495 OA
ATOM     20  C   UNL A   1      39.648  34.668  34.814  1.00  0.00     0.278 C 
ENDBRANCH  13  19
ENDBRANCH   9  12
ENDBRANCH   7   9
ENDBRANCH   6   7
ENDBRANCH   3   6
ENDBRANCH   1   2
BRANCH   1  21
ATOM     21  C   UNL A   1      33.163  33.814  28.007  1.00  0.00     0.042 C 
BRANCH  21  22
ATOM     22  C   UNL A   1      34.225  32.722  28.005  1.00  0.00     0.118 C 
BRANCH  22  23
ATOM     23  N   UNL A   1      33.645  31.394  27.868  1.00  0.00    -0.352 N 
ATOM     24  C   UNL A   1      34.229  30.151  27.838  1.00  0.00     0.251 C 
ATOM     25  H   UNL A   1      32.664  31.386  27.781  1.00  0.00     0.163 HD
ATOM     26  O   UNL A   1      33.541  29.188  27.504  1.00  0.00    -0.269 OA
BRANCH  24  27
ATOM     27  C   UNL A   1      35.658  29.931  28.184  1.00  0.00     0.039 A 
ATOM     28  C   UNL A   1      36.613  30.069  27.167  1.00  0.00     0.014 A 
ATOM     29  C   UNL A   1      36.072  29.502  29.447  1.00  0.00     0.014 A 
ATOM     30  C   UNL A   1      37.966  29.814  27.423  1.00  0.00     0.010 A 
ATOM     31  C   UNL A   1      37.431  29.319  29.723  1.00  0.00     0.010 A 
ATOM     32  C   UNL A   1      38.391  29.453  28.709  1.00  0.00    -0.014 A 
BRANCH  32  33
ATOM     33  C   UNL A   1      39.824  29.170  28.994  1.00  0.00     0.031 A 
ATOM     34  C   UNL A   1      40.668  30.177  29.729  1.00  0.00     0.074 A 
ATOM     35  C   UNL A   1      40.386  28.026  28.557  1.00  0.00     0.049 A 
ATOM     36  N   UNL A   1      41.944  30.133  30.028  1.00  0.00    -0.248 NA
ATOM     37  C   UNL A   1      39.995  31.409  30.167  1.00  0.00     0.031 C 
ATOM     38  C   UNL A   1      39.699  26.984  27.795  1.00  0.00     0.029 A 
ATOM     39  N   UNL A   1      41.670  27.554  28.686  1.00  0.00    -0.354 N 
ATOM     40  C   UNL A   1      42.228  31.336  30.661  1.00  0.00     0.074 A 
ATOM     41  C   UNL A   1      41.002  32.107  30.672  1.00  0.00     0.031 C 
ATOM     42  C   UNL A   1      40.561  25.986  27.541  1.00  0.00     0.029 A 
ATOM     43  C   UNL A   1      41.867  26.329  28.097  1.00  0.00     0.049 A 
ATOM     44  H   UNL A   1      42.381  28.046  29.156  1.00  0.00     0.167 HD
ATOM     45  C   UNL A   1      43.396  31.755  31.203  1.00  0.00     0.037 A 
ATOM     46  C   UNL A   1      42.975  25.568  28.014  1.00  0.00     0.037 A 
ATOM     47  C   UNL A   1      44.607  30.977  31.236  1.00  0.00     0.049 A 
ATOM     48  C   UNL A   1      44.252  26.039  28.653  1.00  0.00     0.074 A 
ATOM     49  C   UNL A   1      45.818  31.289  31.829  1.00  0.00     0.029 A 
ATOM     50  N   UNL A   1      44.757  29.728  30.656  1.00  0.00    -0.354 N 
ATOM     51  N   UNL A   1      44.489  27.151  29.302  1.00  0.00    -0.248 NA
ATOM     52  C   UNL A   1      45.412  25.143  28.553  1.00  0.00     0.031 C 
ATOM     53  C   UNL A   1      46.711  30.240  31.581  1.00  0.00     0.029 A 
ATOM     54  C   UNL A   1      46.045  29.260  30.864  1.00  0.00     0.049 A 
ATOM     55  H   UNL A   1      44.052  29.243  30.168  1.00  0.00     0.167 HD
ATOM     56  C   UNL A   1      45.815  27.082  29.706  1.00  0.00     0.074 A 
ATOM     57  C   UNL A   1      46.329  25.811  29.241  1.00  0.00     0.031 C 
ATOM     58  C   UNL A   1      46.541  27.992  30.399  1.00  0.00     0.037 A 
BRANCH  45  59
ATOM     59  C   UNL A   1      43.422  33.125  31.814  1.00  0.00     0.064 A 
ATOM     60  C   UNL A   1      43.546  34.278  31.025  1.00  0.00     0.173 A 
ATOM     61  C   UNL A   1      43.291  33.288  33.201  1.00  0.00     0.173 A 
ATOM     62  F   UNL A   1      43.686  34.174  29.695  1.00  0.00    -0.203 F 
ATOM     63  C   UNL A   1      43.565  35.543  31.605  1.00  0.00     0.198 A 
ATOM     64  C   UNL A   1      43.285  34.557  33.776  1.00  0.00     0.198 A 
ATOM     65  F   UNL A   1      43.163  32.217  33.999  1.00  0.00    -0.203 F 
ATOM     66  F   UNL A   1      43.729  36.629  30.836  1.00  0.00    -0.200 F 
ATOM     67  C   UNL A   1      43.429  35.682  32.978  1.00  0.00     0.200 A 
ATOM     68  F   UNL A   1      43.143  34.690  35.102  1.00  0.00    -0.200 F 
ATOM     69  F   UNL A   1      43.445  36.901  33.535  1.00  0.00    -0.200 F 
ENDBRANCH  45  59
BRANCH  46  70
ATOM     70  C   UNL A   1      42.914  24.256  27.322  1.00  0.00     0.064 A 
ATOM     71  C   UNL A   1      43.213  24.149  25.957  1.00  0.00     0.173 A 
ATOM     72  C   UNL A   1      42.567  23.084  28.010  1.00  0.00     0.173 A 
ATOM     73  F   UNL A   1      43.529  25.248  25.255  1.00  0.00    -0.203 F 
ATOM     74  C   UNL A   1      43.155  22.922  25.302  1.00  0.00     0.198 A 
ATOM     75  C   UNL A   1      42.532  21.853  27.358  1.00  0.00     0.198 A 
ATOM     76  F   UNL A   1      42.277  23.134  29.319  1.00  0.00    -0.203 F 
ATOM     77  F   UNL A   1      43.415  22.853  23.990  1.00  0.00    -0.200 F 
ATOM     78  C   UNL A   1      42.821  21.774  26.004  1.00  0.00     0.200 A 
ATOM     79  F   UNL A   1      42.220  20.744  28.042  1.00  0.00    -0.200 F 
ATOM     80  F   UNL A   1      42.773  20.592  25.375  1.00  0.00    -0.200 F 
ENDBRANCH  46  70
BRANCH  58  81
ATOM     81  C   UNL A   1      47.964  27.637  30.716  1.00  0.00     0.064 A 
ATOM     82  C   UNL A   1      48.303  26.960  31.897  1.00  0.00     0.173 A 
ATOM     83  C   UNL A   1      48.992  27.950  29.815  1.00  0.00     0.173 A 
ATOM     84  F   UNL A   1      47.355  26.654  32.795  1.00  0.00    -0.203 F 
ATOM     85  C   UNL A   1      49.626  26.626  32.173  1.00  0.00     0.198 A 
ATOM     86  C   UNL A   1      50.311  27.595  30.085  1.00  0.00     0.198 A 
ATOM     87  F   UNL A   1      48.717  28.595  28.672  1.00  0.00    -0.203 F 
ATOM     88  F   UNL A   1      49.933  26.014  33.325  1.00  0.00    -0.200 F 
ATOM     89  C   UNL A   1      50.627  26.938  31.265  1.00  0.00     0.200 A 
ATOM     90  F   UNL A   1      51.277  27.891  29.204  1.00  0.00    -0.200 F 
ATOM     91  F   UNL A   1      51.900  26.615  31.532  1.00  0.00    -0.200 F 
ENDBRANCH  58  81
ENDBRANCH  32  33
ENDBRANCH  24  27
ENDBRANCH  22  23
ENDBRANCH  21  22
ENDBRANCH   1  21
TORSDOF 14
ENDMDL
MODEL 2
REMARK VINA RESULT:      -9.9      5.131      9.705
REMARK SMILES COc1ccc(Br)cc1S(=O)(=O)N(C)CC(=O)NCCCNC(=O)c1ccc(-c2c3nc(c(-c4c(F)c(F)c(F)c(F)c4F)c4ccc([nH]4)c(-c4c(F)c(F)c(F)c(F)c4F)c4nc(c(-c5c(F)c(F)c(F)c(F)c5F)c5ccc2[nH]5)C=C4)C=C3)cc1
REMARK SMILES IDX 19 1 18 2 16 3 17 4 15 6 13 7 14 8 10 9 11 10 12 11 9 12
REMARK SMILES IDX 3 13 4 14 5 15 8 16 6 17 7 18 2 19 1 20 20 21 21 22 22 23
REMARK SMILES IDX 23 24 24 26 25 27 26 28 87 29 27 30 86 31 28 32 29 33 30 34
REMARK SMILES IDX 80 35 31 36 85 37 79 38 81 39 32 40 84 41 78 42 77 43 33 45
REMARK SMILES IDX 65 46 45 47 64 48 46 49 49 50 63 51 82 52 47 53 48 54 62 56
REMARK SMILES IDX 83 57 50 58 34 59 35 60 43 61 36 62 37 63 41 64 44 65 38 66
REMARK SMILES IDX 39 67 42 68 40 69 66 70 67 71 75 72 68 73 69 74 73 75 76 76
REMARK SMILES IDX 70 77 71 78 74 79 72 80 51 81 52 82 60 83 53 84 54 85 58 86
REMARK SMILES IDX 61 87 55 88 56 89 59 90 57 91
REMARK H PARENT 18 5 22 25 81 44 49 55
REMARK Flexibility Score: inf
ROOT
ATOM      1  C   UNL A   1      36.706  20.547  24.771  1.00  0.00     0.117 C 
ENDROOT
BRANCH   1   2
ATOM      2  N   UNL A   1      35.461  20.032  25.312  1.00  0.00    -0.355 N 
ATOM      3  C   UNL A   1      34.157  20.325  25.023  1.00  0.00     0.235 C 
ATOM      4  O   UNL A   1      33.299  19.664  25.614  1.00  0.00    -0.274 OA
ATOM      5  H   UNL A   1      35.576  19.348  26.011  1.00  0.00     0.163 HD
BRANCH   3   6
ATOM      6  C   UNL A   1      33.768  21.389  23.992  1.00  0.00     0.202 C 
BRANCH   6   7
ATOM      7  N   UNL A   1      33.354  22.746  24.492  1.00  0.00    -0.191 NA
ATOM      8  C   UNL A   1      31.991  23.095  24.090  1.00  0.00     0.125 C 
BRANCH   7   9
ATOM      9  S   UNL A   1      34.586  23.907  24.351  1.00  0.00     0.247 S 
ATOM     10  O   UNL A   1      35.302  23.572  23.130  1.00  0.00    -0.207 OA
ATOM     11  O   UNL A   1      35.268  23.947  25.626  1.00  0.00    -0.207 OA
BRANCH   9  12
ATOM     12  C   UNL A   1      34.003  25.569  24.072  1.00  0.00     0.125 A 
ATOM     13  C   UNL A   1      33.692  26.179  22.854  1.00  0.00     0.138 A 
ATOM     14  C   UNL A   1      33.379  27.553  22.849  1.00  0.00     0.049 A 
ATOM     15  C   UNL A   1      33.381  28.308  24.024  1.00  0.00     0.019 A 
ATOM     16  C   UNL A   1      33.963  26.333  25.262  1.00  0.00     0.041 A 
ATOM     17  C   UNL A   1      33.659  27.690  25.232  1.00  0.00     0.019 A 
ATOM     18  Br  UNL A   1      33.639  28.692  26.832  1.00  0.00    -0.051 Br
BRANCH  13  19
ATOM     19  O   UNL A   1      33.623  25.451  21.702  1.00  0.00    -0.495 OA
ATOM     20  C   UNL A   1      32.487  25.715  20.874  1.00  0.00     0.278 C 
ENDBRANCH  13  19
ENDBRANCH   9  12
ENDBRANCH   7   9
ENDBRANCH   6   7
ENDBRANCH   3   6
ENDBRANCH   1   2
BRANCH   1  21
ATOM     21  C   UNL A   1      37.877  19.590  24.997  1.00  0.00     0.042 C 
BRANCH  21  22
ATOM     22  C   UNL A   1      38.957  20.116  25.933  1.00  0.00     0.118 C 
BRANCH  22  23
ATOM     23  N   UNL A   1      40.085  19.203  26.037  1.00  0.00    -0.352 N 
ATOM     24  C   UNL A   1      41.435  19.439  26.126  1.00  0.00     0.251 C 
ATOM     25  H   UNL A   1      39.837  18.249  26.044  1.00  0.00     0.163 HD
ATOM     26  O   UNL A   1      42.207  18.490  25.995  1.00  0.00    -0.269 OA
BRANCH  24  27
ATOM     27  C   UNL A   1      41.995  20.795  26.364  1.00  0.00     0.039 A 
ATOM     28  C   UNL A   1      42.192  21.206  27.689  1.00  0.00     0.014 A 
ATOM     29  C   UNL A   1      42.240  21.703  25.331  1.00  0.00     0.014 A 
ATOM     30  C   UNL A   1      42.660  22.496  27.972  1.00  0.00     0.010 A 
ATOM     31  C   UNL A   1      42.777  22.964  25.608  1.00  0.00     0.010 A 
ATOM     32  C   UNL A   1      42.974  23.383  26.932  1.00  0.00    -0.014 A 
BRANCH  32  33
ATOM     33  C   UNL A   1      43.463  24.759  27.218  1.00  0.00     0.031 A 
ATOM     34  C   UNL A   1      42.523  25.805  27.756  1.00  0.00     0.074 A 
ATOM     35  C   UNL A   1      44.744  25.088  26.957  1.00  0.00     0.049 A 
ATOM     36  N   UNL A   1      42.750  27.068  28.021  1.00  0.00    -0.248 NA
ATOM     37  C   UNL A   1      41.137  25.382  28.007  1.00  0.00     0.031 C 
ATOM     38  C   UNL A   1      45.750  24.188  26.394  1.00  0.00     0.029 A 
ATOM     39  N   UNL A   1      45.414  26.275  27.124  1.00  0.00    -0.354 N 
ATOM     40  C   UNL A   1      41.535  27.593  28.442  1.00  0.00     0.074 A 
ATOM     41  C   UNL A   1      40.564  26.522  28.363  1.00  0.00     0.031 C 
ATOM     42  C   UNL A   1      46.914  24.848  26.281  1.00  0.00     0.029 A 
ATOM     43  C   UNL A   1      46.730  26.224  26.736  1.00  0.00     0.049 A 
ATOM     44  H   UNL A   1      44.991  27.087  27.487  1.00  0.00     0.167 HD
ATOM     45  C   UNL A   1      41.254  28.845  28.876  1.00  0.00     0.037 A 
ATOM     46  C   UNL A   1      47.682  27.176  26.746  1.00  0.00     0.037 A 
ATOM     47  C   UNL A   1      42.224  29.902  29.001  1.00  0.00     0.049 A 
ATOM     48  C   UNL A   1      47.356  28.550  27.263  1.00  0.00     0.074 A 
ATOM     49  C   UNL A   1      42.047  31.181  29.500  1.00  0.00     0.029 A 
ATOM     50  N   UNL A   1      43.554  29.800  28.626  1.00  0.00    -0.354 N 
ATOM     51  N   UNL A   1      46.217  29.012  27.717  1.00  0.00    -0.248 NA
ATOM     52  C   UNL A   1      48.451  29.530  27.277  1.00  0.00     0.031 C 
ATOM     53  C   UNL A   1      43.265  31.863  29.400  1.00  0.00     0.029 A 
ATOM     54  C   UNL A   1      44.208  30.997  28.870  1.00  0.00     0.049 A 
ATOM     55  H   UNL A   1      43.973  28.995  28.243  1.00  0.00     0.167 HD
ATOM     56  C   UNL A   1      46.461  30.327  28.088  1.00  0.00     0.074 A 
ATOM     57  C   UNL A   1      47.860  30.586  27.821  1.00  0.00     0.031 C 
ATOM     58  C   UNL A   1      45.601  31.239  28.603  1.00  0.00     0.037 A 
BRANCH  45  59
ATOM     59  C   UNL A   1      39.834  29.143  29.255  1.00  0.00     0.064 A 
ATOM     60  C   UNL A   1      38.887  29.539  28.300  1.00  0.00     0.173 A 
ATOM     61  C   UNL A   1      39.408  29.000  30.584  1.00  0.00     0.173 A 
ATOM     62  F   UNL A   1      39.249  29.702  27.019  1.00  0.00    -0.203 F 
ATOM     63  C   UNL A   1      37.571  29.809  28.666  1.00  0.00     0.198 A 
ATOM     64  C   UNL A   1      38.084  29.246  30.943  1.00  0.00     0.198 A 
ATOM     65  F   UNL A   1      40.273  28.616  31.535  1.00  0.00    -0.203 F 
ATOM     66  F   UNL A   1      36.694  30.231  27.744  1.00  0.00    -0.200 F 
ATOM     67  C   UNL A   1      37.170  29.657  29.984  1.00  0.00     0.200 A 
ATOM     68  F   UNL A   1      37.695  29.088  32.216  1.00  0.00    -0.200 F 
ATOM     69  F   UNL A   1      35.902  29.915  30.334  1.00  0.00    -0.200 F 
ENDBRANCH  45  59
BRANCH  46  70
ATOM     70  C   UNL A   1      49.053  26.850  26.278  1.00  0.00     0.064 A 
ATOM     71  C   UNL A   1      50.011  26.340  27.165  1.00  0.00     0.173 A 
ATOM     72  C   UNL A   1      49.429  27.030  24.940  1.00  0.00     0.173 A 
ATOM     73  F   UNL A   1      49.701  26.173  28.459  1.00  0.00    -0.203 F 
ATOM     74  C   UNL A   1      51.299  26.035  26.734  1.00  0.00     0.198 A 
ATOM     75  C   UNL A   1      50.711  26.702  24.504  1.00  0.00     0.198 A 
ATOM     76  F   UNL A   1      48.545  27.510  24.052  1.00  0.00    -0.203 F 
ATOM     77  F   UNL A   1      52.205  25.580  27.609  1.00  0.00    -0.200 F 
ATOM     78  C   UNL A   1      51.647  26.210  25.403  1.00  0.00     0.200 A 
ATOM     79  F   UNL A   1      51.040  26.861  23.215  1.00  0.00    -0.200 F 
ATOM     80  F   UNL A   1      52.884  25.909  24.987  1.00  0.00    -0.200 F 
ENDBRANCH  46  70
BRANCH  58  81
ATOM     81  C   UNL A   1      46.153  32.594  28.933  1.00  0.00     0.064 A 
ATOM     82  C   UNL A   1      46.112  33.646  28.006  1.00  0.00     0.173 A 
ATOM     83  C   UNL A   1      46.699  32.850  30.199  1.00  0.00     0.173 A 
ATOM     84  F   UNL A   1      45.614  33.443  26.777  1.00  0.00    -0.203 F 
ATOM     85  C   UNL A   1      46.618  34.902  28.329  1.00  0.00     0.198 A 
ATOM     86  C   UNL A   1      47.183  34.114  30.526  1.00  0.00     0.198 A 
ATOM     87  F   UNL A   1      46.757  31.877  31.120  1.00  0.00    -0.203 F 
ATOM     88  F   UNL A   1      46.605  35.882  27.415  1.00  0.00    -0.200 F 
ATOM     89  C   UNL A   1      47.147  35.137  29.589  1.00  0.00     0.200 A 
ATOM     90  F   UNL A   1      47.688  34.342  31.747  1.00  0.00    -0.200 F 
ATOM     91  F   UNL A   1      47.631  36.347  29.899  1.00  0.00    -0.200 F 
ENDBRANCH  58  81
ENDBRANCH  32  33
ENDBRANCH  24  27
ENDBRANCH  22  23
ENDBRANCH  21  22
ENDBRANCH   1  21
TORSDOF 14
ENDMDL
MODEL 3
REMARK VINA RESULT:      -9.9      4.202     10.115
REMARK SMILES COc1ccc(Br)cc1S(=O)(=O)N(C)CC(=O)NCCCNC(=O)c1ccc(-c2c3nc(c(-c4c(F)c(F)c(F)c(F)c4F)c4ccc([nH]4)c(-c4c(F)c(F)c(F)c(F)c4F)c4nc(c(-c5c(F)c(F)c(F)c(F)c5F)c5ccc2[nH]5)C=C4)C=C3)cc1
REMARK SMILES IDX 19 1 18 2 16 3 17 4 15 6 13 7 14 8 10 9 11 10 12 11 9 12
REMARK SMILES IDX 3 13 4 14 5 15 8 16 6 17 7 18 2 19 1 20 20 21 21 22 22 23
REMARK SMILES IDX 23 24 24 26 25 27 26 28 87 29 27 30 86 31 28 32 29 33 30 34
REMARK SMILES IDX 80 35 31 36 85 37 79 38 81 39 32 40 84 41 78 42 77 43 33 45
REMARK SMILES IDX 65 46 45 47 64 48 46 49 49 50 63 51 82 52 47 53 48 54 62 56
REMARK SMILES IDX 83 57 50 58 34 59 35 60 43 61 36 62 37 63 41 64 44 65 38 66
REMARK SMILES IDX 39 67 42 68 40 69 66 70 67 71 75 72 68 73 69 74 73 75 76 76
REMARK SMILES IDX 70 77 71 78 74 79 72 80 51 81 52 82 60 83 53 84 54 85 58 86
REMARK SMILES IDX 61 87 55 88 56 89 59 90 57 91
REMARK H PARENT 18 5 22 25 81 44 49 55
REMARK Flexibility Score: inf
ROOT
ATOM      1  C   UNL A   1      31.416  30.523  26.013  1.00  0.00     0.117 C 
ENDROOT
BRANCH   1   2
ATOM      2  N   UNL A   1      31.067  30.340  24.616  1.00  0.00    -0.355 N 
ATOM      3  C   UNL A   1      30.689  29.229  23.915  1.00  0.00     0.235 C 
ATOM      4  O   UNL A   1      30.388  29.400  22.731  1.00  0.00    -0.274 OA
ATOM      5  H   UNL A   1      31.109  31.163  24.078  1.00  0.00     0.163 HD
BRANCH   3   6
ATOM      6  C   UNL A   1      30.600  27.844  24.563  1.00  0.00     0.202 C 
BRANCH   6   7
ATOM      7  N   UNL A   1      31.794  26.935  24.468  1.00  0.00    -0.191 NA
ATOM      8  C   UNL A   1      31.567  25.811  23.561  1.00  0.00     0.125 C 
BRANCH   7   9
ATOM      9  S   UNL A   1      32.535  26.656  25.971  1.00  0.00     0.247 S 
ATOM     10  O   UNL A   1      31.465  26.737  26.955  1.00  0.00    -0.207 OA
ATOM     11  O   UNL A   1      33.679  27.537  26.042  1.00  0.00    -0.207 OA
BRANCH   9  12
ATOM     12  C   UNL A   1      33.189  25.010  26.175  1.00  0.00     0.125 A 
ATOM     13  C   UNL A   1      32.607  23.929  26.841  1.00  0.00     0.138 A 
ATOM     14  C   UNL A   1      33.363  22.751  27.002  1.00  0.00     0.049 A 
ATOM     15  C   UNL A   1      34.670  22.648  26.520  1.00  0.00     0.019 A 
ATOM     16  C   UNL A   1      34.499  24.882  25.654  1.00  0.00     0.041 A 
ATOM     17  C   UNL A   1      35.229  23.713  25.833  1.00  0.00     0.019 A 
ATOM     18  Br  UNL A   1      36.985  23.579  25.152  1.00  0.00    -0.051 Br
BRANCH  13  19
ATOM     19  O   UNL A   1      31.312  23.982  27.266  1.00  0.00    -0.495 OA
ATOM     20  C   UNL A   1      30.399  23.131  26.567  1.00  0.00     0.278 C 
ENDBRANCH  13  19
ENDBRANCH   9  12
ENDBRANCH   7   9
ENDBRANCH   6   7
ENDBRANCH   3   6
ENDBRANCH   1   2
BRANCH   1  21
ATOM     21  C   UNL A   1      31.391  31.994  26.430  1.00  0.00     0.042 C 
BRANCH  21  22
ATOM     22  C   UNL A   1      32.633  32.465  27.177  1.00  0.00     0.118 C 
BRANCH  22  23
ATOM     23  N   UNL A   1      32.542  33.865  27.561  1.00  0.00    -0.352 N 
ATOM     24  C   UNL A   1      33.160  34.569  28.566  1.00  0.00     0.251 C 
ATOM     25  H   UNL A   1      31.932  34.402  27.004  1.00  0.00     0.163 HD
ATOM     26  O   UNL A   1      32.761  35.705  28.819  1.00  0.00    -0.269 OA
BRANCH  24  27
ATOM     27  C   UNL A   1      34.282  34.006  29.363  1.00  0.00     0.039 A 
ATOM     28  C   UNL A   1      35.592  34.269  28.939  1.00  0.00     0.014 A 
ATOM     29  C   UNL A   1      34.081  33.155  30.452  1.00  0.00     0.014 A 
ATOM     30  C   UNL A   1      36.684  33.713  29.617  1.00  0.00     0.010 A 
ATOM     31  C   UNL A   1      35.172  32.659  31.175  1.00  0.00     0.010 A 
ATOM     32  C   UNL A   1      36.485  32.916  30.754  1.00  0.00    -0.014 A 
BRANCH  32  33
ATOM     33  C   UNL A   1      37.635  32.312  31.479  1.00  0.00     0.031 A 
ATOM     34  C   UNL A   1      38.407  31.172  30.868  1.00  0.00     0.074 A 
ATOM     35  C   UNL A   1      37.968  32.756  32.707  1.00  0.00     0.049 A 
ATOM     36  N   UNL A   1      39.406  30.485  31.365  1.00  0.00    -0.248 NA
ATOM     37  C   UNL A   1      37.984  30.729  29.531  1.00  0.00     0.031 C 
ATOM     38  C   UNL A   1      37.280  33.822  33.435  1.00  0.00     0.029 A 
ATOM     39  N   UNL A   1      38.966  32.357  33.563  1.00  0.00    -0.354 N 
ATOM     40  C   UNL A   1      39.711  29.517  30.416  1.00  0.00     0.074 A 
ATOM     41  C   UNL A   1      38.768  29.681  29.330  1.00  0.00     0.031 C 
ATOM     42  C   UNL A   1      37.887  34.006  34.619  1.00  0.00     0.029 A 
ATOM     43  C   UNL A   1      38.989  33.055  34.745  1.00  0.00     0.049 A 
ATOM     44  H   UNL A   1      39.604  31.639  33.349  1.00  0.00     0.167 HD
ATOM     45  C   UNL A   1      40.698  28.590  30.436  1.00  0.00     0.037 A 
ATOM     46  C   UNL A   1      39.804  32.942  35.811  1.00  0.00     0.037 A 
ATOM     47  C   UNL A   1      41.667  28.451  31.491  1.00  0.00     0.049 A 
ATOM     48  C   UNL A   1      40.914  31.928  35.795  1.00  0.00     0.074 A 
ATOM     49  C   UNL A   1      42.748  27.589  31.563  1.00  0.00     0.029 A 
ATOM     50  N   UNL A   1      41.675  29.198  32.658  1.00  0.00    -0.354 N 
ATOM     51  N   UNL A   1      41.228  31.062  34.864  1.00  0.00    -0.248 NA
ATOM     52  C   UNL A   1      41.787  31.883  36.977  1.00  0.00     0.031 C 
ATOM     53  C   UNL A   1      43.393  27.795  32.788  1.00  0.00     0.029 A 
ATOM     54  C   UNL A   1      42.733  28.808  33.463  1.00  0.00     0.049 A 
ATOM     55  H   UNL A   1      41.024  29.902  32.882  1.00  0.00     0.167 HD
ATOM     56  C   UNL A   1      42.343  30.384  35.335  1.00  0.00     0.074 A 
ATOM     57  C   UNL A   1      42.662  30.948  36.630  1.00  0.00     0.031 C 
ATOM     58  C   UNL A   1      43.040  29.382  34.747  1.00  0.00     0.037 A 
BRANCH  45  59
ATOM     59  C   UNL A   1      40.784  27.648  29.272  1.00  0.00     0.064 A 
ATOM     60  C   UNL A   1      39.892  26.576  29.127  1.00  0.00     0.173 A 
ATOM     61  C   UNL A   1      41.750  27.839  28.272  1.00  0.00     0.173 A 
ATOM     62  F   UNL A   1      38.958  26.345  30.062  1.00  0.00    -0.203 F 
ATOM     63  C   UNL A   1      39.981  25.712  28.040  1.00  0.00     0.198 A 
ATOM     64  C   UNL A   1      41.821  26.988  27.172  1.00  0.00     0.198 A 
ATOM     65  F   UNL A   1      42.622  28.855  28.360  1.00  0.00    -0.203 F 
ATOM     66  F   UNL A   1      39.147  24.666  27.945  1.00  0.00    -0.200 F 
ATOM     67  C   UNL A   1      40.941  25.921  27.061  1.00  0.00     0.200 A 
ATOM     68  F   UNL A   1      42.742  27.198  26.221  1.00  0.00    -0.200 F 
ATOM     69  F   UNL A   1      41.024  25.090  26.013  1.00  0.00    -0.200 F 
ENDBRANCH  45  59
BRANCH  46  70
ATOM     70  C   UNL A   1      39.620  33.845  36.975  1.00  0.00     0.064 A 
ATOM     71  C   UNL A   1      40.215  35.114  37.000  1.00  0.00     0.173 A 
ATOM     72  C   UNL A   1      38.842  33.464  38.078  1.00  0.00     0.173 A 
ATOM     73  F   UNL A   1      40.985  35.511  35.976  1.00  0.00    -0.203 F 
ATOM     74  C   UNL A   1      40.049  35.964  38.090  1.00  0.00     0.198 A 
ATOM     75  C   UNL A   1      38.658  34.325  39.158  1.00  0.00     0.198 A 
ATOM     76  F   UNL A   1      38.249  32.262  38.098  1.00  0.00    -0.203 F 
ATOM     77  F   UNL A   1      40.655  37.158  38.103  1.00  0.00    -0.200 F 
ATOM     78  C   UNL A   1      39.266  35.572  39.165  1.00  0.00     0.200 A 
ATOM     79  F   UNL A   1      37.891  33.947  40.189  1.00  0.00    -0.200 F 
ATOM     80  F   UNL A   1      39.100  36.393  40.211  1.00  0.00    -0.200 F 
ENDBRANCH  46  70
BRANCH  58  81
ATOM     81  C   UNL A   1      44.229  28.845  35.488  1.00  0.00     0.064 A 
ATOM     82  C   UNL A   1      45.511  29.385  35.303  1.00  0.00     0.173 A 
ATOM     83  C   UNL A   1      44.078  27.804  36.414  1.00  0.00     0.173 A 
ATOM     84  F   UNL A   1      45.705  30.371  34.415  1.00  0.00    -0.203 F 
ATOM     85  C   UNL A   1      46.603  28.885  36.006  1.00  0.00     0.198 A 
ATOM     86  C   UNL A   1      45.170  27.322  37.132  1.00  0.00     0.198 A 
ATOM     87  F   UNL A   1      42.872  27.258  36.629  1.00  0.00    -0.203 F 
ATOM     88  F   UNL A   1      47.826  29.388  35.784  1.00  0.00    -0.200 F 
ATOM     89  C   UNL A   1      46.432  27.859  36.923  1.00  0.00     0.200 A 
ATOM     90  F   UNL A   1      45.002  26.335  38.023  1.00  0.00    -0.200 F 
ATOM     91  F   UNL A   1      47.485  27.381  37.600  1.00  0.00    -0.200 F 
ENDBRANCH  58  81
ENDBRANCH  32  33
ENDBRANCH  24  27
ENDBRANCH  22  23
ENDBRANCH  21  22
ENDBRANCH   1  21
TORSDOF 14
ENDMDL
