MODEL 1
REMARK VINA RESULT:     -12.2      0.000      0.000
REMARK SMILES C[C@H](NC(=O)OC(C)(C)C)C(=O)N[C@@H](C)C(=O)N1CCC[C@H]1C(=O)NCCCNC(=O)c1ccc(-c2c3nc(c(-c4c(F)c(F)c(F)c(F)c4F)c4ccc([nH]4)c(-c4c(F)c(F)c(F)c(F)c4F)c4nc(c(-c5c(F)c(F)c(F)c(F)c5F)c5ccc2[nH]5)C=C4)C=C3)cc1
REMARK SMILES IDX 18 1 19 2 20 3 21 4 22 5 16 6 17 7 14 8 15 9 13 10 11 11
REMARK SMILES IDX 12 12 2 14 1 15 3 16 4 17 5 19 6 20 7 21 8 22 9 23 10 24
REMARK SMILES IDX 23 25 24 26 25 27 26 29 27 30 28 31 29 32 30 33 31 35 32 36
REMARK SMILES IDX 33 37 94 38 34 39 93 40 35 41 36 42 37 43 87 44 38 45 92 46
REMARK SMILES IDX 86 47 88 48 39 49 91 50 85 51 84 52 40 54 72 55 52 56 71 57
REMARK SMILES IDX 53 58 56 59 70 60 89 61 54 62 55 63 69 65 90 66 57 67 41 68
REMARK SMILES IDX 42 69 50 70 43 71 44 72 48 73 51 74 45 75 46 76 49 77 47 78
REMARK SMILES IDX 73 79 74 80 82 81 75 82 76 83 80 84 83 85 77 86 78 87 81 88
REMARK SMILES IDX 79 89 58 90 59 91 67 92 60 93 61 94 65 95 68 96 62 97 63 98
REMARK SMILES IDX 66 99 64 100
REMARK H PARENT 13 13 3 18 25 28 29 34 88 53 56 64
REMARK Flexibility Score: inf
ROOT
ATOM      1  N   UNL A   1      32.147  26.963  24.388  1.00  0.00    -0.329 N 
ATOM      2  C   UNL A   1      32.690  26.322  23.209  1.00  0.00     0.120 C 
ATOM      3  C   UNL A   1      33.980  27.068  22.958  1.00  0.00     0.024 C 
ATOM      4  C   UNL A   1      33.655  28.500  23.372  1.00  0.00     0.037 C 
ATOM      5  C   UNL A   1      32.550  28.377  24.443  1.00  0.00     0.174 C 
ENDROOT
BRANCH   1   6
ATOM      6  C   UNL A   1      31.378  26.391  25.371  1.00  0.00     0.245 C 
ATOM      7  O   UNL A   1      31.677  26.490  26.563  1.00  0.00    -0.272 OA
BRANCH   6   8
ATOM      8  C   UNL A   1      30.191  25.482  24.994  1.00  0.00     0.168 C 
ATOM      9  C   UNL A   1      29.027  26.301  24.444  1.00  0.00     0.041 C 
BRANCH   8  10
ATOM     10  N   UNL A   1      29.780  24.562  26.039  1.00  0.00    -0.343 N 
ATOM     11  C   UNL A   1      30.418  23.481  26.569  1.00  0.00     0.243 C 
ATOM     12  O   UNL A   1      29.950  23.034  27.622  1.00  0.00    -0.273 OA
ATOM     13  H   UNL A   1      28.896  24.750  26.428  1.00  0.00     0.164 HD
BRANCH  11  14
ATOM     14  C   UNL A   1      31.687  22.864  25.946  1.00  0.00     0.171 C 
ATOM     15  C   UNL A   1      31.405  21.957  24.757  1.00  0.00     0.042 C 
BRANCH  14  16
ATOM     16  N   UNL A   1      32.506  22.188  26.950  1.00  0.00    -0.310 N 
ATOM     17  C   UNL A   1      33.845  22.348  27.134  1.00  0.00     0.408 C 
ATOM     18  H   UNL A   1      32.046  21.557  27.549  1.00  0.00     0.167 HD
ATOM     19  O   UNL A   1      34.436  21.710  27.996  1.00  0.00    -0.225 OA
BRANCH  17  20
ATOM     20  O   UNL A   1      34.395  23.223  26.269  1.00  0.00    -0.444 OA
BRANCH  20  21
ATOM     21  C   UNL A   1      35.313  22.789  25.236  1.00  0.00     0.106 C 
ATOM     22  C   UNL A   1      35.232  21.279  24.989  1.00  0.00     0.056 C 
ATOM     23  C   UNL A   1      35.090  23.596  23.954  1.00  0.00     0.056 C 
ATOM     24  C   UNL A   1      36.706  23.119  25.794  1.00  0.00     0.056 C 
ENDBRANCH  20  21
ENDBRANCH  17  20
ENDBRANCH  14  16
ENDBRANCH  11  14
ENDBRANCH   8  10
ENDBRANCH   6   8
ENDBRANCH   1   6
BRANCH   5  25
ATOM     25  C   UNL A   1      31.414  29.378  24.153  1.00  0.00     0.242 C 
ATOM     26  O   UNL A   1      30.634  29.238  23.207  1.00  0.00    -0.273 OA
ATOM     27  N   UNL A   1      31.226  30.453  24.977  1.00  0.00    -0.354 N 
ATOM     28  H   UNL A   1      30.645  31.165  24.625  1.00  0.00     0.163 HD
BRANCH  27  29
ATOM     29  C   UNL A   1      31.769  30.682  26.305  1.00  0.00     0.117 C 
BRANCH  29  30
ATOM     30  C   UNL A   1      31.471  32.061  26.853  1.00  0.00     0.042 C 
BRANCH  30  31
ATOM     31  C   UNL A   1      32.702  32.806  27.340  1.00  0.00     0.118 C 
BRANCH  31  32
ATOM     32  N   UNL A   1      32.451  34.209  27.642  1.00  0.00    -0.352 N 
ATOM     33  C   UNL A   1      33.040  35.036  28.568  1.00  0.00     0.251 C 
ATOM     34  H   UNL A   1      31.748  34.631  27.096  1.00  0.00     0.163 HD
ATOM     35  O   UNL A   1      32.593  36.162  28.761  1.00  0.00    -0.269 OA
BRANCH  33  36
ATOM     36  C   UNL A   1      34.191  34.557  29.361  1.00  0.00     0.039 A 
ATOM     37  C   UNL A   1      33.952  33.946  30.595  1.00  0.00     0.014 A 
ATOM     38  C   UNL A   1      35.498  34.690  28.889  1.00  0.00     0.014 A 
ATOM     39  C   UNL A   1      35.016  33.391  31.308  1.00  0.00     0.010 A 
ATOM     40  C   UNL A   1      36.539  34.044  29.545  1.00  0.00     0.010 A 
ATOM     41  C   UNL A   1      36.310  33.390  30.765  1.00  0.00    -0.014 A 
BRANCH  41  42
ATOM     42  C   UNL A   1      37.439  32.714  31.454  1.00  0.00     0.031 A 
ATOM     43  C   UNL A   1      38.137  31.554  30.800  1.00  0.00     0.074 A 
ATOM     44  C   UNL A   1      37.789  33.100  32.696  1.00  0.00     0.049 A 
ATOM     45  N   UNL A   1      39.090  30.789  31.268  1.00  0.00    -0.248 NA
ATOM     46  C   UNL A   1      37.683  31.183  29.450  1.00  0.00     0.031 C 
ATOM     47  C   UNL A   1      37.156  34.177  33.459  1.00  0.00     0.029 A 
ATOM     48  N   UNL A   1      38.758  32.621  33.544  1.00  0.00    -0.354 N 
ATOM     49  C   UNL A   1      39.337  29.844  30.282  1.00  0.00     0.074 A 
ATOM     50  C   UNL A   1      38.392  30.090  29.214  1.00  0.00     0.031 C 
ATOM     51  C   UNL A   1      37.769  34.295  34.647  1.00  0.00     0.029 A 
ATOM     52  C   UNL A   1      38.806  33.274  34.752  1.00  0.00     0.049 A 
ATOM     53  H   UNL A   1      39.362  31.880  33.308  1.00  0.00     0.167 HD
ATOM     54  C   UNL A   1      40.284  28.876  30.255  1.00  0.00     0.037 A 
ATOM     55  C   UNL A   1      39.588  33.064  35.828  1.00  0.00     0.037 A 
ATOM     56  C   UNL A   1      41.235  28.649  31.311  1.00  0.00     0.049 A 
ATOM     57  C   UNL A   1      40.620  31.968  35.780  1.00  0.00     0.074 A 
ATOM     58  C   UNL A   1      42.272  27.734  31.354  1.00  0.00     0.029 A 
ATOM     59  N   UNL A   1      41.259  29.339  32.514  1.00  0.00    -0.354 N 
ATOM     60  N   UNL A   1      40.895  31.130  34.810  1.00  0.00    -0.248 NA
ATOM     61  C   UNL A   1      41.457  31.796  36.975  1.00  0.00     0.031 C 
ATOM     62  C   UNL A   1      42.883  27.826  32.608  1.00  0.00     0.029 A 
ATOM     63  C   UNL A   1      42.275  28.847  33.321  1.00  0.00     0.049 A 
ATOM     64  H   UNL A   1      40.647  30.069  32.760  1.00  0.00     0.167 HD
ATOM     65  C   UNL A   1      41.953  30.355  35.263  1.00  0.00     0.074 A 
ATOM     66  C   UNL A   1      42.282  30.833  36.590  1.00  0.00     0.031 C 
ATOM     67  C   UNL A   1      42.595  29.338  34.637  1.00  0.00     0.037 A 
BRANCH  54  68
ATOM     68  C   UNL A   1      40.336  27.986  29.044  1.00  0.00     0.064 A 
ATOM     69  C   UNL A   1      39.625  26.777  28.983  1.00  0.00     0.173 A 
ATOM     70  C   UNL A   1      41.078  28.366  27.916  1.00  0.00     0.173 A 
ATOM     71  F   UNL A   1      38.909  26.361  30.038  1.00  0.00    -0.203 F 
ATOM     72  C   UNL A   1      39.682  25.967  27.853  1.00  0.00     0.198 A 
ATOM     73  C   UNL A   1      41.103  27.572  26.772  1.00  0.00     0.198 A 
ATOM     74  F   UNL A   1      41.771  29.515  27.915  1.00  0.00    -0.203 F 
ATOM     75  F   UNL A   1      39.041  24.790  27.841  1.00  0.00    -0.200 F 
ATOM     76  C   UNL A   1      40.414  26.369  26.745  1.00  0.00     0.200 A 
ATOM     77  F   UNL A   1      41.796  27.969  25.696  1.00  0.00    -0.200 F 
ATOM     78  F   UNL A   1      40.460  25.592  25.654  1.00  0.00    -0.200 F 
ENDBRANCH  54  68
BRANCH  55  79
ATOM     79  C   UNL A   1      39.438  33.918  37.036  1.00  0.00     0.064 A 
ATOM     80  C   UNL A   1      38.710  33.475  38.149  1.00  0.00     0.173 A 
ATOM     81  C   UNL A   1      40.009  35.199  37.100  1.00  0.00     0.173 A 
ATOM     82  F   UNL A   1      38.129  32.266  38.130  1.00  0.00    -0.203 F 
ATOM     83  C   UNL A   1      38.536  34.287  39.267  1.00  0.00     0.198 A 
ATOM     84  C   UNL A   1      39.862  35.997  38.233  1.00  0.00     0.198 A 
ATOM     85  F   UNL A   1      40.721  35.670  36.066  1.00  0.00    -0.203 F 
ATOM     86  F   UNL A   1      37.789  33.858  40.294  1.00  0.00    -0.200 F 
ATOM     87  C   UNL A   1      39.117  35.545  39.311  1.00  0.00     0.200 A 
ATOM     88  F   UNL A   1      40.441  37.204  38.277  1.00  0.00    -0.200 F 
ATOM     89  F   UNL A   1      38.953  36.325  40.389  1.00  0.00    -0.200 F 
ENDBRANCH  55  79
BRANCH  67  90
ATOM     90  C   UNL A   1      43.750  28.700  35.358  1.00  0.00     0.064 A 
ATOM     91  C   UNL A   1      43.568  27.633  36.250  1.00  0.00     0.173 A 
ATOM     92  C   UNL A   1      45.063  29.138  35.119  1.00  0.00     0.173 A 
ATOM     93  F   UNL A   1      42.334  27.185  36.526  1.00  0.00    -0.203 F 
ATOM     94  C   UNL A   1      44.653  27.050  36.899  1.00  0.00     0.198 A 
ATOM     95  C   UNL A   1      46.147  28.527  35.740  1.00  0.00     0.198 A 
ATOM     96  F   UNL A   1      45.293  30.148  34.267  1.00  0.00    -0.203 F 
ATOM     97  F   UNL A   1      44.450  26.069  37.790  1.00  0.00    -0.200 F 
ATOM     98  C   UNL A   1      45.942  27.491  36.637  1.00  0.00     0.200 A 
ATOM     99  F   UNL A   1      47.393  28.943  35.471  1.00  0.00    -0.200 F 
ATOM    100  F   UNL A   1      46.986  26.920  37.254  1.00  0.00    -0.200 F 
ENDBRANCH  67  90
ENDBRANCH  41  42
ENDBRANCH  33  36
ENDBRANCH  31  32
ENDBRANCH  30  31
ENDBRANCH  29  30
ENDBRANCH  27  29
ENDBRANCH   5  25
TORSDOF 17
ENDMDL
MODEL 2
REMARK VINA RESULT:     -12.2      5.487     11.191
REMARK SMILES C[C@H](NC(=O)OC(C)(C)C)C(=O)N[C@@H](C)C(=O)N1CCC[C@H]1C(=O)NCCCNC(=O)c1ccc(-c2c3nc(c(-c4c(F)c(F)c(F)c(F)c4F)c4ccc([nH]4)c(-c4c(F)c(F)c(F)c(F)c4F)c4nc(c(-c5c(F)c(F)c(F)c(F)c5F)c5ccc2[nH]5)C=C4)C=C3)cc1
REMARK SMILES IDX 18 1 19 2 20 3 21 4 22 5 16 6 17 7 14 8 15 9 13 10 11 11
REMARK SMILES IDX 12 12 2 14 1 15 3 16 4 17 5 19 6 20 7 21 8 22 9 23 10 24
REMARK SMILES IDX 23 25 24 26 25 27 26 29 27 30 28 31 29 32 30 33 31 35 32 36
REMARK SMILES IDX 33 37 94 38 34 39 93 40 35 41 36 42 37 43 87 44 38 45 92 46
REMARK SMILES IDX 86 47 88 48 39 49 91 50 85 51 84 52 40 54 72 55 52 56 71 57
REMARK SMILES IDX 53 58 56 59 70 60 89 61 54 62 55 63 69 65 90 66 57 67 41 68
REMARK SMILES IDX 42 69 50 70 43 71 44 72 48 73 51 74 45 75 46 76 49 77 47 78
REMARK SMILES IDX 73 79 74 80 82 81 75 82 76 83 80 84 83 85 77 86 78 87 81 88
REMARK SMILES IDX 79 89 58 90 59 91 67 92 60 93 61 94 65 95 68 96 62 97 63 98
REMARK SMILES IDX 66 99 64 100
REMARK H PARENT 13 13 3 18 25 28 29 34 88 53 56 64
REMARK Flexibility Score: inf
ROOT
ATOM      1  N   UNL A   1      33.200  22.744  25.137  1.00  0.00    -0.329 N 
ATOM      2  C   UNL A   1      32.005  22.943  25.930  1.00  0.00     0.120 C 
ATOM      3  C   UNL A   1      32.517  22.950  27.352  1.00  0.00     0.024 C 
ATOM      4  C   UNL A   1      33.658  21.938  27.330  1.00  0.00     0.037 C 
ATOM      5  C   UNL A   1      34.192  21.954  25.881  1.00  0.00     0.174 C 
ENDROOT
BRANCH   1   6
ATOM      6  C   UNL A   1      33.451  23.215  23.873  1.00  0.00     0.245 C 
ATOM      7  O   UNL A   1      34.484  23.835  23.610  1.00  0.00    -0.272 OA
BRANCH   6   8
ATOM      8  C   UNL A   1      32.373  23.105  22.776  1.00  0.00     0.168 C 
ATOM      9  C   UNL A   1      32.086  21.647  22.435  1.00  0.00     0.041 C 
BRANCH   8  10
ATOM     10  N   UNL A   1      32.626  23.915  21.598  1.00  0.00    -0.343 N 
ATOM     11  C   UNL A   1      32.668  25.268  21.444  1.00  0.00     0.243 C 
ATOM     12  O   UNL A   1      33.158  25.682  20.387  1.00  0.00    -0.273 OA
ATOM     13  H   UNL A   1      32.794  23.401  20.775  1.00  0.00     0.164 HD
BRANCH  11  14
ATOM     14  C   UNL A   1      32.194  26.253  22.531  1.00  0.00     0.171 C 
ATOM     15  C   UNL A   1      30.679  26.368  22.634  1.00  0.00     0.042 C 
BRANCH  14  16
ATOM     16  N   UNL A   1      32.818  27.566  22.379  1.00  0.00    -0.310 N 
ATOM     17  C   UNL A   1      33.512  28.241  23.335  1.00  0.00     0.408 C 
ATOM     18  H   UNL A   1      32.727  28.003  21.501  1.00  0.00     0.167 HD
ATOM     19  O   UNL A   1      33.976  29.350  23.102  1.00  0.00    -0.225 OA
BRANCH  17  20
ATOM     20  O   UNL A   1      33.583  27.574  24.504  1.00  0.00    -0.444 OA
BRANCH  20  21
ATOM     21  C   UNL A   1      32.833  28.005  25.666  1.00  0.00     0.106 C 
ATOM     22  C   UNL A   1      31.774  29.054  25.313  1.00  0.00     0.056 C 
ATOM     23  C   UNL A   1      32.229  26.797  26.387  1.00  0.00     0.056 C 
ATOM     24  C   UNL A   1      33.880  28.656  26.582  1.00  0.00     0.056 C 
ENDBRANCH  20  21
ENDBRANCH  17  20
ENDBRANCH  14  16
ENDBRANCH  11  14
ENDBRANCH   8  10
ENDBRANCH   6   8
ENDBRANCH   1   6
BRANCH   5  25
ATOM     25  C   UNL A   1      34.378  20.512  25.367  1.00  0.00     0.242 C 
ATOM     26  O   UNL A   1      33.424  19.783  25.084  1.00  0.00    -0.273 OA
ATOM     27  N   UNL A   1      35.637  20.011  25.185  1.00  0.00    -0.354 N 
ATOM     28  H   UNL A   1      35.697  19.035  25.075  1.00  0.00     0.163 HD
BRANCH  27  29
ATOM     29  C   UNL A   1      36.899  20.730  25.130  1.00  0.00     0.117 C 
BRANCH  29  30
ATOM     30  C   UNL A   1      38.098  19.835  24.895  1.00  0.00     0.042 C 
BRANCH  30  31
ATOM     31  C   UNL A   1      39.317  20.218  25.716  1.00  0.00     0.118 C 
BRANCH  31  32
ATOM     32  N   UNL A   1      40.286  19.138  25.854  1.00  0.00    -0.352 N 
ATOM     33  C   UNL A   1      41.634  19.186  26.115  1.00  0.00     0.251 C 
ATOM     34  H   UNL A   1      39.916  18.232  25.743  1.00  0.00     0.163 HD
ATOM     35  O   UNL A   1      42.309  18.162  26.061  1.00  0.00    -0.269 OA
BRANCH  33  36
ATOM     36  C   UNL A   1      42.284  20.477  26.423  1.00  0.00     0.039 A 
ATOM     37  C   UNL A   1      42.820  21.229  25.375  1.00  0.00     0.014 A 
ATOM     38  C   UNL A   1      42.350  20.956  27.732  1.00  0.00     0.014 A 
ATOM     39  C   UNL A   1      43.340  22.499  25.632  1.00  0.00     0.010 A 
ATOM     40  C   UNL A   1      42.767  22.260  27.971  1.00  0.00     0.010 A 
ATOM     41  C   UNL A   1      43.271  23.046  26.924  1.00  0.00    -0.014 A 
BRANCH  41  42
ATOM     42  C   UNL A   1      43.721  24.434  27.202  1.00  0.00     0.031 A 
ATOM     43  C   UNL A   1      42.739  25.460  27.696  1.00  0.00     0.074 A 
ATOM     44  C   UNL A   1      44.994  24.787  26.944  1.00  0.00     0.049 A 
ATOM     45  N   UNL A   1      42.919  26.736  27.925  1.00  0.00    -0.248 NA
ATOM     46  C   UNL A   1      41.362  24.999  27.935  1.00  0.00     0.031 C 
ATOM     47  C   UNL A   1      46.029  23.897  26.415  1.00  0.00     0.029 A 
ATOM     48  N   UNL A   1      45.636  25.993  27.082  1.00  0.00    -0.354 N 
ATOM     49  C   UNL A   1      41.682  27.228  28.320  1.00  0.00     0.074 A 
ATOM     50  C   UNL A   1      40.744  26.131  28.238  1.00  0.00     0.031 C 
ATOM     51  C   UNL A   1      47.180  24.579  26.298  1.00  0.00     0.029 A 
ATOM     52  C   UNL A   1      46.955  25.964  26.699  1.00  0.00     0.049 A 
ATOM     53  H   UNL A   1      45.192  26.803  27.423  1.00  0.00     0.167 HD
ATOM     54  C   UNL A   1      41.363  28.476  28.739  1.00  0.00     0.037 A 
ATOM     55  C   UNL A   1      47.876  26.946  26.662  1.00  0.00     0.037 A 
ATOM     56  C   UNL A   1      42.304  29.560  28.836  1.00  0.00     0.049 A 
ATOM     57  C   UNL A   1      47.489  28.329  27.114  1.00  0.00     0.074 A 
ATOM     58  C   UNL A   1      42.094  30.844  29.306  1.00  0.00     0.029 A 
ATOM     59  N   UNL A   1      43.635  29.488  28.450  1.00  0.00    -0.354 N 
ATOM     60  N   UNL A   1      46.335  28.764  27.558  1.00  0.00    -0.248 NA
ATOM     61  C   UNL A   1      48.539  29.357  27.069  1.00  0.00     0.031 C 
ATOM     62  C   UNL A   1      43.279  31.568  29.144  1.00  0.00     0.029 A 
ATOM     63  C   UNL A   1      44.249  30.716  28.642  1.00  0.00     0.049 A 
ATOM     64  H   UNL A   1      44.078  28.684  28.094  1.00  0.00     0.167 HD
ATOM     65  C   UNL A   1      46.526  30.102  27.873  1.00  0.00     0.074 A 
ATOM     66  C   UNL A   1      47.913  30.404  27.585  1.00  0.00     0.031 C 
ATOM     67  C   UNL A   1      45.633  31.000  28.358  1.00  0.00     0.037 A 
BRANCH  54  68
ATOM     68  C   UNL A   1      39.932  28.737  29.120  1.00  0.00     0.064 A 
ATOM     69  C   UNL A   1      38.990  29.197  28.186  1.00  0.00     0.173 A 
ATOM     70  C   UNL A   1      39.488  28.489  30.427  1.00  0.00     0.173 A 
ATOM     71  F   UNL A   1      39.362  29.461  26.925  1.00  0.00    -0.203 F 
ATOM     72  C   UNL A   1      37.668  29.431  28.556  1.00  0.00     0.198 A 
ATOM     73  C   UNL A   1      38.158  28.688  30.785  1.00  0.00     0.198 A 
ATOM     74  F   UNL A   1      40.344  28.042  31.359  1.00  0.00    -0.203 F 
ATOM     75  F   UNL A   1      36.801  29.925  27.661  1.00  0.00    -0.200 F 
ATOM     76  C   UNL A   1      37.251  29.168  29.852  1.00  0.00     0.200 A 
ATOM     77  F   UNL A   1      37.752  28.417  32.033  1.00  0.00    -0.200 F 
ATOM     78  F   UNL A   1      35.976  29.384  30.203  1.00  0.00    -0.200 F 
ENDBRANCH  54  68
BRANCH  55  79
ATOM     79  C   UNL A   1      49.257  26.654  26.194  1.00  0.00     0.064 A 
ATOM     80  C   UNL A   1      50.225  26.144  27.070  1.00  0.00     0.173 A 
ATOM     81  C   UNL A   1      49.642  26.889  24.865  1.00  0.00     0.173 A 
ATOM     82  F   UNL A   1      49.912  25.921  28.355  1.00  0.00    -0.203 F 
ATOM     83  C   UNL A   1      51.530  25.905  26.644  1.00  0.00     0.198 A 
ATOM     84  C   UNL A   1      50.938  26.617  24.432  1.00  0.00     0.198 A 
ATOM     85  F   UNL A   1      48.754  27.370  23.982  1.00  0.00    -0.203 F 
ATOM     86  F   UNL A   1      52.447  25.469  27.517  1.00  0.00    -0.200 F 
ATOM     87  C   UNL A   1      51.884  26.136  25.323  1.00  0.00     0.200 A 
ATOM     88  F   UNL A   1      51.270  26.825  23.150  1.00  0.00    -0.200 F 
ATOM     89  F   UNL A   1      53.138  25.902  24.913  1.00  0.00    -0.200 F 
ENDBRANCH  55  79
BRANCH  67  90
ATOM     90  C   UNL A   1      46.136  32.386  28.652  1.00  0.00     0.064 A 
ATOM     91  C   UNL A   1      46.076  33.414  27.700  1.00  0.00     0.173 A 
ATOM     92  C   UNL A   1      46.647  32.698  29.922  1.00  0.00     0.173 A 
ATOM     93  F   UNL A   1      45.610  33.167  26.466  1.00  0.00    -0.203 F 
ATOM     94  C   UNL A   1      46.538  34.693  27.998  1.00  0.00     0.198 A 
ATOM     95  C   UNL A   1      47.073  33.987  30.228  1.00  0.00     0.198 A 
ATOM     96  F   UNL A   1      46.718  31.754  30.873  1.00  0.00    -0.203 F 
ATOM     97  F   UNL A   1      46.522  35.646  27.054  1.00  0.00    -0.200 F 
ATOM     98  C   UNL A   1      47.027  34.981  29.264  1.00  0.00     0.200 A 
ATOM     99  F   UNL A   1      47.527  34.267  31.457  1.00  0.00    -0.200 F 
ATOM    100  F   UNL A   1      47.460  36.216  29.551  1.00  0.00    -0.200 F 
ENDBRANCH  67  90
ENDBRANCH  41  42
ENDBRANCH  33  36
ENDBRANCH  31  32
ENDBRANCH  30  31
ENDBRANCH  29  30
ENDBRANCH  27  29
ENDBRANCH   5  25
TORSDOF 17
ENDMDL
MODEL 3
REMARK VINA RESULT:     -12.0      0.724      2.141
REMARK SMILES C[C@H](NC(=O)OC(C)(C)C)C(=O)N[C@@H](C)C(=O)N1CCC[C@H]1C(=O)NCCCNC(=O)c1ccc(-c2c3nc(c(-c4c(F)c(F)c(F)c(F)c4F)c4ccc([nH]4)c(-c4c(F)c(F)c(F)c(F)c4F)c4nc(c(-c5c(F)c(F)c(F)c(F)c5F)c5ccc2[nH]5)C=C4)C=C3)cc1
REMARK SMILES IDX 18 1 19 2 20 3 21 4 22 5 16 6 17 7 14 8 15 9 13 10 11 11
REMARK SMILES IDX 12 12 2 14 1 15 3 16 4 17 5 19 6 20 7 21 8 22 9 23 10 24
REMARK SMILES IDX 23 25 24 26 25 27 26 29 27 30 28 31 29 32 30 33 31 35 32 36
REMARK SMILES IDX 33 37 94 38 34 39 93 40 35 41 36 42 37 43 87 44 38 45 92 46
REMARK SMILES IDX 86 47 88 48 39 49 91 50 85 51 84 52 40 54 72 55 52 56 71 57
REMARK SMILES IDX 53 58 56 59 70 60 89 61 54 62 55 63 69 65 90 66 57 67 41 68
REMARK SMILES IDX 42 69 50 70 43 71 44 72 48 73 51 74 45 75 46 76 49 77 47 78
REMARK SMILES IDX 73 79 74 80 82 81 75 82 76 83 80 84 83 85 77 86 78 87 81 88
REMARK SMILES IDX 79 89 58 90 59 91 67 92 60 93 61 94 65 95 68 96 62 97 63 98
REMARK SMILES IDX 66 99 64 100
REMARK H PARENT 13 13 3 18 25 28 29 34 88 53 56 64
REMARK Flexibility Score: inf
ROOT
ATOM      1  N   UNL A   1      31.832  27.963  25.136  1.00  0.00    -0.329 N 
ATOM      2  C   UNL A   1      31.431  28.752  23.990  1.00  0.00     0.120 C 
ATOM      3  C   UNL A   1      32.674  28.789  23.130  1.00  0.00     0.024 C 
ATOM      4  C   UNL A   1      33.813  28.834  24.143  1.00  0.00     0.037 C 
ATOM      5  C   UNL A   1      33.269  28.128  25.404  1.00  0.00     0.174 C 
ENDROOT
BRANCH   1   6
ATOM      6  C   UNL A   1      31.044  27.138  25.899  1.00  0.00     0.245 C 
ATOM      7  O   UNL A   1      30.977  27.261  27.124  1.00  0.00    -0.272 OA
BRANCH   6   8
ATOM      8  C   UNL A   1      30.331  25.934  25.251  1.00  0.00     0.168 C 
ATOM      9  C   UNL A   1      29.201  26.395  24.336  1.00  0.00     0.041 C 
BRANCH   8  10
ATOM     10  N   UNL A   1      29.907  24.908  26.188  1.00  0.00    -0.343 N 
ATOM     11  C   UNL A   1      30.504  23.739  26.553  1.00  0.00     0.243 C 
ATOM     12  O   UNL A   1      30.048  23.185  27.558  1.00  0.00    -0.273 OA
ATOM     13  H   UNL A   1      29.047  25.088  26.631  1.00  0.00     0.164 HD
BRANCH  11  14
ATOM     14  C   UNL A   1      31.717  23.147  25.808  1.00  0.00     0.171 C 
ATOM     15  C   UNL A   1      31.365  22.520  24.466  1.00  0.00     0.042 C 
BRANCH  14  16
ATOM     16  N   UNL A   1      32.464  22.215  26.650  1.00  0.00    -0.310 N 
ATOM     17  C   UNL A   1      33.764  22.343  27.032  1.00  0.00     0.408 C 
ATOM     18  H   UNL A   1      31.981  21.420  26.972  1.00  0.00     0.167 HD
ATOM     19  O   UNL A   1      34.298  21.487  27.725  1.00  0.00    -0.225 OA
BRANCH  17  20
ATOM     20  O   UNL A   1      34.350  23.455  26.543  1.00  0.00    -0.444 OA
BRANCH  20  21
ATOM     21  C   UNL A   1      35.286  23.393  25.440  1.00  0.00     0.106 C 
ATOM     22  C   UNL A   1      36.726  23.665  25.889  1.00  0.00     0.056 C 
ATOM     23  C   UNL A   1      35.155  22.054  24.707  1.00  0.00     0.056 C 
ATOM     24  C   UNL A   1      34.847  24.521  24.494  1.00  0.00     0.056 C 
ENDBRANCH  20  21
ENDBRANCH  17  20
ENDBRANCH  14  16
ENDBRANCH  11  14
ENDBRANCH   8  10
ENDBRANCH   6   8
ENDBRANCH   1   6
BRANCH   5  25
ATOM     25  C   UNL A   1      33.595  28.959  26.662  1.00  0.00     0.242 C 
ATOM     26  O   UNL A   1      34.583  28.734  27.365  1.00  0.00    -0.273 OA
ATOM     27  N   UNL A   1      32.788  30.006  27.014  1.00  0.00    -0.354 N 
ATOM     28  H   UNL A   1      32.910  30.351  27.927  1.00  0.00     0.163 HD
BRANCH  27  29
ATOM     29  C   UNL A   1      31.776  30.677  26.216  1.00  0.00     0.117 C 
BRANCH  29  30
ATOM     30  C   UNL A   1      31.461  32.080  26.691  1.00  0.00     0.042 C 
BRANCH  30  31
ATOM     31  C   UNL A   1      32.650  32.802  27.300  1.00  0.00     0.118 C 
BRANCH  31  32
ATOM     32  N   UNL A   1      32.377  34.195  27.629  1.00  0.00    -0.352 N 
ATOM     33  C   UNL A   1      32.964  35.017  28.561  1.00  0.00     0.251 C 
ATOM     34  H   UNL A   1      31.660  34.613  27.100  1.00  0.00     0.163 HD
ATOM     35  O   UNL A   1      32.500  36.131  28.779  1.00  0.00    -0.269 OA
BRANCH  33  36
ATOM     36  C   UNL A   1      34.134  34.546  29.331  1.00  0.00     0.039 A 
ATOM     37  C   UNL A   1      33.932  34.013  30.607  1.00  0.00     0.014 A 
ATOM     38  C   UNL A   1      35.422  34.609  28.797  1.00  0.00     0.014 A 
ATOM     39  C   UNL A   1      35.009  33.465  31.306  1.00  0.00     0.010 A 
ATOM     40  C   UNL A   1      36.471  33.967  29.444  1.00  0.00     0.010 A 
ATOM     41  C   UNL A   1      36.278  33.391  30.708  1.00  0.00    -0.014 A 
BRANCH  41  42
ATOM     42  C   UNL A   1      37.415  32.718  31.387  1.00  0.00     0.031 A 
ATOM     43  C   UNL A   1      38.090  31.541  30.739  1.00  0.00     0.074 A 
ATOM     44  C   UNL A   1      37.793  33.123  32.615  1.00  0.00     0.049 A 
ATOM     45  N   UNL A   1      39.046  30.776  31.203  1.00  0.00    -0.248 NA
ATOM     46  C   UNL A   1      37.606  31.150  29.406  1.00  0.00     0.031 C 
ATOM     47  C   UNL A   1      37.183  34.218  33.370  1.00  0.00     0.029 A 
ATOM     48  N   UNL A   1      38.775  32.652  33.451  1.00  0.00    -0.354 N 
ATOM     49  C   UNL A   1      39.266  29.812  30.228  1.00  0.00     0.074 A 
ATOM     50  C   UNL A   1      38.302  30.046  29.176  1.00  0.00     0.031 C 
ATOM     51  C   UNL A   1      37.821  34.353  34.544  1.00  0.00     0.029 A 
ATOM     52  C   UNL A   1      38.852  33.325  34.646  1.00  0.00     0.049 A 
ATOM     53  H   UNL A   1      39.368  31.901  33.217  1.00  0.00     0.167 HD
ATOM     54  C   UNL A   1      40.205  28.836  30.200  1.00  0.00     0.037 A 
ATOM     55  C   UNL A   1      39.655  33.128  35.710  1.00  0.00     0.037 A 
ATOM     56  C   UNL A   1      41.175  28.620  31.240  1.00  0.00     0.049 A 
ATOM     57  C   UNL A   1      40.677  32.023  35.661  1.00  0.00     0.074 A 
ATOM     58  C   UNL A   1      42.205  27.698  31.279  1.00  0.00     0.029 A 
ATOM     59  N   UNL A   1      41.229  29.331  32.430  1.00  0.00    -0.354 N 
ATOM     60  N   UNL A   1      40.925  31.166  34.701  1.00  0.00    -0.248 NA
ATOM     61  C   UNL A   1      41.536  31.865  36.842  1.00  0.00     0.031 C 
ATOM     62  C   UNL A   1      42.842  27.807  32.519  1.00  0.00     0.029 A 
ATOM     63  C   UNL A   1      42.256  28.845  33.225  1.00  0.00     0.049 A 
ATOM     64  H   UNL A   1      40.628  30.071  32.675  1.00  0.00     0.167 HD
ATOM     65  C   UNL A   1      41.986  30.390  35.146  1.00  0.00     0.074 A 
ATOM     66  C   UNL A   1      42.346  30.889  36.457  1.00  0.00     0.031 C 
ATOM     67  C   UNL A   1      42.608  29.357  34.525  1.00  0.00     0.037 A 
BRANCH  54  68
ATOM     68  C   UNL A   1      40.225  27.925  29.004  1.00  0.00     0.064 A 
ATOM     69  C   UNL A   1      40.946  28.244  27.843  1.00  0.00     0.173 A 
ATOM     70  C   UNL A   1      39.545  26.698  29.035  1.00  0.00     0.173 A 
ATOM     71  F   UNL A   1      41.605  29.409  27.756  1.00  0.00    -0.203 F 
ATOM     72  C   UNL A   1      40.957  27.386  26.746  1.00  0.00     0.198 A 
ATOM     73  C   UNL A   1      39.588  25.825  27.951  1.00  0.00     0.198 A 
ATOM     74  F   UNL A   1      38.846  26.338  30.123  1.00  0.00    -0.203 F 
ATOM     75  F   UNL A   1      41.604  27.739  25.628  1.00  0.00    -0.200 F 
ATOM     76  C   UNL A   1      40.286  26.174  26.804  1.00  0.00     0.200 A 
ATOM     77  F   UNL A   1      38.954  24.647  28.016  1.00  0.00    -0.200 F 
ATOM     78  F   UNL A   1      40.305  25.345  25.752  1.00  0.00    -0.200 F 
ENDBRANCH  54  68
BRANCH  55  79
ATOM     79  C   UNL A   1      39.535  34.005  36.905  1.00  0.00     0.064 A 
ATOM     80  C   UNL A   1      40.196  35.239  36.964  1.00  0.00     0.173 A 
ATOM     81  C   UNL A   1      38.769  33.623  38.017  1.00  0.00     0.173 A 
ATOM     82  F   UNL A   1      40.956  35.641  35.936  1.00  0.00    -0.203 F 
ATOM     83  C   UNL A   1      40.116  36.046  38.098  1.00  0.00     0.198 A 
ATOM     84  C   UNL A   1      38.662  34.445  39.136  1.00  0.00     0.198 A 
ATOM     85  F   UNL A   1      38.110  32.454  38.010  1.00  0.00    -0.203 F 
ATOM     86  F   UNL A   1      40.802  37.196  38.148  1.00  0.00    -0.200 F 
ATOM     87  C   UNL A   1      39.344  35.652  39.180  1.00  0.00     0.200 A 
ATOM     88  F   UNL A   1      37.901  34.068  40.171  1.00  0.00    -0.200 F 
ATOM     89  F   UNL A   1      39.265  36.429  40.268  1.00  0.00    -0.200 F 
ENDBRANCH  55  79
BRANCH  67  90
ATOM     90  C   UNL A   1      43.771  28.722  35.234  1.00  0.00     0.064 A 
ATOM     91  C   UNL A   1      45.083  29.191  35.072  1.00  0.00     0.173 A 
ATOM     92  C   UNL A   1      43.562  27.653  36.120  1.00  0.00     0.173 A 
ATOM     93  F   UNL A   1      45.341  30.200  34.227  1.00  0.00    -0.203 F 
ATOM     94  C   UNL A   1      46.145  28.594  35.747  1.00  0.00     0.198 A 
ATOM     95  C   UNL A   1      44.621  27.084  36.821  1.00  0.00     0.198 A 
ATOM     96  F   UNL A   1      42.326  27.171  36.318  1.00  0.00    -0.203 F 
ATOM     97  F   UNL A   1      47.397  29.024  35.535  1.00  0.00    -0.200 F 
ATOM     98  C   UNL A   1      45.912  27.548  36.627  1.00  0.00     0.200 A 
ATOM     99  F   UNL A   1      44.391  26.085  37.685  1.00  0.00    -0.200 F 
ATOM    100  F   UNL A   1      46.935  26.983  37.284  1.00  0.00    -0.200 F 
ENDBRANCH  67  90
ENDBRANCH  41  42
ENDBRANCH  33  36
ENDBRANCH  31  32
ENDBRANCH  30  31
ENDBRANCH  29  30
ENDBRANCH  27  29
ENDBRANCH   5  25
TORSDOF 17
ENDMDL
