MODEL 1
REMARK VINA RESULT:     -12.3      0.000      0.000
REMARK SMILES [NH3+][C@@](C(=O)NCCCNC(=O)c1ccc(-c2c3nc(c(-c4c(F)c(F)c(F)c(F)c4F)c4ccc([nH]4)c(-c4c(F)c(F)c(F)c(F)c4F)c4nc(c(-c5c(F)c(F)c(F)c(F)c5F)c5ccc2[nH]5)C=C4)C=C3)cc1)(c1ccc([P@TB4](=O)([O-])[O-])cc1)C1CC1
REMARK SMILES IDX 7 1 6 2 5 3 3 4 4 5 2 7 1 8 75 12 76 13 84 14 77 15 83 16
REMARK SMILES IDX 78 17 79 18 80 19 81 20 82 21 85 22 86 23 87 24 8 25 9 26
REMARK SMILES IDX 10 27 11 29 12 30 13 31 74 32 14 33 73 34 15 35 16 36 17 37
REMARK SMILES IDX 67 38 18 39 72 40 66 41 68 42 19 43 71 44 65 45 64 46 20 48
REMARK SMILES IDX 52 49 32 50 51 51 33 52 36 53 50 54 69 55 34 56 35 57 49 59
REMARK SMILES IDX 70 60 37 61 21 62 22 63 30 64 23 65 24 66 28 67 31 68 25 69
REMARK SMILES IDX 26 70 29 71 27 72 53 73 54 74 62 75 55 76 56 77 60 78 63 79
REMARK SMILES IDX 57 80 58 81 61 82 59 83 38 84 39 85 47 86 40 87 41 88 45 89
REMARK SMILES IDX 48 90 42 91 43 92 46 93 44 94
REMARK H PARENT 5 6 1 9 1 10 1 11 9 28 68 47 36 58
REMARK Flexibility Score: inf
ROOT
ATOM      1  C   UNL A   1      31.761  29.128  26.920  1.00  0.00       nan C 
ENDROOT
BRANCH   1   2
ATOM      2  C   UNL A   1      32.232  27.691  27.008  1.00  0.00       nan C 
BRANCH   2   3
ATOM      3  N   UNL A   1      31.128  26.762  27.044  1.00  0.00       nan N 
ATOM      4  C   UNL A   1      30.553  25.986  26.081  1.00  0.00       nan C 
ATOM      5  O   UNL A   1      29.630  25.274  26.495  1.00  0.00       nan OA
ATOM      6  H   UNL A   1      30.710  26.672  27.931  1.00  0.00       nan HD
BRANCH   4   7
ATOM      7  C   UNL A   1      31.022  26.026  24.549  1.00  0.00       nan C 
BRANCH   7   8
ATOM      8  N   UNL A   1      32.497  26.166  24.491  1.00  0.00       nan N 
ATOM      9  H   UNL A   1      32.792  26.257  23.519  1.00  0.00       nan HD
ATOM     10  H   UNL A   1      32.934  25.339  24.902  1.00  0.00       nan HD
ATOM     11  H   UNL A   1      32.781  26.994  25.013  1.00  0.00       nan HD
ENDBRANCH   7   8
BRANCH   7  12
ATOM     12  C   UNL A   1      30.398  27.271  23.866  1.00  0.00       nan A 
ATOM     13  C   UNL A   1      28.995  27.365  23.675  1.00  0.00       nan A 
ATOM     14  C   UNL A   1      31.170  28.346  23.419  1.00  0.00       nan A 
ATOM     15  C   UNL A   1      28.401  28.476  23.065  1.00  0.00       nan A 
ATOM     16  C   UNL A   1      30.581  29.469  22.856  1.00  0.00       nan A 
ATOM     17  C   UNL A   1      29.196  29.542  22.653  1.00  0.00       nan A 
BRANCH  17  18
ATOM     18  P   UNL A   1      28.503  31.094  21.974  1.00  0.00       nan P 
ATOM     19  O   UNL A   1      27.891  30.424  20.733  1.00  0.00       nan OA
ATOM     20  O   UNL A   1      27.255  31.075  23.041  1.00  0.00       nan OA
ATOM     21  O   UNL A   1      27.847  32.561  21.333  1.00  0.00       nan OA
ENDBRANCH  17  18
ENDBRANCH   7  12
BRANCH   7  22
ATOM     22  C   UNL A   1      30.598  24.717  23.842  1.00  0.00       nan C 
ATOM     23  C   UNL A   1      31.514  23.930  22.906  1.00  0.00       nan C 
ATOM     24  C   UNL A   1      31.104  23.316  24.195  1.00  0.00       nan C 
ENDBRANCH   7  22
ENDBRANCH   4   7
ENDBRANCH   2   3
ENDBRANCH   1   2
BRANCH   1  25
ATOM     25  C   UNL A   1      32.813  30.050  26.331  1.00  0.00       nan C 
BRANCH  25  26
ATOM     26  N   UNL A   1      32.513  31.457  26.577  1.00  0.00       nan N 
ATOM     27  C   UNL A   1      33.152  32.352  27.399  1.00  0.00       inf C 
ATOM     28  H   UNL A   1      31.742  31.816  26.083  1.00  0.00       inf HD
ATOM     29  O   UNL A   1      32.636  33.431  27.672  1.00  0.00    -0.269 OA
BRANCH  27  30
ATOM     30  C   UNL A   1      34.463  31.990  27.965  1.00  0.00     0.039 A 
ATOM     31  C   UNL A   1      35.484  32.941  28.014  1.00  0.00     0.014 A 
ATOM     32  C   UNL A   1      34.657  30.710  28.488  1.00  0.00     0.014 A 
ATOM     33  C   UNL A   1      36.677  32.632  28.668  1.00  0.00     0.010 A 
ATOM     34  C   UNL A   1      35.795  30.443  29.229  1.00  0.00     0.010 A 
ATOM     35  C   UNL A   1      36.822  31.396  29.318  1.00  0.00    -0.014 A 
BRANCH  35  36
ATOM     36  C   UNL A   1      38.040  31.031  30.081  1.00  0.00     0.031 A 
ATOM     37  C   UNL A   1      39.014  30.064  29.472  1.00  0.00     0.074 A 
ATOM     38  C   UNL A   1      38.193  31.449  31.351  1.00  0.00     0.049 A 
ATOM     39  N   UNL A   1      40.008  29.424  30.030  1.00  0.00    -0.248 NA
ATOM     40  C   UNL A   1      38.801  29.730  28.055  1.00  0.00     0.031 C 
ATOM     41  C   UNL A   1      37.287  32.350  32.063  1.00  0.00     0.029 A 
ATOM     42  N   UNL A   1      39.151  31.134  32.281  1.00  0.00    -0.354 N 
ATOM     43  C   UNL A   1      40.508  28.582  29.046  1.00  0.00     0.074 A 
ATOM     44  C   UNL A   1      39.674  28.752  27.876  1.00  0.00     0.031 C 
ATOM     45  C   UNL A   1      37.732  32.515  33.319  1.00  0.00     0.029 A 
ATOM     46  C   UNL A   1      38.924  31.694  33.513  1.00  0.00     0.049 A 
ATOM     47  H   UNL A   1      39.927  30.560  32.083  1.00  0.00     0.167 HD
ATOM     48  C   UNL A   1      41.578  27.756  29.108  1.00  0.00     0.037 A 
ATOM     49  C   UNL A   1      39.587  31.541  34.675  1.00  0.00     0.037 A 
ATOM     50  C   UNL A   1      42.424  27.629  30.264  1.00  0.00     0.049 A 
ATOM     51  C   UNL A   1      40.790  30.640  34.719  1.00  0.00     0.074 A 
ATOM     52  C   UNL A   1      43.580  26.885  30.410  1.00  0.00     0.029 A 
ATOM     53  N   UNL A   1      42.202  28.271  31.474  1.00  0.00    -0.354 N 
ATOM     54  N   UNL A   1      41.295  29.891  33.767  1.00  0.00    -0.248 NA
ATOM     55  C   UNL A   1      41.520  30.565  35.991  1.00  0.00     0.031 C 
ATOM     56  C   UNL A   1      44.034  27.043  31.724  1.00  0.00     0.029 A 
ATOM     57  C   UNL A   1      43.189  27.925  32.380  1.00  0.00     0.049 A 
ATOM     58  H   UNL A   1      41.452  28.881  31.662  1.00  0.00     0.167 HD
ATOM     59  C   UNL A   1      42.414  29.279  34.314  1.00  0.00     0.074 A 
ATOM     60  C   UNL A   1      42.516  29.745  35.683  1.00  0.00     0.031 C 
ATOM     61  C   UNL A   1      43.280  28.414  33.733  1.00  0.00     0.037 A 
BRANCH  48  62
ATOM     62  C   UNL A   1      41.879  26.927  27.892  1.00  0.00     0.064 A 
ATOM     63  C   UNL A   1      41.317  25.655  27.706  1.00  0.00     0.173 A 
ATOM     64  C   UNL A   1      42.750  27.408  26.903  1.00  0.00     0.173 A 
ATOM     65  F   UNL A   1      40.487  25.142  28.627  1.00  0.00    -0.203 F 
ATOM     66  C   UNL A   1      41.655  24.875  26.603  1.00  0.00     0.198 A 
ATOM     67  C   UNL A   1      43.058  26.641  25.783  1.00  0.00     0.198 A 
ATOM     68  F   UNL A   1      43.312  28.621  27.027  1.00  0.00    -0.203 F 
ATOM     69  F   UNL A   1      41.164  23.633  26.487  1.00  0.00    -0.200 F 
ATOM     70  C   UNL A   1      42.522  25.370  25.641  1.00  0.00     0.200 A 
ATOM     71  F   UNL A   1      43.886  27.125  24.847  1.00  0.00    -0.200 F 
ATOM     72  F   UNL A   1      42.851  24.617  24.582  1.00  0.00    -0.200 F 
ENDBRANCH  48  62
BRANCH  49  73
ATOM     73  C   UNL A   1      39.126  32.276  35.880  1.00  0.00     0.064 A 
ATOM     74  C   UNL A   1      38.286  31.660  36.818  1.00  0.00     0.173 A 
ATOM     75  C   UNL A   1      39.551  33.586  36.145  1.00  0.00     0.173 A 
ATOM     76  F   UNL A   1      37.841  30.414  36.600  1.00  0.00    -0.203 F 
ATOM     77  C   UNL A   1      37.882  32.329  37.971  1.00  0.00     0.198 A 
ATOM     78  C   UNL A   1      39.167  34.245  37.310  1.00  0.00     0.198 A 
ATOM     79  F   UNL A   1      40.364  34.214  35.283  1.00  0.00    -0.203 F 
ATOM     80  F   UNL A   1      37.059  31.727  38.840  1.00  0.00    -0.200 F 
ATOM     81  C   UNL A   1      38.330  33.618  38.221  1.00  0.00     0.200 A 
ATOM     82  F   UNL A   1      39.616  35.484  37.556  1.00  0.00    -0.200 F 
ATOM     83  F   UNL A   1      37.956  34.255  39.339  1.00  0.00    -0.200 F 
ENDBRANCH  49  73
BRANCH  61  84
ATOM     84  C   UNL A   1      44.445  27.943  34.553  1.00  0.00     0.064 A 
ATOM     85  C   UNL A   1      45.641  28.670  34.620  1.00  0.00     0.173 A 
ATOM     86  C   UNL A   1      44.324  26.793  35.350  1.00  0.00     0.173 A 
ATOM     87  F   UNL A   1      45.806  29.767  33.866  1.00  0.00    -0.203 F 
ATOM     88  C   UNL A   1      46.679  28.259  35.451  1.00  0.00     0.198 A 
ATOM     89  C   UNL A   1      45.354  26.401  36.200  1.00  0.00     0.198 A 
ATOM     90  F   UNL A   1      43.196  26.068  35.325  1.00  0.00    -0.203 F 
ATOM     91  F   UNL A   1      47.824  28.955  35.483  1.00  0.00    -0.200 F 
ATOM     92  C   UNL A   1      46.530  27.133  36.249  1.00  0.00     0.200 A 
ATOM     93  F   UNL A   1      45.202  25.322  36.979  1.00  0.00    -0.200 F 
ATOM     94  F   UNL A   1      47.523  26.752  37.064  1.00  0.00    -0.200 F 
ENDBRANCH  61  84
ENDBRANCH  35  36
ENDBRANCH  27  30
ENDBRANCH  25  26
ENDBRANCH   1  25
TORSDOF 14
ENDMDL
MODEL 2
REMARK VINA RESULT:     -12.3      1.276      1.863
REMARK SMILES [NH3+][C@@](C(=O)NCCCNC(=O)c1ccc(-c2c3nc(c(-c4c(F)c(F)c(F)c(F)c4F)c4ccc([nH]4)c(-c4c(F)c(F)c(F)c(F)c4F)c4nc(c(-c5c(F)c(F)c(F)c(F)c5F)c5ccc2[nH]5)C=C4)C=C3)cc1)(c1ccc([P@TB4](=O)([O-])[O-])cc1)C1CC1
REMARK SMILES IDX 7 1 6 2 5 3 3 4 4 5 2 7 1 8 75 12 76 13 84 14 77 15 83 16
REMARK SMILES IDX 78 17 79 18 80 19 81 20 82 21 85 22 86 23 87 24 8 25 9 26
REMARK SMILES IDX 10 27 11 29 12 30 13 31 74 32 14 33 73 34 15 35 16 36 17 37
REMARK SMILES IDX 67 38 18 39 72 40 66 41 68 42 19 43 71 44 65 45 64 46 20 48
REMARK SMILES IDX 52 49 32 50 51 51 33 52 36 53 50 54 69 55 34 56 35 57 49 59
REMARK SMILES IDX 70 60 37 61 21 62 22 63 30 64 23 65 24 66 28 67 31 68 25 69
REMARK SMILES IDX 26 70 29 71 27 72 53 73 54 74 62 75 55 76 56 77 60 78 63 79
REMARK SMILES IDX 57 80 58 81 61 82 59 83 38 84 39 85 47 86 40 87 41 88 45 89
REMARK SMILES IDX 48 90 42 91 43 92 46 93 44 94
REMARK H PARENT 5 6 1 9 1 10 1 11 9 28 68 47 36 58
REMARK Flexibility Score: inf
ROOT
ATOM      1  C   UNL A   1      32.815  27.720  25.697  1.00  0.00       nan C 
ENDROOT
BRANCH   1   2
ATOM      2  C   UNL A   1      33.607  26.430  25.771  1.00  0.00       nan C 
BRANCH   2   3
ATOM      3  N   UNL A   1      34.050  25.993  24.468  1.00  0.00       nan N 
ATOM      4  C   UNL A   1      33.412  25.336  23.458  1.00  0.00       nan C 
ATOM      5  O   UNL A   1      34.112  25.159  22.453  1.00  0.00       nan OA
ATOM      6  H   UNL A   1      34.990  26.211  24.272  1.00  0.00       nan HD
BRANCH   4   7
ATOM      7  C   UNL A   1      31.900  24.819  23.586  1.00  0.00       nan C 
BRANCH   7   8
ATOM      8  N   UNL A   1      31.627  23.830  22.516  1.00  0.00       nan N 
ATOM      9  H   UNL A   1      31.283  22.965  22.932  1.00  0.00       nan HD
ATOM     10  H   UNL A   1      32.488  23.640  22.001  1.00  0.00       nan HD
ATOM     11  H   UNL A   1      30.926  24.204  21.877  1.00  0.00       nan HD
ENDBRANCH   7   8
BRANCH   7  12
ATOM     12  C   UNL A   1      30.940  26.021  23.379  1.00  0.00       nan A 
ATOM     13  C   UNL A   1      29.695  26.076  24.057  1.00  0.00       nan A 
ATOM     14  C   UNL A   1      31.249  27.091  22.536  1.00  0.00       nan A 
ATOM     15  C   UNL A   1      28.808  27.148  23.895  1.00  0.00       nan A 
ATOM     16  C   UNL A   1      30.394  28.175  22.408  1.00  0.00       nan A 
ATOM     17  C   UNL A   1      29.157  28.211  23.067  1.00  0.00       nan A 
BRANCH  17  18
ATOM     18  P   UNL A   1      28.130  29.716  22.898  1.00  0.00       nan P 
ATOM     19  O   UNL A   1      28.229  29.763  21.364  1.00  0.00       nan OA
ATOM     20  O   UNL A   1      26.744  28.872  23.140  1.00  0.00       nan OA
ATOM     21  O   UNL A   1      27.160  31.140  22.738  1.00  0.00       nan OA
ENDBRANCH  17  18
ENDBRANCH   7  12
BRANCH   7  22
ATOM     22  C   UNL A   1      31.693  24.157  24.968  1.00  0.00       nan C 
ATOM     23  C   UNL A   1      31.006  22.806  25.161  1.00  0.00       nan C 
ATOM     24  C   UNL A   1      32.451  22.931  25.484  1.00  0.00       nan C 
ENDBRANCH   7  22
ENDBRANCH   4   7
ENDBRANCH   2   3
ENDBRANCH   1   2
BRANCH   1  25
ATOM     25  C   UNL A   1      33.697  28.929  25.444  1.00  0.00       nan C 
BRANCH  25  26
ATOM     26  N   UNL A   1      33.098  30.162  25.944  1.00  0.00       nan N 
ATOM     27  C   UNL A   1      33.501  30.969  26.980  1.00  0.00       inf C 
ATOM     28  H   UNL A   1      32.288  30.459  25.470  1.00  0.00       inf HD
ATOM     29  O   UNL A   1      32.758  31.839  27.421  1.00  0.00    -0.269 OA
BRANCH  27  30
ATOM     30  C   UNL A   1      34.835  30.760  27.567  1.00  0.00     0.039 A 
ATOM     31  C   UNL A   1      35.718  31.836  27.683  1.00  0.00     0.014 A 
ATOM     32  C   UNL A   1      35.188  29.497  28.044  1.00  0.00     0.014 A 
ATOM     33  C   UNL A   1      36.927  31.661  28.357  1.00  0.00     0.010 A 
ATOM     34  C   UNL A   1      36.335  29.352  28.805  1.00  0.00     0.010 A 
ATOM     35  C   UNL A   1      37.222  30.429  28.961  1.00  0.00    -0.014 A 
BRANCH  35  36
ATOM     36  C   UNL A   1      38.460  30.197  29.741  1.00  0.00     0.031 A 
ATOM     37  C   UNL A   1      39.489  29.243  29.205  1.00  0.00     0.074 A 
ATOM     38  C   UNL A   1      38.591  30.722  30.974  1.00  0.00     0.049 A 
ATOM     39  N   UNL A   1      40.520  28.708  29.805  1.00  0.00    -0.248 NA
ATOM     40  C   UNL A   1      39.294  28.787  27.820  1.00  0.00     0.031 C 
ATOM     41  C   UNL A   1      37.635  31.621  31.619  1.00  0.00     0.029 A 
ATOM     42  N   UNL A   1      39.568  30.538  31.920  1.00  0.00    -0.354 N 
ATOM     43  C   UNL A   1      41.066  27.822  28.887  1.00  0.00     0.074 A 
ATOM     44  C   UNL A   1      40.223  27.850  27.713  1.00  0.00     0.031 C 
ATOM     45  C   UNL A   1      38.072  31.911  32.855  1.00  0.00     0.029 A 
ATOM     46  C   UNL A   1      39.310  31.179  33.105  1.00  0.00     0.049 A 
ATOM     47  H   UNL A   1      40.376  29.997  31.763  1.00  0.00     0.167 HD
ATOM     48  C   UNL A   1      42.184  27.068  29.007  1.00  0.00     0.037 A 
ATOM     49  C   UNL A   1      39.983  31.158  34.272  1.00  0.00     0.037 A 
ATOM     50  C   UNL A   1      43.038  27.083  30.164  1.00  0.00     0.049 A 
ATOM     51  C   UNL A   1      41.237  30.335  34.379  1.00  0.00     0.074 A 
ATOM     52  C   UNL A   1      44.236  26.421  30.361  1.00  0.00     0.029 A 
ATOM     53  N   UNL A   1      42.780  27.804  31.321  1.00  0.00    -0.354 N 
ATOM     54  N   UNL A   1      41.784  29.544  33.485  1.00  0.00    -0.248 NA
ATOM     55  C   UNL A   1      41.973  30.403  35.648  1.00  0.00     0.031 C 
ATOM     56  C   UNL A   1      44.682  26.709  31.655  1.00  0.00     0.029 A 
ATOM     57  C   UNL A   1      43.788  27.589  32.245  1.00  0.00     0.049 A 
ATOM     58  H   UNL A   1      41.996  28.381  31.465  1.00  0.00     0.167 HD
ATOM     59  C   UNL A   1      42.938  29.044  34.072  1.00  0.00     0.074 A 
ATOM     60  C   UNL A   1      43.015  29.621  35.399  1.00  0.00     0.031 C 
ATOM     61  C   UNL A   1      43.853  28.187  33.555  1.00  0.00     0.037 A 
BRANCH  48  62
ATOM     62  C   UNL A   1      42.531  26.165  27.859  1.00  0.00     0.064 A 
ATOM     63  C   UNL A   1      41.976  24.882  27.732  1.00  0.00     0.173 A 
ATOM     64  C   UNL A   1      43.439  26.585  26.875  1.00  0.00     0.173 A 
ATOM     65  F   UNL A   1      41.112  24.427  28.650  1.00  0.00    -0.203 F 
ATOM     66  C   UNL A   1      42.356  24.035  26.693  1.00  0.00     0.198 A 
ATOM     67  C   UNL A   1      43.790  25.749  25.818  1.00  0.00     0.198 A 
ATOM     68  F   UNL A   1      43.996  27.804  26.943  1.00  0.00    -0.203 F 
ATOM     69  F   UNL A   1      41.869  22.787  26.638  1.00  0.00    -0.200 F 
ATOM     70  C   UNL A   1      43.259  24.470  25.736  1.00  0.00     0.200 A 
ATOM     71  F   UNL A   1      44.653  26.175  24.886  1.00  0.00    -0.200 F 
ATOM     72  F   UNL A   1      43.628  23.653  24.740  1.00  0.00    -0.200 F 
ENDBRANCH  48  62
BRANCH  49  73
ATOM     73  C   UNL A   1      39.482  31.957  35.418  1.00  0.00     0.064 A 
ATOM     74  C   UNL A   1      39.840  33.303  35.565  1.00  0.00     0.173 A 
ATOM     75  C   UNL A   1      38.599  31.409  36.360  1.00  0.00     0.173 A 
ATOM     76  F   UNL A   1      40.693  33.867  34.697  1.00  0.00    -0.203 F 
ATOM     77  C   UNL A   1      39.340  34.071  36.615  1.00  0.00     0.198 A 
ATOM     78  C   UNL A   1      38.080  32.183  37.396  1.00  0.00     0.198 A 
ATOM     79  F   UNL A   1      38.218  30.127  36.257  1.00  0.00    -0.203 F 
ATOM     80  F   UNL A   1      39.717  35.349  36.747  1.00  0.00    -0.200 F 
ATOM     81  C   UNL A   1      38.454  33.512  37.525  1.00  0.00     0.200 A 
ATOM     82  F   UNL A   1      37.211  31.644  38.262  1.00  0.00    -0.200 F 
ATOM     83  F   UNL A   1      37.959  34.255  38.524  1.00  0.00    -0.200 F 
ENDBRANCH  49  73
BRANCH  61  84
ATOM     84  C   UNL A   1      45.044  27.851  34.402  1.00  0.00     0.064 A 
ATOM     85  C   UNL A   1      46.197  28.648  34.401  1.00  0.00     0.173 A 
ATOM     86  C   UNL A   1      44.991  26.766  35.291  1.00  0.00     0.173 A 
ATOM     87  F   UNL A   1      46.298  29.687  33.559  1.00  0.00    -0.203 F 
ATOM     88  C   UNL A   1      47.259  28.366  35.255  1.00  0.00     0.198 A 
ATOM     89  C   UNL A   1      46.044  26.503  36.162  1.00  0.00     0.198 A 
ATOM     90  F   UNL A   1      43.906  25.979  35.333  1.00  0.00    -0.203 F 
ATOM     91  F   UNL A   1      48.363  29.125  35.221  1.00  0.00    -0.200 F 
ATOM     92  C   UNL A   1      47.176  27.302  36.143  1.00  0.00     0.200 A 
ATOM     93  F   UNL A   1      45.956  25.484  37.027  1.00  0.00    -0.200 F 
ATOM     94  F   UNL A   1      48.192  27.046  36.979  1.00  0.00    -0.200 F 
ENDBRANCH  61  84
ENDBRANCH  35  36
ENDBRANCH  27  30
ENDBRANCH  25  26
ENDBRANCH   1  25
TORSDOF 14
ENDMDL
MODEL 3
REMARK VINA RESULT:     -12.3      1.099      1.659
REMARK SMILES [NH3+][C@@](C(=O)NCCCNC(=O)c1ccc(-c2c3nc(c(-c4c(F)c(F)c(F)c(F)c4F)c4ccc([nH]4)c(-c4c(F)c(F)c(F)c(F)c4F)c4nc(c(-c5c(F)c(F)c(F)c(F)c5F)c5ccc2[nH]5)C=C4)C=C3)cc1)(c1ccc([P@TB4](=O)([O-])[O-])cc1)C1CC1
REMARK SMILES IDX 7 1 6 2 5 3 3 4 4 5 2 7 1 8 75 12 76 13 84 14 77 15 83 16
REMARK SMILES IDX 78 17 79 18 80 19 81 20 82 21 85 22 86 23 87 24 8 25 9 26
REMARK SMILES IDX 10 27 11 29 12 30 13 31 74 32 14 33 73 34 15 35 16 36 17 37
REMARK SMILES IDX 67 38 18 39 72 40 66 41 68 42 19 43 71 44 65 45 64 46 20 48
REMARK SMILES IDX 52 49 32 50 51 51 33 52 36 53 50 54 69 55 34 56 35 57 49 59
REMARK SMILES IDX 70 60 37 61 21 62 22 63 30 64 23 65 24 66 28 67 31 68 25 69
REMARK SMILES IDX 26 70 29 71 27 72 53 73 54 74 62 75 55 76 56 77 60 78 63 79
REMARK SMILES IDX 57 80 58 81 61 82 59 83 38 84 39 85 47 86 40 87 41 88 45 89
REMARK SMILES IDX 48 90 42 91 43 92 46 93 44 94
REMARK H PARENT 5 6 1 9 1 10 1 11 9 28 68 47 36 58
REMARK Flexibility Score: inf
ROOT
ATOM      1  C   UNL A   1      32.239  27.996  25.978  1.00  0.00       nan C 
ENDROOT
BRANCH   1   2
ATOM      2  C   UNL A   1      32.860  26.620  25.841  1.00  0.00       nan C 
BRANCH   2   3
ATOM      3  N   UNL A   1      33.660  26.506  24.645  1.00  0.00       nan N 
ATOM      4  C   UNL A   1      33.344  26.171  23.361  1.00  0.00       nan C 
ATOM      5  O   UNL A   1      34.303  26.214  22.581  1.00  0.00       nan OA
ATOM      6  H   UNL A   1      34.614  26.708  24.782  1.00  0.00       nan HD
BRANCH   4   7
ATOM      7  C   UNL A   1      31.866  25.732  22.924  1.00  0.00       nan C 
BRANCH   7   8
ATOM      8  N   UNL A   1      31.906  25.171  21.553  1.00  0.00       nan N 
ATOM      9  H   UNL A   1      32.239  24.208  21.589  1.00  0.00       nan HD
ATOM     10  H   UNL A   1      32.537  25.727  20.975  1.00  0.00       nan HD
ATOM     11  H   UNL A   1      30.970  25.192  21.149  1.00  0.00       nan HD
ENDBRANCH   7   8
BRANCH   7  12
ATOM     12  C   UNL A   1      30.957  26.990  22.897  1.00  0.00       nan A 
ATOM     13  C   UNL A   1      29.646  26.946  23.436  1.00  0.00       nan A 
ATOM     14  C   UNL A   1      31.378  28.207  22.357  1.00  0.00       nan A 
ATOM     15  C   UNL A   1      28.802  28.064  23.431  1.00  0.00       nan A 
ATOM     16  C   UNL A   1      30.563  29.328  22.390  1.00  0.00       nan A 
ATOM     17  C   UNL A   1      29.261  29.269  22.907  1.00  0.00       nan A 
BRANCH  17  18
ATOM     18  P   UNL A   1      28.288  30.818  22.978  1.00  0.00       nan P 
ATOM     19  O   UNL A   1      28.132  30.937  21.453  1.00  0.00       nan OA
ATOM     20  O   UNL A   1      26.926  30.013  23.414  1.00  0.00       nan OA
ATOM     21  O   UNL A   1      27.368  32.281  23.046  1.00  0.00       nan OA
ENDBRANCH  17  18
ENDBRANCH   7  12
BRANCH   7  22
ATOM     22  C   UNL A   1      31.330  24.664  23.905  1.00  0.00       nan C 
ATOM     23  C   UNL A   1      30.751  23.323  23.458  1.00  0.00       nan C 
ATOM     24  C   UNL A   1      32.019  23.337  24.232  1.00  0.00       nan C 
ENDBRANCH   7  22
ENDBRANCH   4   7
ENDBRANCH   2   3
ENDBRANCH   1   2
BRANCH   1  25
ATOM     25  C   UNL A   1      33.218  29.110  25.656  1.00  0.00       nan C 
BRANCH  25  26
ATOM     26  N   UNL A   1      32.709  30.420  26.049  1.00  0.00       nan N 
ATOM     27  C   UNL A   1      33.185  31.289  27.001  1.00  0.00       inf C 
ATOM     28  H   UNL A   1      31.911  30.726  25.562  1.00  0.00       inf HD
ATOM     29  O   UNL A   1      32.509  32.243  27.371  1.00  0.00    -0.269 OA
BRANCH  27  30
ATOM     30  C   UNL A   1      34.515  31.047  27.585  1.00  0.00     0.039 A 
ATOM     31  C   UNL A   1      35.435  32.094  27.672  1.00  0.00     0.014 A 
ATOM     32  C   UNL A   1      34.827  29.782  28.087  1.00  0.00     0.014 A 
ATOM     33  C   UNL A   1      36.642  31.891  28.344  1.00  0.00     0.010 A 
ATOM     34  C   UNL A   1      35.973  29.614  28.845  1.00  0.00     0.010 A 
ATOM     35  C   UNL A   1      36.897  30.662  28.973  1.00  0.00    -0.014 A 
BRANCH  35  36
ATOM     36  C   UNL A   1      38.132  30.405  29.752  1.00  0.00     0.031 A 
ATOM     37  C   UNL A   1      39.153  29.453  29.199  1.00  0.00     0.074 A 
ATOM     38  C   UNL A   1      38.264  30.903  30.994  1.00  0.00     0.049 A 
ATOM     39  N   UNL A   1      40.179  28.898  29.790  1.00  0.00    -0.248 NA
ATOM     40  C   UNL A   1      38.958  29.026  27.804  1.00  0.00     0.031 C 
ATOM     41  C   UNL A   1      37.314  31.798  31.655  1.00  0.00     0.029 A 
ATOM     42  N   UNL A   1      39.236  30.692  31.939  1.00  0.00    -0.354 N 
ATOM     43  C   UNL A   1      40.720  28.025  28.856  1.00  0.00     0.074 A 
ATOM     44  C   UNL A   1      39.879  28.084  27.680  1.00  0.00     0.031 C 
ATOM     45  C   UNL A   1      37.750  32.059  32.898  1.00  0.00     0.029 A 
ATOM     46  C   UNL A   1      38.981  31.312  33.136  1.00  0.00     0.049 A 
ATOM     47  H   UNL A   1      40.040  30.148  31.773  1.00  0.00     0.167 HD
ATOM     48  C   UNL A   1      41.831  27.259  28.963  1.00  0.00     0.037 A 
ATOM     49  C   UNL A   1      39.651  31.261  34.304  1.00  0.00     0.037 A 
ATOM     50  C   UNL A   1      42.682  27.244  30.122  1.00  0.00     0.049 A 
ATOM     51  C   UNL A   1      40.898  30.426  34.397  1.00  0.00     0.074 A 
ATOM     52  C   UNL A   1      43.874  26.568  30.309  1.00  0.00     0.029 A 
ATOM     53  N   UNL A   1      42.427  27.943  31.293  1.00  0.00    -0.354 N 
ATOM     54  N   UNL A   1      41.440  29.648  33.489  1.00  0.00    -0.248 NA
ATOM     55  C   UNL A   1      41.631  30.462  35.669  1.00  0.00     0.031 C 
ATOM     56  C   UNL A   1      44.319  26.826  31.609  1.00  0.00     0.029 A 
ATOM     57  C   UNL A   1      43.431  27.702  32.215  1.00  0.00     0.049 A 
ATOM     58  H   UNL A   1      41.648  28.524  31.447  1.00  0.00     0.167 HD
ATOM     59  C   UNL A   1      42.588  29.126  34.069  1.00  0.00     0.074 A 
ATOM     60  C   UNL A   1      42.667  29.677  35.407  1.00  0.00     0.031 C 
ATOM     61  C   UNL A   1      43.497  28.272  33.537  1.00  0.00     0.037 A 
BRANCH  48  62
ATOM     62  C   UNL A   1      42.173  26.377  27.798  1.00  0.00     0.064 A 
ATOM     63  C   UNL A   1      41.576  25.119  27.621  1.00  0.00     0.173 A 
ATOM     64  C   UNL A   1      43.119  26.790  26.848  1.00  0.00     0.173 A 
ATOM     65  F   UNL A   1      40.674  24.669  28.506  1.00  0.00    -0.203 F 
ATOM     66  C   UNL A   1      41.951  24.288  26.568  1.00  0.00     0.198 A 
ATOM     67  C   UNL A   1      43.465  25.972  25.776  1.00  0.00     0.198 A 
ATOM     68  F   UNL A   1      43.717  27.986  26.964  1.00  0.00    -0.203 F 
ATOM     69  F   UNL A   1      41.421  23.060  26.466  1.00  0.00    -0.200 F 
ATOM     70  C   UNL A   1      42.891  24.717  25.644  1.00  0.00     0.200 A 
ATOM     71  F   UNL A   1      44.365  26.393  24.876  1.00  0.00    -0.200 F 
ATOM     72  F   UNL A   1      43.255  23.914  24.635  1.00  0.00    -0.200 F 
ENDBRANCH  48  62
BRANCH  49  73
ATOM     73  C   UNL A   1      39.153  32.041  35.465  1.00  0.00     0.064 A 
ATOM     74  C   UNL A   1      38.366  31.434  36.452  1.00  0.00     0.173 A 
ATOM     75  C   UNL A   1      39.492  33.391  35.638  1.00  0.00     0.173 A 
ATOM     76  F   UNL A   1      38.004  30.149  36.323  1.00  0.00    -0.203 F 
ATOM     77  C   UNL A   1      37.930  32.149  37.566  1.00  0.00     0.198 A 
ATOM     78  C   UNL A   1      39.077  34.099  36.763  1.00  0.00     0.198 A 
ATOM     79  F   UNL A   1      40.253  34.014  34.725  1.00  0.00    -0.203 F 
ATOM     80  F   UNL A   1      37.158  31.552  38.483  1.00  0.00    -0.200 F 
ATOM     81  C   UNL A   1      38.293  33.479  37.724  1.00  0.00     0.200 A 
ATOM     82  F   UNL A   1      39.443  35.379  36.921  1.00  0.00    -0.200 F 
ATOM     83  F   UNL A   1      37.888  34.162  38.804  1.00  0.00    -0.200 F 
ENDBRANCH  49  73
BRANCH  61  84
ATOM     84  C   UNL A   1      44.684  27.910  34.379  1.00  0.00     0.064 A 
ATOM     85  C   UNL A   1      44.690  26.766  35.189  1.00  0.00     0.173 A 
ATOM     86  C   UNL A   1      45.860  28.672  34.303  1.00  0.00     0.173 A 
ATOM     87  F   UNL A   1      43.585  26.014  35.304  1.00  0.00    -0.203 F 
ATOM     88  C   UNL A   1      45.831  26.402  35.899  1.00  0.00     0.198 A 
ATOM     89  C   UNL A   1      47.006  28.290  34.993  1.00  0.00     0.198 A 
ATOM     90  F   UNL A   1      45.904  29.772  33.536  1.00  0.00    -0.203 F 
ATOM     91  F   UNL A   1      45.809  25.318  36.687  1.00  0.00    -0.200 F 
ATOM     92  C   UNL A   1      46.991  27.157  35.791  1.00  0.00     0.200 A 
ATOM     93  F   UNL A   1      48.128  29.012  34.876  1.00  0.00    -0.200 F 
ATOM     94  F   UNL A   1      48.093  26.792  36.458  1.00  0.00    -0.200 F 
ENDBRANCH  61  84
ENDBRANCH  35  36
ENDBRANCH  27  30
ENDBRANCH  25  26
ENDBRANCH   1  25
TORSDOF 14
ENDMDL
