MODEL 1
REMARK VINA RESULT:     -13.2      0.000      0.000
REMARK SMILES Cc1cccc2[nH]cc(C[C@H](NC(=O)OC(C)(C)C)C(=O)NCCCNC(=O)c3ccc(-c4c5nc(c(-c6c(F)c(F)c(F)c(F)c6F)c6ccc([nH]6)c(-c6c(F)c(F)c(F)c(F)c6F)c6nc(c(-c7c(F)c(F)c(F)c(F)c7F)c7ccc4[nH]7)C=C6)C=C5)cc3)c12
REMARK SMILES IDX 23 1 22 2 20 3 21 4 11 6 10 7 9 8 1 9 2 10 3 11 92 12 4 13
REMARK SMILES IDX 6 14 5 15 7 16 8 17 12 19 13 20 14 22 15 23 16 24 17 25
REMARK SMILES IDX 18 26 19 27 24 28 25 29 26 30 27 31 28 33 29 34 30 35 91 36
REMARK SMILES IDX 31 37 90 38 32 39 33 40 34 41 84 42 35 43 89 44 83 45 85 46
REMARK SMILES IDX 36 47 88 48 82 49 81 50 37 52 69 53 49 54 68 55 50 56 53 57
REMARK SMILES IDX 67 58 86 59 51 60 52 61 66 63 87 64 54 65 38 66 39 67 47 68
REMARK SMILES IDX 40 69 41 70 45 71 48 72 42 73 43 74 46 75 44 76 70 77 71 78
REMARK SMILES IDX 79 79 72 80 73 81 77 82 80 83 74 84 75 85 78 86 76 87 55 88
REMARK SMILES IDX 56 89 64 90 57 91 58 92 62 93 65 94 59 95 60 96 63 97 61 98
REMARK H PARENT 22 5 7 18 12 21 26 32 85 51 53 62
REMARK Flexibility Score: inf
ROOT
ATOM      1  C   UNL A   1      36.668  21.555  25.459  1.00  0.00     0.117 C 
ENDROOT
BRANCH   1   2
ATOM      2  N   UNL A   1      35.722  21.852  26.537  1.00  0.00    -0.354 N 
ATOM      3  C   UNL A   1      34.405  21.446  26.657  1.00  0.00     0.243 C 
ATOM      4  O   UNL A   1      33.819  21.640  27.722  1.00  0.00    -0.273 OA
ATOM      5  H   UNL A   1      36.067  22.412  27.270  1.00  0.00     0.163 HD
BRANCH   3   6
ATOM      6  C   UNL A   1      33.710  20.795  25.442  1.00  0.00     0.179 C 
BRANCH   6   7
ATOM      7  C   UNL A   1      32.833  21.867  24.782  1.00  0.00     0.073 C 
BRANCH   7   8
ATOM      8  C   UNL A   1      32.165  22.916  25.596  1.00  0.00    -0.020 A 
ATOM      9  C   UNL A   1      34.728  24.434  24.174  1.00  0.00     0.045 C 
ATOM     10  C   UNL A   1      33.684  25.024  25.085  1.00  0.00    -0.041 A 
ATOM     11  C   UNL A   1      33.798  26.391  25.407  1.00  0.00     0.004 A 
ATOM     12  C   UNL A   1      32.597  24.294  25.650  1.00  0.00     0.006 A 
ATOM     13  C   UNL A   1      32.851  27.034  26.195  1.00  0.00     0.002 A 
ATOM     14  C   UNL A   1      31.654  24.977  26.417  1.00  0.00     0.046 A 
ATOM     15  C   UNL A   1      31.749  26.344  26.698  1.00  0.00     0.027 A 
ATOM     16  N   UNL A   1      30.678  24.073  26.774  1.00  0.00    -0.361 N 
ATOM     17  C   UNL A   1      30.971  22.831  26.282  1.00  0.00     0.087 A 
ATOM     18  H   UNL A   1      29.881  24.291  27.309  1.00  0.00     0.166 HD
ENDBRANCH   7   8
ENDBRANCH   6   7
BRANCH   6  19
ATOM     19  N   UNL A   1      32.984  19.673  26.073  1.00  0.00    -0.309 N 
ATOM     20  C   UNL A   1      32.743  18.411  25.630  1.00  0.00     0.408 C 
ATOM     21  H   UNL A   1      32.614  19.872  26.964  1.00  0.00     0.167 HD
ATOM     22  O   UNL A   1      32.071  17.649  26.293  1.00  0.00    -0.225 OA
BRANCH  20  23
ATOM     23  O   UNL A   1      33.292  18.159  24.422  1.00  0.00    -0.444 OA
BRANCH  23  24
ATOM     24  C   UNL A   1      34.386  17.213  24.304  1.00  0.00     0.106 C 
ATOM     25  C   UNL A   1      35.733  17.876  24.611  1.00  0.00     0.056 C 
ATOM     26  C   UNL A   1      34.174  15.971  25.181  1.00  0.00     0.056 C 
ATOM     27  C   UNL A   1      34.373  16.791  22.829  1.00  0.00     0.056 C 
ENDBRANCH  23  24
ENDBRANCH  20  23
ENDBRANCH   6  19
ENDBRANCH   3   6
ENDBRANCH   1   2
BRANCH   1  28
ATOM     28  C   UNL A   1      37.725  22.620  25.217  1.00  0.00     0.042 C 
BRANCH  28  29
ATOM     29  C   UNL A   1      38.462  22.960  26.488  1.00  0.00     0.118 C 
BRANCH  29  30
ATOM     30  N   UNL A   1      39.766  22.296  26.585  1.00  0.00    -0.352 N 
ATOM     31  C   UNL A   1      41.006  22.895  26.652  1.00  0.00     0.251 C 
ATOM     32  H   UNL A   1      39.754  21.313  26.606  1.00  0.00     0.163 HD
ATOM     33  O   UNL A   1      42.033  22.269  26.424  1.00  0.00    -0.269 OA
BRANCH  31  34
ATOM     34  C   UNL A   1      41.062  24.319  27.014  1.00  0.00     0.039 A 
ATOM     35  C   UNL A   1      40.603  25.312  26.148  1.00  0.00     0.014 A 
ATOM     36  C   UNL A   1      41.553  24.634  28.280  1.00  0.00     0.014 A 
ATOM     37  C   UNL A   1      40.598  26.627  26.597  1.00  0.00     0.010 A 
ATOM     38  C   UNL A   1      41.365  25.888  28.787  1.00  0.00     0.010 A 
ATOM     39  C   UNL A   1      40.975  26.897  27.922  1.00  0.00    -0.014 A 
BRANCH  39  40
ATOM     40  C   UNL A   1      40.919  28.240  28.465  1.00  0.00     0.031 A 
ATOM     41  C   UNL A   1      42.018  29.123  28.008  1.00  0.00     0.074 A 
ATOM     42  C   UNL A   1      39.844  28.688  29.145  1.00  0.00     0.049 A 
ATOM     43  N   UNL A   1      43.012  29.560  28.704  1.00  0.00    -0.248 NA
ATOM     44  C   UNL A   1      42.111  29.432  26.572  1.00  0.00     0.031 C 
ATOM     45  C   UNL A   1      38.555  28.018  29.365  1.00  0.00     0.029 A 
ATOM     46  N   UNL A   1      39.649  29.901  29.726  1.00  0.00    -0.354 N 
ATOM     47  C   UNL A   1      43.743  30.377  27.848  1.00  0.00     0.074 A 
ATOM     48  C   UNL A   1      43.265  30.101  26.519  1.00  0.00     0.031 C 
ATOM     49  C   UNL A   1      37.652  28.906  29.837  1.00  0.00     0.029 A 
ATOM     50  C   UNL A   1      38.339  30.149  30.122  1.00  0.00     0.049 A 
ATOM     51  H   UNL A   1      40.377  30.552  29.854  1.00  0.00     0.167 HD
ATOM     52  C   UNL A   1      44.484  31.407  28.343  1.00  0.00     0.037 A 
ATOM     53  C   UNL A   1      37.867  31.312  30.634  1.00  0.00     0.037 A 
ATOM     54  C   UNL A   1      44.667  31.261  29.767  1.00  0.00     0.049 A 
ATOM     55  C   UNL A   1      39.042  32.053  31.151  1.00  0.00     0.074 A 
ATOM     56  C   UNL A   1      45.299  30.353  30.589  1.00  0.00     0.029 A 
ATOM     57  N   UNL A   1      43.788  31.953  30.560  1.00  0.00    -0.354 N 
ATOM     58  N   UNL A   1      39.769  31.657  32.160  1.00  0.00    -0.248 NA
ATOM     59  C   UNL A   1      39.667  33.031  30.275  1.00  0.00     0.031 C 
ATOM     60  C   UNL A   1      44.473  30.261  31.751  1.00  0.00     0.029 A 
ATOM     61  C   UNL A   1      43.415  31.160  31.612  1.00  0.00     0.049 A 
ATOM     62  H   UNL A   1      43.474  32.872  30.399  1.00  0.00     0.167 HD
ATOM     63  C   UNL A   1      41.067  31.995  31.811  1.00  0.00     0.074 A 
ATOM     64  C   UNL A   1      40.926  32.947  30.712  1.00  0.00     0.031 C 
ATOM     65  C   UNL A   1      42.120  31.249  32.256  1.00  0.00     0.037 A 
BRANCH  52  66
ATOM     66  C   UNL A   1      44.667  32.739  27.651  1.00  0.00     0.064 A 
ATOM     67  C   UNL A   1      45.873  32.992  26.966  1.00  0.00     0.173 A 
ATOM     68  C   UNL A   1      43.857  33.873  27.883  1.00  0.00     0.173 A 
ATOM     69  F   UNL A   1      46.738  31.998  26.716  1.00  0.00    -0.203 F 
ATOM     70  C   UNL A   1      46.264  34.285  26.604  1.00  0.00     0.198 A 
ATOM     71  C   UNL A   1      44.224  35.154  27.472  1.00  0.00     0.198 A 
ATOM     72  F   UNL A   1      42.739  33.817  28.615  1.00  0.00    -0.203 F 
ATOM     73  F   UNL A   1      47.475  34.489  26.069  1.00  0.00    -0.200 F 
ATOM     74  C   UNL A   1      45.440  35.365  26.860  1.00  0.00     0.200 A 
ATOM     75  F   UNL A   1      43.421  36.190  27.754  1.00  0.00    -0.200 F 
ATOM     76  F   UNL A   1      45.835  36.611  26.567  1.00  0.00    -0.200 F 
ENDBRANCH  52  66
BRANCH  53  77
ATOM     77  C   UNL A   1      36.564  31.976  30.390  1.00  0.00     0.064 A 
ATOM     78  C   UNL A   1      35.753  32.373  31.467  1.00  0.00     0.173 A 
ATOM     79  C   UNL A   1      36.245  32.520  29.131  1.00  0.00     0.173 A 
ATOM     80  F   UNL A   1      36.013  31.928  32.705  1.00  0.00    -0.203 F 
ATOM     81  C   UNL A   1      34.720  33.303  31.305  1.00  0.00     0.198 A 
ATOM     82  C   UNL A   1      35.211  33.445  28.971  1.00  0.00     0.198 A 
ATOM     83  F   UNL A   1      36.997  32.249  28.054  1.00  0.00    -0.203 F 
ATOM     84  F   UNL A   1      34.024  33.718  32.372  1.00  0.00    -0.200 F 
ATOM     85  C   UNL A   1      34.461  33.850  30.060  1.00  0.00     0.200 A 
ATOM     86  F   UNL A   1      34.994  33.997  27.768  1.00  0.00    -0.200 F 
ATOM     87  F   UNL A   1      33.525  34.799  29.919  1.00  0.00    -0.200 F 
ENDBRANCH  53  77
BRANCH  65  88
ATOM     88  C   UNL A   1      41.863  30.291  33.390  1.00  0.00     0.064 A 
ATOM     89  C   UNL A   1      41.543  28.931  33.229  1.00  0.00     0.173 A 
ATOM     90  C   UNL A   1      42.086  30.746  34.696  1.00  0.00     0.173 A 
ATOM     91  F   UNL A   1      41.393  28.396  32.012  1.00  0.00    -0.203 F 
ATOM     92  C   UNL A   1      41.425  28.080  34.328  1.00  0.00     0.198 A 
ATOM     93  C   UNL A   1      42.005  29.887  35.788  1.00  0.00     0.198 A 
ATOM     94  F   UNL A   1      42.437  32.025  34.908  1.00  0.00    -0.203 F 
ATOM     95  F   UNL A   1      41.112  26.787  34.149  1.00  0.00    -0.200 F 
ATOM     96  C   UNL A   1      41.667  28.556  35.605  1.00  0.00     0.200 A 
ATOM     97  F   UNL A   1      42.284  30.345  37.016  1.00  0.00    -0.200 F 
ATOM     98  F   UNL A   1      41.601  27.729  36.657  1.00  0.00    -0.200 F 
ENDBRANCH  65  88
ENDBRANCH  39  40
ENDBRANCH  31  34
ENDBRANCH  29  30
ENDBRANCH  28  29
ENDBRANCH   1  28
TORSDOF 15
ENDMDL
MODEL 2
REMARK VINA RESULT:     -13.2      4.204      9.574
REMARK SMILES Cc1cccc2[nH]cc(C[C@H](NC(=O)OC(C)(C)C)C(=O)NCCCNC(=O)c3ccc(-c4c5nc(c(-c6c(F)c(F)c(F)c(F)c6F)c6ccc([nH]6)c(-c6c(F)c(F)c(F)c(F)c6F)c6nc(c(-c7c(F)c(F)c(F)c(F)c7F)c7ccc4[nH]7)C=C6)C=C5)cc3)c12
REMARK SMILES IDX 23 1 22 2 20 3 21 4 11 6 10 7 9 8 1 9 2 10 3 11 92 12 4 13
REMARK SMILES IDX 6 14 5 15 7 16 8 17 12 19 13 20 14 22 15 23 16 24 17 25
REMARK SMILES IDX 18 26 19 27 24 28 25 29 26 30 27 31 28 33 29 34 30 35 91 36
REMARK SMILES IDX 31 37 90 38 32 39 33 40 34 41 84 42 35 43 89 44 83 45 85 46
REMARK SMILES IDX 36 47 88 48 82 49 81 50 37 52 69 53 49 54 68 55 50 56 53 57
REMARK SMILES IDX 67 58 86 59 51 60 52 61 66 63 87 64 54 65 38 66 39 67 47 68
REMARK SMILES IDX 40 69 41 70 45 71 48 72 42 73 43 74 46 75 44 76 70 77 71 78
REMARK SMILES IDX 79 79 72 80 73 81 77 82 80 83 74 84 75 85 78 86 76 87 55 88
REMARK SMILES IDX 56 89 64 90 57 91 58 92 62 93 65 94 59 95 60 96 63 97 61 98
REMARK H PARENT 22 5 7 18 12 21 26 32 85 51 53 62
REMARK Flexibility Score: inf
ROOT
ATOM      1  C   UNL A   1      32.699  30.161  26.170  1.00  0.00     0.117 C 
ENDROOT
BRANCH   1   2
ATOM      2  N   UNL A   1      33.393  29.674  24.975  1.00  0.00    -0.354 N 
ATOM      3  C   UNL A   1      32.842  29.157  23.816  1.00  0.00     0.243 C 
ATOM      4  O   UNL A   1      33.574  28.969  22.844  1.00  0.00    -0.273 OA
ATOM      5  H   UNL A   1      34.376  29.720  25.000  1.00  0.00     0.163 HD
BRANCH   3   6
ATOM      6  C   UNL A   1      31.339  28.805  23.794  1.00  0.00     0.179 C 
BRANCH   6   7
ATOM      7  C   UNL A   1      31.212  27.301  24.064  1.00  0.00     0.073 C 
BRANCH   7   8
ATOM      8  C   UNL A   1      31.969  26.312  23.253  1.00  0.00    -0.020 A 
ATOM      9  C   UNL A   1      33.442  26.306  26.207  1.00  0.00     0.045 C 
ATOM     10  C   UNL A   1      33.774  25.470  24.999  1.00  0.00    -0.041 A 
ATOM     11  C   UNL A   1      34.857  24.575  25.103  1.00  0.00     0.004 A 
ATOM     12  C   UNL A   1      33.073  25.529  23.758  1.00  0.00     0.006 A 
ATOM     13  C   UNL A   1      35.201  23.725  24.059  1.00  0.00     0.002 A 
ATOM     14  C   UNL A   1      33.432  24.644  22.740  1.00  0.00     0.046 A 
ATOM     15  C   UNL A   1      34.481  23.728  22.865  1.00  0.00     0.027 A 
ATOM     16  N   UNL A   1      32.565  24.849  21.690  1.00  0.00    -0.361 N 
ATOM     17  C   UNL A   1      31.676  25.846  21.989  1.00  0.00     0.087 A 
ATOM     18  H   UNL A   1      32.581  24.347  20.844  1.00  0.00     0.166 HD
ENDBRANCH   7   8
ENDBRANCH   6   7
BRANCH   6  19
ATOM     19  N   UNL A   1      30.944  29.248  22.441  1.00  0.00    -0.309 N 
ATOM     20  C   UNL A   1      29.813  29.864  22.004  1.00  0.00     0.408 C 
ATOM     21  H   UNL A   1      31.610  29.069  21.739  1.00  0.00     0.167 HD
ATOM     22  O   UNL A   1      29.664  30.100  20.823  1.00  0.00    -0.225 OA
BRANCH  20  23
ATOM     23  O   UNL A   1      28.935  30.128  22.996  1.00  0.00    -0.444 OA
BRANCH  23  24
ATOM     24  C   UNL A   1      28.690  31.499  23.405  1.00  0.00     0.106 C 
ATOM     25  C   UNL A   1      29.640  31.925  24.529  1.00  0.00     0.056 C 
ATOM     26  C   UNL A   1      28.764  32.477  22.224  1.00  0.00     0.056 C 
ATOM     27  C   UNL A   1      27.257  31.486  23.953  1.00  0.00     0.056 C 
ENDBRANCH  23  24
ENDBRANCH  20  23
ENDBRANCH   6  19
ENDBRANCH   3   6
ENDBRANCH   1   2
BRANCH   1  28
ATOM     28  C   UNL A   1      33.457  29.979  27.475  1.00  0.00     0.042 C 
BRANCH  28  29
ATOM     29  C   UNL A   1      34.560  30.996  27.615  1.00  0.00     0.118 C 
BRANCH  29  30
ATOM     30  N   UNL A   1      34.454  31.785  28.846  1.00  0.00    -0.352 N 
ATOM     31  C   UNL A   1      35.270  31.717  29.956  1.00  0.00     0.251 C 
ATOM     32  H   UNL A   1      33.718  32.438  28.884  1.00  0.00     0.163 HD
ATOM     33  O   UNL A   1      34.925  32.185  31.034  1.00  0.00    -0.269 OA
BRANCH  31  34
ATOM     34  C   UNL A   1      36.580  31.068  29.805  1.00  0.00     0.039 A 
ATOM     35  C   UNL A   1      37.745  31.810  29.610  1.00  0.00     0.014 A 
ATOM     36  C   UNL A   1      36.616  29.678  29.908  1.00  0.00     0.014 A 
ATOM     37  C   UNL A   1      38.959  31.133  29.573  1.00  0.00     0.010 A 
ATOM     38  C   UNL A   1      37.813  29.041  30.067  1.00  0.00     0.010 A 
ATOM     39  C   UNL A   1      38.975  29.749  29.811  1.00  0.00    -0.014 A 
BRANCH  39  40
ATOM     40  C   UNL A   1      40.219  29.005  29.856  1.00  0.00     0.031 A 
ATOM     41  C   UNL A   1      40.777  28.844  31.219  1.00  0.00     0.074 A 
ATOM     42  C   UNL A   1      40.693  28.345  28.779  1.00  0.00     0.049 A 
ATOM     43  N   UNL A   1      41.829  29.409  31.706  1.00  0.00    -0.248 NA
ATOM     44  C   UNL A   1      39.992  28.088  32.208  1.00  0.00     0.031 C 
ATOM     45  C   UNL A   1      40.053  28.149  27.471  1.00  0.00     0.029 A 
ATOM     46  N   UNL A   1      41.840  27.626  28.658  1.00  0.00    -0.354 N 
ATOM     47  C   UNL A   1      41.961  28.913  32.999  1.00  0.00     0.074 A 
ATOM     48  C   UNL A   1      40.711  28.276  33.317  1.00  0.00     0.031 C 
ATOM     49  C   UNL A   1      40.715  27.197  26.776  1.00  0.00     0.029 A 
ATOM     50  C   UNL A   1      41.918  26.851  27.506  1.00  0.00     0.049 A 
ATOM     51  H   UNL A   1      42.556  27.652  29.332  1.00  0.00     0.167 HD
ATOM     52  C   UNL A   1      43.187  28.834  33.586  1.00  0.00     0.037 A 
ATOM     53  C   UNL A   1      42.906  25.976  27.199  1.00  0.00     0.037 A 
ATOM     54  C   UNL A   1      44.148  29.632  32.863  1.00  0.00     0.049 A 
ATOM     55  C   UNL A   1      44.080  26.361  28.018  1.00  0.00     0.074 A 
ATOM     56  C   UNL A   1      44.311  30.976  32.601  1.00  0.00     0.029 A 
ATOM     57  N   UNL A   1      44.914  28.964  31.943  1.00  0.00    -0.354 N 
ATOM     58  N   UNL A   1      44.735  27.480  27.873  1.00  0.00    -0.248 NA
ATOM     59  C   UNL A   1      44.273  25.682  29.289  1.00  0.00     0.031 C 
ATOM     60  C   UNL A   1      44.841  31.038  31.276  1.00  0.00     0.029 A 
ATOM     61  C   UNL A   1      45.036  29.734  30.817  1.00  0.00     0.049 A 
ATOM     62  H   UNL A   1      45.313  28.073  32.071  1.00  0.00     0.167 HD
ATOM     63  C   UNL A   1      45.070  27.860  29.163  1.00  0.00     0.074 A 
ATOM     64  C   UNL A   1      44.875  26.659  29.971  1.00  0.00     0.031 C 
ATOM     65  C   UNL A   1      45.190  29.181  29.487  1.00  0.00     0.037 A 
BRANCH  52  66
ATOM     66  C   UNL A   1      43.619  27.725  34.520  1.00  0.00     0.064 A 
ATOM     67  C   UNL A   1      43.628  26.397  34.045  1.00  0.00     0.173 A 
ATOM     68  C   UNL A   1      43.730  27.865  35.921  1.00  0.00     0.173 A 
ATOM     69  F   UNL A   1      43.497  26.140  32.735  1.00  0.00    -0.203 F 
ATOM     70  C   UNL A   1      43.674  25.301  34.911  1.00  0.00     0.198 A 
ATOM     71  C   UNL A   1      43.832  26.769  36.778  1.00  0.00     0.198 A 
ATOM     72  F   UNL A   1      43.626  29.049  36.533  1.00  0.00    -0.203 F 
ATOM     73  F   UNL A   1      43.551  24.060  34.421  1.00  0.00    -0.200 F 
ATOM     74  C   UNL A   1      43.774  25.488  36.277  1.00  0.00     0.200 A 
ATOM     75  F   UNL A   1      43.902  26.974  38.101  1.00  0.00    -0.200 F 
ATOM     76  F   UNL A   1      43.761  24.441  37.113  1.00  0.00    -0.200 F 
ENDBRANCH  52  66
BRANCH  53  77
ATOM     77  C   UNL A   1      42.805  24.649  26.544  1.00  0.00     0.064 A 
ATOM     78  C   UNL A   1      43.491  24.392  25.345  1.00  0.00     0.173 A 
ATOM     79  C   UNL A   1      42.311  23.527  27.237  1.00  0.00     0.173 A 
ATOM     80  F   UNL A   1      44.023  25.403  24.643  1.00  0.00    -0.203 F 
ATOM     81  C   UNL A   1      43.719  23.087  24.894  1.00  0.00     0.198 A 
ATOM     82  C   UNL A   1      42.537  22.226  26.784  1.00  0.00     0.198 A 
ATOM     83  F   UNL A   1      41.697  23.666  28.421  1.00  0.00    -0.203 F 
ATOM     84  F   UNL A   1      44.449  22.881  23.790  1.00  0.00    -0.200 F 
ATOM     85  C   UNL A   1      43.256  22.005  25.623  1.00  0.00     0.200 A 
ATOM     86  F   UNL A   1      42.117  21.185  27.517  1.00  0.00    -0.200 F 
ATOM     87  F   UNL A   1      43.542  20.755  25.235  1.00  0.00    -0.200 F 
ENDBRANCH  53  77
BRANCH  65  88
ATOM     88  C   UNL A   1      45.292  30.168  28.353  1.00  0.00     0.064 A 
ATOM     89  C   UNL A   1      44.198  30.826  27.764  1.00  0.00     0.173 A 
ATOM     90  C   UNL A   1      46.573  30.562  27.943  1.00  0.00     0.173 A 
ATOM     91  F   UNL A   1      42.945  30.568  28.157  1.00  0.00    -0.203 F 
ATOM     92  C   UNL A   1      44.381  31.808  26.792  1.00  0.00     0.198 A 
ATOM     93  C   UNL A   1      46.755  31.568  26.999  1.00  0.00     0.198 A 
ATOM     94  F   UNL A   1      47.657  30.000  28.501  1.00  0.00    -0.203 F 
ATOM     95  F   UNL A   1      43.320  32.416  26.240  1.00  0.00    -0.200 F 
ATOM     96  C   UNL A   1      45.659  32.186  26.418  1.00  0.00     0.200 A 
ATOM     97  F   UNL A   1      47.995  31.960  26.675  1.00  0.00    -0.200 F 
ATOM     98  F   UNL A   1      45.838  33.164  25.518  1.00  0.00    -0.200 F 
ENDBRANCH  65  88
ENDBRANCH  39  40
ENDBRANCH  31  34
ENDBRANCH  29  30
ENDBRANCH  28  29
ENDBRANCH   1  28
TORSDOF 15
ENDMDL
MODEL 3
REMARK VINA RESULT:     -13.1      3.650      8.792
REMARK SMILES Cc1cccc2[nH]cc(C[C@H](NC(=O)OC(C)(C)C)C(=O)NCCCNC(=O)c3ccc(-c4c5nc(c(-c6c(F)c(F)c(F)c(F)c6F)c6ccc([nH]6)c(-c6c(F)c(F)c(F)c(F)c6F)c6nc(c(-c7c(F)c(F)c(F)c(F)c7F)c7ccc4[nH]7)C=C6)C=C5)cc3)c12
REMARK SMILES IDX 23 1 22 2 20 3 21 4 11 6 10 7 9 8 1 9 2 10 3 11 92 12 4 13
REMARK SMILES IDX 6 14 5 15 7 16 8 17 12 19 13 20 14 22 15 23 16 24 17 25
REMARK SMILES IDX 18 26 19 27 24 28 25 29 26 30 27 31 28 33 29 34 30 35 91 36
REMARK SMILES IDX 31 37 90 38 32 39 33 40 34 41 84 42 35 43 89 44 83 45 85 46
REMARK SMILES IDX 36 47 88 48 82 49 81 50 37 52 69 53 49 54 68 55 50 56 53 57
REMARK SMILES IDX 67 58 86 59 51 60 52 61 66 63 87 64 54 65 38 66 39 67 47 68
REMARK SMILES IDX 40 69 41 70 45 71 48 72 42 73 43 74 46 75 44 76 70 77 71 78
REMARK SMILES IDX 79 79 72 80 73 81 77 82 80 83 74 84 75 85 78 86 76 87 55 88
REMARK SMILES IDX 56 89 64 90 57 91 58 92 62 93 65 94 59 95 60 96 63 97 61 98
REMARK H PARENT 22 5 7 18 12 21 26 32 85 51 53 62
REMARK Flexibility Score: inf
ROOT
ATOM      1  C   UNL A   1      33.675  28.793  26.351  1.00  0.00     0.117 C 
ENDROOT
BRANCH   1   2
ATOM      2  N   UNL A   1      32.304  28.353  26.622  1.00  0.00    -0.354 N 
ATOM      3  C   UNL A   1      31.737  27.116  26.372  1.00  0.00     0.243 C 
ATOM      4  O   UNL A   1      30.623  26.871  26.833  1.00  0.00    -0.273 OA
ATOM      5  H   UNL A   1      31.711  29.022  27.033  1.00  0.00     0.163 HD
BRANCH   3   6
ATOM      6  C   UNL A   1      32.506  26.103  25.497  1.00  0.00     0.179 C 
BRANCH   6   7
ATOM      7  C   UNL A   1      31.837  26.081  24.117  1.00  0.00     0.073 C 
BRANCH   7   8
ATOM      8  C   UNL A   1      31.667  27.331  23.330  1.00  0.00    -0.020 A 
ATOM      9  C   UNL A   1      28.603  26.392  24.122  1.00  0.00     0.045 C 
ATOM     10  C   UNL A   1      29.034  27.614  23.352  1.00  0.00    -0.041 A 
ATOM     11  C   UNL A   1      28.025  28.475  22.879  1.00  0.00     0.004 A 
ATOM     12  C   UNL A   1      30.390  27.950  23.063  1.00  0.00     0.006 A 
ATOM     13  C   UNL A   1      28.331  29.653  22.207  1.00  0.00     0.002 A 
ATOM     14  C   UNL A   1      30.659  29.151  22.407  1.00  0.00     0.046 A 
ATOM     15  C   UNL A   1      29.655  30.025  21.978  1.00  0.00     0.027 A 
ATOM     16  N   UNL A   1      32.028  29.277  22.319  1.00  0.00    -0.361 N 
ATOM     17  C   UNL A   1      32.646  28.190  22.875  1.00  0.00     0.087 A 
ATOM     18  H   UNL A   1      32.496  30.041  21.913  1.00  0.00     0.166 HD
ENDBRANCH   7   8
ENDBRANCH   6   7
BRANCH   6  19
ATOM     19  N   UNL A   1      32.381  24.862  26.289  1.00  0.00    -0.309 N 
ATOM     20  C   UNL A   1      33.107  23.713  26.258  1.00  0.00     0.408 C 
ATOM     21  H   UNL A   1      31.653  24.868  26.950  1.00  0.00     0.167 HD
ATOM     22  O   UNL A   1      32.802  22.779  26.969  1.00  0.00    -0.225 OA
BRANCH  20  23
ATOM     23  O   UNL A   1      34.121  23.749  25.366  1.00  0.00    -0.444 OA
BRANCH  23  24
ATOM     24  C   UNL A   1      34.169  22.787  24.281  1.00  0.00     0.106 C 
ATOM     25  C   UNL A   1      34.881  21.498  24.708  1.00  0.00     0.056 C 
ATOM     26  C   UNL A   1      32.775  22.481  23.715  1.00  0.00     0.056 C 
ATOM     27  C   UNL A   1      35.009  23.473  23.195  1.00  0.00     0.056 C 
ENDBRANCH  23  24
ENDBRANCH  20  23
ENDBRANCH   6  19
ENDBRANCH   3   6
ENDBRANCH   1   2
BRANCH   1  28
ATOM     28  C   UNL A   1      34.445  29.288  27.565  1.00  0.00     0.042 C 
BRANCH  28  29
ATOM     29  C   UNL A   1      35.118  30.608  27.286  1.00  0.00     0.118 C 
BRANCH  29  30
ATOM     30  N   UNL A   1      34.865  31.608  28.328  1.00  0.00    -0.352 N 
ATOM     31  C   UNL A   1      35.427  31.666  29.586  1.00  0.00     0.251 C 
ATOM     32  H   UNL A   1      34.222  32.318  28.103  1.00  0.00     0.163 HD
ATOM     33  O   UNL A   1      34.933  32.345  30.477  1.00  0.00    -0.269 OA
BRANCH  31  34
ATOM     34  C   UNL A   1      36.650  30.888  29.827  1.00  0.00     0.039 A 
ATOM     35  C   UNL A   1      36.601  29.578  30.305  1.00  0.00     0.014 A 
ATOM     36  C   UNL A   1      37.865  31.499  29.516  1.00  0.00     0.014 A 
ATOM     37  C   UNL A   1      37.793  28.872  30.417  1.00  0.00     0.010 A 
ATOM     38  C   UNL A   1      39.002  30.748  29.440  1.00  0.00     0.010 A 
ATOM     39  C   UNL A   1      38.984  29.470  29.973  1.00  0.00    -0.014 A 
BRANCH  39  40
ATOM     40  C   UNL A   1      40.244  28.753  29.998  1.00  0.00     0.031 A 
ATOM     41  C   UNL A   1      40.835  28.618  31.351  1.00  0.00     0.074 A 
ATOM     42  C   UNL A   1      40.709  28.093  28.918  1.00  0.00     0.049 A 
ATOM     43  N   UNL A   1      41.884  29.210  31.810  1.00  0.00    -0.248 NA
ATOM     44  C   UNL A   1      40.087  27.855  32.364  1.00  0.00     0.031 C 
ATOM     45  C   UNL A   1      40.045  27.869  27.626  1.00  0.00     0.029 A 
ATOM     46  N   UNL A   1      41.868  27.397  28.780  1.00  0.00    -0.354 N 
ATOM     47  C   UNL A   1      42.055  28.730  33.104  1.00  0.00     0.074 A 
ATOM     48  C   UNL A   1      40.826  28.070  33.455  1.00  0.00     0.031 C 
ATOM     49  C   UNL A   1      40.713  26.925  26.926  1.00  0.00     0.029 A 
ATOM     50  C   UNL A   1      41.938  26.612  27.634  1.00  0.00     0.049 A 
ATOM     51  H   UNL A   1      42.599  27.445  29.438  1.00  0.00     0.167 HD
ATOM     52  C   UNL A   1      43.294  28.684  33.665  1.00  0.00     0.037 A 
ATOM     53  C   UNL A   1      42.939  25.755  27.314  1.00  0.00     0.037 A 
ATOM     54  C   UNL A   1      44.222  29.495  32.914  1.00  0.00     0.049 A 
ATOM     55  C   UNL A   1      44.121  26.174  28.103  1.00  0.00     0.074 A 
ATOM     56  C   UNL A   1      44.350  30.839  32.635  1.00  0.00     0.029 A 
ATOM     57  N   UNL A   1      44.983  28.834  31.984  1.00  0.00    -0.354 N 
ATOM     58  N   UNL A   1      44.749  27.305  27.934  1.00  0.00    -0.248 NA
ATOM     59  C   UNL A   1      44.357  25.513  29.377  1.00  0.00     0.031 C 
ATOM     60  C   UNL A   1      44.850  30.899  31.299  1.00  0.00     0.029 A 
ATOM     61  C   UNL A   1      45.064  29.595  30.849  1.00  0.00     0.049 A 
ATOM     62  H   UNL A   1      45.404  27.953  32.112  1.00  0.00     0.167 HD
ATOM     63  C   UNL A   1      45.102  27.706  29.213  1.00  0.00     0.074 A 
ATOM     64  C   UNL A   1      44.952  26.509  30.036  1.00  0.00     0.031 C 
ATOM     65  C   UNL A   1      45.201  29.032  29.521  1.00  0.00     0.037 A 
BRANCH  52  66
ATOM     66  C   UNL A   1      43.770  27.595  34.600  1.00  0.00     0.064 A 
ATOM     67  C   UNL A   1      43.786  26.261  34.142  1.00  0.00     0.173 A 
ATOM     68  C   UNL A   1      43.919  27.754  35.996  1.00  0.00     0.173 A 
ATOM     69  F   UNL A   1      43.623  25.984  32.840  1.00  0.00    -0.203 F 
ATOM     70  C   UNL A   1      43.875  25.176  35.020  1.00  0.00     0.198 A 
ATOM     71  C   UNL A   1      44.062  26.671  36.863  1.00  0.00     0.198 A 
ATOM     72  F   UNL A   1      43.813  28.944  36.596  1.00  0.00    -0.203 F 
ATOM     73  F   UNL A   1      43.758  23.927  34.549  1.00  0.00    -0.200 F 
ATOM     74  C   UNL A   1      44.010  25.383  36.380  1.00  0.00     0.200 A 
ATOM     75  F   UNL A   1      44.165  26.895  38.181  1.00  0.00    -0.200 F 
ATOM     76  F   UNL A   1      44.038  24.347  37.229  1.00  0.00    -0.200 F 
ENDBRANCH  52  66
BRANCH  53  77
ATOM     77  C   UNL A   1      42.852  24.420  26.674  1.00  0.00     0.064 A 
ATOM     78  C   UNL A   1      43.469  24.183  25.434  1.00  0.00     0.173 A 
ATOM     79  C   UNL A   1      42.455  23.283  27.404  1.00  0.00     0.173 A 
ATOM     80  F   UNL A   1      43.909  25.210  24.693  1.00  0.00    -0.203 F 
ATOM     81  C   UNL A   1      43.724  22.885  24.976  1.00  0.00     0.198 A 
ATOM     82  C   UNL A   1      42.707  21.990  26.944  1.00  0.00     0.198 A 
ATOM     83  F   UNL A   1      41.914  23.405  28.626  1.00  0.00    -0.203 F 
ATOM     84  F   UNL A   1      44.387  22.701  23.827  1.00  0.00    -0.200 F 
ATOM     85  C   UNL A   1      43.357  21.791  25.740  1.00  0.00     0.200 A 
ATOM     86  F   UNL A   1      42.381  20.937  27.710  1.00  0.00    -0.200 F 
ATOM     87  F   UNL A   1      43.671  20.550  25.340  1.00  0.00    -0.200 F 
ENDBRANCH  53  77
BRANCH  65  88
ATOM     88  C   UNL A   1      45.258  30.009  28.376  1.00  0.00     0.064 A 
ATOM     89  C   UNL A   1      44.137  30.640  27.807  1.00  0.00     0.173 A 
ATOM     90  C   UNL A   1      46.521  30.423  27.931  1.00  0.00     0.173 A 
ATOM     91  F   UNL A   1      42.899  30.363  28.232  1.00  0.00    -0.203 F 
ATOM     92  C   UNL A   1      44.279  31.616  26.821  1.00  0.00     0.198 A 
ATOM     93  C   UNL A   1      46.660  31.424  26.974  1.00  0.00     0.198 A 
ATOM     94  F   UNL A   1      47.628  29.887  28.468  1.00  0.00    -0.203 F 
ATOM     95  F   UNL A   1      43.193  32.198  26.288  1.00  0.00    -0.200 F 
ATOM     96  C   UNL A   1      45.540  32.014  26.413  1.00  0.00     0.200 A 
ATOM     97  F   UNL A   1      47.885  31.835  26.616  1.00  0.00    -0.200 F 
ATOM     98  F   UNL A   1      45.678  32.986  25.500  1.00  0.00    -0.200 F 
ENDBRANCH  65  88
ENDBRANCH  39  40
ENDBRANCH  31  34
ENDBRANCH  29  30
ENDBRANCH  28  29
ENDBRANCH   1  28
TORSDOF 15
ENDMDL
