MODEL 1
REMARK VINA RESULT:     -13.9      0.000      0.000
REMARK SMILES CC(C)(C)c1cc(Nc2ccccc2C(=O)NCCCNC(=O)c2ccc(-c3c4nc(c(-c5c(F)c(F)c(F)c(F)c5F)c5ccc([nH]5)c(-c5c(F)c(F)c(F)c(F)c5F)c5nc(c(-c6c(F)c(F)c(F)c(F)c6F)c6ccc3[nH]6)C=C5)C=C4)cc2)cc2c1OCC2(C)C
REMARK SMILES IDX 18 1 17 2 15 3 16 4 14 6 9 7 10 8 11 9 13 10 12 11 8 12 7 14
REMARK SMILES IDX 5 15 6 16 89 17 88 18 90 19 87 20 92 21 91 22 93 23 94 24
REMARK SMILES IDX 2 25 1 26 3 27 4 28 19 29 20 30 21 31 22 32 23 34 24 35
REMARK SMILES IDX 25 36 86 37 26 38 85 39 27 40 28 41 29 42 79 43 30 44 84 45
REMARK SMILES IDX 78 46 80 47 31 48 83 49 77 50 76 51 32 53 64 54 44 55 63 56
REMARK SMILES IDX 45 57 48 58 62 59 81 60 46 61 47 62 61 64 82 65 49 66 33 67
REMARK SMILES IDX 34 68 42 69 35 70 36 71 40 72 43 73 37 74 38 75 41 76 39 77
REMARK SMILES IDX 65 78 66 79 74 80 67 81 68 82 72 83 75 84 69 85 70 86 73 87
REMARK SMILES IDX 71 88 50 89 51 90 59 91 52 92 53 93 57 94 60 95 54 96 55 97
REMARK SMILES IDX 58 98 56 99
REMARK H PARENT 17 5 8 13 21 33 80 52 48 63
REMARK Flexibility Score: inf
ROOT
ATOM      1  C   UNL A   1      32.293  27.725  27.089  1.00  0.00     0.118 C 
ENDROOT
BRANCH   1   2
ATOM      2  N   UNL A   1      31.196  26.784  27.037  1.00  0.00    -0.352 N 
ATOM      3  C   UNL A   1      30.608  25.994  26.088  1.00  0.00     0.253 C 
ATOM      4  O   UNL A   1      29.604  25.406  26.517  1.00  0.00    -0.269 OA
ATOM      5  H   UNL A   1      30.759  26.687  27.912  1.00  0.00     0.163 HD
BRANCH   3   6
ATOM      6  C   UNL A   1      31.038  25.704  24.672  1.00  0.00     0.063 A 
ATOM      7  C   UNL A   1      31.237  24.487  23.994  1.00  0.00     0.051 A 
ATOM      8  C   UNL A   1      31.586  24.502  22.616  1.00  0.00     0.027 A 
ATOM      9  C   UNL A   1      31.871  25.681  21.937  1.00  0.00     0.002 A 
ATOM     10  C   UNL A   1      31.340  26.887  23.943  1.00  0.00     0.016 A 
ATOM     11  C   UNL A   1      31.770  26.881  22.612  1.00  0.00     0.001 A 
BRANCH   7  12
ATOM     12  N   UNL A   1      31.173  23.209  24.584  1.00  0.00    -0.355 N 
ATOM     13  H   UNL A   1      30.306  22.919  24.948  1.00  0.00     0.167 HD
BRANCH  12  14
ATOM     14  C   UNL A   1      32.259  22.308  24.695  1.00  0.00     0.039 A 
ATOM     15  C   UNL A   1      34.714  21.986  24.875  1.00  0.00     0.002 A 
ATOM     16  C   UNL A   1      33.561  22.808  24.893  1.00  0.00     0.034 A 
ATOM     17  C   UNL A   1      34.476  20.622  24.723  1.00  0.00     0.127 A 
ATOM     18  C   UNL A   1      33.197  20.111  24.539  1.00  0.00     0.006 A 
ATOM     19  O   UNL A   1      35.425  19.635  24.756  1.00  0.00    -0.492 OA
ATOM     20  C   UNL A   1      32.094  20.940  24.479  1.00  0.00     0.034 A 
ATOM     21  C   UNL A   1      33.223  18.622  24.490  1.00  0.00     0.028 C 
ATOM     22  C   UNL A   1      34.743  18.415  24.382  1.00  0.00     0.240 C 
ATOM     23  C   UNL A   1      32.659  18.053  25.799  1.00  0.00     0.020 C 
ATOM     24  C   UNL A   1      32.481  18.037  23.287  1.00  0.00     0.020 C 
BRANCH  15  25
ATOM     25  C   UNL A   1      36.106  22.630  24.910  1.00  0.00    -0.009 C 
ATOM     26  C   UNL A   1      36.627  22.698  23.461  1.00  0.00     0.016 C 
ATOM     27  C   UNL A   1      37.156  21.868  25.742  1.00  0.00     0.016 C 
ATOM     28  C   UNL A   1      36.065  24.069  25.473  1.00  0.00     0.016 C 
ENDBRANCH  15  25
ENDBRANCH  12  14
ENDBRANCH   7  12
ENDBRANCH   3   6
ENDBRANCH   1   2
BRANCH   1  29
ATOM     29  C   UNL A   1      31.779  29.161  27.050  1.00  0.00     0.042 C 
BRANCH  29  30
ATOM     30  C   UNL A   1      32.549  30.079  26.104  1.00  0.00     0.118 C 
BRANCH  30  31
ATOM     31  N   UNL A   1      32.461  31.486  26.496  1.00  0.00    -0.352 N 
ATOM     32  C   UNL A   1      33.215  32.278  27.329  1.00  0.00     0.251 C 
ATOM     33  H   UNL A   1      31.708  31.962  26.078  1.00  0.00     0.163 HD
ATOM     34  O   UNL A   1      32.781  33.394  27.620  1.00  0.00    -0.269 OA
BRANCH  32  35
ATOM     35  C   UNL A   1      34.507  31.838  27.916  1.00  0.00     0.039 A 
ATOM     36  C   UNL A   1      34.715  30.539  28.370  1.00  0.00     0.014 A 
ATOM     37  C   UNL A   1      35.572  32.752  27.980  1.00  0.00     0.014 A 
ATOM     38  C   UNL A   1      35.881  30.217  29.061  1.00  0.00     0.010 A 
ATOM     39  C   UNL A   1      36.789  32.395  28.579  1.00  0.00     0.010 A 
ATOM     40  C   UNL A   1      36.937  31.139  29.178  1.00  0.00    -0.014 A 
BRANCH  40  41
ATOM     41  C   UNL A   1      38.183  30.717  29.874  1.00  0.00     0.031 A 
ATOM     42  C   UNL A   1      38.506  31.167  31.273  1.00  0.00     0.074 A 
ATOM     43  C   UNL A   1      38.989  29.826  29.267  1.00  0.00     0.049 A 
ATOM     44  N   UNL A   1      39.417  30.713  32.100  1.00  0.00    -0.248 NA
ATOM     45  C   UNL A   1      37.700  32.260  31.826  1.00  0.00     0.031 C 
ATOM     46  C   UNL A   1      38.797  29.310  27.911  1.00  0.00     0.029 A 
ATOM     47  N   UNL A   1      40.105  29.170  29.720  1.00  0.00    -0.354 N 
ATOM     48  C   UNL A   1      39.241  31.418  33.284  1.00  0.00     0.074 A 
ATOM     49  C   UNL A   1      38.188  32.376  33.052  1.00  0.00     0.031 C 
ATOM     50  C   UNL A   1      39.725  28.376  27.663  1.00  0.00     0.029 A 
ATOM     51  C   UNL A   1      40.613  28.270  28.818  1.00  0.00     0.049 A 
ATOM     52  H   UNL A   1      40.504  29.330  30.606  1.00  0.00     0.167 HD
ATOM     53  C   UNL A   1      39.891  31.276  34.463  1.00  0.00     0.037 A 
ATOM     54  C   UNL A   1      41.680  27.455  28.901  1.00  0.00     0.037 A 
ATOM     55  C   UNL A   1      41.013  30.401  34.668  1.00  0.00     0.049 A 
ATOM     56  C   UNL A   1      42.491  27.434  30.163  1.00  0.00     0.074 A 
ATOM     57  C   UNL A   1      41.764  30.212  35.815  1.00  0.00     0.029 A 
ATOM     58  N   UNL A   1      41.572  29.600  33.685  1.00  0.00    -0.354 N 
ATOM     59  N   UNL A   1      42.267  28.050  31.297  1.00  0.00    -0.248 NA
ATOM     60  C   UNL A   1      43.709  26.614  30.153  1.00  0.00     0.031 C 
ATOM     61  C   UNL A   1      42.822  29.351  35.504  1.00  0.00     0.029 A 
ATOM     62  C   UNL A   1      42.694  28.958  34.181  1.00  0.00     0.049 A 
ATOM     63  H   UNL A   1      41.223  29.503  32.769  1.00  0.00     0.167 HD
ATOM     64  C   UNL A   1      43.308  27.688  32.140  1.00  0.00     0.074 A 
ATOM     65  C   UNL A   1      44.155  26.783  31.391  1.00  0.00     0.031 C 
ATOM     66  C   UNL A   1      43.538  28.073  33.419  1.00  0.00     0.037 A 
BRANCH  53  67
ATOM     67  C   UNL A   1      39.417  32.100  35.625  1.00  0.00     0.064 A 
ATOM     68  C   UNL A   1      38.462  31.603  36.525  1.00  0.00     0.173 A 
ATOM     69  C   UNL A   1      39.971  33.362  35.884  1.00  0.00     0.173 A 
ATOM     70  F   UNL A   1      37.901  30.402  36.319  1.00  0.00    -0.203 F 
ATOM     71  C   UNL A   1      38.075  32.342  37.641  1.00  0.00     0.198 A 
ATOM     72  C   UNL A   1      39.594  34.091  37.009  1.00  0.00     0.198 A 
ATOM     73  F   UNL A   1      40.889  33.881  35.056  1.00  0.00    -0.203 F 
ATOM     74  F   UNL A   1      37.154  31.853  38.482  1.00  0.00    -0.200 F 
ATOM     75  C   UNL A   1      38.647  33.582  37.886  1.00  0.00     0.200 A 
ATOM     76  F   UNL A   1      40.156  35.284  37.251  1.00  0.00    -0.200 F 
ATOM     77  F   UNL A   1      38.288  34.285  38.969  1.00  0.00    -0.200 F 
ENDBRANCH  53  67
BRANCH  54  78
ATOM     78  C   UNL A   1      42.027  26.603  27.736  1.00  0.00     0.064 A 
ATOM     79  C   UNL A   1      43.011  26.993  26.820  1.00  0.00     0.173 A 
ATOM     80  C   UNL A   1      41.426  25.346  27.557  1.00  0.00     0.173 A 
ATOM     81  F   UNL A   1      43.599  28.193  26.940  1.00  0.00    -0.203 F 
ATOM     82  C   UNL A   1      43.389  26.154  25.774  1.00  0.00     0.198 A 
ATOM     83  C   UNL A   1      41.824  24.498  26.529  1.00  0.00     0.198 A 
ATOM     84  F   UNL A   1      40.479  24.928  28.411  1.00  0.00    -0.203 F 
ATOM     85  F   UNL A   1      44.323  26.555  24.901  1.00  0.00    -0.200 F 
ATOM     86  C   UNL A   1      42.805  24.903  25.638  1.00  0.00     0.200 A 
ATOM     87  F   UNL A   1      41.271  23.282  26.414  1.00  0.00    -0.200 F 
ATOM     88  F   UNL A   1      43.190  24.086  24.648  1.00  0.00    -0.200 F 
ENDBRANCH  54  78
BRANCH  66  89
ATOM     89  C   UNL A   1      44.759  27.528  34.095  1.00  0.00     0.064 A 
ATOM     90  C   UNL A   1      44.734  26.296  34.765  1.00  0.00     0.173 A 
ATOM     91  C   UNL A   1      45.983  28.210  34.017  1.00  0.00     0.173 A 
ATOM     92  F   UNL A   1      43.585  25.613  34.877  1.00  0.00    -0.203 F 
ATOM     93  C   UNL A   1      45.887  25.774  35.344  1.00  0.00     0.198 A 
ATOM     94  C   UNL A   1      47.139  27.673  34.573  1.00  0.00     0.198 A 
ATOM     95  F   UNL A   1      46.060  29.389  33.380  1.00  0.00    -0.203 F 
ATOM     96  F   UNL A   1      45.833  24.612  36.009  1.00  0.00    -0.200 F 
ATOM     97  C   UNL A   1      47.089  26.457  35.240  1.00  0.00     0.200 A 
ATOM     98  F   UNL A   1      48.303  28.327  34.459  1.00  0.00    -0.200 F 
ATOM     99  F   UNL A   1      48.201  25.947  35.786  1.00  0.00    -0.200 F 
ENDBRANCH  66  89
ENDBRANCH  40  41
ENDBRANCH  32  35
ENDBRANCH  30  31
ENDBRANCH  29  30
ENDBRANCH   1  29
TORSDOF 13
ENDMDL
MODEL 2
REMARK VINA RESULT:     -13.8      0.301      2.129
REMARK SMILES CC(C)(C)c1cc(Nc2ccccc2C(=O)NCCCNC(=O)c2ccc(-c3c4nc(c(-c5c(F)c(F)c(F)c(F)c5F)c5ccc([nH]5)c(-c5c(F)c(F)c(F)c(F)c5F)c5nc(c(-c6c(F)c(F)c(F)c(F)c6F)c6ccc3[nH]6)C=C5)C=C4)cc2)cc2c1OCC2(C)C
REMARK SMILES IDX 18 1 17 2 15 3 16 4 14 6 9 7 10 8 11 9 13 10 12 11 8 12 7 14
REMARK SMILES IDX 5 15 6 16 89 17 88 18 90 19 87 20 92 21 91 22 93 23 94 24
REMARK SMILES IDX 2 25 1 26 3 27 4 28 19 29 20 30 21 31 22 32 23 34 24 35
REMARK SMILES IDX 25 36 86 37 26 38 85 39 27 40 28 41 29 42 79 43 30 44 84 45
REMARK SMILES IDX 78 46 80 47 31 48 83 49 77 50 76 51 32 53 64 54 44 55 63 56
REMARK SMILES IDX 45 57 48 58 62 59 81 60 46 61 47 62 61 64 82 65 49 66 33 67
REMARK SMILES IDX 34 68 42 69 35 70 36 71 40 72 43 73 37 74 38 75 41 76 39 77
REMARK SMILES IDX 65 78 66 79 74 80 67 81 68 82 72 83 75 84 69 85 70 86 73 87
REMARK SMILES IDX 71 88 50 89 51 90 59 91 52 92 53 93 57 94 60 95 54 96 55 97
REMARK SMILES IDX 58 98 56 99
REMARK H PARENT 17 5 8 13 21 33 80 52 48 63
REMARK Flexibility Score: inf
ROOT
ATOM      1  C   UNL A   1      32.372  27.702  27.131  1.00  0.00     0.118 C 
ENDROOT
BRANCH   1   2
ATOM      2  N   UNL A   1      31.333  26.700  27.046  1.00  0.00    -0.352 N 
ATOM      3  C   UNL A   1      30.745  25.959  26.058  1.00  0.00     0.253 C 
ATOM      4  O   UNL A   1      29.803  25.271  26.479  1.00  0.00    -0.269 OA
ATOM      5  H   UNL A   1      30.950  26.498  27.929  1.00  0.00     0.163 HD
BRANCH   3   6
ATOM      6  C   UNL A   1      31.116  25.822  24.603  1.00  0.00     0.063 A 
ATOM      7  C   UNL A   1      31.353  24.685  23.808  1.00  0.00     0.051 A 
ATOM      8  C   UNL A   1      31.628  24.843  22.423  1.00  0.00     0.027 A 
ATOM      9  C   UNL A   1      31.803  26.093  21.840  1.00  0.00     0.002 A 
ATOM     10  C   UNL A   1      31.306  27.082  23.970  1.00  0.00     0.016 A 
ATOM     11  C   UNL A   1      31.664  27.220  22.625  1.00  0.00     0.001 A 
BRANCH   7  12
ATOM     12  N   UNL A   1      31.399  23.359  24.283  1.00  0.00    -0.355 N 
ATOM     13  H   UNL A   1      30.555  22.956  24.588  1.00  0.00     0.167 HD
BRANCH  12  14
ATOM     14  C   UNL A   1      32.564  22.559  24.354  1.00  0.00     0.039 A 
ATOM     15  C   UNL A   1      33.550  20.281  24.443  1.00  0.00     0.002 A 
ATOM     16  C   UNL A   1      32.455  21.158  24.246  1.00  0.00     0.034 A 
ATOM     17  C   UNL A   1      34.776  20.898  24.682  1.00  0.00     0.127 A 
ATOM     18  C   UNL A   1      34.903  22.277  24.780  1.00  0.00     0.006 A 
ATOM     19  O   UNL A   1      35.979  20.258  24.823  1.00  0.00    -0.492 OA
ATOM     20  C   UNL A   1      33.807  23.110  24.663  1.00  0.00     0.034 A 
ATOM     21  C   UNL A   1      36.331  22.667  24.952  1.00  0.00     0.028 C 
ATOM     22  C   UNL A   1      36.925  21.276  25.226  1.00  0.00     0.240 C 
ATOM     23  C   UNL A   1      36.862  23.269  23.644  1.00  0.00     0.020 C 
ATOM     24  C   UNL A   1      36.566  23.628  26.119  1.00  0.00     0.020 C 
BRANCH  15  25
ATOM     25  C   UNL A   1      33.309  18.767  24.494  1.00  0.00    -0.009 C 
ATOM     26  C   UNL A   1      32.677  18.439  25.861  1.00  0.00     0.016 C 
ATOM     27  C   UNL A   1      34.576  17.901  24.354  1.00  0.00     0.016 C 
ATOM     28  C   UNL A   1      32.335  18.298  23.390  1.00  0.00     0.016 C 
ENDBRANCH  15  25
ENDBRANCH  12  14
ENDBRANCH   7  12
ENDBRANCH   3   6
ENDBRANCH   1   2
BRANCH   1  29
ATOM     29  C   UNL A   1      31.790  29.103  26.966  1.00  0.00     0.042 C 
BRANCH  29  30
ATOM     30  C   UNL A   1      32.635  30.038  26.105  1.00  0.00     0.118 C 
BRANCH  30  31
ATOM     31  N   UNL A   1      32.541  31.433  26.538  1.00  0.00    -0.352 N 
ATOM     32  C   UNL A   1      33.297  32.205  27.388  1.00  0.00     0.251 C 
ATOM     33  H   UNL A   1      31.783  31.916  26.139  1.00  0.00     0.163 HD
ATOM     34  O   UNL A   1      32.858  33.310  27.714  1.00  0.00    -0.269 OA
BRANCH  32  35
ATOM     35  C   UNL A   1      34.596  31.756  27.953  1.00  0.00     0.039 A 
ATOM     36  C   UNL A   1      34.808  30.451  28.387  1.00  0.00     0.014 A 
ATOM     37  C   UNL A   1      35.662  32.668  28.017  1.00  0.00     0.014 A 
ATOM     38  C   UNL A   1      35.982  30.118  29.060  1.00  0.00     0.010 A 
ATOM     39  C   UNL A   1      36.886  32.302  28.596  1.00  0.00     0.010 A 
ATOM     40  C   UNL A   1      37.040  31.037  29.177  1.00  0.00    -0.014 A 
BRANCH  40  41
ATOM     41  C   UNL A   1      38.294  30.605  29.852  1.00  0.00     0.031 A 
ATOM     42  C   UNL A   1      38.647  31.059  31.242  1.00  0.00     0.074 A 
ATOM     43  C   UNL A   1      39.078  29.702  29.235  1.00  0.00     0.049 A 
ATOM     44  N   UNL A   1      39.569  30.598  32.054  1.00  0.00    -0.248 NA
ATOM     45  C   UNL A   1      37.864  32.163  31.804  1.00  0.00     0.031 C 
ATOM     46  C   UNL A   1      38.855  29.181  27.885  1.00  0.00     0.029 A 
ATOM     47  N   UNL A   1      40.195  29.035  29.671  1.00  0.00    -0.354 N 
ATOM     48  C   UNL A   1      39.423  31.311  33.238  1.00  0.00     0.074 A 
ATOM     49  C   UNL A   1      38.376  32.280  33.020  1.00  0.00     0.031 C 
ATOM     50  C   UNL A   1      39.768  28.236  27.625  1.00  0.00     0.029 A 
ATOM     51  C   UNL A   1      40.676  28.125  28.763  1.00  0.00     0.049 A 
ATOM     52  H   UNL A   1      40.612  29.196  30.548  1.00  0.00     0.167 HD
ATOM     53  C   UNL A   1      40.093  31.168  34.405  1.00  0.00     0.037 A 
ATOM     54  C   UNL A   1      41.735  27.298  28.831  1.00  0.00     0.037 A 
ATOM     55  C   UNL A   1      41.208  30.281  34.594  1.00  0.00     0.049 A 
ATOM     56  C   UNL A   1      42.569  27.275  30.078  1.00  0.00     0.074 A 
ATOM     57  C   UNL A   1      41.979  30.090  35.728  1.00  0.00     0.029 A 
ATOM     58  N   UNL A   1      41.741  29.469  33.605  1.00  0.00    -0.354 N 
ATOM     59  N   UNL A   1      42.373  27.899  31.213  1.00  0.00    -0.248 NA
ATOM     60  C   UNL A   1      43.777  26.441  30.050  1.00  0.00     0.031 C 
ATOM     61  C   UNL A   1      43.020  29.215  35.402  1.00  0.00     0.029 A 
ATOM     62  C   UNL A   1      42.864  28.817  34.083  1.00  0.00     0.049 A 
ATOM     63  H   UNL A   1      41.374  29.371  32.697  1.00  0.00     0.167 HD
ATOM     64  C   UNL A   1      43.425  27.530  32.039  1.00  0.00     0.074 A 
ATOM     65  C   UNL A   1      44.249  26.611  31.278  1.00  0.00     0.031 C 
ATOM     66  C   UNL A   1      43.684  27.918  33.311  1.00  0.00     0.037 A 
BRANCH  53  67
ATOM     67  C   UNL A   1      39.650  32.003  35.572  1.00  0.00     0.064 A 
ATOM     68  C   UNL A   1      40.160  33.295  35.775  1.00  0.00     0.173 A 
ATOM     69  C   UNL A   1      38.660  31.541  36.450  1.00  0.00     0.173 A 
ATOM     70  F   UNL A   1      41.111  33.780  34.963  1.00  0.00    -0.203 F 
ATOM     71  C   UNL A   1      39.696  34.092  36.819  1.00  0.00     0.198 A 
ATOM     72  C   UNL A   1      38.186  32.347  37.482  1.00  0.00     0.198 A 
ATOM     73  F   UNL A   1      38.138  30.315  36.298  1.00  0.00    -0.203 F 
ATOM     74  F   UNL A   1      40.204  35.319  37.000  1.00  0.00    -0.200 F 
ATOM     75  C   UNL A   1      38.705  33.621  37.666  1.00  0.00     0.200 A 
ATOM     76  F   UNL A   1      37.220  31.895  38.294  1.00  0.00    -0.200 F 
ATOM     77  F   UNL A   1      38.245  34.396  38.659  1.00  0.00    -0.200 F 
ENDBRANCH  53  67
BRANCH  54  78
ATOM     78  C   UNL A   1      42.051  26.437  27.664  1.00  0.00     0.064 A 
ATOM     79  C   UNL A   1      43.046  26.795  26.747  1.00  0.00     0.173 A 
ATOM     80  C   UNL A   1      41.407  25.202  27.486  1.00  0.00     0.173 A 
ATOM     81  F   UNL A   1      43.675  27.974  26.867  1.00  0.00    -0.203 F 
ATOM     82  C   UNL A   1      43.394  25.945  25.699  1.00  0.00     0.198 A 
ATOM     83  C   UNL A   1      41.775  24.341  26.456  1.00  0.00     0.198 A 
ATOM     84  F   UNL A   1      40.449  24.815  28.340  1.00  0.00    -0.203 F 
ATOM     85  F   UNL A   1      44.339  26.316  24.825  1.00  0.00    -0.200 F 
ATOM     86  C   UNL A   1      42.768  24.714  25.563  1.00  0.00     0.200 A 
ATOM     87  F   UNL A   1      41.181  23.146  26.340  1.00  0.00    -0.200 F 
ATOM     88  F   UNL A   1      43.122  23.886  24.571  1.00  0.00    -0.200 F 
ENDBRANCH  54  78
BRANCH  66  89
ATOM     89  C   UNL A   1      44.911  27.363  33.967  1.00  0.00     0.064 A 
ATOM     90  C   UNL A   1      44.884  26.135  34.644  1.00  0.00     0.173 A 
ATOM     91  C   UNL A   1      46.140  28.031  33.863  1.00  0.00     0.173 A 
ATOM     92  F   UNL A   1      43.730  25.465  34.780  1.00  0.00    -0.203 F 
ATOM     93  C   UNL A   1      46.042  25.603  35.204  1.00  0.00     0.198 A 
ATOM     94  C   UNL A   1      47.301  27.484  34.401  1.00  0.00     0.198 A 
ATOM     95  F   UNL A   1      46.219  29.206  33.218  1.00  0.00    -0.203 F 
ATOM     96  F   UNL A   1      45.987  24.445  35.876  1.00  0.00    -0.200 F 
ATOM     97  C   UNL A   1      47.250  26.272  35.074  1.00  0.00     0.200 A 
ATOM     98  F   UNL A   1      48.470  28.124  34.261  1.00  0.00    -0.200 F 
ATOM     99  F   UNL A   1      48.365  25.752  35.603  1.00  0.00    -0.200 F 
ENDBRANCH  66  89
ENDBRANCH  40  41
ENDBRANCH  32  35
ENDBRANCH  30  31
ENDBRANCH  29  30
ENDBRANCH   1  29
TORSDOF 13
ENDMDL
MODEL 3
REMARK VINA RESULT:     -13.8      5.413     10.869
REMARK SMILES CC(C)(C)c1cc(Nc2ccccc2C(=O)NCCCNC(=O)c2ccc(-c3c4nc(c(-c5c(F)c(F)c(F)c(F)c5F)c5ccc([nH]5)c(-c5c(F)c(F)c(F)c(F)c5F)c5nc(c(-c6c(F)c(F)c(F)c(F)c6F)c6ccc3[nH]6)C=C5)C=C4)cc2)cc2c1OCC2(C)C
REMARK SMILES IDX 18 1 17 2 15 3 16 4 14 6 9 7 10 8 11 9 13 10 12 11 8 12 7 14
REMARK SMILES IDX 5 15 6 16 89 17 88 18 90 19 87 20 92 21 91 22 93 23 94 24
REMARK SMILES IDX 2 25 1 26 3 27 4 28 19 29 20 30 21 31 22 32 23 34 24 35
REMARK SMILES IDX 25 36 86 37 26 38 85 39 27 40 28 41 29 42 79 43 30 44 84 45
REMARK SMILES IDX 78 46 80 47 31 48 83 49 77 50 76 51 32 53 64 54 44 55 63 56
REMARK SMILES IDX 45 57 48 58 62 59 81 60 46 61 47 62 61 64 82 65 49 66 33 67
REMARK SMILES IDX 34 68 42 69 35 70 36 71 40 72 43 73 37 74 38 75 41 76 39 77
REMARK SMILES IDX 65 78 66 79 74 80 67 81 68 82 72 83 75 84 69 85 70 86 73 87
REMARK SMILES IDX 71 88 50 89 51 90 59 91 52 92 53 93 57 94 60 95 54 96 55 97
REMARK SMILES IDX 58 98 56 99
REMARK H PARENT 17 5 8 13 21 33 80 52 48 63
REMARK Flexibility Score: inf
ROOT
ATOM      1  C   UNL A   1      41.910  19.492  26.468  1.00  0.00     0.118 C 
ENDROOT
BRANCH   1   2
ATOM      2  N   UNL A   1      40.616  19.239  25.877  1.00  0.00    -0.352 N 
ATOM      3  C   UNL A   1      39.442  19.923  25.723  1.00  0.00     0.253 C 
ATOM      4  O   UNL A   1      38.553  19.229  25.207  1.00  0.00    -0.269 OA
ATOM      5  H   UNL A   1      40.566  18.339  25.482  1.00  0.00     0.163 HD
BRANCH   3   6
ATOM      6  C   UNL A   1      39.119  21.365  26.023  1.00  0.00     0.063 A 
ATOM      7  C   UNL A   1      38.085  22.200  25.560  1.00  0.00     0.051 A 
ATOM      8  C   UNL A   1      37.975  23.524  26.063  1.00  0.00     0.027 A 
ATOM      9  C   UNL A   1      38.933  24.079  26.904  1.00  0.00     0.002 A 
ATOM     10  C   UNL A   1      40.079  21.970  26.880  1.00  0.00     0.016 A 
ATOM     11  C   UNL A   1      40.006  23.303  27.296  1.00  0.00     0.001 A 
BRANCH   7  12
ATOM     12  N   UNL A   1      37.145  21.854  24.568  1.00  0.00    -0.355 N 
ATOM     13  H   UNL A   1      37.464  21.802  23.638  1.00  0.00     0.167 HD
BRANCH  12  14
ATOM     14  C   UNL A   1      35.778  21.574  24.803  1.00  0.00     0.039 A 
ATOM     15  C   UNL A   1      33.946  19.897  24.810  1.00  0.00     0.002 A 
ATOM     16  C   UNL A   1      35.316  20.245  24.725  1.00  0.00     0.034 A 
ATOM     17  C   UNL A   1      33.074  20.956  25.053  1.00  0.00     0.127 A 
ATOM     18  C   UNL A   1      33.514  22.270  25.145  1.00  0.00     0.006 A 
ATOM     19  O   UNL A   1      31.722  20.850  25.252  1.00  0.00    -0.492 OA
ATOM     20  C   UNL A   1      34.846  22.595  24.979  1.00  0.00     0.034 A 
ATOM     21  C   UNL A   1      32.389  23.183  25.495  1.00  0.00     0.028 C 
ATOM     22  C   UNL A   1      31.219  22.205  25.290  1.00  0.00     0.240 C 
ATOM     23  C   UNL A   1      32.517  23.623  26.959  1.00  0.00     0.020 C 
ATOM     24  C   UNL A   1      32.282  24.401  24.576  1.00  0.00     0.020 C 
BRANCH  15  25
ATOM     25  C   UNL A   1      33.510  18.454  24.527  1.00  0.00    -0.009 C 
ATOM     26  C   UNL A   1      34.781  17.626  24.253  1.00  0.00     0.016 C 
ATOM     27  C   UNL A   1      32.578  18.281  23.312  1.00  0.00     0.016 C 
ATOM     28  C   UNL A   1      32.777  17.823  25.732  1.00  0.00     0.016 C 
ENDBRANCH  15  25
ENDBRANCH  12  14
ENDBRANCH   7  12
ENDBRANCH   3   6
ENDBRANCH   1   2
BRANCH   1  29
ATOM     29  C   UNL A   1      42.745  18.215  26.516  1.00  0.00     0.042 C 
BRANCH  29  30
ATOM     30  C   UNL A   1      44.210  18.406  26.131  1.00  0.00     0.118 C 
BRANCH  30  31
ATOM     31  N   UNL A   1      44.387  18.602  24.692  1.00  0.00    -0.352 N 
ATOM     32  C   UNL A   1      44.615  19.714  23.916  1.00  0.00     0.251 C 
ATOM     33  H   UNL A   1      44.333  17.767  24.174  1.00  0.00     0.163 HD
ATOM     34  O   UNL A   1      44.528  19.597  22.693  1.00  0.00    -0.269 OA
BRANCH  32  35
ATOM     35  C   UNL A   1      44.927  21.051  24.486  1.00  0.00     0.039 A 
ATOM     36  C   UNL A   1      45.530  21.208  25.731  1.00  0.00     0.014 A 
ATOM     37  C   UNL A   1      44.641  22.197  23.728  1.00  0.00     0.014 A 
ATOM     38  C   UNL A   1      45.652  22.475  26.295  1.00  0.00     0.010 A 
ATOM     39  C   UNL A   1      44.866  23.479  24.251  1.00  0.00     0.010 A 
ATOM     40  C   UNL A   1      45.321  23.632  25.566  1.00  0.00    -0.014 A 
BRANCH  40  41
ATOM     41  C   UNL A   1      45.531  24.962  26.199  1.00  0.00     0.031 A 
ATOM     42  C   UNL A   1      46.872  25.644  26.195  1.00  0.00     0.074 A 
ATOM     43  C   UNL A   1      44.464  25.614  26.696  1.00  0.00     0.049 A 
ATOM     44  N   UNL A   1      47.171  26.887  26.489  1.00  0.00    -0.248 NA
ATOM     45  C   UNL A   1      48.031  24.836  25.802  1.00  0.00     0.031 C 
ATOM     46  C   UNL A   1      43.108  25.069  26.767  1.00  0.00     0.029 A 
ATOM     47  N   UNL A   1      44.341  26.884  27.201  1.00  0.00    -0.354 N 
ATOM     48  C   UNL A   1      48.533  27.018  26.248  1.00  0.00     0.074 A 
ATOM     49  C   UNL A   1      49.018  25.718  25.852  1.00  0.00     0.031 C 
ATOM     50  C   UNL A   1      42.280  26.015  27.229  1.00  0.00     0.029 A 
ATOM     51  C   UNL A   1      43.054  27.213  27.543  1.00  0.00     0.049 A 
ATOM     52  H   UNL A   1      45.103  27.499  27.308  1.00  0.00     0.167 HD
ATOM     53  C   UNL A   1      49.311  28.123  26.338  1.00  0.00     0.037 A 
ATOM     54  C   UNL A   1      42.548  28.347  28.061  1.00  0.00     0.037 A 
ATOM     55  C   UNL A   1      48.857  29.393  26.836  1.00  0.00     0.049 A 
ATOM     56  C   UNL A   1      43.463  29.511  28.311  1.00  0.00     0.074 A 
ATOM     57  C   UNL A   1      49.576  30.563  27.002  1.00  0.00     0.029 A 
ATOM     58  N   UNL A   1      47.571  29.643  27.291  1.00  0.00    -0.354 N 
ATOM     59  N   UNL A   1      44.730  29.643  28.008  1.00  0.00    -0.248 NA
ATOM     60  C   UNL A   1      42.880  30.677  28.985  1.00  0.00     0.031 C 
ATOM     61  C   UNL A   1      48.743  31.500  27.624  1.00  0.00     0.029 A 
ATOM     62  C   UNL A   1      47.490  30.931  27.791  1.00  0.00     0.049 A 
ATOM     63  H   UNL A   1      46.827  28.999  27.262  1.00  0.00     0.167 HD
ATOM     64  C   UNL A   1      45.097  30.908  28.444  1.00  0.00     0.074 A 
ATOM     65  C   UNL A   1      43.911  31.510  29.018  1.00  0.00     0.031 C 
ATOM     66  C   UNL A   1      46.308  31.512  28.375  1.00  0.00     0.037 A 
BRANCH  53  67
ATOM     67  C   UNL A   1      50.743  28.006  25.905  1.00  0.00     0.064 A 
ATOM     68  C   UNL A   1      51.770  27.808  26.841  1.00  0.00     0.173 A 
ATOM     69  C   UNL A   1      51.085  28.020  24.545  1.00  0.00     0.173 A 
ATOM     70  F   UNL A   1      51.494  27.790  28.153  1.00  0.00    -0.203 F 
ATOM     71  C   UNL A   1      53.090  27.632  26.429  1.00  0.00     0.198 A 
ATOM     72  C   UNL A   1      52.403  27.826  24.137  1.00  0.00     0.198 A 
ATOM     73  F   UNL A   1      50.140  28.203  23.611  1.00  0.00    -0.203 F 
ATOM     74  F   UNL A   1      54.056  27.454  27.340  1.00  0.00    -0.200 F 
ATOM     75  C   UNL A   1      53.403  27.633  25.078  1.00  0.00     0.200 A 
ATOM     76  F   UNL A   1      52.703  27.816  22.830  1.00  0.00    -0.200 F 
ATOM     77  F   UNL A   1      54.670  27.445  24.682  1.00  0.00    -0.200 F 
ENDBRANCH  53  67
BRANCH  54  78
ATOM     78  C   UNL A   1      41.100  28.411  28.377  1.00  0.00     0.064 A 
ATOM     79  C   UNL A   1      40.610  27.999  29.622  1.00  0.00     0.173 A 
ATOM     80  C   UNL A   1      40.186  28.953  27.459  1.00  0.00     0.173 A 
ATOM     81  F   UNL A   1      41.443  27.457  30.523  1.00  0.00    -0.203 F 
ATOM     82  C   UNL A   1      39.261  28.135  29.942  1.00  0.00     0.198 A 
ATOM     83  C   UNL A   1      38.844  29.116  27.791  1.00  0.00     0.198 A 
ATOM     84  F   UNL A   1      40.608  29.365  26.255  1.00  0.00    -0.203 F 
ATOM     85  F   UNL A   1      38.813  27.719  31.134  1.00  0.00    -0.200 F 
ATOM     86  C   UNL A   1      38.383  28.706  29.032  1.00  0.00     0.200 A 
ATOM     87  F   UNL A   1      38.004  29.685  26.915  1.00  0.00    -0.200 F 
ATOM     88  F   UNL A   1      37.091  28.862  29.351  1.00  0.00    -0.200 F 
ENDBRANCH  54  78
BRANCH  66  89
ATOM     89  C   UNL A   1      46.423  32.896  28.940  1.00  0.00     0.064 A 
ATOM     90  C   UNL A   1      46.818  33.110  30.268  1.00  0.00     0.173 A 
ATOM     91  C   UNL A   1      46.201  34.018  28.129  1.00  0.00     0.173 A 
ATOM     92  F   UNL A   1      47.029  32.068  31.086  1.00  0.00    -0.203 F 
ATOM     93  C   UNL A   1      46.974  34.400  30.767  1.00  0.00     0.198 A 
ATOM     94  C   UNL A   1      46.384  35.306  28.622  1.00  0.00     0.198 A 
ATOM     95  F   UNL A   1      45.829  33.865  26.848  1.00  0.00    -0.203 F 
ATOM     96  F   UNL A   1      47.319  34.583  32.049  1.00  0.00    -0.200 F 
ATOM     97  C   UNL A   1      46.766  35.496  29.943  1.00  0.00     0.200 A 
ATOM     98  F   UNL A   1      46.198  36.363  27.821  1.00  0.00    -0.200 F 
ATOM     99  F   UNL A   1      46.930  36.736  30.421  1.00  0.00    -0.200 F 
ENDBRANCH  66  89
ENDBRANCH  40  41
ENDBRANCH  32  35
ENDBRANCH  30  31
ENDBRANCH  29  30
ENDBRANCH   1  29
TORSDOF 13
ENDMDL
