MODEL 1
REMARK VINA RESULT:     -10.1      0.000      0.000
REMARK SMILES Cc1nc(CCc2ccc(S(=O)(=O)N3CCCC3)cc2)ncc1C(=O)NCCCNC(=O)c1ccc(-c2c3nc(c(-c4c(F)c(F)c(F)c(F)c4F)c4ccc([nH]4)c(-c4c(F)c(F)c(F)c(F)c4F)c4nc(c(-c5c(F)c(F)c(F)c(F)c5F)c5ccc2[nH]5)C=C4)C=C3)cc1
REMARK SMILES IDX 24 1 25 2 26 3 23 5 1 6 2 7 3 8 4 9 22 10 21 11 5 12 6 13
REMARK SMILES IDX 7 14 8 15 20 16 9 17 19 18 10 19 11 20 12 21 13 22 14 23
REMARK SMILES IDX 15 24 18 25 16 26 17 27 27 28 28 29 29 30 30 31 31 32 32 34
REMARK SMILES IDX 33 35 34 36 95 37 35 38 94 39 36 40 37 41 38 42 88 43 39 44
REMARK SMILES IDX 93 45 87 46 89 47 40 48 92 49 86 50 85 51 41 53 73 54 53 55
REMARK SMILES IDX 72 56 54 57 57 58 71 59 90 60 55 61 56 62 70 64 91 65 58 66
REMARK SMILES IDX 42 67 43 68 51 69 44 70 45 71 49 72 52 73 46 74 47 75 50 76
REMARK SMILES IDX 48 77 74 78 75 79 83 80 76 81 77 82 81 83 84 84 78 85 79 86
REMARK SMILES IDX 82 87 80 88 59 89 60 90 68 91 61 92 62 93 66 94 69 95 63 96
REMARK SMILES IDX 64 97 67 98 65 99
REMARK H PARENT 26 4 30 33 89 52 57 63
REMARK Flexibility Score: inf
ROOT
ATOM      1  C   UNL A   1      43.245  23.033  25.823  1.00  0.00     0.254 C 
ATOM      2  O   UNL A   1      43.350  23.947  25.002  1.00  0.00    -0.269 OA
ATOM      3  N   UNL A   1      42.689  21.862  25.363  1.00  0.00    -0.352 N 
ATOM      4  H   UNL A   1      42.417  21.887  24.417  1.00  0.00     0.163 HD
ENDROOT
BRANCH   1   5
ATOM      5  C   UNL A   1      43.634  23.319  27.231  1.00  0.00     0.079 A 
ATOM      6  C   UNL A   1      46.185  23.747  27.144  1.00  0.00     0.068 C 
ATOM      7  C   UNL A   1      44.851  23.656  27.801  1.00  0.00     0.054 A 
ATOM      8  N   UNL A   1      44.985  23.868  29.133  1.00  0.00    -0.237 NA
ATOM      9  C   UNL A   1      43.920  23.732  29.930  1.00  0.00     0.128 A 
ATOM     10  C   UNL A   1      42.577  23.310  28.137  1.00  0.00     0.129 A 
ATOM     11  N   UNL A   1      42.688  23.475  29.480  1.00  0.00    -0.241 NA
BRANCH   9  12
ATOM     12  C   UNL A   1      44.198  23.718  31.406  1.00  0.00     0.082 C 
BRANCH  12  13
ATOM     13  C   UNL A   1      44.961  24.974  31.855  1.00  0.00     0.043 C 
BRANCH  13  14
ATOM     14  C   UNL A   1      44.257  25.865  32.867  1.00  0.00    -0.047 A 
ATOM     15  C   UNL A   1      43.440  26.920  32.444  1.00  0.00     0.005 A 
ATOM     16  C   UNL A   1      44.406  25.645  34.248  1.00  0.00     0.005 A 
ATOM     17  C   UNL A   1      42.787  27.732  33.378  1.00  0.00     0.022 A 
ATOM     18  C   UNL A   1      43.757  26.459  35.189  1.00  0.00     0.022 A 
ATOM     19  C   UNL A   1      42.947  27.505  34.751  1.00  0.00     0.082 A 
BRANCH  19  20
ATOM     20  S   UNL A   1      42.097  28.588  35.891  1.00  0.00     0.243 S 
ATOM     21  O   UNL A   1      40.929  27.857  36.355  1.00  0.00    -0.207 OA
ATOM     22  O   UNL A   1      43.086  29.093  36.814  1.00  0.00    -0.207 OA
BRANCH  20  23
ATOM     23  N   UNL A   1      41.513  29.874  34.998  1.00  0.00    -0.198 NA
ATOM     24  C   UNL A   1      42.203  31.166  34.938  1.00  0.00     0.102 C 
ATOM     25  C   UNL A   1      40.083  30.019  34.692  1.00  0.00     0.102 C 
ATOM     26  C   UNL A   1      41.056  32.166  34.997  1.00  0.00     0.018 C 
ATOM     27  C   UNL A   1      39.947  31.467  34.235  1.00  0.00     0.018 C 
ENDBRANCH  20  23
ENDBRANCH  19  20
ENDBRANCH  13  14
ENDBRANCH  12  13
ENDBRANCH   9  12
ENDBRANCH   1   5
BRANCH   3  28
ATOM     28  C   UNL A   1      42.438  20.607  26.022  1.00  0.00     0.118 C 
BRANCH  28  29
ATOM     29  C   UNL A   1      40.987  20.306  26.345  1.00  0.00     0.042 C 
BRANCH  29  30
ATOM     30  C   UNL A   1      40.210  21.393  27.075  1.00  0.00     0.118 C 
BRANCH  30  31
ATOM     31  N   UNL A   1      39.078  21.959  26.345  1.00  0.00    -0.352 N 
ATOM     32  C   UNL A   1      38.622  23.250  26.205  1.00  0.00     0.251 C 
ATOM     33  H   UNL A   1      38.539  21.290  25.864  1.00  0.00     0.163 HD
ATOM     34  O   UNL A   1      37.596  23.447  25.559  1.00  0.00    -0.269 OA
BRANCH  32  35
ATOM     35  C   UNL A   1      39.300  24.393  26.863  1.00  0.00     0.039 A 
ATOM     36  C   UNL A   1      40.140  25.212  26.098  1.00  0.00     0.014 A 
ATOM     37  C   UNL A   1      39.116  24.679  28.214  1.00  0.00     0.014 A 
ATOM     38  C   UNL A   1      40.703  26.361  26.661  1.00  0.00     0.010 A 
ATOM     39  C   UNL A   1      39.567  25.885  28.738  1.00  0.00     0.010 A 
ATOM     40  C   UNL A   1      40.374  26.737  27.973  1.00  0.00    -0.014 A 
BRANCH  40  41
ATOM     41  C   UNL A   1      40.871  27.997  28.581  1.00  0.00     0.031 A 
ATOM     42  C   UNL A   1      42.334  28.150  28.902  1.00  0.00     0.074 A 
ATOM     43  C   UNL A   1      39.999  28.966  28.925  1.00  0.00     0.049 A 
ATOM     44  N   UNL A   1      42.949  29.118  29.537  1.00  0.00    -0.248 NA
ATOM     45  C   UNL A   1      43.222  27.051  28.488  1.00  0.00     0.031 C 
ATOM     46  C   UNL A   1      38.552  28.920  28.712  1.00  0.00     0.029 A 
ATOM     47  N   UNL A   1      40.203  30.177  29.539  1.00  0.00    -0.354 N 
ATOM     48  C   UNL A   1      44.282  28.732  29.611  1.00  0.00     0.074 A 
ATOM     49  C   UNL A   1      44.376  27.415  29.024  1.00  0.00     0.031 C 
ATOM     50  C   UNL A   1      38.003  30.060  29.159  1.00  0.00     0.029 A 
ATOM     51  C   UNL A   1      39.049  30.897  29.736  1.00  0.00     0.049 A 
ATOM     52  H   UNL A   1      41.092  30.499  29.814  1.00  0.00     0.167 HD
ATOM     53  C   UNL A   1      45.337  29.427  30.097  1.00  0.00     0.037 A 
ATOM     54  C   UNL A   1      38.857  32.093  30.324  1.00  0.00     0.037 A 
ATOM     55  C   UNL A   1      45.242  30.748  30.657  1.00  0.00     0.049 A 
ATOM     56  C   UNL A   1      40.045  32.836  30.877  1.00  0.00     0.074 A 
ATOM     57  C   UNL A   1      46.258  31.562  31.127  1.00  0.00     0.029 A 
ATOM     58  N   UNL A   1      44.057  31.451  30.825  1.00  0.00    -0.354 N 
ATOM     59  N   UNL A   1      41.310  32.490  30.883  1.00  0.00    -0.248 NA
ATOM     60  C   UNL A   1      39.778  34.139  31.502  1.00  0.00     0.031 C 
ATOM     61  C   UNL A   1      45.684  32.732  31.632  1.00  0.00     0.029 A 
ATOM     62  C   UNL A   1      44.315  32.677  31.417  1.00  0.00     0.049 A 
ATOM     63  H   UNL A   1      43.166  31.127  30.564  1.00  0.00     0.167 HD
ATOM     64  C   UNL A   1      41.992  33.545  31.476  1.00  0.00     0.074 A 
ATOM     65  C   UNL A   1      41.001  34.549  31.804  1.00  0.00     0.031 C 
ATOM     66  C   UNL A   1      43.319  33.671  31.727  1.00  0.00     0.037 A 
BRANCH  53  67
ATOM     67  C   UNL A   1      46.689  28.771  30.040  1.00  0.00     0.064 A 
ATOM     68  C   UNL A   1      47.230  28.099  31.148  1.00  0.00     0.173 A 
ATOM     69  C   UNL A   1      47.440  28.788  28.855  1.00  0.00     0.173 A 
ATOM     70  F   UNL A   1      46.561  28.063  32.311  1.00  0.00    -0.203 F 
ATOM     71  C   UNL A   1      48.484  27.495  31.079  1.00  0.00     0.198 A 
ATOM     72  C   UNL A   1      48.676  28.152  28.780  1.00  0.00     0.198 A 
ATOM     73  F   UNL A   1      46.971  29.413  27.765  1.00  0.00    -0.203 F 
ATOM     74  F   UNL A   1      49.003  26.910  32.168  1.00  0.00    -0.200 F 
ATOM     75  C   UNL A   1      49.202  27.515  29.893  1.00  0.00     0.200 A 
ATOM     76  F   UNL A   1      49.362  28.159  27.628  1.00  0.00    -0.200 F 
ATOM     77  F   UNL A   1      50.404  26.927  29.827  1.00  0.00    -0.200 F 
ENDBRANCH  53  67
BRANCH  54  78
ATOM     78  C   UNL A   1      37.491  32.677  30.404  1.00  0.00     0.064 A 
ATOM     79  C   UNL A   1      36.654  32.401  31.494  1.00  0.00     0.173 A 
ATOM     80  C   UNL A   1      36.988  33.507  29.392  1.00  0.00     0.173 A 
ATOM     81  F   UNL A   1      37.081  31.596  32.478  1.00  0.00    -0.203 F 
ATOM     82  C   UNL A   1      35.358  32.909  31.555  1.00  0.00     0.198 A 
ATOM     83  C   UNL A   1      35.704  34.041  29.469  1.00  0.00     0.198 A 
ATOM     84  F   UNL A   1      37.749  33.806  28.328  1.00  0.00    -0.203 F 
ATOM     85  F   UNL A   1      34.560  32.580  32.581  1.00  0.00    -0.200 F 
ATOM     86  C   UNL A   1      34.885  33.734  30.545  1.00  0.00     0.200 A 
ATOM     87  F   UNL A   1      35.256  34.848  28.497  1.00  0.00    -0.200 F 
ATOM     88  F   UNL A   1      33.637  34.219  30.603  1.00  0.00    -0.200 F 
ENDBRANCH  54  78
BRANCH  66  89
ATOM     89  C   UNL A   1      43.786  34.959  32.343  1.00  0.00     0.064 A 
ATOM     90  C   UNL A   1      44.000  36.113  31.576  1.00  0.00     0.173 A 
ATOM     91  C   UNL A   1      43.980  35.049  33.731  1.00  0.00     0.173 A 
ATOM     92  F   UNL A   1      43.840  36.078  30.243  1.00  0.00    -0.203 F 
ATOM     93  C   UNL A   1      44.421  37.301  32.169  1.00  0.00     0.198 A 
ATOM     94  C   UNL A   1      44.365  36.247  34.325  1.00  0.00     0.198 A 
ATOM     95  F   UNL A   1      43.780  33.978  34.513  1.00  0.00    -0.203 F 
ATOM     96  F   UNL A   1      44.671  38.375  31.409  1.00  0.00    -0.200 F 
ATOM     97  C   UNL A   1      44.594  37.369  33.543  1.00  0.00     0.200 A 
ATOM     98  F   UNL A   1      44.514  36.316  35.656  1.00  0.00    -0.200 F 
ATOM     99  F   UNL A   1      44.988  38.516  34.114  1.00  0.00    -0.200 F 
ENDBRANCH  66  89
ENDBRANCH  40  41
ENDBRANCH  32  35
ENDBRANCH  30  31
ENDBRANCH  29  30
ENDBRANCH  28  29
ENDBRANCH   3  28
TORSDOF 15
ENDMDL
MODEL 2
REMARK VINA RESULT:     -10.0      4.138      7.543
REMARK SMILES Cc1nc(CCc2ccc(S(=O)(=O)N3CCCC3)cc2)ncc1C(=O)NCCCNC(=O)c1ccc(-c2c3nc(c(-c4c(F)c(F)c(F)c(F)c4F)c4ccc([nH]4)c(-c4c(F)c(F)c(F)c(F)c4F)c4nc(c(-c5c(F)c(F)c(F)c(F)c5F)c5ccc2[nH]5)C=C4)C=C3)cc1
REMARK SMILES IDX 24 1 25 2 26 3 23 5 1 6 2 7 3 8 4 9 22 10 21 11 5 12 6 13
REMARK SMILES IDX 7 14 8 15 20 16 9 17 19 18 10 19 11 20 12 21 13 22 14 23
REMARK SMILES IDX 15 24 18 25 16 26 17 27 27 28 28 29 29 30 30 31 31 32 32 34
REMARK SMILES IDX 33 35 34 36 95 37 35 38 94 39 36 40 37 41 38 42 88 43 39 44
REMARK SMILES IDX 93 45 87 46 89 47 40 48 92 49 86 50 85 51 41 53 73 54 53 55
REMARK SMILES IDX 72 56 54 57 57 58 71 59 90 60 55 61 56 62 70 64 91 65 58 66
REMARK SMILES IDX 42 67 43 68 51 69 44 70 45 71 49 72 52 73 46 74 47 75 50 76
REMARK SMILES IDX 48 77 74 78 75 79 83 80 76 81 77 82 81 83 84 84 78 85 79 86
REMARK SMILES IDX 82 87 80 88 59 89 60 90 68 91 61 92 62 93 66 94 69 95 63 96
REMARK SMILES IDX 64 97 67 98 65 99
REMARK H PARENT 26 4 30 33 89 52 57 63
REMARK Flexibility Score: inf
ROOT
ATOM      1  C   UNL A   1      41.501  22.210  27.844  1.00  0.00     0.254 C 
ATOM      2  O   UNL A   1      41.601  22.690  28.976  1.00  0.00    -0.269 OA
ATOM      3  N   UNL A   1      42.601  21.534  27.370  1.00  0.00    -0.352 N 
ATOM      4  H   UNL A   1      43.366  21.519  27.990  1.00  0.00     0.163 HD
ENDROOT
BRANCH   1   5
ATOM      5  C   UNL A   1      40.256  22.492  27.079  1.00  0.00     0.079 A 
ATOM      6  C   UNL A   1      39.723  24.978  27.567  1.00  0.00     0.068 C 
ATOM      7  C   UNL A   1      39.515  23.653  26.920  1.00  0.00     0.054 A 
ATOM      8  N   UNL A   1      38.385  23.685  26.171  1.00  0.00    -0.237 NA
ATOM      9  C   UNL A   1      37.956  22.565  25.581  1.00  0.00     0.128 A 
ATOM     10  C   UNL A   1      39.776  21.418  26.335  1.00  0.00     0.129 A 
ATOM     11  N   UNL A   1      38.626  21.408  25.614  1.00  0.00    -0.241 NA
BRANCH   9  12
ATOM     12  C   UNL A   1      36.573  22.614  24.999  1.00  0.00     0.082 C 
BRANCH  12  13
ATOM     13  C   UNL A   1      35.494  22.386  26.071  1.00  0.00     0.043 C 
BRANCH  13  14
ATOM     14  C   UNL A   1      34.354  23.393  26.106  1.00  0.00    -0.047 A 
ATOM     15  C   UNL A   1      33.081  23.015  26.547  1.00  0.00     0.005 A 
ATOM     16  C   UNL A   1      34.556  24.725  25.702  1.00  0.00     0.005 A 
ATOM     17  C   UNL A   1      32.037  23.947  26.587  1.00  0.00     0.022 A 
ATOM     18  C   UNL A   1      33.513  25.662  25.735  1.00  0.00     0.022 A 
ATOM     19  C   UNL A   1      32.250  25.269  26.178  1.00  0.00     0.082 A 
BRANCH  19  20
ATOM     20  S   UNL A   1      30.871  26.405  26.238  1.00  0.00     0.243 S 
ATOM     21  O   UNL A   1      29.673  25.589  26.347  1.00  0.00    -0.207 OA
ATOM     22  O   UNL A   1      31.191  27.409  27.224  1.00  0.00    -0.207 OA
BRANCH  20  23
ATOM     23  N   UNL A   1      30.788  27.150  24.744  1.00  0.00    -0.198 NA
ATOM     24  C   UNL A   1      31.539  28.369  24.432  1.00  0.00     0.102 C 
ATOM     25  C   UNL A   1      29.614  27.010  23.873  1.00  0.00     0.102 C 
ATOM     26  C   UNL A   1      30.542  29.183  23.619  1.00  0.00     0.018 C 
ATOM     27  C   UNL A   1      29.779  28.125  22.846  1.00  0.00     0.018 C 
ENDBRANCH  20  23
ENDBRANCH  19  20
ENDBRANCH  13  14
ENDBRANCH  12  13
ENDBRANCH   9  12
ENDBRANCH   1   5
BRANCH   3  28
ATOM     28  C   UNL A   1      42.828  20.842  26.128  1.00  0.00     0.118 C 
BRANCH  28  29
ATOM     29  C   UNL A   1      43.780  21.515  25.159  1.00  0.00     0.042 C 
BRANCH  29  30
ATOM     30  C   UNL A   1      43.535  22.989  24.872  1.00  0.00     0.118 C 
BRANCH  30  31
ATOM     31  N   UNL A   1      44.727  23.785  24.587  1.00  0.00    -0.352 N 
ATOM     32  C   UNL A   1      45.166  24.996  25.071  1.00  0.00     0.251 C 
ATOM     33  H   UNL A   1      45.329  23.378  23.923  1.00  0.00     0.163 HD
ATOM     34  O   UNL A   1      46.204  25.472  24.617  1.00  0.00    -0.269 OA
BRANCH  32  35
ATOM     35  C   UNL A   1      44.390  25.764  26.074  1.00  0.00     0.039 A 
ATOM     36  C   UNL A   1      43.674  25.066  27.055  1.00  0.00     0.014 A 
ATOM     37  C   UNL A   1      44.361  27.157  26.073  1.00  0.00     0.014 A 
ATOM     38  C   UNL A   1      43.026  25.762  28.079  1.00  0.00     0.010 A 
ATOM     39  C   UNL A   1      43.829  27.844  27.157  1.00  0.00     0.010 A 
ATOM     40  C   UNL A   1      43.146  27.157  28.170  1.00  0.00    -0.014 A 
BRANCH  40  41
ATOM     41  C   UNL A   1      42.555  27.929  29.293  1.00  0.00     0.031 A 
ATOM     42  C   UNL A   1      43.235  27.942  30.636  1.00  0.00     0.074 A 
ATOM     43  C   UNL A   1      41.367  28.546  29.131  1.00  0.00     0.049 A 
ATOM     44  N   UNL A   1      42.825  28.455  31.769  1.00  0.00    -0.248 NA
ATOM     45  C   UNL A   1      44.532  27.252  30.728  1.00  0.00     0.031 C 
ATOM     46  C   UNL A   1      40.583  28.567  27.894  1.00  0.00     0.029 A 
ATOM     47  N   UNL A   1      40.602  29.262  30.017  1.00  0.00    -0.354 N 
ATOM     48  C   UNL A   1      43.802  28.134  32.703  1.00  0.00     0.074 A 
ATOM     49  C   UNL A   1      44.787  27.322  32.025  1.00  0.00     0.031 C 
ATOM     50  C   UNL A   1      39.468  29.286  28.091  1.00  0.00     0.029 A 
ATOM     51  C   UNL A   1      39.429  29.734  29.479  1.00  0.00     0.049 A 
ATOM     52  H   UNL A   1      40.869  29.424  30.951  1.00  0.00     0.167 HD
ATOM     53  C   UNL A   1      43.887  28.508  34.002  1.00  0.00     0.037 A 
ATOM     54  C   UNL A   1      38.430  30.438  30.045  1.00  0.00     0.037 A 
ATOM     55  C   UNL A   1      42.917  29.337  34.666  1.00  0.00     0.049 A 
ATOM     56  C   UNL A   1      38.539  30.823  31.498  1.00  0.00     0.074 A 
ATOM     57  C   UNL A   1      42.937  29.820  35.962  1.00  0.00     0.029 A 
ATOM     58  N   UNL A   1      41.749  29.808  34.082  1.00  0.00    -0.354 N 
ATOM     59  N   UNL A   1      39.499  30.568  32.354  1.00  0.00    -0.248 NA
ATOM     60  C   UNL A   1      37.424  31.597  32.061  1.00  0.00     0.031 C 
ATOM     61  C   UNL A   1      41.755  30.532  36.182  1.00  0.00     0.029 A 
ATOM     62  C   UNL A   1      41.028  30.552  35.002  1.00  0.00     0.049 A 
ATOM     63  H   UNL A   1      41.473  29.637  33.153  1.00  0.00     0.167 HD
ATOM     64  C   UNL A   1      39.123  31.180  33.542  1.00  0.00     0.074 A 
ATOM     65  C   UNL A   1      37.853  31.830  33.293  1.00  0.00     0.031 C 
ATOM     66  C   UNL A   1      39.771  31.202  34.734  1.00  0.00     0.037 A 
BRANCH  53  67
ATOM     67  C   UNL A   1      45.073  28.025  34.791  1.00  0.00     0.064 A 
ATOM     68  C   UNL A   1      45.042  26.816  35.504  1.00  0.00     0.173 A 
ATOM     69  C   UNL A   1      46.265  28.764  34.807  1.00  0.00     0.173 A 
ATOM     70  F   UNL A   1      43.922  26.076  35.534  1.00  0.00    -0.203 F 
ATOM     71  C   UNL A   1      46.149  26.382  36.230  1.00  0.00     0.198 A 
ATOM     72  C   UNL A   1      47.382  28.308  35.503  1.00  0.00     0.198 A 
ATOM     73  F   UNL A   1      46.353  29.924  34.141  1.00  0.00    -0.203 F 
ATOM     74  F   UNL A   1      46.074  25.254  36.950  1.00  0.00    -0.200 F 
ATOM     75  C   UNL A   1      47.320  27.124  36.221  1.00  0.00     0.200 A 
ATOM     76  F   UNL A   1      48.518  29.019  35.483  1.00  0.00    -0.200 F 
ATOM     77  F   UNL A   1      48.387  26.700  36.913  1.00  0.00    -0.200 F 
ENDBRANCH  53  67
BRANCH  54  78
ATOM     78  C   UNL A   1      37.251  30.847  29.236  1.00  0.00     0.064 A 
ATOM     79  C   UNL A   1      36.255  29.920  28.898  1.00  0.00     0.173 A 
ATOM     80  C   UNL A   1      37.100  32.162  28.772  1.00  0.00     0.173 A 
ATOM     81  F   UNL A   1      36.363  28.646  29.301  1.00  0.00    -0.203 F 
ATOM     82  C   UNL A   1      35.169  30.285  28.105  1.00  0.00     0.198 A 
ATOM     83  C   UNL A   1      35.998  32.534  28.005  1.00  0.00     0.198 A 
ATOM     84  F   UNL A   1      38.023  33.090  29.069  1.00  0.00    -0.203 F 
ATOM     85  F   UNL A   1      34.263  29.364  27.749  1.00  0.00    -0.200 F 
ATOM     86  C   UNL A   1      35.038  31.593  27.663  1.00  0.00     0.200 A 
ATOM     87  F   UNL A   1      35.870  33.802  27.592  1.00  0.00    -0.200 F 
ATOM     88  F   UNL A   1      33.996  31.942  26.897  1.00  0.00    -0.200 F 
ENDBRANCH  54  78
BRANCH  66  89
ATOM     89  C   UNL A   1      39.143  31.993  35.847  1.00  0.00     0.064 A 
ATOM     90  C   UNL A   1      38.266  31.406  36.770  1.00  0.00     0.173 A 
ATOM     91  C   UNL A   1      39.461  33.350  36.017  1.00  0.00     0.173 A 
ATOM     92  F   UNL A   1      37.919  30.115  36.646  1.00  0.00    -0.203 F 
ATOM     93  C   UNL A   1      37.705  32.154  37.802  1.00  0.00     0.198 A 
ATOM     94  C   UNL A   1      38.929  34.086  37.071  1.00  0.00     0.198 A 
ATOM     95  F   UNL A   1      40.303  33.959  35.168  1.00  0.00    -0.203 F 
ATOM     96  F   UNL A   1      36.827  31.586  38.639  1.00  0.00    -0.200 F 
ATOM     97  C   UNL A   1      38.044  33.490  37.957  1.00  0.00     0.200 A 
ATOM     98  F   UNL A   1      39.272  35.372  37.229  1.00  0.00    -0.200 F 
ATOM     99  F   UNL A   1      37.513  34.206  38.957  1.00  0.00    -0.200 F 
ENDBRANCH  66  89
ENDBRANCH  40  41
ENDBRANCH  32  35
ENDBRANCH  30  31
ENDBRANCH  29  30
ENDBRANCH  28  29
ENDBRANCH   3  28
TORSDOF 15
ENDMDL
MODEL 3
REMARK VINA RESULT:      -9.9      3.238      9.409
REMARK SMILES Cc1nc(CCc2ccc(S(=O)(=O)N3CCCC3)cc2)ncc1C(=O)NCCCNC(=O)c1ccc(-c2c3nc(c(-c4c(F)c(F)c(F)c(F)c4F)c4ccc([nH]4)c(-c4c(F)c(F)c(F)c(F)c4F)c4nc(c(-c5c(F)c(F)c(F)c(F)c5F)c5ccc2[nH]5)C=C4)C=C3)cc1
REMARK SMILES IDX 24 1 25 2 26 3 23 5 1 6 2 7 3 8 4 9 22 10 21 11 5 12 6 13
REMARK SMILES IDX 7 14 8 15 20 16 9 17 19 18 10 19 11 20 12 21 13 22 14 23
REMARK SMILES IDX 15 24 18 25 16 26 17 27 27 28 28 29 29 30 30 31 31 32 32 34
REMARK SMILES IDX 33 35 34 36 95 37 35 38 94 39 36 40 37 41 38 42 88 43 39 44
REMARK SMILES IDX 93 45 87 46 89 47 40 48 92 49 86 50 85 51 41 53 73 54 53 55
REMARK SMILES IDX 72 56 54 57 57 58 71 59 90 60 55 61 56 62 70 64 91 65 58 66
REMARK SMILES IDX 42 67 43 68 51 69 44 70 45 71 49 72 52 73 46 74 47 75 50 76
REMARK SMILES IDX 48 77 74 78 75 79 83 80 76 81 77 82 81 83 84 84 78 85 79 86
REMARK SMILES IDX 82 87 80 88 59 89 60 90 68 91 61 92 62 93 66 94 69 95 63 96
REMARK SMILES IDX 64 97 67 98 65 99
REMARK H PARENT 26 4 30 33 89 52 57 63
REMARK Flexibility Score: inf
ROOT
ATOM      1  C   UNL A   1      37.083  34.248  32.568  1.00  0.00     0.254 C 
ATOM      2  O   UNL A   1      36.608  35.014  33.410  1.00  0.00    -0.269 OA
ATOM      3  N   UNL A   1      36.814  34.547  31.253  1.00  0.00    -0.352 N 
ATOM      4  H   UNL A   1      36.250  35.344  31.125  1.00  0.00     0.163 HD
ENDROOT
BRANCH   1   5
ATOM      5  C   UNL A   1      37.803  33.042  33.058  1.00  0.00     0.079 A 
ATOM      6  C   UNL A   1      36.235  31.058  32.505  1.00  0.00     0.068 C 
ATOM      7  C   UNL A   1      37.484  31.694  33.009  1.00  0.00     0.054 A 
ATOM      8  N   UNL A   1      38.297  30.745  33.536  1.00  0.00    -0.237 NA
ATOM      9  C   UNL A   1      39.432  31.114  34.138  1.00  0.00     0.128 A 
ATOM     10  C   UNL A   1      39.055  33.299  33.611  1.00  0.00     0.129 A 
ATOM     11  N   UNL A   1      39.869  32.376  34.184  1.00  0.00    -0.241 NA
BRANCH   9  12
ATOM     12  C   UNL A   1      40.139  30.047  34.924  1.00  0.00     0.082 C 
BRANCH  12  13
ATOM     13  C   UNL A   1      40.814  29.015  34.007  1.00  0.00     0.043 C 
BRANCH  13  14
ATOM     14  C   UNL A   1      41.912  28.170  34.634  1.00  0.00    -0.047 A 
ATOM     15  C   UNL A   1      41.902  27.889  36.005  1.00  0.00     0.005 A 
ATOM     16  C   UNL A   1      42.955  27.647  33.850  1.00  0.00     0.005 A 
ATOM     17  C   UNL A   1      42.910  27.103  36.577  1.00  0.00     0.022 A 
ATOM     18  C   UNL A   1      43.970  26.862  34.418  1.00  0.00     0.022 A 
ATOM     19  C   UNL A   1      43.946  26.591  35.786  1.00  0.00     0.082 A 
BRANCH  19  20
ATOM     20  S   UNL A   1      45.210  25.608  36.580  1.00  0.00     0.243 S 
ATOM     21  O   UNL A   1      46.482  26.072  36.051  1.00  0.00    -0.207 OA
ATOM     22  O   UNL A   1      44.932  25.623  37.996  1.00  0.00    -0.207 OA
BRANCH  20  23
ATOM     23  N   UNL A   1      45.024  24.041  36.029  1.00  0.00    -0.198 NA
ATOM     24  C   UNL A   1      46.160  23.221  35.599  1.00  0.00     0.102 C 
ATOM     25  C   UNL A   1      43.771  23.577  35.419  1.00  0.00     0.102 C 
ATOM     26  C   UNL A   1      45.614  22.502  34.372  1.00  0.00     0.018 C 
ATOM     27  C   UNL A   1      44.157  22.276  34.723  1.00  0.00     0.018 C 
ENDBRANCH  20  23
ENDBRANCH  19  20
ENDBRANCH  13  14
ENDBRANCH  12  13
ENDBRANCH   9  12
ENDBRANCH   1   5
BRANCH   3  28
ATOM     28  C   UNL A   1      37.216  33.899  30.031  1.00  0.00     0.118 C 
BRANCH  28  29
ATOM     29  C   UNL A   1      36.100  33.563  29.061  1.00  0.00     0.042 C 
BRANCH  29  30
ATOM     30  C   UNL A   1      34.973  32.688  29.592  1.00  0.00     0.118 C 
BRANCH  30  31
ATOM     31  N   UNL A   1      34.319  31.832  28.605  1.00  0.00    -0.352 N 
ATOM     32  C   UNL A   1      34.716  30.670  27.983  1.00  0.00     0.251 C 
ATOM     33  H   UNL A   1      33.426  32.146  28.334  1.00  0.00     0.163 HD
ATOM     34  O   UNL A   1      33.976  30.169  27.140  1.00  0.00    -0.269 OA
BRANCH  32  35
ATOM     35  C   UNL A   1      36.033  30.047  28.259  1.00  0.00     0.039 A 
ATOM     36  C   UNL A   1      37.063  30.202  27.322  1.00  0.00     0.014 A 
ATOM     37  C   UNL A   1      36.276  29.324  29.424  1.00  0.00     0.014 A 
ATOM     38  C   UNL A   1      38.346  29.723  27.605  1.00  0.00     0.010 A 
ATOM     39  C   UNL A   1      37.574  28.963  29.763  1.00  0.00     0.010 A 
ATOM     40  C   UNL A   1      38.625  29.149  28.854  1.00  0.00    -0.014 A 
BRANCH  40  41
ATOM     41  C   UNL A   1      39.993  28.713  29.235  1.00  0.00     0.031 A 
ATOM     42  C   UNL A   1      40.869  29.620  30.058  1.00  0.00     0.074 A 
ATOM     43  C   UNL A   1      40.478  27.544  28.771  1.00  0.00     0.049 A 
ATOM     44  N   UNL A   1      42.126  29.478  30.396  1.00  0.00    -0.248 NA
ATOM     45  C   UNL A   1      40.262  30.875  30.532  1.00  0.00     0.031 C 
ATOM     46  C   UNL A   1      39.748  26.598  27.926  1.00  0.00     0.029 A 
ATOM     47  N   UNL A   1      41.709  26.958  28.934  1.00  0.00    -0.354 N 
ATOM     48  C   UNL A   1      42.459  30.628  31.102  1.00  0.00     0.074 A 
ATOM     49  C   UNL A   1      41.298  31.488  31.083  1.00  0.00     0.031 C 
ATOM     50  C   UNL A   1      40.531  25.538  27.671  1.00  0.00     0.029 A 
ATOM     51  C   UNL A   1      41.836  25.751  28.290  1.00  0.00     0.049 A 
ATOM     52  H   UNL A   1      42.433  27.364  29.463  1.00  0.00     0.167 HD
ATOM     53  C   UNL A   1      43.618  30.926  31.736  1.00  0.00     0.037 A 
ATOM     54  C   UNL A   1      42.888  24.915  28.200  1.00  0.00     0.037 A 
ATOM     55  C   UNL A   1      44.761  30.054  31.775  1.00  0.00     0.049 A 
ATOM     56  C   UNL A   1      44.173  25.281  28.897  1.00  0.00     0.074 A 
ATOM     57  C   UNL A   1      45.963  30.237  32.436  1.00  0.00     0.029 A 
ATOM     58  N   UNL A   1      44.845  28.832  31.122  1.00  0.00    -0.354 N 
ATOM     59  N   UNL A   1      44.454  26.341  29.616  1.00  0.00    -0.248 NA
ATOM     60  C   UNL A   1      45.286  24.330  28.771  1.00  0.00     0.031 C 
ATOM     61  C   UNL A   1      46.796  29.154  32.135  1.00  0.00     0.029 A 
ATOM     62  C   UNL A   1      46.089  28.264  31.342  1.00  0.00     0.049 A 
ATOM     63  H   UNL A   1      44.127  28.430  30.582  1.00  0.00     0.167 HD
ATOM     64  C   UNL A   1      45.759  26.167  30.058  1.00  0.00     0.074 A 
ATOM     65  C   UNL A   1      46.210  24.893  29.537  1.00  0.00     0.031 C 
ATOM     66  C   UNL A   1      46.518  26.989  30.826  1.00  0.00     0.037 A 
BRANCH  53  67
ATOM     67  C   UNL A   1      43.704  32.249  32.445  1.00  0.00     0.064 A 
ATOM     68  C   UNL A   1      43.464  32.365  33.823  1.00  0.00     0.173 A 
ATOM     69  C   UNL A   1      44.063  33.410  31.745  1.00  0.00     0.173 A 
ATOM     70  F   UNL A   1      43.103  31.288  34.540  1.00  0.00    -0.203 F 
ATOM     71  C   UNL A   1      43.549  33.597  34.466  1.00  0.00     0.198 A 
ATOM     72  C   UNL A   1      44.183  34.634  32.397  1.00  0.00     0.198 A 
ATOM     73  F   UNL A   1      44.308  33.358  30.427  1.00  0.00    -0.203 F 
ATOM     74  F   UNL A   1      43.257  33.691  35.771  1.00  0.00    -0.200 F 
ATOM     75  C   UNL A   1      43.917  34.729  33.755  1.00  0.00     0.200 A 
ATOM     76  F   UNL A   1      44.554  35.724  31.711  1.00  0.00    -0.200 F 
ATOM     77  F   UNL A   1      44.006  35.912  34.376  1.00  0.00    -0.200 F 
ENDBRANCH  53  67
BRANCH  54  78
ATOM     78  C   UNL A   1      42.769  23.641  27.442  1.00  0.00     0.064 A 
ATOM     79  C   UNL A   1      42.273  22.483  28.057  1.00  0.00     0.173 A 
ATOM     80  C   UNL A   1      43.159  23.548  26.099  1.00  0.00     0.173 A 
ATOM     81  F   UNL A   1      41.906  22.515  29.347  1.00  0.00    -0.203 F 
ATOM     82  C   UNL A   1      42.199  21.275  27.367  1.00  0.00     0.198 A 
ATOM     83  C   UNL A   1      43.055  22.347  25.399  1.00  0.00     0.198 A 
ATOM     84  F   UNL A   1      43.638  24.627  25.461  1.00  0.00    -0.203 F 
ATOM     85  F   UNL A   1      41.776  20.171  27.998  1.00  0.00    -0.200 F 
ATOM     86  C   UNL A   1      42.584  21.209  26.036  1.00  0.00     0.200 A 
ATOM     87  F   UNL A   1      43.417  22.292  24.110  1.00  0.00    -0.200 F 
ATOM     88  F   UNL A   1      42.516  20.046  25.374  1.00  0.00    -0.200 F 
ENDBRANCH  54  78
BRANCH  66  89
ATOM     89  C   UNL A   1      47.896  26.515  31.191  1.00  0.00     0.064 A 
ATOM     90  C   UNL A   1      49.031  26.914  30.471  1.00  0.00     0.173 A 
ATOM     91  C   UNL A   1      48.086  25.685  32.308  1.00  0.00     0.173 A 
ATOM     92  F   UNL A   1      48.905  27.698  29.389  1.00  0.00    -0.203 F 
ATOM     93  C   UNL A   1      50.302  26.474  30.835  1.00  0.00     0.198 A 
ATOM     94  C   UNL A   1      49.360  25.277  32.691  1.00  0.00     0.198 A 
ATOM     95  F   UNL A   1      47.034  25.282  33.037  1.00  0.00    -0.203 F 
ATOM     96  F   UNL A   1      51.366  26.823  30.100  1.00  0.00    -0.200 F 
ATOM     97  C   UNL A   1      50.466  25.664  31.949  1.00  0.00     0.200 A 
ATOM     98  F   UNL A   1      49.517  24.510  33.778  1.00  0.00    -0.200 F 
ATOM     99  F   UNL A   1      51.690  25.250  32.304  1.00  0.00    -0.200 F 
ENDBRANCH  66  89
ENDBRANCH  40  41
ENDBRANCH  32  35
ENDBRANCH  30  31
ENDBRANCH  29  30
ENDBRANCH  28  29
ENDBRANCH   3  28
TORSDOF 15
ENDMDL
