MODEL 1
REMARK VINA RESULT:     -12.8      0.000      0.000
REMARK SMILES CC1=C(C)C[C@@H](C(=O)NCCCNC(=O)c2ccc(-c3c4nc(c(-c5c(F)c(F)c(F)c(F)c5F)c5ccc([nH]5)c(-c5c(F)c(F)c(F)c(F)c5F)c5nc(c(-c6c(F)c(F)c(F)c(F)c6F)c6ccc3[nH]6)C=C5)C=C4)cc2)[C@@H](C(=O)NCC[NH+]2CCOCC2)C1
REMARK SMILES IDX 10 1 9 2 7 3 8 4 6 6 1 7 2 8 3 9 91 10 4 11 5 12 79 13 80 14
REMARK SMILES IDX 81 15 82 16 83 18 84 19 85 20 86 21 90 22 87 24 89 25 88 26
REMARK SMILES IDX 11 27 12 28 13 29 14 30 15 32 16 33 17 34 78 35 18 36 77 37
REMARK SMILES IDX 19 38 20 39 21 40 71 41 22 42 76 43 70 44 72 45 23 46 75 47
REMARK SMILES IDX 69 48 68 49 24 51 56 52 36 53 55 54 37 55 40 56 54 57 73 58
REMARK SMILES IDX 38 59 39 60 53 62 74 63 41 64 25 65 26 66 34 67 27 68 28 69
REMARK SMILES IDX 32 70 35 71 29 72 30 73 33 74 31 75 57 76 58 77 66 78 59 79
REMARK SMILES IDX 60 80 64 81 67 82 61 83 62 84 65 85 63 86 42 87 43 88 51 89
REMARK SMILES IDX 44 90 45 91 49 92 52 93 46 94 47 95 50 96 48 97
REMARK H PARENT 9 5 82 17 85 23 13 31 72 50 40 61
REMARK Flexibility Score: inf
ROOT
ATOM      1  C   UNL A   1      31.371  27.134  25.544  1.00  0.00     0.117 C 
ENDROOT
BRANCH   1   2
ATOM      2  N   UNL A   1      31.336  25.987  24.656  1.00  0.00    -0.356 N 
ATOM      3  C   UNL A   1      32.166  24.926  24.489  1.00  0.00     0.224 C 
ATOM      4  O   UNL A   1      31.778  24.061  23.693  1.00  0.00    -0.275 OA
ATOM      5  H   UNL A   1      30.555  25.976  24.056  1.00  0.00     0.163 HD
BRANCH   3   6
ATOM      6  C   UNL A   1      33.497  24.728  25.230  1.00  0.00     0.095 C 
ATOM      7  C   UNL A   1      36.227  21.236  25.598  1.00  0.00     0.039 C 
ATOM      8  C   UNL A   1      35.457  22.523  25.471  1.00  0.00    -0.074 C 
ATOM      9  C   UNL A   1      35.458  23.282  24.356  1.00  0.00    -0.074 C 
ATOM     10  C   UNL A   1      34.759  23.009  26.715  1.00  0.00     0.045 C 
ATOM     11  C   UNL A   1      36.248  22.971  23.113  1.00  0.00     0.039 C 
ATOM     12  C   UNL A   1      34.707  24.593  24.297  1.00  0.00     0.045 C 
ATOM     13  C   UNL A   1      33.481  23.810  26.470  1.00  0.00     0.095 C 
BRANCH  13  14
ATOM     14  C   UNL A   1      32.169  23.094  26.733  1.00  0.00     0.224 C 
ATOM     15  O   UNL A   1      31.394  23.542  27.587  1.00  0.00    -0.275 OA
ATOM     16  N   UNL A   1      31.759  21.978  26.111  1.00  0.00    -0.350 N 
ATOM     17  H   UNL A   1      30.918  21.649  26.503  1.00  0.00     0.163 HD
BRANCH  16  18
ATOM     18  C   UNL A   1      32.201  21.108  25.022  1.00  0.00     0.177 C 
BRANCH  18  19
ATOM     19  C   UNL A   1      32.854  19.812  25.598  1.00  0.00     0.283 C 
BRANCH  19  20
ATOM     20  N   UNL A   1      33.118  18.890  24.511  1.00  0.00    -0.330 N 
ATOM     21  C   UNL A   1      32.582  19.170  23.191  1.00  0.00     0.291 C 
ATOM     22  C   UNL A   1      34.387  18.177  24.431  1.00  0.00     0.291 C 
ATOM     23  H   UNL A   1      32.483  18.214  24.937  1.00  0.00     0.348 HD
ATOM     24  C   UNL A   1      32.293  17.810  22.532  1.00  0.00     0.221 C 
ATOM     25  C   UNL A   1      34.122  16.845  23.693  1.00  0.00     0.221 C 
ATOM     26  O   UNL A   1      33.505  17.051  22.407  1.00  0.00    -0.370 OA
ENDBRANCH  19  20
ENDBRANCH  18  19
ENDBRANCH  16  18
ENDBRANCH  13  14
ENDBRANCH   3   6
ENDBRANCH   1   2
BRANCH   1  27
ATOM     27  C   UNL A   1      31.692  28.427  24.799  1.00  0.00     0.042 C 
BRANCH  27  28
ATOM     28  C   UNL A   1      32.918  29.197  25.293  1.00  0.00     0.118 C 
BRANCH  28  29
ATOM     29  N   UNL A   1      32.570  30.493  25.862  1.00  0.00    -0.352 N 
ATOM     30  C   UNL A   1      33.118  31.274  26.850  1.00  0.00     0.251 C 
ATOM     31  H   UNL A   1      31.771  30.894  25.450  1.00  0.00     0.163 HD
ATOM     32  O   UNL A   1      32.460  32.251  27.224  1.00  0.00    -0.269 OA
BRANCH  30  33
ATOM     33  C   UNL A   1      34.424  31.015  27.519  1.00  0.00     0.039 A 
ATOM     34  C   UNL A   1      34.665  29.712  27.983  1.00  0.00     0.014 A 
ATOM     35  C   UNL A   1      35.359  32.002  27.829  1.00  0.00     0.014 A 
ATOM     36  C   UNL A   1      35.827  29.397  28.706  1.00  0.00     0.010 A 
ATOM     37  C   UNL A   1      36.558  31.671  28.497  1.00  0.00     0.010 A 
ATOM     38  C   UNL A   1      36.813  30.365  28.951  1.00  0.00    -0.014 A 
BRANCH  38  39
ATOM     39  C   UNL A   1      38.072  30.008  29.691  1.00  0.00     0.031 A 
ATOM     40  C   UNL A   1      38.326  30.506  31.097  1.00  0.00     0.074 A 
ATOM     41  C   UNL A   1      39.017  29.230  29.119  1.00  0.00     0.049 A 
ATOM     42  N   UNL A   1      39.365  30.307  31.876  1.00  0.00    -0.248 NA
ATOM     43  C   UNL A   1      37.288  31.353  31.701  1.00  0.00     0.031 C 
ATOM     44  C   UNL A   1      38.963  28.688  27.761  1.00  0.00     0.029 A 
ATOM     45  N   UNL A   1      40.211  28.749  29.615  1.00  0.00    -0.354 N 
ATOM     46  C   UNL A   1      39.120  31.027  33.038  1.00  0.00     0.074 A 
ATOM     47  C   UNL A   1      37.851  31.698  32.850  1.00  0.00     0.031 C 
ATOM     48  C   UNL A   1      40.042  27.916  27.549  1.00  0.00     0.029 A 
ATOM     49  C   UNL A   1      40.894  27.939  28.738  1.00  0.00     0.049 A 
ATOM     50  H   UNL A   1      40.543  28.965  30.515  1.00  0.00     0.167 HD
ATOM     51  C   UNL A   1      39.863  31.113  34.171  1.00  0.00     0.037 A 
ATOM     52  C   UNL A   1      42.067  27.287  28.862  1.00  0.00     0.037 A 
ATOM     53  C   UNL A   1      41.098  30.414  34.414  1.00  0.00     0.049 A 
ATOM     54  C   UNL A   1      42.870  27.391  30.134  1.00  0.00     0.074 A 
ATOM     55  C   UNL A   1      41.859  30.390  35.572  1.00  0.00     0.029 A 
ATOM     56  N   UNL A   1      41.752  29.613  33.494  1.00  0.00    -0.354 N 
ATOM     57  N   UNL A   1      42.590  28.031  31.240  1.00  0.00    -0.248 NA
ATOM     58  C   UNL A   1      44.160  26.680  30.166  1.00  0.00     0.031 C 
ATOM     59  C   UNL A   1      42.994  29.604  35.341  1.00  0.00     0.029 A 
ATOM     60  C   UNL A   1      42.918  29.109  34.050  1.00  0.00     0.049 A 
ATOM     61  H   UNL A   1      41.436  29.429  32.580  1.00  0.00     0.167 HD
ATOM     62  C   UNL A   1      43.652  27.785  32.103  1.00  0.00     0.074 A 
ATOM     63  C   UNL A   1      44.576  26.923  31.400  1.00  0.00     0.031 C 
ATOM     64  C   UNL A   1      43.839  28.244  33.363  1.00  0.00     0.037 A 
BRANCH  51  65
ATOM     65  C   UNL A   1      39.351  32.005  35.266  1.00  0.00     0.064 A 
ATOM     66  C   UNL A   1      38.540  31.507  36.297  1.00  0.00     0.173 A 
ATOM     67  C   UNL A   1      39.726  33.356  35.315  1.00  0.00     0.173 A 
ATOM     68  F   UNL A   1      38.154  30.222  36.291  1.00  0.00    -0.203 F 
ATOM     69  C   UNL A   1      38.098  32.339  37.322  1.00  0.00     0.198 A 
ATOM     70  C   UNL A   1      39.303  34.178  36.356  1.00  0.00     0.198 A 
ATOM     71  F   UNL A   1      40.512  33.875  34.361  1.00  0.00    -0.203 F 
ATOM     72  F   UNL A   1      37.289  31.853  38.274  1.00  0.00    -0.200 F 
ATOM     73  C   UNL A   1      38.483  33.670  37.354  1.00  0.00     0.200 A 
ATOM     74  F   UNL A   1      39.689  35.460  36.395  1.00  0.00    -0.200 F 
ATOM     75  F   UNL A   1      38.063  34.468  38.346  1.00  0.00    -0.200 F 
ENDBRANCH  51  65
BRANCH  52  76
ATOM     76  C   UNL A   1      42.574  26.449  27.744  1.00  0.00     0.064 A 
ATOM     77  C   UNL A   1      43.492  26.967  26.817  1.00  0.00     0.173 A 
ATOM     78  C   UNL A   1      42.125  25.135  27.553  1.00  0.00     0.173 A 
ATOM     79  F   UNL A   1      43.926  28.230  26.941  1.00  0.00    -0.203 F 
ATOM     80  C   UNL A   1      43.928  26.209  25.734  1.00  0.00     0.198 A 
ATOM     81  C   UNL A   1      42.581  24.368  26.483  1.00  0.00     0.198 A 
ATOM     82  F   UNL A   1      41.246  24.596  28.408  1.00  0.00    -0.203 F 
ATOM     83  F   UNL A   1      44.767  26.744  24.837  1.00  0.00    -0.200 F 
ATOM     84  C   UNL A   1      43.475  24.907  25.570  1.00  0.00     0.200 A 
ATOM     85  F   UNL A   1      42.150  23.108  26.333  1.00  0.00    -0.200 F 
ATOM     86  F   UNL A   1      43.893  24.177  24.527  1.00  0.00    -0.200 F 
ENDBRANCH  52  76
BRANCH  64  87
ATOM     87  C   UNL A   1      45.081  27.808  34.088  1.00  0.00     0.064 A 
ATOM     88  C   UNL A   1      45.115  26.622  34.837  1.00  0.00     0.173 A 
ATOM     89  C   UNL A   1      46.261  28.563  34.000  1.00  0.00     0.173 A 
ATOM     90  F   UNL A   1      44.010  25.875  34.967  1.00  0.00    -0.203 F 
ATOM     91  C   UNL A   1      46.281  26.218  35.485  1.00  0.00     0.198 A 
ATOM     92  C   UNL A   1      47.431  28.142  34.629  1.00  0.00     0.198 A 
ATOM     93  F   UNL A   1      46.283  29.703  33.294  1.00  0.00    -0.203 F 
ATOM     94  F   UNL A   1      46.279  25.101  36.226  1.00  0.00    -0.200 F 
ATOM     95  C   UNL A   1      47.438  26.974  35.375  1.00  0.00     0.200 A 
ATOM     96  F   UNL A   1      48.551  28.869  34.514  1.00  0.00    -0.200 F 
ATOM     97  F   UNL A   1      48.560  26.578  35.993  1.00  0.00    -0.200 F 
ENDBRANCH  64  87
ENDBRANCH  38  39
ENDBRANCH  30  33
ENDBRANCH  28  29
ENDBRANCH  27  28
ENDBRANCH   1  27
TORSDOF 14
ENDMDL
MODEL 2
REMARK VINA RESULT:     -12.8      0.481      7.193
REMARK SMILES CC1=C(C)C[C@@H](C(=O)NCCCNC(=O)c2ccc(-c3c4nc(c(-c5c(F)c(F)c(F)c(F)c5F)c5ccc([nH]5)c(-c5c(F)c(F)c(F)c(F)c5F)c5nc(c(-c6c(F)c(F)c(F)c(F)c6F)c6ccc3[nH]6)C=C5)C=C4)cc2)[C@@H](C(=O)NCC[NH+]2CCOCC2)C1
REMARK SMILES IDX 10 1 9 2 7 3 8 4 6 6 1 7 2 8 3 9 91 10 4 11 5 12 79 13 80 14
REMARK SMILES IDX 81 15 82 16 83 18 84 19 85 20 86 21 90 22 87 24 89 25 88 26
REMARK SMILES IDX 11 27 12 28 13 29 14 30 15 32 16 33 17 34 78 35 18 36 77 37
REMARK SMILES IDX 19 38 20 39 21 40 71 41 22 42 76 43 70 44 72 45 23 46 75 47
REMARK SMILES IDX 69 48 68 49 24 51 56 52 36 53 55 54 37 55 40 56 54 57 73 58
REMARK SMILES IDX 38 59 39 60 53 62 74 63 41 64 25 65 26 66 34 67 27 68 28 69
REMARK SMILES IDX 32 70 35 71 29 72 30 73 33 74 31 75 57 76 58 77 66 78 59 79
REMARK SMILES IDX 60 80 64 81 67 82 61 83 62 84 65 85 63 86 42 87 43 88 51 89
REMARK SMILES IDX 44 90 45 91 49 92 52 93 46 94 47 95 50 96 48 97
REMARK H PARENT 9 5 82 17 85 23 13 31 72 50 40 61
REMARK Flexibility Score: inf
ROOT
ATOM      1  C   UNL A   1      31.148  27.113  25.178  1.00  0.00     0.117 C 
ENDROOT
BRANCH   1   2
ATOM      2  N   UNL A   1      31.223  25.969  24.289  1.00  0.00    -0.356 N 
ATOM      3  C   UNL A   1      32.118  24.955  24.165  1.00  0.00     0.224 C 
ATOM      4  O   UNL A   1      31.821  24.073  23.349  1.00  0.00    -0.275 OA
ATOM      5  H   UNL A   1      30.478  25.916  23.648  1.00  0.00     0.163 HD
BRANCH   3   6
ATOM      6  C   UNL A   1      33.417  24.828  24.975  1.00  0.00     0.095 C 
ATOM      7  C   UNL A   1      36.171  21.411  25.699  1.00  0.00     0.039 C 
ATOM      8  C   UNL A   1      35.392  22.674  25.451  1.00  0.00    -0.074 C 
ATOM      9  C   UNL A   1      35.433  23.356  24.289  1.00  0.00    -0.074 C 
ATOM     10  C   UNL A   1      34.633  23.232  26.627  1.00  0.00     0.045 C 
ATOM     11  C   UNL A   1      36.282  22.976  23.105  1.00  0.00     0.039 C 
ATOM     12  C   UNL A   1      34.670  24.649  24.107  1.00  0.00     0.045 C 
ATOM     13  C   UNL A   1      33.358  23.995  26.273  1.00  0.00     0.095 C 
BRANCH  13  14
ATOM     14  C   UNL A   1      32.043  23.278  26.526  1.00  0.00     0.224 C 
ATOM     15  O   UNL A   1      31.238  23.756  27.335  1.00  0.00    -0.275 OA
ATOM     16  N   UNL A   1      31.664  22.131  25.942  1.00  0.00    -0.350 N 
ATOM     17  H   UNL A   1      30.814  21.811  26.321  1.00  0.00     0.163 HD
BRANCH  16  18
ATOM     18  C   UNL A   1      32.147  21.219  24.907  1.00  0.00     0.177 C 
BRANCH  18  19
ATOM     19  C   UNL A   1      32.764  19.941  25.559  1.00  0.00     0.283 C 
BRANCH  19  20
ATOM     20  N   UNL A   1      33.090  18.987  24.518  1.00  0.00    -0.330 N 
ATOM     21  C   UNL A   1      32.547  19.170  23.185  1.00  0.00     0.291 C 
ATOM     22  C   UNL A   1      34.400  18.349  24.477  1.00  0.00     0.291 C 
ATOM     23  H   UNL A   1      32.495  18.294  24.974  1.00  0.00     0.348 HD
ATOM     24  C   UNL A   1      32.344  17.766  22.591  1.00  0.00     0.221 C 
ATOM     25  C   UNL A   1      34.221  16.970  23.802  1.00  0.00     0.221 C 
ATOM     26  O   UNL A   1      33.601  17.076  22.506  1.00  0.00    -0.370 OA
ENDBRANCH  19  20
ENDBRANCH  18  19
ENDBRANCH  16  18
ENDBRANCH  13  14
ENDBRANCH   3   6
ENDBRANCH   1   2
BRANCH   1  27
ATOM     27  C   UNL A   1      31.546  28.410  24.477  1.00  0.00     0.042 C 
BRANCH  27  28
ATOM     28  C   UNL A   1      32.715  29.175  25.099  1.00  0.00     0.118 C 
BRANCH  28  29
ATOM     29  N   UNL A   1      32.306  30.451  25.672  1.00  0.00    -0.352 N 
ATOM     30  C   UNL A   1      32.782  31.227  26.700  1.00  0.00     0.251 C 
ATOM     31  H   UNL A   1      31.519  30.839  25.226  1.00  0.00     0.163 HD
ATOM     32  O   UNL A   1      32.081  32.180  27.056  1.00  0.00    -0.269 OA
BRANCH  30  33
ATOM     33  C   UNL A   1      34.059  30.989  27.430  1.00  0.00     0.039 A 
ATOM     34  C   UNL A   1      34.291  29.694  27.919  1.00  0.00     0.014 A 
ATOM     35  C   UNL A   1      34.970  31.989  27.770  1.00  0.00     0.014 A 
ATOM     36  C   UNL A   1      35.422  29.399  28.698  1.00  0.00     0.010 A 
ATOM     37  C   UNL A   1      36.140  31.678  28.495  1.00  0.00     0.010 A 
ATOM     38  C   UNL A   1      36.387  30.379  28.976  1.00  0.00    -0.014 A 
BRANCH  38  39
ATOM     39  C   UNL A   1      37.614  30.044  29.776  1.00  0.00     0.031 A 
ATOM     40  C   UNL A   1      38.697  29.147  29.217  1.00  0.00     0.074 A 
ATOM     41  C   UNL A   1      37.787  30.537  31.022  1.00  0.00     0.049 A 
ATOM     42  N   UNL A   1      39.815  28.742  29.777  1.00  0.00    -0.248 NA
ATOM     43  C   UNL A   1      38.491  28.619  27.861  1.00  0.00     0.031 C 
ATOM     44  C   UNL A   1      36.836  31.387  31.738  1.00  0.00     0.029 A 
ATOM     45  N   UNL A   1      38.834  30.399  31.910  1.00  0.00    -0.354 N 
ATOM     46  C   UNL A   1      40.421  27.893  28.861  1.00  0.00     0.074 A 
ATOM     47  C   UNL A   1      39.531  27.810  27.721  1.00  0.00     0.031 C 
ATOM     48  C   UNL A   1      37.359  31.733  32.927  1.00  0.00     0.029 A 
ATOM     49  C   UNL A   1      38.665  31.095  33.084  1.00  0.00     0.049 A 
ATOM     50  H   UNL A   1      39.630  29.853  31.719  1.00  0.00     0.167 HD
ATOM     51  C   UNL A   1      41.615  27.253  28.938  1.00  0.00     0.037 A 
ATOM     52  C   UNL A   1      39.458  31.212  34.168  1.00  0.00     0.037 A 
ATOM     53  C   UNL A   1      42.550  27.360  30.028  1.00  0.00     0.049 A 
ATOM     54  C   UNL A   1      40.785  30.498  34.226  1.00  0.00     0.074 A 
ATOM     55  C   UNL A   1      43.815  26.804  30.133  1.00  0.00     0.029 A 
ATOM     56  N   UNL A   1      42.330  28.068  31.196  1.00  0.00    -0.354 N 
ATOM     57  N   UNL A   1      41.362  29.748  33.324  1.00  0.00    -0.248 NA
ATOM     58  C   UNL A   1      41.567  30.649  35.465  1.00  0.00     0.031 C 
ATOM     59  C   UNL A   1      44.348  27.146  31.381  1.00  0.00     0.029 A 
ATOM     60  C   UNL A   1      43.427  27.946  32.036  1.00  0.00     0.049 A 
ATOM     61  H   UNL A   1      41.516  28.582  31.400  1.00  0.00     0.167 HD
ATOM     62  C   UNL A   1      42.577  29.355  33.874  1.00  0.00     0.074 A 
ATOM     63  C   UNL A   1      42.665  29.963  35.182  1.00  0.00     0.031 C 
ATOM     64  C   UNL A   1      43.527  28.555  33.336  1.00  0.00     0.037 A 
BRANCH  51  65
ATOM     65  C   UNL A   1      41.999  26.365  27.788  1.00  0.00     0.064 A 
ATOM     66  C   UNL A   1      42.920  26.784  26.816  1.00  0.00     0.173 A 
ATOM     67  C   UNL A   1      41.484  25.064  27.693  1.00  0.00     0.173 A 
ATOM     68  F   UNL A   1      43.436  28.021  26.863  1.00  0.00    -0.203 F 
ATOM     69  C   UNL A   1      43.289  25.939  25.772  1.00  0.00     0.198 A 
ATOM     70  C   UNL A   1      41.876  24.213  26.663  1.00  0.00     0.198 A 
ATOM     71  F   UNL A   1      40.613  24.612  28.607  1.00  0.00    -0.203 F 
ATOM     72  F   UNL A   1      44.138  26.374  24.830  1.00  0.00    -0.200 F 
ATOM     73  C   UNL A   1      42.772  24.655  25.699  1.00  0.00     0.200 A 
ATOM     74  F   UNL A   1      41.389  22.966  26.602  1.00  0.00    -0.200 F 
ATOM     75  F   UNL A   1      43.135  23.840  24.698  1.00  0.00    -0.200 F 
ENDBRANCH  51  65
BRANCH  52  76
ATOM     76  C   UNL A   1      39.032  32.059  35.313  1.00  0.00     0.064 A 
ATOM     77  C   UNL A   1      39.374  33.419  35.366  1.00  0.00     0.173 A 
ATOM     78  C   UNL A   1      38.315  31.523  36.391  1.00  0.00     0.173 A 
ATOM     79  F   UNL A   1      40.088  33.968  34.372  1.00  0.00    -0.203 F 
ATOM     80  C   UNL A   1      39.029  34.206  36.461  1.00  0.00     0.198 A 
ATOM     81  C   UNL A   1      37.948  32.318  37.476  1.00  0.00     0.198 A 
ATOM     82  F   UNL A   1      37.967  30.229  36.390  1.00  0.00    -0.203 F 
ATOM     83  F   UNL A   1      39.410  35.489  36.509  1.00  0.00    -0.200 F 
ATOM     84  C   UNL A   1      38.313  33.656  37.515  1.00  0.00     0.200 A 
ATOM     85  F   UNL A   1      37.247  31.786  38.486  1.00  0.00    -0.200 F 
ATOM     86  F   UNL A   1      37.982  34.411  38.569  1.00  0.00    -0.200 F 
ENDBRANCH  52  76
BRANCH  64  87
ATOM     87  C   UNL A   1      44.767  28.300  34.146  1.00  0.00     0.064 A 
ATOM     88  C   UNL A   1      44.869  27.196  35.005  1.00  0.00     0.173 A 
ATOM     89  C   UNL A   1      45.881  29.146  34.031  1.00  0.00     0.173 A 
ATOM     90  F   UNL A   1      43.826  26.368  35.165  1.00  0.00    -0.203 F 
ATOM     91  C   UNL A   1      46.034  26.958  35.732  1.00  0.00     0.198 A 
ATOM     92  C   UNL A   1      47.053  28.891  34.740  1.00  0.00     0.198 A 
ATOM     93  F   UNL A   1      45.839  30.214  33.220  1.00  0.00    -0.203 F 
ATOM     94  F   UNL A   1      46.094  25.919  36.577  1.00  0.00    -0.200 F 
ATOM     95  C   UNL A   1      47.126  27.801  35.594  1.00  0.00     0.200 A 
ATOM     96  F   UNL A   1      48.111  29.701  34.599  1.00  0.00    -0.200 F 
ATOM     97  F   UNL A   1      48.248  27.566  36.289  1.00  0.00    -0.200 F 
ENDBRANCH  64  87
ENDBRANCH  38  39
ENDBRANCH  30  33
ENDBRANCH  28  29
ENDBRANCH  27  28
ENDBRANCH   1  27
TORSDOF 14
ENDMDL
MODEL 3
REMARK VINA RESULT:     -12.8      0.383      1.677
REMARK SMILES CC1=C(C)C[C@@H](C(=O)NCCCNC(=O)c2ccc(-c3c4nc(c(-c5c(F)c(F)c(F)c(F)c5F)c5ccc([nH]5)c(-c5c(F)c(F)c(F)c(F)c5F)c5nc(c(-c6c(F)c(F)c(F)c(F)c6F)c6ccc3[nH]6)C=C5)C=C4)cc2)[C@@H](C(=O)NCC[NH+]2CCOCC2)C1
REMARK SMILES IDX 10 1 9 2 7 3 8 4 6 6 1 7 2 8 3 9 91 10 4 11 5 12 79 13 80 14
REMARK SMILES IDX 81 15 82 16 83 18 84 19 85 20 86 21 90 22 87 24 89 25 88 26
REMARK SMILES IDX 11 27 12 28 13 29 14 30 15 32 16 33 17 34 78 35 18 36 77 37
REMARK SMILES IDX 19 38 20 39 21 40 71 41 22 42 76 43 70 44 72 45 23 46 75 47
REMARK SMILES IDX 69 48 68 49 24 51 56 52 36 53 55 54 37 55 40 56 54 57 73 58
REMARK SMILES IDX 38 59 39 60 53 62 74 63 41 64 25 65 26 66 34 67 27 68 28 69
REMARK SMILES IDX 32 70 35 71 29 72 30 73 33 74 31 75 57 76 58 77 66 78 59 79
REMARK SMILES IDX 60 80 64 81 67 82 61 83 62 84 65 85 63 86 42 87 43 88 51 89
REMARK SMILES IDX 44 90 45 91 49 92 52 93 46 94 47 95 50 96 48 97
REMARK H PARENT 9 5 82 17 85 23 13 31 72 50 40 61
REMARK Flexibility Score: inf
ROOT
ATOM      1  C   UNL A   1      31.350  27.058  25.578  1.00  0.00     0.117 C 
ENDROOT
BRANCH   1   2
ATOM      2  N   UNL A   1      31.353  25.949  24.642  1.00  0.00    -0.356 N 
ATOM      3  C   UNL A   1      32.204  24.908  24.449  1.00  0.00     0.224 C 
ATOM      4  O   UNL A   1      31.847  24.073  23.609  1.00  0.00    -0.275 OA
ATOM      5  H   UNL A   1      30.586  25.951  24.024  1.00  0.00     0.163 HD
BRANCH   3   6
ATOM      6  C   UNL A   1      33.521  24.700  25.210  1.00  0.00     0.095 C 
ATOM      7  C   UNL A   1      36.234  21.196  25.595  1.00  0.00     0.039 C 
ATOM      8  C   UNL A   1      35.470  22.486  25.465  1.00  0.00    -0.074 C 
ATOM      9  C   UNL A   1      35.492  23.255  24.358  1.00  0.00    -0.074 C 
ATOM     10  C   UNL A   1      34.753  22.964  26.702  1.00  0.00     0.045 C 
ATOM     11  C   UNL A   1      36.302  22.953  23.125  1.00  0.00     0.039 C 
ATOM     12  C   UNL A   1      34.747  24.569  24.297  1.00  0.00     0.045 C 
ATOM     13  C   UNL A   1      33.482  23.771  26.442  1.00  0.00     0.095 C 
BRANCH  13  14
ATOM     14  C   UNL A   1      32.162  23.058  26.676  1.00  0.00     0.224 C 
ATOM     15  O   UNL A   1      31.326  23.562  27.435  1.00  0.00    -0.275 OA
ATOM     16  N   UNL A   1      31.810  21.886  26.126  1.00  0.00    -0.350 N 
ATOM     17  H   UNL A   1      30.948  21.576  26.486  1.00  0.00     0.163 HD
BRANCH  16  18
ATOM     18  C   UNL A   1      32.334  20.935  25.147  1.00  0.00     0.177 C 
BRANCH  18  19
ATOM     19  C   UNL A   1      32.970  19.708  25.874  1.00  0.00     0.283 C 
BRANCH  19  20
ATOM     20  N   UNL A   1      33.006  18.582  24.961  1.00  0.00    -0.330 N 
ATOM     21  C   UNL A   1      32.779  17.242  25.470  1.00  0.00     0.291 C 
ATOM     22  C   UNL A   1      32.528  18.720  23.591  1.00  0.00     0.291 C 
ATOM     23  H   UNL A   1      34.017  18.687  24.879  1.00  0.00     0.348 HD
ATOM     24  C   UNL A   1      33.620  16.289  24.605  1.00  0.00     0.221 C 
ATOM     25  C   UNL A   1      33.308  17.703  22.726  1.00  0.00     0.221 C 
ATOM     26  O   UNL A   1      33.197  16.360  23.234  1.00  0.00    -0.370 OA
ENDBRANCH  19  20
ENDBRANCH  18  19
ENDBRANCH  16  18
ENDBRANCH  13  14
ENDBRANCH   3   6
ENDBRANCH   1   2
BRANCH   1  27
ATOM     27  C   UNL A   1      31.582  28.397  24.881  1.00  0.00     0.042 C 
BRANCH  27  28
ATOM     28  C   UNL A   1      32.826  29.171  25.317  1.00  0.00     0.118 C 
BRANCH  28  29
ATOM     29  N   UNL A   1      32.502  30.473  25.888  1.00  0.00    -0.352 N 
ATOM     30  C   UNL A   1      33.063  31.242  26.877  1.00  0.00     0.251 C 
ATOM     31  H   UNL A   1      31.712  30.889  25.474  1.00  0.00     0.163 HD
ATOM     32  O   UNL A   1      32.423  32.231  27.251  1.00  0.00    -0.269 OA
BRANCH  30  33
ATOM     33  C   UNL A   1      34.363  30.958  27.547  1.00  0.00     0.039 A 
ATOM     34  C   UNL A   1      34.564  29.659  28.042  1.00  0.00     0.014 A 
ATOM     35  C   UNL A   1      35.330  31.922  27.830  1.00  0.00     0.014 A 
ATOM     36  C   UNL A   1      35.719  29.326  28.770  1.00  0.00     0.010 A 
ATOM     37  C   UNL A   1      36.521  31.569  28.502  1.00  0.00     0.010 A 
ATOM     38  C   UNL A   1      36.736  30.267  28.987  1.00  0.00    -0.014 A 
BRANCH  38  39
ATOM     39  C   UNL A   1      37.986  29.889  29.731  1.00  0.00     0.031 A 
ATOM     40  C   UNL A   1      38.246  30.386  31.136  1.00  0.00     0.074 A 
ATOM     41  C   UNL A   1      38.917  29.090  29.164  1.00  0.00     0.049 A 
ATOM     42  N   UNL A   1      39.279  30.169  31.918  1.00  0.00    -0.248 NA
ATOM     43  C   UNL A   1      37.224  31.255  31.735  1.00  0.00     0.031 C 
ATOM     44  C   UNL A   1      38.856  28.544  27.808  1.00  0.00     0.029 A 
ATOM     45  N   UNL A   1      40.100  28.587  29.665  1.00  0.00    -0.354 N 
ATOM     46  C   UNL A   1      39.046  30.898  33.078  1.00  0.00     0.074 A 
ATOM     47  C   UNL A   1      37.790  31.593  32.884  1.00  0.00     0.031 C 
ATOM     48  C   UNL A   1      39.920  27.751  27.601  1.00  0.00     0.029 A 
ATOM     49  C   UNL A   1      40.769  27.761  28.792  1.00  0.00     0.049 A 
ATOM     50  H   UNL A   1      40.435  28.800  30.565  1.00  0.00     0.167 HD
ATOM     51  C   UNL A   1      39.787  30.974  34.212  1.00  0.00     0.037 A 
ATOM     52  C   UNL A   1      41.930  27.088  28.921  1.00  0.00     0.037 A 
ATOM     53  C   UNL A   1      41.008  30.251  34.460  1.00  0.00     0.049 A 
ATOM     54  C   UNL A   1      42.731  27.180  30.195  1.00  0.00     0.074 A 
ATOM     55  C   UNL A   1      41.766  30.217  35.620  1.00  0.00     0.029 A 
ATOM     56  N   UNL A   1      41.649  29.435  33.544  1.00  0.00    -0.354 N 
ATOM     57  N   UNL A   1      42.461  27.829  31.298  1.00  0.00    -0.248 NA
ATOM     58  C   UNL A   1      44.006  26.444  30.233  1.00  0.00     0.031 C 
ATOM     59  C   UNL A   1      42.886  29.408  35.394  1.00  0.00     0.029 A 
ATOM     60  C   UNL A   1      42.803  28.910  34.105  1.00  0.00     0.049 A 
ATOM     61  H   UNL A   1      41.331  29.254  32.630  1.00  0.00     0.167 HD
ATOM     62  C   UNL A   1      43.516  27.566  32.164  1.00  0.00     0.074 A 
ATOM     63  C   UNL A   1      44.425  26.683  31.467  1.00  0.00     0.031 C 
ATOM     64  C   UNL A   1      43.709  28.025  33.423  1.00  0.00     0.037 A 
BRANCH  51  65
ATOM     65  C   UNL A   1      39.290  31.879  35.303  1.00  0.00     0.064 A 
ATOM     66  C   UNL A   1      39.589  33.249  35.311  1.00  0.00     0.173 A 
ATOM     67  C   UNL A   1      38.460  31.378  36.317  1.00  0.00     0.173 A 
ATOM     68  F   UNL A   1      40.383  33.772  34.364  1.00  0.00    -0.203 F 
ATOM     69  C   UNL A   1      39.097  34.081  36.313  1.00  0.00     0.198 A 
ATOM     70  C   UNL A   1      37.948  32.219  37.302  1.00  0.00     0.198 A 
ATOM     71  F   UNL A   1      38.133  30.078  36.344  1.00  0.00    -0.203 F 
ATOM     72  F   UNL A   1      39.430  35.380  36.325  1.00  0.00    -0.200 F 
ATOM     73  C   UNL A   1      38.274  33.567  37.303  1.00  0.00     0.200 A 
ATOM     74  F   UNL A   1      37.139  31.725  38.249  1.00  0.00    -0.200 F 
ATOM     75  F   UNL A   1      37.795  34.372  38.262  1.00  0.00    -0.200 F 
ENDBRANCH  51  65
BRANCH  52  76
ATOM     76  C   UNL A   1      42.423  26.236  27.807  1.00  0.00     0.064 A 
ATOM     77  C   UNL A   1      43.398  26.712  26.918  1.00  0.00     0.173 A 
ATOM     78  C   UNL A   1      41.904  24.953  27.583  1.00  0.00     0.173 A 
ATOM     79  F   UNL A   1      43.900  27.945  27.074  1.00  0.00    -0.203 F 
ATOM     80  C   UNL A   1      43.824  25.943  25.837  1.00  0.00     0.198 A 
ATOM     81  C   UNL A   1      42.350  24.174  26.516  1.00  0.00     0.198 A 
ATOM     82  F   UNL A   1      40.968  24.455  28.402  1.00  0.00    -0.203 F 
ATOM     83  F   UNL A   1      44.721  26.440  24.975  1.00  0.00    -0.200 F 
ATOM     84  C   UNL A   1      43.302  24.673  25.639  1.00  0.00     0.200 A 
ATOM     85  F   UNL A   1      41.851  22.944  26.334  1.00  0.00    -0.200 F 
ATOM     86  F   UNL A   1      43.710  23.933  24.600  1.00  0.00    -0.200 F 
ENDBRANCH  52  76
BRANCH  64  87
ATOM     87  C   UNL A   1      44.940  27.568  34.152  1.00  0.00     0.064 A 
ATOM     88  C   UNL A   1      46.136  28.300  34.105  1.00  0.00     0.173 A 
ATOM     89  C   UNL A   1      44.914  26.408  34.941  1.00  0.00     0.173 A 
ATOM     90  F   UNL A   1      46.220  29.406  33.350  1.00  0.00    -0.203 F 
ATOM     91  C   UNL A   1      47.264  27.878  34.806  1.00  0.00     0.198 A 
ATOM     92  C   UNL A   1      46.036  26.002  35.661  1.00  0.00     0.198 A 
ATOM     93  F   UNL A   1      43.795  25.673  35.025  1.00  0.00    -0.203 F 
ATOM     94  F   UNL A   1      48.407  28.573  34.714  1.00  0.00    -0.200 F 
ATOM     95  C   UNL A   1      47.211  26.734  35.588  1.00  0.00     0.200 A 
ATOM     96  F   UNL A   1      45.980  24.901  36.424  1.00  0.00    -0.200 F 
ATOM     97  F   UNL A   1      48.295  26.334  36.267  1.00  0.00    -0.200 F 
ENDBRANCH  64  87
ENDBRANCH  38  39
ENDBRANCH  30  33
ENDBRANCH  28  29
ENDBRANCH  27  28
ENDBRANCH   1  27
TORSDOF 14
ENDMDL
