MODEL 1
REMARK VINA RESULT:     -13.3      0.000      0.000
REMARK SMILES O=C(COc1ccccc1/C=N\N1CC[NH+](Cc2ccc(Cl)cc2)CC1)NCCCNC(=O)c1ccc(-c2c3nc(c(-c4c(F)c(F)c(F)c(F)c4F)c4ccc([nH]4)c(-c4c(F)c(F)c(F)c(F)c4F)c4nc(c(-c5c(F)c(F)c(F)c(F)c5F)c5ccc2[nH]5)C=C4)C=C3)cc1
REMARK SMILES IDX 1 1 2 2 27 3 3 5 4 6 5 7 6 8 10 9 7 10 9 11 8 12 11 13 12 14
REMARK SMILES IDX 13 15 14 16 26 17 15 18 25 19 16 20 17 22 18 23 19 24 24 25
REMARK SMILES IDX 20 26 23 27 21 28 22 29 28 30 29 31 30 32 31 33 32 34 33 36
REMARK SMILES IDX 34 37 35 38 96 39 36 40 95 41 37 42 38 43 39 44 89 45 40 46
REMARK SMILES IDX 94 47 88 48 90 49 41 50 93 51 87 52 86 53 42 55 74 56 54 57
REMARK SMILES IDX 73 58 55 59 58 60 72 61 91 62 56 63 57 64 71 66 92 67 59 68
REMARK SMILES IDX 43 69 44 70 52 71 45 72 46 73 50 74 53 75 47 76 48 77 51 78
REMARK SMILES IDX 49 79 75 80 76 81 84 82 77 83 78 84 82 85 85 86 79 87 80 88
REMARK SMILES IDX 83 89 81 90 60 91 61 92 69 93 62 94 63 95 67 96 70 97 64 98
REMARK SMILES IDX 65 99 68 100 66 101
REMARK H PARENT 27 4 16 21 31 35 90 54 58 65
REMARK Flexibility Score: inf
ROOT
ATOM      1  O   UNL A   1      33.492  28.009  26.807  1.00  0.00    -0.271 OA
ATOM      2  C   UNL A   1      33.601  28.810  25.885  1.00  0.00     0.257 C 
ATOM      3  N   UNL A   1      33.149  30.116  25.951  1.00  0.00    -0.353 N 
ATOM      4  H   UNL A   1      33.587  30.804  25.398  1.00  0.00     0.163 HD
ENDROOT
BRANCH   2   5
ATOM      5  C   UNL A   1      34.125  28.400  24.495  1.00  0.00     0.329 C 
BRANCH   5   6
ATOM      6  O   UNL A   1      33.344  28.925  23.427  1.00  0.00    -0.483 OA
BRANCH   6   7
ATOM      7  C   UNL A   1      32.205  28.269  23.015  1.00  0.00     0.128 A 
ATOM      8  C   UNL A   1      31.033  28.994  23.280  1.00  0.00     0.047 A 
ATOM      9  C   UNL A   1      32.113  26.890  22.739  1.00  0.00     0.037 A 
ATOM     10  C   UNL A   1      29.795  28.356  23.354  1.00  0.00     0.004 A 
ATOM     11  C   UNL A   1      30.886  26.250  22.958  1.00  0.00     0.013 A 
ATOM     12  C   UNL A   1      29.732  26.974  23.253  1.00  0.00     0.001 A 
BRANCH   9  13
ATOM     13  C   UNL A   1      33.257  26.168  22.139  1.00  0.00     0.145 C 
ATOM     14  N   UNL A   1      33.852  25.032  22.362  1.00  0.00    -0.185 NA
BRANCH  14  15
ATOM     15  N   UNL A   1      33.338  24.152  23.244  1.00  0.00    -0.286 NA
ATOM     16  C   UNL A   1      34.210  23.956  24.429  1.00  0.00     0.200 C 
ATOM     17  C   UNL A   1      33.094  22.825  22.624  1.00  0.00     0.200 C 
ATOM     18  C   UNL A   1      33.748  22.846  25.400  1.00  0.00     0.286 C 
ATOM     19  C   UNL A   1      32.523  21.793  23.608  1.00  0.00     0.286 C 
ATOM     20  N   UNL A   1      33.336  21.567  24.805  1.00  0.00    -0.328 N 
ATOM     21  H   UNL A   1      32.738  21.117  25.497  1.00  0.00     0.348 HD
BRANCH  20  22
ATOM     22  C   UNL A   1      34.383  20.545  24.667  1.00  0.00     0.299 C 
BRANCH  22  23
ATOM     23  C   UNL A   1      33.959  19.093  24.740  1.00  0.00     0.006 A 
ATOM     24  C   UNL A   1      34.832  18.071  24.326  1.00  0.00     0.011 A 
ATOM     25  C   UNL A   1      32.715  18.739  25.279  1.00  0.00     0.011 A 
ATOM     26  C   UNL A   1      34.509  16.729  24.545  1.00  0.00     0.021 A 
ATOM     27  C   UNL A   1      32.392  17.397  25.497  1.00  0.00     0.021 A 
ATOM     28  C   UNL A   1      33.298  16.400  25.147  1.00  0.00     0.041 A 
ATOM     29  Cl  UNL A   1      32.929  14.753  25.481  1.00  0.00    -0.084 Cl
ENDBRANCH  22  23
ENDBRANCH  20  22
ENDBRANCH  14  15
ENDBRANCH   9  13
ENDBRANCH   6   7
ENDBRANCH   5   6
ENDBRANCH   2   5
BRANCH   3  30
ATOM     30  C   UNL A   1      32.049  30.497  26.815  1.00  0.00     0.117 C 
BRANCH  30  31
ATOM     31  C   UNL A   1      31.729  31.975  26.818  1.00  0.00     0.042 C 
BRANCH  31  32
ATOM     32  C   UNL A   1      32.891  32.855  27.243  1.00  0.00     0.118 C 
BRANCH  32  33
ATOM     33  N   UNL A   1      32.508  34.207  27.638  1.00  0.00    -0.352 N 
ATOM     34  C   UNL A   1      33.029  34.998  28.636  1.00  0.00     0.251 C 
ATOM     35  H   UNL A   1      31.776  34.610  27.117  1.00  0.00     0.163 HD
ATOM     36  O   UNL A   1      32.545  36.098  28.883  1.00  0.00    -0.269 OA
BRANCH  34  37
ATOM     37  C   UNL A   1      34.149  34.485  29.455  1.00  0.00     0.039 A 
ATOM     38  C   UNL A   1      33.868  33.837  30.660  1.00  0.00     0.014 A 
ATOM     39  C   UNL A   1      35.464  34.573  28.992  1.00  0.00     0.014 A 
ATOM     40  C   UNL A   1      34.891  33.178  31.345  1.00  0.00     0.010 A 
ATOM     41  C   UNL A   1      36.462  33.843  29.624  1.00  0.00     0.010 A 
ATOM     42  C   UNL A   1      36.183  33.126  30.799  1.00  0.00    -0.014 A 
BRANCH  42  43
ATOM     43  C   UNL A   1      37.268  32.316  31.411  1.00  0.00     0.031 A 
ATOM     44  C   UNL A   1      37.783  32.675  32.776  1.00  0.00     0.074 A 
ATOM     45  C   UNL A   1      37.866  31.342  30.698  1.00  0.00     0.049 A 
ATOM     46  N   UNL A   1      38.836  32.227  33.409  1.00  0.00    -0.248 NA
ATOM     47  C   UNL A   1      37.031  33.705  33.510  1.00  0.00     0.031 C 
ATOM     48  C   UNL A   1      37.489  30.925  29.345  1.00  0.00     0.029 A 
ATOM     49  N   UNL A   1      38.941  30.542  31.002  1.00  0.00    -0.354 N 
ATOM     50  C   UNL A   1      38.893  32.945  34.596  1.00  0.00     0.074 A 
ATOM     51  C   UNL A   1      37.792  33.883  34.579  1.00  0.00     0.031 C 
ATOM     52  C   UNL A   1      38.310  29.942  28.943  1.00  0.00     0.029 A 
ATOM     53  C   UNL A   1      39.300  29.691  29.985  1.00  0.00     0.049 A 
ATOM     54  H   UNL A   1      39.409  30.576  31.867  1.00  0.00     0.167 HD
ATOM     55  C   UNL A   1      39.775  32.820  35.616  1.00  0.00     0.037 A 
ATOM     56  C   UNL A   1      40.323  28.820  29.897  1.00  0.00     0.037 A 
ATOM     57  C   UNL A   1      40.842  31.855  35.649  1.00  0.00     0.049 A 
ATOM     58  C   UNL A   1      41.281  28.690  31.050  1.00  0.00     0.074 A 
ATOM     59  C   UNL A   1      41.749  31.608  36.665  1.00  0.00     0.029 A 
ATOM     60  N   UNL A   1      41.139  30.974  34.621  1.00  0.00    -0.354 N 
ATOM     61  N   UNL A   1      41.297  29.339  32.188  1.00  0.00    -0.248 NA
ATOM     62  C   UNL A   1      42.364  27.705  30.907  1.00  0.00     0.031 C 
ATOM     63  C   UNL A   1      42.618  30.598  36.237  1.00  0.00     0.029 A 
ATOM     64  C   UNL A   1      42.223  30.188  34.973  1.00  0.00     0.049 A 
ATOM     65  H   UNL A   1      40.652  30.917  33.766  1.00  0.00     0.167 HD
ATOM     66  C   UNL A   1      42.363  28.820  32.909  1.00  0.00     0.074 A 
ATOM     67  C   UNL A   1      42.971  27.798  32.082  1.00  0.00     0.031 C 
ATOM     68  C   UNL A   1      42.797  29.157  34.148  1.00  0.00     0.037 A 
BRANCH  55  69
ATOM     69  C   UNL A   1      39.617  33.746  36.785  1.00  0.00     0.064 A 
ATOM     70  C   UNL A   1      40.205  35.020  36.798  1.00  0.00     0.173 A 
ATOM     71  C   UNL A   1      38.843  33.369  37.892  1.00  0.00     0.173 A 
ATOM     72  F   UNL A   1      40.966  35.423  35.769  1.00  0.00    -0.203 F 
ATOM     73  C   UNL A   1      40.048  35.870  37.888  1.00  0.00     0.198 A 
ATOM     74  C   UNL A   1      38.663  34.234  38.968  1.00  0.00     0.198 A 
ATOM     75  F   UNL A   1      38.255  32.163  37.928  1.00  0.00    -0.203 F 
ATOM     76  F   UNL A   1      40.659  37.062  37.900  1.00  0.00    -0.200 F 
ATOM     77  C   UNL A   1      39.272  35.480  38.969  1.00  0.00     0.200 A 
ATOM     78  F   UNL A   1      37.903  33.860  40.007  1.00  0.00    -0.200 F 
ATOM     79  F   UNL A   1      39.115  36.302  40.016  1.00  0.00    -0.200 F 
ENDBRANCH  55  69
BRANCH  56  80
ATOM     80  C   UNL A   1      40.486  27.987  28.677  1.00  0.00     0.064 A 
ATOM     81  C   UNL A   1      41.257  28.442  27.598  1.00  0.00     0.173 A 
ATOM     82  C   UNL A   1      39.880  26.727  28.562  1.00  0.00     0.173 A 
ATOM     83  F   UNL A   1      41.837  29.650  27.655  1.00  0.00    -0.203 F 
ATOM     84  C   UNL A   1      41.401  27.678  26.443  1.00  0.00     0.198 A 
ATOM     85  C   UNL A   1      40.046  25.953  27.415  1.00  0.00     0.198 A 
ATOM     86  F   UNL A   1      39.136  26.245  29.567  1.00  0.00    -0.203 F 
ATOM     87  F   UNL A   1      42.107  28.156  25.410  1.00  0.00    -0.200 F 
ATOM     88  C   UNL A   1      40.800  26.432  26.354  1.00  0.00     0.200 A 
ATOM     89  F   UNL A   1      39.474  24.744  27.337  1.00  0.00    -0.200 F 
ATOM     90  F   UNL A   1      40.941  25.696  25.243  1.00  0.00    -0.200 F 
ENDBRANCH  56  80
BRANCH  68  91
ATOM     91  C   UNL A   1      43.949  28.381  34.714  1.00  0.00     0.064 A 
ATOM     92  C   UNL A   1      43.758  27.178  35.406  1.00  0.00     0.173 A 
ATOM     93  C   UNL A   1      45.265  28.818  34.498  1.00  0.00     0.173 A 
ATOM     94  F   UNL A   1      42.517  26.729  35.649  1.00  0.00    -0.203 F 
ATOM     95  C   UNL A   1      44.844  26.445  35.874  1.00  0.00     0.198 A 
ATOM     96  C   UNL A   1      46.350  28.070  34.945  1.00  0.00     0.198 A 
ATOM     97  F   UNL A   1      45.499  29.961  33.836  1.00  0.00    -0.203 F 
ATOM     98  F   UNL A   1      44.640  25.311  36.560  1.00  0.00    -0.200 F 
ATOM     99  C   UNL A   1      46.138  26.886  35.635  1.00  0.00     0.200 A 
ATOM    100  F   UNL A   1      47.598  28.491  34.703  1.00  0.00    -0.200 F 
ATOM    101  F   UNL A   1      47.183  26.169  36.074  1.00  0.00    -0.200 F 
ENDBRANCH  68  91
ENDBRANCH  42  43
ENDBRANCH  34  37
ENDBRANCH  32  33
ENDBRANCH  31  32
ENDBRANCH  30  31
ENDBRANCH   3  30
TORSDOF 16
ENDMDL
MODEL 2
REMARK VINA RESULT:     -13.3      0.485      7.133
REMARK SMILES O=C(COc1ccccc1/C=N\N1CC[NH+](Cc2ccc(Cl)cc2)CC1)NCCCNC(=O)c1ccc(-c2c3nc(c(-c4c(F)c(F)c(F)c(F)c4F)c4ccc([nH]4)c(-c4c(F)c(F)c(F)c(F)c4F)c4nc(c(-c5c(F)c(F)c(F)c(F)c5F)c5ccc2[nH]5)C=C4)C=C3)cc1
REMARK SMILES IDX 1 1 2 2 27 3 3 5 4 6 5 7 6 8 10 9 7 10 9 11 8 12 11 13 12 14
REMARK SMILES IDX 13 15 14 16 26 17 15 18 25 19 16 20 17 22 18 23 19 24 24 25
REMARK SMILES IDX 20 26 23 27 21 28 22 29 28 30 29 31 30 32 31 33 32 34 33 36
REMARK SMILES IDX 34 37 35 38 96 39 36 40 95 41 37 42 38 43 39 44 89 45 40 46
REMARK SMILES IDX 94 47 88 48 90 49 41 50 93 51 87 52 86 53 42 55 74 56 54 57
REMARK SMILES IDX 73 58 55 59 58 60 72 61 91 62 56 63 57 64 71 66 92 67 59 68
REMARK SMILES IDX 43 69 44 70 52 71 45 72 46 73 50 74 53 75 47 76 48 77 51 78
REMARK SMILES IDX 49 79 75 80 76 81 84 82 77 83 78 84 82 85 85 86 79 87 80 88
REMARK SMILES IDX 83 89 81 90 60 91 61 92 69 93 62 94 63 95 67 96 70 97 64 98
REMARK SMILES IDX 65 99 68 100 66 101
REMARK H PARENT 27 4 16 21 31 35 90 54 58 65
REMARK Flexibility Score: inf
ROOT
ATOM      1  O   UNL A   1      33.712  27.512  26.201  1.00  0.00    -0.271 OA
ATOM      2  C   UNL A   1      33.800  28.447  25.412  1.00  0.00     0.257 C 
ATOM      3  N   UNL A   1      33.427  29.743  25.720  1.00  0.00    -0.353 N 
ATOM      4  H   UNL A   1      33.861  30.492  25.250  1.00  0.00     0.163 HD
ENDROOT
BRANCH   2   5
ATOM      5  C   UNL A   1      34.201  28.246  23.937  1.00  0.00     0.329 C 
BRANCH   5   6
ATOM      6  O   UNL A   1      33.239  28.760  23.023  1.00  0.00    -0.483 OA
BRANCH   6   7
ATOM      7  C   UNL A   1      32.044  28.100  22.831  1.00  0.00     0.128 A 
ATOM      8  C   UNL A   1      30.932  28.864  23.216  1.00  0.00     0.047 A 
ATOM      9  C   UNL A   1      31.899  26.708  22.666  1.00  0.00     0.037 A 
ATOM     10  C   UNL A   1      29.714  28.257  23.517  1.00  0.00     0.004 A 
ATOM     11  C   UNL A   1      30.713  26.108  23.109  1.00  0.00     0.013 A 
ATOM     12  C   UNL A   1      29.623  26.873  23.521  1.00  0.00     0.001 A 
BRANCH   9  13
ATOM     13  C   UNL A   1      32.934  25.926  21.955  1.00  0.00     0.145 C 
ATOM     14  N   UNL A   1      33.540  24.792  22.160  1.00  0.00    -0.185 NA
BRANCH  14  15
ATOM     15  N   UNL A   1      33.148  23.979  23.162  1.00  0.00    -0.286 NA
ATOM     16  C   UNL A   1      34.181  23.836  24.218  1.00  0.00     0.200 C 
ATOM     17  C   UNL A   1      32.799  22.622  22.669  1.00  0.00     0.200 C 
ATOM     18  C   UNL A   1      33.851  22.798  25.314  1.00  0.00     0.286 C 
ATOM     19  C   UNL A   1      32.364  21.665  23.788  1.00  0.00     0.286 C 
ATOM     20  N   UNL A   1      33.340  21.494  24.867  1.00  0.00    -0.328 N 
ATOM     21  H   UNL A   1      32.843  21.100  25.665  1.00  0.00     0.348 HD
BRANCH  20  22
ATOM     22  C   UNL A   1      34.342  20.443  24.644  1.00  0.00     0.299 C 
BRANCH  22  23
ATOM     23  C   UNL A   1      33.881  19.004  24.738  1.00  0.00     0.006 A 
ATOM     24  C   UNL A   1      34.561  17.988  24.042  1.00  0.00     0.011 A 
ATOM     25  C   UNL A   1      32.809  18.650  25.568  1.00  0.00     0.011 A 
ATOM     26  C   UNL A   1      34.241  16.645  24.256  1.00  0.00     0.021 A 
ATOM     27  C   UNL A   1      32.488  17.308  25.780  1.00  0.00     0.021 A 
ATOM     28  C   UNL A   1      33.218  16.310  25.140  1.00  0.00     0.041 A 
ATOM     29  Cl  UNL A   1      32.869  14.656  25.457  1.00  0.00    -0.084 Cl
ENDBRANCH  22  23
ENDBRANCH  20  22
ENDBRANCH  14  15
ENDBRANCH   9  13
ENDBRANCH   6   7
ENDBRANCH   5   6
ENDBRANCH   2   5
BRANCH   3  30
ATOM     30  C   UNL A   1      32.413  30.026  26.717  1.00  0.00     0.117 C 
BRANCH  30  31
ATOM     31  C   UNL A   1      31.984  31.475  26.791  1.00  0.00     0.042 C 
BRANCH  31  32
ATOM     32  C   UNL A   1      32.989  32.379  27.481  1.00  0.00     0.118 C 
BRANCH  32  33
ATOM     33  N   UNL A   1      32.532  33.753  27.668  1.00  0.00    -0.352 N 
ATOM     34  C   UNL A   1      33.043  34.731  28.491  1.00  0.00     0.251 C 
ATOM     35  H   UNL A   1      31.751  34.017  27.130  1.00  0.00     0.163 HD
ATOM     36  O   UNL A   1      32.495  35.825  28.579  1.00  0.00    -0.269 OA
BRANCH  34  37
ATOM     37  C   UNL A   1      34.232  34.432  29.318  1.00  0.00     0.039 A 
ATOM     38  C   UNL A   1      34.054  33.873  30.586  1.00  0.00     0.014 A 
ATOM     39  C   UNL A   1      35.517  34.627  28.808  1.00  0.00     0.014 A 
ATOM     40  C   UNL A   1      35.161  33.405  31.297  1.00  0.00     0.010 A 
ATOM     41  C   UNL A   1      36.607  34.081  29.474  1.00  0.00     0.010 A 
ATOM     42  C   UNL A   1      36.439  33.452  30.718  1.00  0.00    -0.014 A 
BRANCH  42  43
ATOM     43  C   UNL A   1      37.624  32.835  31.369  1.00  0.00     0.031 A 
ATOM     44  C   UNL A   1      38.314  31.675  30.709  1.00  0.00     0.074 A 
ATOM     45  C   UNL A   1      38.002  33.236  32.598  1.00  0.00     0.049 A 
ATOM     46  N   UNL A   1      39.235  30.877  31.185  1.00  0.00    -0.248 NA
ATOM     47  C   UNL A   1      37.880  31.346  29.342  1.00  0.00     0.031 C 
ATOM     48  C   UNL A   1      37.388  34.322  33.365  1.00  0.00     0.029 A 
ATOM     49  N   UNL A   1      38.981  32.756  33.433  1.00  0.00    -0.354 N 
ATOM     50  C   UNL A   1      39.463  29.934  30.193  1.00  0.00     0.074 A 
ATOM     51  C   UNL A   1      38.559  30.234  29.105  1.00  0.00     0.031 C 
ATOM     52  C   UNL A   1      38.009  34.431  34.549  1.00  0.00     0.029 A 
ATOM     53  C   UNL A   1      39.033  33.396  34.648  1.00  0.00     0.049 A 
ATOM     54  H   UNL A   1      39.588  32.021  33.185  1.00  0.00     0.167 HD
ATOM     55  C   UNL A   1      40.359  28.919  30.185  1.00  0.00     0.037 A 
ATOM     56  C   UNL A   1      39.806  33.162  35.725  1.00  0.00     0.037 A 
ATOM     57  C   UNL A   1      41.287  28.650  31.251  1.00  0.00     0.049 A 
ATOM     58  C   UNL A   1      40.804  32.036  35.686  1.00  0.00     0.074 A 
ATOM     59  C   UNL A   1      42.277  27.685  31.310  1.00  0.00     0.029 A 
ATOM     60  N   UNL A   1      41.343  29.356  32.443  1.00  0.00    -0.354 N 
ATOM     61  N   UNL A   1      41.045  31.180  34.724  1.00  0.00    -0.248 NA
ATOM     62  C   UNL A   1      41.637  31.844  36.882  1.00  0.00     0.031 C 
ATOM     63  C   UNL A   1      42.910  27.784  32.553  1.00  0.00     0.029 A 
ATOM     64  C   UNL A   1      42.344  28.841  33.249  1.00  0.00     0.049 A 
ATOM     65  H   UNL A   1      40.757  30.111  32.681  1.00  0.00     0.167 HD
ATOM     66  C   UNL A   1      42.078  30.373  35.181  1.00  0.00     0.074 A 
ATOM     67  C   UNL A   1      42.421  30.843  36.507  1.00  0.00     0.031 C 
ATOM     68  C   UNL A   1      42.690  29.338  34.555  1.00  0.00     0.037 A 
BRANCH  55  69
ATOM     69  C   UNL A   1      40.383  28.026  28.980  1.00  0.00     0.064 A 
ATOM     70  C   UNL A   1      39.655  26.827  28.939  1.00  0.00     0.173 A 
ATOM     71  C   UNL A   1      41.116  28.389  27.841  1.00  0.00     0.173 A 
ATOM     72  F   UNL A   1      38.949  26.429  30.009  1.00  0.00    -0.203 F 
ATOM     73  C   UNL A   1      39.684  26.010  27.813  1.00  0.00     0.198 A 
ATOM     74  C   UNL A   1      41.118  27.583  26.705  1.00  0.00     0.198 A 
ATOM     75  F   UNL A   1      41.825  29.527  27.825  1.00  0.00    -0.203 F 
ATOM     76  F   UNL A   1      39.021  24.846  27.815  1.00  0.00    -0.200 F 
ATOM     77  C   UNL A   1      40.409  26.392  26.694  1.00  0.00     0.200 A 
ATOM     78  F   UNL A   1      41.810  27.960  25.620  1.00  0.00    -0.200 F 
ATOM     79  F   UNL A   1      40.431  25.607  25.608  1.00  0.00    -0.200 F 
ENDBRANCH  55  69
BRANCH  56  80
ATOM     80  C   UNL A   1      39.681  34.023  36.930  1.00  0.00     0.064 A 
ATOM     81  C   UNL A   1      38.881  33.627  38.012  1.00  0.00     0.173 A 
ATOM     82  C   UNL A   1      40.351  35.251  37.028  1.00  0.00     0.173 A 
ATOM     83  F   UNL A   1      38.204  32.471  37.953  1.00  0.00    -0.203 F 
ATOM     84  C   UNL A   1      38.741  34.435  39.137  1.00  0.00     0.198 A 
ATOM     85  C   UNL A   1      40.231  36.047  38.166  1.00  0.00     0.198 A 
ATOM     86  F   UNL A   1      41.131  35.673  36.022  1.00  0.00    -0.203 F 
ATOM     87  F   UNL A   1      37.937  34.053  40.138  1.00  0.00    -0.200 F 
ATOM     88  C   UNL A   1      39.421  35.641  39.216  1.00  0.00     0.200 A 
ATOM     89  F   UNL A   1      40.897  37.206  38.244  1.00  0.00    -0.200 F 
ATOM     90  F   UNL A   1      39.288  36.417  40.301  1.00  0.00    -0.200 F 
ENDBRANCH  56  80
BRANCH  68  91
ATOM     91  C   UNL A   1      43.831  28.675  35.267  1.00  0.00     0.064 A 
ATOM     92  C   UNL A   1      43.628  27.607  36.150  1.00  0.00     0.173 A 
ATOM     93  C   UNL A   1      45.150  29.075  35.005  1.00  0.00     0.173 A 
ATOM     94  F   UNL A   1      42.383  27.200  36.443  1.00  0.00    -0.203 F 
ATOM     95  C   UNL A   1      44.705  26.969  36.757  1.00  0.00     0.198 A 
ATOM     96  C   UNL A   1      46.227  28.419  35.594  1.00  0.00     0.198 A 
ATOM     97  F   UNL A   1      45.395  30.090  34.162  1.00  0.00    -0.203 F 
ATOM     98  F   UNL A   1      44.490  25.968  37.622  1.00  0.00    -0.200 F 
ATOM     99  C   UNL A   1      46.003  27.368  36.471  1.00  0.00     0.200 A 
ATOM    100  F   UNL A   1      47.480  28.799  35.308  1.00  0.00    -0.200 F 
ATOM    101  F   UNL A   1      47.040  26.742  37.045  1.00  0.00    -0.200 F 
ENDBRANCH  68  91
ENDBRANCH  42  43
ENDBRANCH  34  37
ENDBRANCH  32  33
ENDBRANCH  31  32
ENDBRANCH  30  31
ENDBRANCH   3  30
TORSDOF 16
ENDMDL
MODEL 3
REMARK VINA RESULT:     -13.1      0.759      1.858
REMARK SMILES O=C(COc1ccccc1/C=N\N1CC[NH+](Cc2ccc(Cl)cc2)CC1)NCCCNC(=O)c1ccc(-c2c3nc(c(-c4c(F)c(F)c(F)c(F)c4F)c4ccc([nH]4)c(-c4c(F)c(F)c(F)c(F)c4F)c4nc(c(-c5c(F)c(F)c(F)c(F)c5F)c5ccc2[nH]5)C=C4)C=C3)cc1
REMARK SMILES IDX 1 1 2 2 27 3 3 5 4 6 5 7 6 8 10 9 7 10 9 11 8 12 11 13 12 14
REMARK SMILES IDX 13 15 14 16 26 17 15 18 25 19 16 20 17 22 18 23 19 24 24 25
REMARK SMILES IDX 20 26 23 27 21 28 22 29 28 30 29 31 30 32 31 33 32 34 33 36
REMARK SMILES IDX 34 37 35 38 96 39 36 40 95 41 37 42 38 43 39 44 89 45 40 46
REMARK SMILES IDX 94 47 88 48 90 49 41 50 93 51 87 52 86 53 42 55 74 56 54 57
REMARK SMILES IDX 73 58 55 59 58 60 72 61 91 62 56 63 57 64 71 66 92 67 59 68
REMARK SMILES IDX 43 69 44 70 52 71 45 72 46 73 50 74 53 75 47 76 48 77 51 78
REMARK SMILES IDX 49 79 75 80 76 81 84 82 77 83 78 84 82 85 85 86 79 87 80 88
REMARK SMILES IDX 83 89 81 90 60 91 61 92 69 93 62 94 63 95 67 96 70 97 64 98
REMARK SMILES IDX 65 99 68 100 66 101
REMARK H PARENT 27 4 16 21 31 35 90 54 58 65
REMARK Flexibility Score: inf
ROOT
ATOM      1  O   UNL A   1      33.200  28.288  27.227  1.00  0.00    -0.271 OA
ATOM      2  C   UNL A   1      33.371  28.910  26.184  1.00  0.00     0.257 C 
ATOM      3  N   UNL A   1      32.893  30.191  25.971  1.00  0.00    -0.353 N 
ATOM      4  H   UNL A   1      33.363  30.779  25.335  1.00  0.00     0.163 HD
ENDROOT
BRANCH   2   5
ATOM      5  C   UNL A   1      34.013  28.268  24.937  1.00  0.00     0.329 C 
BRANCH   5   6
ATOM      6  O   UNL A   1      33.551  26.945  24.691  1.00  0.00    -0.483 OA
BRANCH   6   7
ATOM      7  C   UNL A   1      32.284  26.736  24.189  1.00  0.00     0.128 A 
ATOM      8  C   UNL A   1      32.095  27.319  22.927  1.00  0.00     0.047 A 
ATOM      9  C   UNL A   1      31.159  26.359  24.949  1.00  0.00     0.037 A 
ATOM     10  C   UNL A   1      30.816  27.604  22.453  1.00  0.00     0.004 A 
ATOM     11  C   UNL A   1      29.896  26.784  24.518  1.00  0.00     0.013 A 
ATOM     12  C   UNL A   1      29.720  27.392  23.276  1.00  0.00     0.001 A 
BRANCH   9  13
ATOM     13  C   UNL A   1      31.308  25.458  26.113  1.00  0.00     0.145 C 
ATOM     14  N   UNL A   1      31.658  24.216  26.282  1.00  0.00    -0.185 NA
BRANCH  14  15
ATOM     15  N   UNL A   1      32.131  23.492  25.247  1.00  0.00    -0.286 NA
ATOM     16  C   UNL A   1      31.596  22.109  25.226  1.00  0.00     0.200 C 
ATOM     17  C   UNL A   1      33.614  23.415  25.257  1.00  0.00     0.200 C 
ATOM     18  C   UNL A   1      32.219  21.187  24.154  1.00  0.00     0.286 C 
ATOM     19  C   UNL A   1      34.185  22.583  24.100  1.00  0.00     0.286 C 
ATOM     20  N   UNL A   1      33.683  21.210  24.021  1.00  0.00    -0.328 N 
ATOM     21  H   UNL A   1      33.884  20.868  23.082  1.00  0.00     0.348 HD
BRANCH  20  22
ATOM     22  C   UNL A   1      34.425  20.225  24.818  1.00  0.00     0.299 C 
BRANCH  22  23
ATOM     23  C   UNL A   1      33.895  18.807  24.852  1.00  0.00     0.006 A 
ATOM     24  C   UNL A   1      34.470  17.808  24.046  1.00  0.00     0.011 A 
ATOM     25  C   UNL A   1      32.864  18.451  25.732  1.00  0.00     0.011 A 
ATOM     26  C   UNL A   1      34.093  16.471  24.195  1.00  0.00     0.021 A 
ATOM     27  C   UNL A   1      32.487  17.115  25.881  1.00  0.00     0.021 A 
ATOM     28  C   UNL A   1      33.117  16.128  25.127  1.00  0.00     0.041 A 
ATOM     29  Cl  UNL A   1      32.701  14.476  25.362  1.00  0.00    -0.084 Cl
ENDBRANCH  22  23
ENDBRANCH  20  22
ENDBRANCH  14  15
ENDBRANCH   9  13
ENDBRANCH   6   7
ENDBRANCH   5   6
ENDBRANCH   2   5
BRANCH   3  30
ATOM     30  C   UNL A   1      31.720  30.689  26.663  1.00  0.00     0.117 C 
BRANCH  30  31
ATOM     31  C   UNL A   1      31.585  32.196  26.675  1.00  0.00     0.042 C 
BRANCH  31  32
ATOM     32  C   UNL A   1      32.683  32.906  27.445  1.00  0.00     0.118 C 
BRANCH  32  33
ATOM     33  N   UNL A   1      32.395  34.303  27.754  1.00  0.00    -0.352 N 
ATOM     34  C   UNL A   1      33.009  35.133  28.664  1.00  0.00     0.251 C 
ATOM     35  H   UNL A   1      31.659  34.708  27.240  1.00  0.00     0.163 HD
ATOM     36  O   UNL A   1      32.597  36.275  28.849  1.00  0.00    -0.269 OA
BRANCH  34  37
ATOM     37  C   UNL A   1      34.141  34.618  29.465  1.00  0.00     0.039 A 
ATOM     38  C   UNL A   1      33.887  34.070  30.724  1.00  0.00     0.014 A 
ATOM     39  C   UNL A   1      35.434  34.604  28.937  1.00  0.00     0.014 A 
ATOM     40  C   UNL A   1      34.908  33.405  31.407  1.00  0.00     0.010 A 
ATOM     41  C   UNL A   1      36.423  33.867  29.574  1.00  0.00     0.010 A 
ATOM     42  C   UNL A   1      36.168  33.247  30.807  1.00  0.00    -0.014 A 
BRANCH  42  43
ATOM     43  C   UNL A   1      37.239  32.424  31.425  1.00  0.00     0.031 A 
ATOM     44  C   UNL A   1      37.745  32.771  32.796  1.00  0.00     0.074 A 
ATOM     45  C   UNL A   1      37.834  31.447  30.713  1.00  0.00     0.049 A 
ATOM     46  N   UNL A   1      38.789  32.311  33.437  1.00  0.00    -0.248 NA
ATOM     47  C   UNL A   1      36.997  33.806  33.529  1.00  0.00     0.031 C 
ATOM     48  C   UNL A   1      37.465  31.040  29.356  1.00  0.00     0.029 A 
ATOM     49  N   UNL A   1      38.898  30.636  31.023  1.00  0.00    -0.354 N 
ATOM     50  C   UNL A   1      38.842  33.023  34.627  1.00  0.00     0.074 A 
ATOM     51  C   UNL A   1      37.751  33.972  34.605  1.00  0.00     0.031 C 
ATOM     52  C   UNL A   1      38.279  30.051  28.956  1.00  0.00     0.029 A 
ATOM     53  C   UNL A   1      39.258  29.785  30.006  1.00  0.00     0.049 A 
ATOM     54  H   UNL A   1      39.359  30.661  31.892  1.00  0.00     0.167 HD
ATOM     55  C   UNL A   1      39.714  32.884  35.655  1.00  0.00     0.037 A 
ATOM     56  C   UNL A   1      40.273  28.905  29.923  1.00  0.00     0.037 A 
ATOM     57  C   UNL A   1      40.771  31.909  35.692  1.00  0.00     0.049 A 
ATOM     58  C   UNL A   1      41.220  28.760  31.083  1.00  0.00     0.074 A 
ATOM     59  C   UNL A   1      41.666  31.648  36.714  1.00  0.00     0.029 A 
ATOM     60  N   UNL A   1      41.069  31.030  34.662  1.00  0.00    -0.354 N 
ATOM     61  N   UNL A   1      41.232  29.404  32.224  1.00  0.00    -0.248 NA
ATOM     62  C   UNL A   1      42.294  27.766  30.945  1.00  0.00     0.031 C 
ATOM     63  C   UNL A   1      42.529  30.633  36.290  1.00  0.00     0.029 A 
ATOM     64  C   UNL A   1      42.142  30.232  35.021  1.00  0.00     0.049 A 
ATOM     65  H   UNL A   1      40.589  30.982  33.804  1.00  0.00     0.167 HD
ATOM     66  C   UNL A   1      42.287  28.871  32.952  1.00  0.00     0.074 A 
ATOM     67  C   UNL A   1      42.892  27.847  32.125  1.00  0.00     0.031 C 
ATOM     68  C   UNL A   1      42.713  29.199  34.196  1.00  0.00     0.037 A 
BRANCH  55  69
ATOM     69  C   UNL A   1      39.555  33.807  36.826  1.00  0.00     0.064 A 
ATOM     70  C   UNL A   1      38.816  33.436  37.960  1.00  0.00     0.173 A 
ATOM     71  C   UNL A   1      40.177  35.065  36.829  1.00  0.00     0.173 A 
ATOM     72  F   UNL A   1      38.192  32.249  38.000  1.00  0.00    -0.203 F 
ATOM     73  C   UNL A   1      38.681  34.302  39.041  1.00  0.00     0.198 A 
ATOM     74  C   UNL A   1      40.063  35.916  37.925  1.00  0.00     0.198 A 
ATOM     75  F   UNL A   1      40.899  35.466  35.772  1.00  0.00    -0.203 F 
ATOM     76  F   UNL A   1      37.930  33.947  40.091  1.00  0.00    -0.200 F 
ATOM     77  C   UNL A   1      39.310  35.538  39.026  1.00  0.00     0.200 A 
ATOM     78  F   UNL A   1      40.682  37.106  37.914  1.00  0.00    -0.200 F 
ATOM     79  F   UNL A   1      39.184  36.368  40.070  1.00  0.00    -0.200 F 
ENDBRANCH  55  69
BRANCH  56  80
ATOM     80  C   UNL A   1      40.439  28.075  28.700  1.00  0.00     0.064 A 
ATOM     81  C   UNL A   1      39.831  26.815  28.604  1.00  0.00     0.173 A 
ATOM     82  C   UNL A   1      41.202  28.518  27.610  1.00  0.00     0.173 A 
ATOM     83  F   UNL A   1      39.111  26.341  29.631  1.00  0.00    -0.203 F 
ATOM     84  C   UNL A   1      39.995  26.022  27.472  1.00  0.00     0.198 A 
ATOM     85  C   UNL A   1      41.344  27.733  26.467  1.00  0.00     0.198 A 
ATOM     86  F   UNL A   1      41.800  29.717  27.652  1.00  0.00    -0.203 F 
ATOM     87  F   UNL A   1      39.440  24.804  27.423  1.00  0.00    -0.200 F 
ATOM     88  C   UNL A   1      40.747  26.484  26.402  1.00  0.00     0.200 A 
ATOM     89  F   UNL A   1      42.061  28.187  25.431  1.00  0.00    -0.200 F 
ATOM     90  F   UNL A   1      40.902  25.721  25.311  1.00  0.00    -0.200 F 
ENDBRANCH  56  80
BRANCH  68  91
ATOM     91  C   UNL A   1      43.852  28.410  34.768  1.00  0.00     0.064 A 
ATOM     92  C   UNL A   1      43.641  27.224  35.484  1.00  0.00     0.173 A 
ATOM     93  C   UNL A   1      45.175  28.814  34.535  1.00  0.00     0.173 A 
ATOM     94  F   UNL A   1      42.393  26.806  35.744  1.00  0.00    -0.203 F 
ATOM     95  C   UNL A   1      44.715  26.476  35.958  1.00  0.00     0.198 A 
ATOM     96  C   UNL A   1      46.247  28.051  34.989  1.00  0.00     0.198 A 
ATOM     97  F   UNL A   1      45.428  29.939  33.850  1.00  0.00    -0.203 F 
ATOM     98  F   UNL A   1      44.492  25.360  36.667  1.00  0.00    -0.200 F 
ATOM     99  C   UNL A   1      46.016  26.885  35.702  1.00  0.00     0.200 A 
ATOM    100  F   UNL A   1      47.503  28.441  34.730  1.00  0.00    -0.200 F 
ATOM    101  F   UNL A   1      47.048  26.155  36.147  1.00  0.00    -0.200 F 
ENDBRANCH  68  91
ENDBRANCH  42  43
ENDBRANCH  34  37
ENDBRANCH  32  33
ENDBRANCH  31  32
ENDBRANCH  30  31
ENDBRANCH   3  30
TORSDOF 16
ENDMDL
