MODEL 1
REMARK VINA RESULT:     -11.0      0.000      0.000
REMARK SMILES CC[C@H](C)CN(CC)c1ccc(/C=C/C(=O)NCCCNC(=O)c2ccc(-c3c4nc(c(-c5c(F)c(F)c(F)c(F)c5F)c5ccc([nH]5)c(-c5c(F)c(F)c(F)c(F)c5F)c5nc(c(-c6c(F)c(F)c(F)c(F)c6F)c6ccc3[nH]6)C=C5)C=C4)cc2)cc1F
REMARK SMILES IDX 15 1 16 2 17 3 14 5 13 6 12 7 9 8 10 9 88 10 11 11 87 12
REMARK SMILES IDX 89 13 6 14 5 15 3 16 4 17 2 18 1 19 7 20 8 21 18 22 19 23
REMARK SMILES IDX 20 24 21 25 22 26 23 28 24 29 25 30 86 31 26 32 85 33 27 34
REMARK SMILES IDX 28 35 29 36 79 37 30 38 84 39 78 40 80 41 31 42 83 43 77 44
REMARK SMILES IDX 76 45 32 47 64 48 44 49 63 50 45 51 48 52 62 53 81 54 46 55
REMARK SMILES IDX 47 56 61 58 82 59 49 60 33 61 34 62 42 63 35 64 36 65 40 66
REMARK SMILES IDX 43 67 37 68 38 69 41 70 39 71 65 72 66 73 74 74 67 75 68 76
REMARK SMILES IDX 72 77 75 78 69 79 70 80 73 81 71 82 50 83 51 84 59 85 52 86
REMARK SMILES IDX 53 87 57 88 60 89 54 90 55 91 58 92 56 93
REMARK H PARENT 17 4 21 27 80 46 48 57
REMARK Flexibility Score: inf
ROOT
ATOM      1  C   UNL A   1      42.014  21.789  28.022  1.00  0.00     0.244 C 
ATOM      2  O   UNL A   1      42.673  22.729  28.458  1.00  0.00    -0.270 OA
ATOM      3  N   UNL A   1      42.583  20.558  27.922  1.00  0.00    -0.352 N 
ATOM      4  H   UNL A   1      43.547  20.535  28.116  1.00  0.00     0.163 HD
ENDROOT
BRANCH   1   5
ATOM      5  C   UNL A   1      40.584  21.994  27.701  1.00  0.00     0.072 C 
ATOM      6  C   UNL A   1      40.140  22.371  26.494  1.00  0.00     0.014 C 
BRANCH   6   7
ATOM      7  C   UNL A   1      38.734  22.577  26.108  1.00  0.00    -0.022 A 
ATOM      8  C   UNL A   1      35.976  22.818  25.474  1.00  0.00     0.073 A 
ATOM      9  C   UNL A   1      36.725  23.931  25.863  1.00  0.00     0.029 A 
ATOM     10  C   UNL A   1      36.646  21.595  25.363  1.00  0.00     0.147 A 
ATOM     11  C   UNL A   1      38.088  23.819  26.163  1.00  0.00     0.010 A 
ATOM     12  C   UNL A   1      37.992  21.463  25.700  1.00  0.00     0.049 A 
ATOM     13  F   UNL A   1      35.981  20.496  24.973  1.00  0.00    -0.205 F 
BRANCH   8  14
ATOM     14  N   UNL A   1      34.617  22.931  25.235  1.00  0.00    -0.369 N 
BRANCH  14  15
ATOM     15  C   UNL A   1      34.075  22.534  23.932  1.00  0.00     0.120 C 
BRANCH  15  16
ATOM     16  C   UNL A   1      32.595  22.075  24.016  1.00  0.00     0.005 C 
ATOM     17  C   UNL A   1      31.654  22.918  23.141  1.00  0.00     0.009 C 
BRANCH  16  18
ATOM     18  C   UNL A   1      32.455  20.570  23.693  1.00  0.00     0.002 C 
ATOM     19  C   UNL A   1      32.681  19.625  24.867  1.00  0.00     0.004 C 
ENDBRANCH  16  18
ENDBRANCH  15  16
ENDBRANCH  14  15
BRANCH  14  20
ATOM     20  C   UNL A   1      33.733  23.258  26.351  1.00  0.00     0.113 C 
ATOM     21  C   UNL A   1      33.797  22.206  27.452  1.00  0.00     0.027 C 
ENDBRANCH  14  20
ENDBRANCH   8  14
ENDBRANCH   6   7
ENDBRANCH   1   5
BRANCH   3  22
ATOM     22  C   UNL A   1      42.005  19.270  27.574  1.00  0.00     0.118 C 
BRANCH  22  23
ATOM     23  C   UNL A   1      42.437  18.811  26.183  1.00  0.00     0.042 C 
BRANCH  23  24
ATOM     24  C   UNL A   1      43.941  18.587  26.044  1.00  0.00     0.118 C 
BRANCH  24  25
ATOM     25  N   UNL A   1      44.370  18.566  24.654  1.00  0.00    -0.352 N 
ATOM     26  C   UNL A   1      44.673  19.600  23.805  1.00  0.00     0.251 C 
ATOM     27  H   UNL A   1      44.458  17.669  24.260  1.00  0.00     0.163 HD
ATOM     28  O   UNL A   1      44.813  19.375  22.607  1.00  0.00    -0.269 OA
BRANCH  26  29
ATOM     29  C   UNL A   1      44.823  20.984  24.310  1.00  0.00     0.039 A 
ATOM     30  C   UNL A   1      45.340  21.174  25.595  1.00  0.00     0.014 A 
ATOM     31  C   UNL A   1      44.403  22.086  23.559  1.00  0.00     0.014 A 
ATOM     32  C   UNL A   1      45.483  22.467  26.107  1.00  0.00     0.010 A 
ATOM     33  C   UNL A   1      44.605  23.378  24.044  1.00  0.00     0.010 A 
ATOM     34  C   UNL A   1      45.142  23.581  25.325  1.00  0.00    -0.014 A 
BRANCH  34  35
ATOM     35  C   UNL A   1      45.340  24.964  25.829  1.00  0.00     0.031 A 
ATOM     36  C   UNL A   1      46.707  25.591  25.807  1.00  0.00     0.074 A 
ATOM     37  C   UNL A   1      44.298  25.632  26.362  1.00  0.00     0.049 A 
ATOM     38  N   UNL A   1      47.094  26.746  26.285  1.00  0.00    -0.248 NA
ATOM     39  C   UNL A   1      47.789  24.808  25.188  1.00  0.00     0.031 C 
ATOM     40  C   UNL A   1      42.934  25.114  26.477  1.00  0.00     0.029 A 
ATOM     41  N   UNL A   1      44.225  26.884  26.922  1.00  0.00    -0.354 N 
ATOM     42  C   UNL A   1      48.459  26.820  26.043  1.00  0.00     0.074 A 
ATOM     43  C   UNL A   1      48.845  25.580  25.408  1.00  0.00     0.031 C 
ATOM     44  C   UNL A   1      42.158  26.042  27.058  1.00  0.00     0.029 A 
ATOM     45  C   UNL A   1      42.974  27.206  27.393  1.00  0.00     0.049 A 
ATOM     46  H   UNL A   1      44.996  27.493  26.980  1.00  0.00     0.167 HD
ATOM     47  C   UNL A   1      49.306  27.841  26.309  1.00  0.00     0.037 A 
ATOM     48  C   UNL A   1      42.538  28.306  28.034  1.00  0.00     0.037 A 
ATOM     49  C   UNL A   1      48.909  29.092  26.899  1.00  0.00     0.049 A 
ATOM     50  C   UNL A   1      43.500  29.432  28.301  1.00  0.00     0.074 A 
ATOM     51  C   UNL A   1      49.684  30.213  27.141  1.00  0.00     0.029 A 
ATOM     52  N   UNL A   1      47.626  29.391  27.333  1.00  0.00    -0.354 N 
ATOM     53  N   UNL A   1      44.777  29.511  28.014  1.00  0.00    -0.248 NA
ATOM     54  C   UNL A   1      42.965  30.623  28.977  1.00  0.00     0.031 C 
ATOM     55  C   UNL A   1      48.882  31.174  27.760  1.00  0.00     0.029 A 
ATOM     56  C   UNL A   1      47.595  30.672  27.857  1.00  0.00     0.049 A 
ATOM     57  H   UNL A   1      46.853  28.783  27.275  1.00  0.00     0.167 HD
ATOM     58  C   UNL A   1      45.190  30.761  28.451  1.00  0.00     0.074 A 
ATOM     59  C   UNL A   1      44.026  31.417  29.009  1.00  0.00     0.031 C 
ATOM     60  C   UNL A   1      46.425  31.315  28.396  1.00  0.00     0.037 A 
BRANCH  47  61
ATOM     61  C   UNL A   1      50.753  27.679  25.950  1.00  0.00     0.064 A 
ATOM     62  C   UNL A   1      51.177  27.846  24.622  1.00  0.00     0.173 A 
ATOM     63  C   UNL A   1      51.693  27.239  26.891  1.00  0.00     0.173 A 
ATOM     64  F   UNL A   1      50.313  28.257  23.682  1.00  0.00    -0.203 F 
ATOM     65  C   UNL A   1      52.485  27.554  24.247  1.00  0.00     0.198 A 
ATOM     66  C   UNL A   1      53.008  26.971  26.518  1.00  0.00     0.198 A 
ATOM     67  F   UNL A   1      51.338  27.072  28.174  1.00  0.00    -0.203 F 
ATOM     68  F   UNL A   1      52.858  27.678  22.966  1.00  0.00    -0.200 F 
ATOM     69  C   UNL A   1      53.399  27.116  25.194  1.00  0.00     0.200 A 
ATOM     70  F   UNL A   1      53.894  26.564  27.436  1.00  0.00    -0.200 F 
ATOM     71  F   UNL A   1      54.657  26.828  24.832  1.00  0.00    -0.200 F 
ENDBRANCH  47  61
BRANCH  48  72
ATOM     72  C   UNL A   1      41.116  28.401  28.456  1.00  0.00     0.064 A 
ATOM     73  C   UNL A   1      40.137  28.935  27.604  1.00  0.00     0.173 A 
ATOM     74  C   UNL A   1      40.709  27.968  29.725  1.00  0.00     0.173 A 
ATOM     75  F   UNL A   1      40.475  29.370  26.381  1.00  0.00    -0.203 F 
ATOM     76  C   UNL A   1      38.809  29.041  28.012  1.00  0.00     0.198 A 
ATOM     77  C   UNL A   1      39.375  28.048  30.120  1.00  0.00     0.198 A 
ATOM     78  F   UNL A   1      41.604  27.431  30.568  1.00  0.00    -0.203 F 
ATOM     79  F   UNL A   1      37.899  29.581  27.188  1.00  0.00    -0.200 F 
ATOM     80  C   UNL A   1      38.427  28.591  29.266  1.00  0.00     0.200 A 
ATOM     81  F   UNL A   1      39.006  27.586  31.323  1.00  0.00    -0.200 F 
ATOM     82  F   UNL A   1      37.146  28.674  29.649  1.00  0.00    -0.200 F 
ENDBRANCH  48  72
BRANCH  60  83
ATOM     83  C   UNL A   1      46.592  32.708  28.927  1.00  0.00     0.064 A 
ATOM     84  C   UNL A   1      46.468  33.812  28.072  1.00  0.00     0.173 A 
ATOM     85  C   UNL A   1      46.963  32.942  30.259  1.00  0.00     0.173 A 
ATOM     86  F   UNL A   1      46.123  33.639  26.787  1.00  0.00    -0.203 F 
ATOM     87  C   UNL A   1      46.729  35.102  28.527  1.00  0.00     0.198 A 
ATOM     88  C   UNL A   1      47.197  34.236  30.717  1.00  0.00     0.198 A 
ATOM     89  F   UNL A   1      47.083  31.918  31.117  1.00  0.00    -0.203 F 
ATOM     90  F   UNL A   1      46.643  36.139  27.682  1.00  0.00    -0.200 F 
ATOM     91  C   UNL A   1      47.091  35.312  29.849  1.00  0.00     0.200 A 
ATOM     92  F   UNL A   1      47.525  34.440  32.000  1.00  0.00    -0.200 F 
ATOM     93  F   UNL A   1      47.338  36.554  30.287  1.00  0.00    -0.200 F 
ENDBRANCH  60  83
ENDBRANCH  34  35
ENDBRANCH  26  29
ENDBRANCH  24  25
ENDBRANCH  23  24
ENDBRANCH  22  23
ENDBRANCH   3  22
TORSDOF 16
ENDMDL
MODEL 2
REMARK VINA RESULT:     -10.9      0.811      2.020
REMARK SMILES CC[C@H](C)CN(CC)c1ccc(/C=C/C(=O)NCCCNC(=O)c2ccc(-c3c4nc(c(-c5c(F)c(F)c(F)c(F)c5F)c5ccc([nH]5)c(-c5c(F)c(F)c(F)c(F)c5F)c5nc(c(-c6c(F)c(F)c(F)c(F)c6F)c6ccc3[nH]6)C=C5)C=C4)cc2)cc1F
REMARK SMILES IDX 15 1 16 2 17 3 14 5 13 6 12 7 9 8 10 9 88 10 11 11 87 12
REMARK SMILES IDX 89 13 6 14 5 15 3 16 4 17 2 18 1 19 7 20 8 21 18 22 19 23
REMARK SMILES IDX 20 24 21 25 22 26 23 28 24 29 25 30 86 31 26 32 85 33 27 34
REMARK SMILES IDX 28 35 29 36 79 37 30 38 84 39 78 40 80 41 31 42 83 43 77 44
REMARK SMILES IDX 76 45 32 47 64 48 44 49 63 50 45 51 48 52 62 53 81 54 46 55
REMARK SMILES IDX 47 56 61 58 82 59 49 60 33 61 34 62 42 63 35 64 36 65 40 66
REMARK SMILES IDX 43 67 37 68 38 69 41 70 39 71 65 72 66 73 74 74 67 75 68 76
REMARK SMILES IDX 72 77 75 78 69 79 70 80 73 81 71 82 50 83 51 84 59 85 52 86
REMARK SMILES IDX 53 87 57 88 60 89 54 90 55 91 58 92 56 93
REMARK H PARENT 17 4 21 27 80 46 48 57
REMARK Flexibility Score: inf
ROOT
ATOM      1  C   UNL A   1      41.929  21.641  27.844  1.00  0.00     0.244 C 
ATOM      2  O   UNL A   1      42.566  22.642  28.161  1.00  0.00    -0.270 OA
ATOM      3  N   UNL A   1      42.528  20.421  27.888  1.00  0.00    -0.352 N 
ATOM      4  H   UNL A   1      43.493  20.445  28.078  1.00  0.00     0.163 HD
ENDROOT
BRANCH   1   5
ATOM      5  C   UNL A   1      40.493  21.771  27.511  1.00  0.00     0.072 C 
ATOM      6  C   UNL A   1      40.031  21.926  26.262  1.00  0.00     0.014 C 
BRANCH   6   7
ATOM      7  C   UNL A   1      38.619  22.047  25.864  1.00  0.00    -0.022 A 
ATOM      8  C   UNL A   1      35.940  22.453  25.010  1.00  0.00     0.073 A 
ATOM      9  C   UNL A   1      36.572  21.217  24.841  1.00  0.00     0.029 A 
ATOM     10  C   UNL A   1      36.661  23.462  25.656  1.00  0.00     0.147 A 
ATOM     11  C   UNL A   1      37.887  21.010  25.273  1.00  0.00     0.010 A 
ATOM     12  C   UNL A   1      37.985  23.280  26.053  1.00  0.00     0.049 A 
ATOM     13  F   UNL A   1      36.098  24.663  25.865  1.00  0.00    -0.205 F 
BRANCH   8  14
ATOM     14  N   UNL A   1      34.660  22.663  24.526  1.00  0.00    -0.369 N 
BRANCH  14  15
ATOM     15  C   UNL A   1      33.521  22.601  25.446  1.00  0.00     0.120 C 
BRANCH  15  16
ATOM     16  C   UNL A   1      32.313  21.829  24.849  1.00  0.00     0.005 C 
ATOM     17  C   UNL A   1      32.544  20.311  24.780  1.00  0.00     0.009 C 
BRANCH  16  18
ATOM     18  C   UNL A   1      31.008  22.158  25.608  1.00  0.00     0.002 C 
ATOM     19  C   UNL A   1      31.147  23.164  26.744  1.00  0.00     0.004 C 
ENDBRANCH  16  18
ENDBRANCH  15  16
ENDBRANCH  14  15
BRANCH  14  20
ATOM     20  C   UNL A   1      34.497  23.132  23.153  1.00  0.00     0.113 C 
ATOM     21  C   UNL A   1      34.035  24.584  23.101  1.00  0.00     0.027 C 
ENDBRANCH  14  20
ENDBRANCH   8  14
ENDBRANCH   6   7
ENDBRANCH   1   5
BRANCH   3  22
ATOM     22  C   UNL A   1      41.981  19.087  27.701  1.00  0.00     0.118 C 
BRANCH  22  23
ATOM     23  C   UNL A   1      42.721  18.319  26.607  1.00  0.00     0.042 C 
BRANCH  23  24
ATOM     24  C   UNL A   1      42.876  19.095  25.302  1.00  0.00     0.118 C 
BRANCH  24  25
ATOM     25  N   UNL A   1      44.102  18.751  24.598  1.00  0.00    -0.352 N 
ATOM     26  C   UNL A   1      45.130  19.551  24.168  1.00  0.00     0.251 C 
ATOM     27  H   UNL A   1      44.212  17.794  24.399  1.00  0.00     0.163 HD
ATOM     28  O   UNL A   1      45.975  19.090  23.407  1.00  0.00    -0.269 OA
BRANCH  26  29
ATOM     29  C   UNL A   1      45.230  20.964  24.599  1.00  0.00     0.039 A 
ATOM     30  C   UNL A   1      45.583  21.236  25.924  1.00  0.00     0.014 A 
ATOM     31  C   UNL A   1      44.919  22.016  23.732  1.00  0.00     0.014 A 
ATOM     32  C   UNL A   1      45.674  22.558  26.366  1.00  0.00     0.010 A 
ATOM     33  C   UNL A   1      45.072  23.336  24.155  1.00  0.00     0.010 A 
ATOM     34  C   UNL A   1      45.446  23.621  25.478  1.00  0.00    -0.014 A 
BRANCH  34  35
ATOM     35  C   UNL A   1      45.593  25.033  25.914  1.00  0.00     0.031 A 
ATOM     36  C   UNL A   1      46.938  25.705  25.866  1.00  0.00     0.074 A 
ATOM     37  C   UNL A   1      44.526  25.690  26.410  1.00  0.00     0.049 A 
ATOM     38  N   UNL A   1      47.281  26.896  26.287  1.00  0.00    -0.248 NA
ATOM     39  C   UNL A   1      48.049  24.932  25.289  1.00  0.00     0.031 C 
ATOM     40  C   UNL A   1      43.180  25.130  26.546  1.00  0.00     0.029 A 
ATOM     41  N   UNL A   1      44.407  26.964  26.907  1.00  0.00    -0.354 N 
ATOM     42  C   UNL A   1      48.644  27.005  26.046  1.00  0.00     0.074 A 
ATOM     43  C   UNL A   1      49.077  25.750  25.474  1.00  0.00     0.031 C 
ATOM     44  C   UNL A   1      42.370  26.058  27.078  1.00  0.00     0.029 A 
ATOM     45  C   UNL A   1      43.143  27.265  27.358  1.00  0.00     0.049 A 
ATOM     46  H   UNL A   1      45.156  27.602  26.938  1.00  0.00     0.167 HD
ATOM     47  C   UNL A   1      49.454  28.067  26.264  1.00  0.00     0.037 A 
ATOM     48  C   UNL A   1      42.665  28.379  27.943  1.00  0.00     0.037 A 
ATOM     49  C   UNL A   1      49.011  29.331  26.790  1.00  0.00     0.049 A 
ATOM     50  C   UNL A   1      43.587  29.550  28.157  1.00  0.00     0.074 A 
ATOM     51  C   UNL A   1      49.746  30.489  26.979  1.00  0.00     0.029 A 
ATOM     52  N   UNL A   1      47.716  29.606  27.205  1.00  0.00    -0.354 N 
ATOM     53  N   UNL A   1      44.861  29.659  27.871  1.00  0.00    -0.248 NA
ATOM     54  C   UNL A   1      43.007  30.753  28.771  1.00  0.00     0.031 C 
ATOM     55  C   UNL A   1      48.908  31.451  27.547  1.00  0.00     0.029 A 
ATOM     56  C   UNL A   1      47.638  30.909  27.666  1.00  0.00     0.049 A 
ATOM     57  H   UNL A   1      46.965  28.969  27.175  1.00  0.00     0.167 HD
ATOM     58  C   UNL A   1      45.228  30.943  28.246  1.00  0.00     0.074 A 
ATOM     59  C   UNL A   1      44.040  31.584  28.767  1.00  0.00     0.031 C 
ATOM     60  C   UNL A   1      46.444  31.537  28.168  1.00  0.00     0.037 A 
BRANCH  47  61
ATOM     61  C   UNL A   1      50.907  27.938  25.918  1.00  0.00     0.064 A 
ATOM     62  C   UNL A   1      51.859  27.710  26.925  1.00  0.00     0.173 A 
ATOM     63  C   UNL A   1      51.369  28.162  24.614  1.00  0.00     0.173 A 
ATOM     64  F   UNL A   1      51.468  27.499  28.190  1.00  0.00    -0.203 F 
ATOM     65  C   UNL A   1      53.221  27.736  26.641  1.00  0.00     0.198 A 
ATOM     66  C   UNL A   1      52.733  28.163  24.328  1.00  0.00     0.198 A 
ATOM     67  F   UNL A   1      50.498  28.376  23.616  1.00  0.00    -0.203 F 
ATOM     68  F   UNL A   1      54.114  27.560  27.625  1.00  0.00    -0.200 F 
ATOM     69  C   UNL A   1      53.657  27.964  25.344  1.00  0.00     0.200 A 
ATOM     70  F   UNL A   1      53.152  28.367  23.072  1.00  0.00    -0.200 F 
ATOM     71  F   UNL A   1      54.969  27.997  25.072  1.00  0.00    -0.200 F 
ENDBRANCH  47  61
BRANCH  48  72
ATOM     72  C   UNL A   1      41.239  28.445  28.355  1.00  0.00     0.064 A 
ATOM     73  C   UNL A   1      40.254  28.951  27.493  1.00  0.00     0.173 A 
ATOM     74  C   UNL A   1      40.834  28.012  29.625  1.00  0.00     0.173 A 
ATOM     75  F   UNL A   1      40.590  29.385  26.270  1.00  0.00    -0.203 F 
ATOM     76  C   UNL A   1      38.921  29.029  27.891  1.00  0.00     0.198 A 
ATOM     77  C   UNL A   1      39.496  28.064  30.010  1.00  0.00     0.198 A 
ATOM     78  F   UNL A   1      41.735  27.501  30.477  1.00  0.00    -0.203 F 
ATOM     79  F   UNL A   1      38.005  29.543  27.058  1.00  0.00    -0.200 F 
ATOM     80  C   UNL A   1      38.541  28.580  29.146  1.00  0.00     0.200 A 
ATOM     81  F   UNL A   1      39.129  27.602  31.214  1.00  0.00    -0.200 F 
ATOM     82  F   UNL A   1      37.257  28.637  29.521  1.00  0.00    -0.200 F 
ENDBRANCH  48  72
BRANCH  60  83
ATOM     83  C   UNL A   1      46.559  32.958  28.630  1.00  0.00     0.064 A 
ATOM     84  C   UNL A   1      46.817  33.248  29.978  1.00  0.00     0.173 A 
ATOM     85  C   UNL A   1      46.323  34.032  27.758  1.00  0.00     0.173 A 
ATOM     86  F   UNL A   1      47.040  32.256  30.853  1.00  0.00    -0.203 F 
ATOM     87  C   UNL A   1      46.816  34.561  30.441  1.00  0.00     0.198 A 
ATOM     88  C   UNL A   1      46.350  35.345  28.220  1.00  0.00     0.198 A 
ATOM     89  F   UNL A   1      46.084  33.805  26.458  1.00  0.00    -0.203 F 
ATOM     90  F   UNL A   1      47.026  34.811  31.742  1.00  0.00    -0.200 F 
ATOM     91  C   UNL A   1      46.585  35.607  29.561  1.00  0.00     0.200 A 
ATOM     92  F   UNL A   1      46.148  36.356  27.365  1.00  0.00    -0.200 F 
ATOM     93  F   UNL A   1      46.589  36.871  30.007  1.00  0.00    -0.200 F 
ENDBRANCH  60  83
ENDBRANCH  34  35
ENDBRANCH  26  29
ENDBRANCH  24  25
ENDBRANCH  23  24
ENDBRANCH  22  23
ENDBRANCH   3  22
TORSDOF 16
ENDMDL
MODEL 3
REMARK VINA RESULT:     -10.9      0.739      1.735
REMARK SMILES CC[C@H](C)CN(CC)c1ccc(/C=C/C(=O)NCCCNC(=O)c2ccc(-c3c4nc(c(-c5c(F)c(F)c(F)c(F)c5F)c5ccc([nH]5)c(-c5c(F)c(F)c(F)c(F)c5F)c5nc(c(-c6c(F)c(F)c(F)c(F)c6F)c6ccc3[nH]6)C=C5)C=C4)cc2)cc1F
REMARK SMILES IDX 15 1 16 2 17 3 14 5 13 6 12 7 9 8 10 9 88 10 11 11 87 12
REMARK SMILES IDX 89 13 6 14 5 15 3 16 4 17 2 18 1 19 7 20 8 21 18 22 19 23
REMARK SMILES IDX 20 24 21 25 22 26 23 28 24 29 25 30 86 31 26 32 85 33 27 34
REMARK SMILES IDX 28 35 29 36 79 37 30 38 84 39 78 40 80 41 31 42 83 43 77 44
REMARK SMILES IDX 76 45 32 47 64 48 44 49 63 50 45 51 48 52 62 53 81 54 46 55
REMARK SMILES IDX 47 56 61 58 82 59 49 60 33 61 34 62 42 63 35 64 36 65 40 66
REMARK SMILES IDX 43 67 37 68 38 69 41 70 39 71 65 72 66 73 74 74 67 75 68 76
REMARK SMILES IDX 72 77 75 78 69 79 70 80 73 81 71 82 50 83 51 84 59 85 52 86
REMARK SMILES IDX 53 87 57 88 60 89 54 90 55 91 58 92 56 93
REMARK H PARENT 17 4 21 27 80 46 48 57
REMARK Flexibility Score: inf
ROOT
ATOM      1  C   UNL A   1      41.950  21.800  28.035  1.00  0.00     0.244 C 
ATOM      2  O   UNL A   1      42.629  22.740  28.439  1.00  0.00    -0.270 OA
ATOM      3  N   UNL A   1      42.487  20.551  27.994  1.00  0.00    -0.352 N 
ATOM      4  H   UNL A   1      43.448  20.512  28.202  1.00  0.00     0.163 HD
ENDROOT
BRANCH   1   5
ATOM      5  C   UNL A   1      40.530  22.028  27.687  1.00  0.00     0.072 C 
ATOM      6  C   UNL A   1      40.107  22.336  26.453  1.00  0.00     0.014 C 
BRANCH   6   7
ATOM      7  C   UNL A   1      38.712  22.561  26.040  1.00  0.00    -0.022 A 
ATOM      8  C   UNL A   1      35.970  22.834  25.350  1.00  0.00     0.073 A 
ATOM      9  C   UNL A   1      36.718  23.934  25.781  1.00  0.00     0.029 A 
ATOM     10  C   UNL A   1      36.636  21.610  25.227  1.00  0.00     0.147 A 
ATOM     11  C   UNL A   1      38.073  23.805  26.108  1.00  0.00     0.010 A 
ATOM     12  C   UNL A   1      37.973  21.462  25.591  1.00  0.00     0.049 A 
ATOM     13  F   UNL A   1      35.972  20.524  24.797  1.00  0.00    -0.205 F 
BRANCH   8  14
ATOM     14  N   UNL A   1      34.618  22.962  25.083  1.00  0.00    -0.369 N 
BRANCH  14  15
ATOM     15  C   UNL A   1      33.759  23.681  26.029  1.00  0.00     0.120 C 
BRANCH  15  16
ATOM     16  C   UNL A   1      32.921  24.795  25.346  1.00  0.00     0.005 C 
ATOM     17  C   UNL A   1      31.643  25.147  26.123  1.00  0.00     0.009 C 
BRANCH  16  18
ATOM     18  C   UNL A   1      33.776  26.055  25.082  1.00  0.00     0.002 C 
ATOM     19  C   UNL A   1      33.722  27.123  26.168  1.00  0.00     0.004 C 
ENDBRANCH  16  18
ENDBRANCH  15  16
ENDBRANCH  14  15
BRANCH  14  20
ATOM     20  C   UNL A   1      34.118  22.549  23.775  1.00  0.00     0.113 C 
ATOM     21  C   UNL A   1      33.018  21.501  23.892  1.00  0.00     0.027 C 
ENDBRANCH  14  20
ENDBRANCH   8  14
ENDBRANCH   6   7
ENDBRANCH   1   5
BRANCH   3  22
ATOM     22  C   UNL A   1      41.879  19.265  27.694  1.00  0.00     0.118 C 
BRANCH  22  23
ATOM     23  C   UNL A   1      42.695  18.477  26.671  1.00  0.00     0.042 C 
BRANCH  23  24
ATOM     24  C   UNL A   1      42.817  19.165  25.314  1.00  0.00     0.118 C 
BRANCH  24  25
ATOM     25  N   UNL A   1      44.053  18.819  24.629  1.00  0.00    -0.352 N 
ATOM     26  C   UNL A   1      45.090  19.617  24.218  1.00  0.00     0.251 C 
ATOM     27  H   UNL A   1      44.162  17.862  24.428  1.00  0.00     0.163 HD
ATOM     28  O   UNL A   1      45.946  19.155  23.469  1.00  0.00    -0.269 OA
BRANCH  26  29
ATOM     29  C   UNL A   1      45.188  21.028  24.655  1.00  0.00     0.039 A 
ATOM     30  C   UNL A   1      45.540  21.294  25.982  1.00  0.00     0.014 A 
ATOM     31  C   UNL A   1      44.878  22.084  23.793  1.00  0.00     0.014 A 
ATOM     32  C   UNL A   1      45.628  22.614  26.430  1.00  0.00     0.010 A 
ATOM     33  C   UNL A   1      45.029  23.402  24.222  1.00  0.00     0.010 A 
ATOM     34  C   UNL A   1      45.401  23.680  25.547  1.00  0.00    -0.014 A 
BRANCH  34  35
ATOM     35  C   UNL A   1      45.546  25.091  25.990  1.00  0.00     0.031 A 
ATOM     36  C   UNL A   1      46.890  25.764  25.945  1.00  0.00     0.074 A 
ATOM     37  C   UNL A   1      44.478  25.744  26.488  1.00  0.00     0.049 A 
ATOM     38  N   UNL A   1      47.233  26.953  26.373  1.00  0.00    -0.248 NA
ATOM     39  C   UNL A   1      48.003  24.995  25.366  1.00  0.00     0.031 C 
ATOM     40  C   UNL A   1      43.133  25.183  26.620  1.00  0.00     0.029 A 
ATOM     41  N   UNL A   1      44.358  27.016  26.990  1.00  0.00    -0.354 N 
ATOM     42  C   UNL A   1      48.596  27.065  26.133  1.00  0.00     0.074 A 
ATOM     43  C   UNL A   1      49.030  25.813  25.555  1.00  0.00     0.031 C 
ATOM     44  C   UNL A   1      42.321  26.107  27.156  1.00  0.00     0.029 A 
ATOM     45  C   UNL A   1      43.093  27.313  27.441  1.00  0.00     0.049 A 
ATOM     46  H   UNL A   1      45.106  27.655  27.025  1.00  0.00     0.167 HD
ATOM     47  C   UNL A   1      49.404  28.127  26.357  1.00  0.00     0.037 A 
ATOM     48  C   UNL A   1      42.614  28.425  28.031  1.00  0.00     0.037 A 
ATOM     49  C   UNL A   1      48.959  29.388  26.888  1.00  0.00     0.049 A 
ATOM     50  C   UNL A   1      43.534  29.595  28.252  1.00  0.00     0.074 A 
ATOM     51  C   UNL A   1      49.693  30.545  27.084  1.00  0.00     0.029 A 
ATOM     52  N   UNL A   1      47.664  29.659  27.303  1.00  0.00    -0.354 N 
ATOM     53  N   UNL A   1      44.808  29.707  27.967  1.00  0.00    -0.248 NA
ATOM     54  C   UNL A   1      42.953  30.795  28.871  1.00  0.00     0.031 C 
ATOM     55  C   UNL A   1      48.854  31.504  27.655  1.00  0.00     0.029 A 
ATOM     56  C   UNL A   1      47.585  30.960  27.770  1.00  0.00     0.049 A 
ATOM     57  H   UNL A   1      46.914  29.022  27.270  1.00  0.00     0.167 HD
ATOM     58  C   UNL A   1      45.174  30.990  28.349  1.00  0.00     0.074 A 
ATOM     59  C   UNL A   1      43.984  31.627  28.872  1.00  0.00     0.031 C 
ATOM     60  C   UNL A   1      46.389  31.585  28.275  1.00  0.00     0.037 A 
BRANCH  47  61
ATOM     61  C   UNL A   1      50.858  28.001  26.011  1.00  0.00     0.064 A 
ATOM     62  C   UNL A   1      51.282  28.107  24.677  1.00  0.00     0.173 A 
ATOM     63  C   UNL A   1      51.810  27.654  26.979  1.00  0.00     0.173 A 
ATOM     64  F   UNL A   1      50.407  28.429  23.712  1.00  0.00    -0.203 F 
ATOM     65  C   UNL A   1      52.602  27.846  24.323  1.00  0.00     0.198 A 
ATOM     66  C   UNL A   1      53.136  27.417  26.625  1.00  0.00     0.198 A 
ATOM     67  F   UNL A   1      51.455  27.548  28.268  1.00  0.00    -0.203 F 
ATOM     68  F   UNL A   1      52.976  27.910  23.038  1.00  0.00    -0.200 F 
ATOM     69  C   UNL A   1      53.528  27.499  25.296  1.00  0.00     0.200 A 
ATOM     70  F   UNL A   1      54.033  27.098  27.568  1.00  0.00    -0.200 F 
ATOM     71  F   UNL A   1      54.797  27.240  24.954  1.00  0.00    -0.200 F 
ENDBRANCH  47  61
BRANCH  48  72
ATOM     72  C   UNL A   1      41.187  28.488  28.443  1.00  0.00     0.064 A 
ATOM     73  C   UNL A   1      40.775  28.052  29.712  1.00  0.00     0.173 A 
ATOM     74  C   UNL A   1      40.205  28.977  27.571  1.00  0.00     0.173 A 
ATOM     75  F   UNL A   1      41.675  27.569  30.581  1.00  0.00    -0.203 F 
ATOM     76  C   UNL A   1      39.434  28.094  30.086  1.00  0.00     0.198 A 
ATOM     77  C   UNL A   1      38.868  29.045  27.958  1.00  0.00     0.198 A 
ATOM     78  F   UNL A   1      40.552  29.425  26.355  1.00  0.00    -0.203 F 
ATOM     79  F   UNL A   1      39.064  27.645  31.294  1.00  0.00    -0.200 F 
ATOM     80  C   UNL A   1      38.482  28.597  29.213  1.00  0.00     0.200 A 
ATOM     81  F   UNL A   1      37.956  29.558  27.121  1.00  0.00    -0.200 F 
ATOM     82  F   UNL A   1      37.196  28.656  29.581  1.00  0.00    -0.200 F 
ENDBRANCH  48  72
BRANCH  60  83
ATOM     83  C   UNL A   1      46.503  33.004  28.743  1.00  0.00     0.064 A 
ATOM     84  C   UNL A   1      46.327  34.065  27.843  1.00  0.00     0.173 A 
ATOM     85  C   UNL A   1      46.875  33.312  30.061  1.00  0.00     0.173 A 
ATOM     86  F   UNL A   1      45.980  33.822  26.570  1.00  0.00    -0.203 F 
ATOM     87  C   UNL A   1      46.539  35.383  28.239  1.00  0.00     0.198 A 
ATOM     88  C   UNL A   1      47.060  34.633  30.460  1.00  0.00     0.198 A 
ATOM     89  F   UNL A   1      47.043  32.332  30.961  1.00  0.00    -0.203 F 
ATOM     90  F   UNL A   1      46.404  36.378  27.351  1.00  0.00    -0.200 F 
ATOM     91  C   UNL A   1      46.902  35.664  29.547  1.00  0.00     0.200 A 
ATOM     92  F   UNL A   1      47.389  34.905  31.730  1.00  0.00    -0.200 F 
ATOM     93  F   UNL A   1      47.102  36.933  29.929  1.00  0.00    -0.200 F 
ENDBRANCH  60  83
ENDBRANCH  34  35
ENDBRANCH  26  29
ENDBRANCH  24  25
ENDBRANCH  23  24
ENDBRANCH  22  23
ENDBRANCH   3  22
TORSDOF 16
ENDMDL
