MODEL 1
REMARK VINA RESULT:     -12.9      0.000      0.000
REMARK SMILES Cc1ccc(Cl)c(Nc2ccccc2C(=O)NCCCNC(=O)c2ccc(-c3c4nc(c(-c5c(F)c(F)c(F)c(F)c5F)c5ccc([nH]5)c(-c5c(F)c(F)c(F)c(F)c5F)c5nc(c(-c6c(F)c(F)c(F)c(F)c6F)c6ccc3[nH]6)C=C5)C=C4)cc2)c1Cl
REMARK SMILES IDX 19 1 18 2 17 3 15 4 16 5 14 7 9 8 10 9 11 10 13 11 12 12
REMARK SMILES IDX 8 13 7 15 1 16 2 17 3 18 87 19 4 20 88 21 5 22 6 23 20 24
REMARK SMILES IDX 21 25 22 26 23 28 24 29 25 30 86 31 26 32 85 33 27 34 28 35
REMARK SMILES IDX 29 36 79 37 30 38 84 39 78 40 80 41 31 42 83 43 77 44 76 45
REMARK SMILES IDX 32 47 64 48 44 49 63 50 45 51 48 52 62 53 81 54 46 55 47 56
REMARK SMILES IDX 61 58 82 59 49 60 33 61 34 62 42 63 35 64 36 65 40 66 43 67
REMARK SMILES IDX 37 68 38 69 41 70 39 71 65 72 66 73 74 74 67 75 68 76 72 77
REMARK SMILES IDX 75 78 69 79 70 80 73 81 71 82 50 83 51 84 59 85 52 86 53 87
REMARK SMILES IDX 57 88 60 89 54 90 55 91 58 92 56 93
REMARK H PARENT 17 6 8 14 21 27 80 46 48 57
REMARK Flexibility Score: inf
ROOT
ATOM      1  C   UNL A   1      31.583  29.147  26.166  1.00  0.00     0.042 C 
ENDROOT
BRANCH   1   2
ATOM      2  C   UNL A   1      31.897  27.926  26.999  1.00  0.00     0.118 C 
BRANCH   2   3
ATOM      3  N   UNL A   1      30.996  26.812  26.880  1.00  0.00    -0.352 N 
ATOM      4  C   UNL A   1      31.238  25.571  26.335  1.00  0.00     0.253 C 
ATOM      5  O   UNL A   1      30.395  24.697  26.551  1.00  0.00    -0.269 OA
ATOM      6  H   UNL A   1      30.089  26.955  27.234  1.00  0.00     0.163 HD
BRANCH   4   7
ATOM      7  C   UNL A   1      32.358  25.286  25.379  1.00  0.00     0.063 A 
ATOM      8  C   UNL A   1      32.384  25.403  23.971  1.00  0.00     0.051 A 
ATOM      9  C   UNL A   1      33.539  24.939  23.294  1.00  0.00     0.027 A 
ATOM     10  C   UNL A   1      34.658  24.452  23.970  1.00  0.00     0.002 A 
ATOM     11  C   UNL A   1      33.516  24.817  26.045  1.00  0.00     0.016 A 
ATOM     12  C   UNL A   1      34.657  24.414  25.353  1.00  0.00     0.001 A 
BRANCH   8  13
ATOM     13  N   UNL A   1      31.436  26.021  23.125  1.00  0.00    -0.352 N 
ATOM     14  H   UNL A   1      31.149  25.435  22.388  1.00  0.00     0.167 HD
BRANCH  13  15
ATOM     15  C   UNL A   1      30.802  27.288  23.090  1.00  0.00     0.077 A 
ATOM     16  C   UNL A   1      27.344  28.953  23.126  1.00  0.00     0.046 C 
ATOM     17  C   UNL A   1      28.828  28.741  22.988  1.00  0.00    -0.030 A 
ATOM     18  C   UNL A   1      29.621  29.790  22.501  1.00  0.00     0.006 A 
ATOM     19  C   UNL A   1      29.429  27.506  23.317  1.00  0.00     0.069 A 
ATOM     20  C   UNL A   1      30.996  29.631  22.371  1.00  0.00     0.023 A 
ATOM     21  Cl  UNL A   1      28.466  26.310  24.135  1.00  0.00    -0.082 Cl
ATOM     22  C   UNL A   1      31.578  28.400  22.667  1.00  0.00     0.066 A 
ATOM     23  Cl  UNL A   1      33.284  28.231  22.380  1.00  0.00    -0.082 Cl
ENDBRANCH  13  15
ENDBRANCH   8  13
ENDBRANCH   4   7
ENDBRANCH   2   3
ENDBRANCH   1   2
BRANCH   1  24
ATOM     24  C   UNL A   1      32.773  30.057  25.887  1.00  0.00     0.118 C 
BRANCH  24  25
ATOM     25  N   UNL A   1      32.667  31.408  26.444  1.00  0.00    -0.352 N 
ATOM     26  C   UNL A   1      33.438  32.112  27.348  1.00  0.00     0.251 C 
ATOM     27  H   UNL A   1      31.893  31.915  26.106  1.00  0.00     0.163 HD
ATOM     28  O   UNL A   1      33.073  33.217  27.723  1.00  0.00    -0.269 OA
BRANCH  26  29
ATOM     29  C   UNL A   1      34.682  31.529  27.898  1.00  0.00     0.039 A 
ATOM     30  C   UNL A   1      35.796  32.352  28.112  1.00  0.00     0.014 A 
ATOM     31  C   UNL A   1      34.760  30.177  28.211  1.00  0.00     0.014 A 
ATOM     32  C   UNL A   1      36.932  31.835  28.746  1.00  0.00     0.010 A 
ATOM     33  C   UNL A   1      35.820  29.704  28.970  1.00  0.00     0.010 A 
ATOM     34  C   UNL A   1      36.927  30.521  29.237  1.00  0.00    -0.014 A 
BRANCH  34  35
ATOM     35  C   UNL A   1      38.060  29.944  30.005  1.00  0.00     0.031 A 
ATOM     36  C   UNL A   1      38.293  30.386  31.427  1.00  0.00     0.074 A 
ATOM     37  C   UNL A   1      38.950  29.139  29.394  1.00  0.00     0.049 A 
ATOM     38  N   UNL A   1      39.318  30.170  32.210  1.00  0.00    -0.248 NA
ATOM     39  C   UNL A   1      37.255  31.243  32.024  1.00  0.00     0.031 C 
ATOM     40  C   UNL A   1      38.881  28.701  28.000  1.00  0.00     0.029 A 
ATOM     41  N   UNL A   1      40.106  28.567  29.864  1.00  0.00    -0.354 N 
ATOM     42  C   UNL A   1      39.067  30.899  33.364  1.00  0.00     0.074 A 
ATOM     43  C   UNL A   1      37.836  31.625  33.149  1.00  0.00     0.031 C 
ATOM     44  C   UNL A   1      39.935  27.915  27.732  1.00  0.00     0.029 A 
ATOM     45  C   UNL A   1      40.778  27.828  28.921  1.00  0.00     0.049 A 
ATOM     46  H   UNL A   1      40.424  28.677  30.789  1.00  0.00     0.167 HD
ATOM     47  C   UNL A   1      39.779  30.935  34.516  1.00  0.00     0.037 A 
ATOM     48  C   UNL A   1      41.946  27.164  29.003  1.00  0.00     0.037 A 
ATOM     49  C   UNL A   1      40.975  30.167  34.740  1.00  0.00     0.049 A 
ATOM     50  C   UNL A   1      42.696  27.170  30.306  1.00  0.00     0.074 A 
ATOM     51  C   UNL A   1      41.733  30.060  35.891  1.00  0.00     0.029 A 
ATOM     52  N   UNL A   1      41.584  29.367  33.783  1.00  0.00    -0.354 N 
ATOM     53  N   UNL A   1      42.416  27.805  31.418  1.00  0.00    -0.248 NA
ATOM     54  C   UNL A   1      43.918  26.357  30.371  1.00  0.00     0.031 C 
ATOM     55  C   UNL A   1      42.822  29.224  35.619  1.00  0.00     0.029 A 
ATOM     56  C   UNL A   1      42.716  28.770  34.313  1.00  0.00     0.049 A 
ATOM     57  H   UNL A   1      41.258  29.241  32.861  1.00  0.00     0.167 HD
ATOM     58  C   UNL A   1      43.411  27.456  32.321  1.00  0.00     0.074 A 
ATOM     59  C   UNL A   1      44.292  26.537  31.630  1.00  0.00     0.031 C 
ATOM     60  C   UNL A   1      43.579  27.859  33.605  1.00  0.00     0.037 A 
BRANCH  47  61
ATOM     61  C   UNL A   1      39.268  31.826  35.615  1.00  0.00     0.064 A 
ATOM     62  C   UNL A   1      39.698  33.158  35.747  1.00  0.00     0.173 A 
ATOM     63  C   UNL A   1      38.355  31.339  36.563  1.00  0.00     0.173 A 
ATOM     64  F   UNL A   1      40.580  33.672  34.876  1.00  0.00    -0.203 F 
ATOM     65  C   UNL A   1      39.277  33.947  36.814  1.00  0.00     0.198 A 
ATOM     66  C   UNL A   1      37.906  32.146  37.608  1.00  0.00     0.198 A 
ATOM     67  F   UNL A   1      37.904  30.079  36.484  1.00  0.00    -0.203 F 
ATOM     68  F   UNL A   1      39.767  35.185  36.961  1.00  0.00    -0.200 F 
ATOM     69  C   UNL A   1      38.379  33.442  37.741  1.00  0.00     0.200 A 
ATOM     70  F   UNL A   1      37.027  31.661  38.495  1.00  0.00    -0.200 F 
ATOM     71  F   UNL A   1      37.980  34.200  38.771  1.00  0.00    -0.200 F 
ENDBRANCH  47  61
BRANCH  48  72
ATOM     72  C   UNL A   1      42.445  26.410  27.824  1.00  0.00     0.064 A 
ATOM     73  C   UNL A   1      43.362  26.989  26.937  1.00  0.00     0.173 A 
ATOM     74  C   UNL A   1      42.052  25.085  27.584  1.00  0.00     0.173 A 
ATOM     75  F   UNL A   1      43.755  28.259  27.116  1.00  0.00    -0.203 F 
ATOM     76  C   UNL A   1      43.861  26.276  25.849  1.00  0.00     0.198 A 
ATOM     77  C   UNL A   1      42.572  24.364  26.510  1.00  0.00     0.198 A 
ATOM     78  F   UNL A   1      41.185  24.481  28.409  1.00  0.00    -0.203 F 
ATOM     79  F   UNL A   1      44.714  26.864  25.000  1.00  0.00    -0.200 F 
ATOM     80  C   UNL A   1      43.472  24.961  25.641  1.00  0.00     0.200 A 
ATOM     81  F   UNL A   1      42.207  23.088  26.323  1.00  0.00    -0.200 F 
ATOM     82  F   UNL A   1      43.966  24.271  24.604  1.00  0.00    -0.200 F 
ENDBRANCH  48  72
BRANCH  60  83
ATOM     83  C   UNL A   1      44.746  27.287  34.355  1.00  0.00     0.064 A 
ATOM     84  C   UNL A   1      45.984  27.943  34.401  1.00  0.00     0.173 A 
ATOM     85  C   UNL A   1      44.607  26.089  35.074  1.00  0.00     0.173 A 
ATOM     86  F   UNL A   1      46.169  29.083  33.719  1.00  0.00    -0.203 F 
ATOM     87  C   UNL A   1      47.048  27.410  35.122  1.00  0.00     0.198 A 
ATOM     88  C   UNL A   1      45.665  25.574  35.817  1.00  0.00     0.198 A 
ATOM     89  F   UNL A   1      43.441  25.426  35.067  1.00  0.00    -0.203 F 
ATOM     90  F   UNL A   1      48.237  28.030  35.116  1.00  0.00    -0.200 F 
ATOM     91  C   UNL A   1      46.886  26.230  35.835  1.00  0.00     0.200 A 
ATOM     92  F   UNL A   1      45.502  24.443  36.518  1.00  0.00    -0.200 F 
ATOM     93  F   UNL A   1      47.910  25.724  36.535  1.00  0.00    -0.200 F 
ENDBRANCH  60  83
ENDBRANCH  34  35
ENDBRANCH  26  29
ENDBRANCH  24  25
ENDBRANCH   1  24
TORSDOF 12
ENDMDL
MODEL 2
REMARK VINA RESULT:     -12.7      1.072      7.528
REMARK SMILES Cc1ccc(Cl)c(Nc2ccccc2C(=O)NCCCNC(=O)c2ccc(-c3c4nc(c(-c5c(F)c(F)c(F)c(F)c5F)c5ccc([nH]5)c(-c5c(F)c(F)c(F)c(F)c5F)c5nc(c(-c6c(F)c(F)c(F)c(F)c6F)c6ccc3[nH]6)C=C5)C=C4)cc2)c1Cl
REMARK SMILES IDX 19 1 18 2 17 3 15 4 16 5 14 7 9 8 10 9 11 10 13 11 12 12
REMARK SMILES IDX 8 13 7 15 1 16 2 17 3 18 87 19 4 20 88 21 5 22 6 23 20 24
REMARK SMILES IDX 21 25 22 26 23 28 24 29 25 30 86 31 26 32 85 33 27 34 28 35
REMARK SMILES IDX 29 36 79 37 30 38 84 39 78 40 80 41 31 42 83 43 77 44 76 45
REMARK SMILES IDX 32 47 64 48 44 49 63 50 45 51 48 52 62 53 81 54 46 55 47 56
REMARK SMILES IDX 61 58 82 59 49 60 33 61 34 62 42 63 35 64 36 65 40 66 43 67
REMARK SMILES IDX 37 68 38 69 41 70 39 71 65 72 66 73 74 74 67 75 68 76 72 77
REMARK SMILES IDX 75 78 69 79 70 80 73 81 71 82 50 83 51 84 59 85 52 86 53 87
REMARK SMILES IDX 57 88 60 89 54 90 55 91 58 92 56 93
REMARK H PARENT 17 6 8 14 21 27 80 46 48 57
REMARK Flexibility Score: inf
ROOT
ATOM      1  C   UNL A   1      31.793  27.809  26.823  1.00  0.00     0.042 C 
ENDROOT
BRANCH   1   2
ATOM      2  C   UNL A   1      31.954  26.366  26.404  1.00  0.00     0.118 C 
BRANCH   2   3
ATOM      3  N   UNL A   1      30.915  25.456  26.804  1.00  0.00    -0.352 N 
ATOM      4  C   UNL A   1      30.782  24.121  26.494  1.00  0.00     0.253 C 
ATOM      5  O   UNL A   1      29.943  23.484  27.136  1.00  0.00    -0.269 OA
ATOM      6  H   UNL A   1      30.208  25.836  27.373  1.00  0.00     0.163 HD
BRANCH   4   7
ATOM      7  C   UNL A   1      31.467  23.465  25.333  1.00  0.00     0.063 A 
ATOM      8  C   UNL A   1      31.297  23.692  23.949  1.00  0.00     0.051 A 
ATOM      9  C   UNL A   1      31.981  22.833  23.052  1.00  0.00     0.027 A 
ATOM     10  C   UNL A   1      32.857  21.840  23.488  1.00  0.00     0.002 A 
ATOM     11  C   UNL A   1      32.384  22.471  25.752  1.00  0.00     0.016 A 
ATOM     12  C   UNL A   1      33.080  21.674  24.844  1.00  0.00     0.001 A 
BRANCH   8  13
ATOM     13  N   UNL A   1      30.599  24.743  23.312  1.00  0.00    -0.352 N 
ATOM     14  H   UNL A   1      29.735  24.453  22.941  1.00  0.00     0.167 HD
BRANCH  13  15
ATOM     15  C   UNL A   1      30.854  26.118  23.083  1.00  0.00     0.077 A 
ATOM     16  C   UNL A   1      33.694  28.603  22.384  1.00  0.00     0.046 C 
ATOM     17  C   UNL A   1      32.344  28.035  22.730  1.00  0.00    -0.030 A 
ATOM     18  C   UNL A   1      31.328  28.906  23.149  1.00  0.00     0.006 A 
ATOM     19  C   UNL A   1      32.090  26.647  22.662  1.00  0.00     0.069 A 
ATOM     20  C   UNL A   1      30.066  28.416  23.467  1.00  0.00     0.023 A 
ATOM     21  Cl  UNL A   1      33.284  25.624  21.919  1.00  0.00    -0.082 Cl
ATOM     22  C   UNL A   1      29.832  27.043  23.428  1.00  0.00     0.066 A 
ATOM     23  Cl  UNL A   1      28.268  26.483  23.941  1.00  0.00    -0.082 Cl
ENDBRANCH  13  15
ENDBRANCH   8  13
ENDBRANCH   4   7
ENDBRANCH   2   3
ENDBRANCH   1   2
BRANCH   1  24
ATOM     24  C   UNL A   1      32.828  28.764  26.241  1.00  0.00     0.118 C 
BRANCH  24  25
ATOM     25  N   UNL A   1      32.553  30.187  26.458  1.00  0.00    -0.352 N 
ATOM     26  C   UNL A   1      33.253  31.190  27.098  1.00  0.00     0.251 C 
ATOM     27  H   UNL A   1      31.699  30.488  26.070  1.00  0.00     0.163 HD
ATOM     28  O   UNL A   1      32.750  32.297  27.220  1.00  0.00    -0.269 OA
BRANCH  26  29
ATOM     29  C   UNL A   1      34.593  30.930  27.671  1.00  0.00     0.039 A 
ATOM     30  C   UNL A   1      35.494  31.991  27.833  1.00  0.00     0.014 A 
ATOM     31  C   UNL A   1      34.968  29.649  28.059  1.00  0.00     0.014 A 
ATOM     32  C   UNL A   1      36.713  31.777  28.487  1.00  0.00     0.010 A 
ATOM     33  C   UNL A   1      36.102  29.467  28.836  1.00  0.00     0.010 A 
ATOM     34  C   UNL A   1      36.997  30.523  29.051  1.00  0.00    -0.014 A 
BRANCH  34  35
ATOM     35  C   UNL A   1      38.226  30.258  29.842  1.00  0.00     0.031 A 
ATOM     36  C   UNL A   1      39.265  29.309  29.302  1.00  0.00     0.074 A 
ATOM     37  C   UNL A   1      38.346  30.753  31.089  1.00  0.00     0.049 A 
ATOM     38  N   UNL A   1      40.304  28.783  29.899  1.00  0.00    -0.248 NA
ATOM     39  C   UNL A   1      39.067  28.839  27.921  1.00  0.00     0.031 C 
ATOM     40  C   UNL A   1      37.374  31.619  31.756  1.00  0.00     0.029 A 
ATOM     41  N   UNL A   1      39.330  30.574  32.030  1.00  0.00    -0.354 N 
ATOM     42  C   UNL A   1      40.849  27.892  28.984  1.00  0.00     0.074 A 
ATOM     43  C   UNL A   1      39.983  27.889  27.827  1.00  0.00     0.031 C 
ATOM     44  C   UNL A   1      37.816  31.911  32.988  1.00  0.00     0.029 A 
ATOM     45  C   UNL A   1      39.081  31.220  33.216  1.00  0.00     0.049 A 
ATOM     46  H   UNL A   1      40.137  30.033  31.869  1.00  0.00     0.167 HD
ATOM     47  C   UNL A   1      41.989  27.167  29.083  1.00  0.00     0.037 A 
ATOM     48  C   UNL A   1      39.789  31.243  34.361  1.00  0.00     0.037 A 
ATOM     49  C   UNL A   1      42.872  27.218  30.218  1.00  0.00     0.049 A 
ATOM     50  C   UNL A   1      41.081  30.475  34.434  1.00  0.00     0.074 A 
ATOM     51  C   UNL A   1      44.092  26.592  30.394  1.00  0.00     0.029 A 
ATOM     52  N   UNL A   1      42.623  27.947  31.372  1.00  0.00    -0.354 N 
ATOM     53  N   UNL A   1      41.627  29.690  33.538  1.00  0.00    -0.248 NA
ATOM     54  C   UNL A   1      41.859  30.606  35.673  1.00  0.00     0.031 C 
ATOM     55  C   UNL A   1      44.565  26.914  31.671  1.00  0.00     0.029 A 
ATOM     56  C   UNL A   1      43.663  27.779  32.273  1.00  0.00     0.049 A 
ATOM     57  H   UNL A   1      41.825  28.503  31.529  1.00  0.00     0.167 HD
ATOM     58  C   UNL A   1      42.821  29.249  34.091  1.00  0.00     0.074 A 
ATOM     59  C   UNL A   1      42.926  29.869  35.396  1.00  0.00     0.031 C 
ATOM     60  C   UNL A   1      43.746  28.407  33.567  1.00  0.00     0.037 A 
BRANCH  47  61
ATOM     61  C   UNL A   1      42.339  26.272  27.925  1.00  0.00     0.064 A 
ATOM     62  C   UNL A   1      43.259  26.667  26.939  1.00  0.00     0.173 A 
ATOM     63  C   UNL A   1      41.734  25.014  27.786  1.00  0.00     0.173 A 
ATOM     64  F   UNL A   1      43.859  27.865  27.015  1.00  0.00    -0.203 F 
ATOM     65  C   UNL A   1      43.516  25.863  25.831  1.00  0.00     0.198 A 
ATOM     66  C   UNL A   1      42.024  24.195  26.696  1.00  0.00     0.198 A 
ATOM     67  F   UNL A   1      40.854  24.581  28.701  1.00  0.00    -0.203 F 
ATOM     68  F   UNL A   1      44.333  26.300  24.864  1.00  0.00    -0.200 F 
ATOM     69  C   UNL A   1      42.901  24.626  25.713  1.00  0.00     0.200 A 
ATOM     70  F   UNL A   1      41.440  22.993  26.590  1.00  0.00    -0.200 F 
ATOM     71  F   UNL A   1      43.143  23.856  24.644  1.00  0.00    -0.200 F 
ENDBRANCH  47  61
BRANCH  48  72
ATOM     72  C   UNL A   1      39.304  32.055  35.506  1.00  0.00     0.064 A 
ATOM     73  C   UNL A   1      38.475  31.493  36.486  1.00  0.00     0.173 A 
ATOM     74  C   UNL A   1      39.692  33.394  35.670  1.00  0.00     0.173 A 
ATOM     75  F   UNL A   1      38.064  30.222  36.364  1.00  0.00    -0.203 F 
ATOM     76  C   UNL A   1      38.044  32.238  37.581  1.00  0.00     0.198 A 
ATOM     77  C   UNL A   1      39.282  34.131  36.780  1.00  0.00     0.198 A 
ATOM     78  F   UNL A   1      40.493  33.976  34.767  1.00  0.00    -0.203 F 
ATOM     79  F   UNL A   1      37.228  31.684  38.487  1.00  0.00    -0.200 F 
ATOM     80  C   UNL A   1      38.455  33.555  37.731  1.00  0.00     0.200 A 
ATOM     81  F   UNL A   1      39.695  35.396  36.930  1.00  0.00    -0.200 F 
ATOM     82  F   UNL A   1      38.053  34.266  38.794  1.00  0.00    -0.200 F 
ENDBRANCH  48  72
BRANCH  60  83
ATOM     83  C   UNL A   1      44.966  28.129  34.394  1.00  0.00     0.064 A 
ATOM     84  C   UNL A   1      46.111  28.933  34.309  1.00  0.00     0.173 A 
ATOM     85  C   UNL A   1      44.970  27.071  35.318  1.00  0.00     0.173 A 
ATOM     86  F   UNL A   1      46.160  29.947  33.433  1.00  0.00    -0.203 F 
ATOM     87  C   UNL A   1      47.225  28.675  35.103  1.00  0.00     0.198 A 
ATOM     88  C   UNL A   1      46.075  26.834  36.130  1.00  0.00     0.198 A 
ATOM     89  F   UNL A   1      43.897  26.277  35.441  1.00  0.00    -0.203 F 
ATOM     90  F   UNL A   1      48.327  29.429  34.973  1.00  0.00    -0.200 F 
ATOM     91  C   UNL A   1      47.204  27.631  36.017  1.00  0.00     0.200 A 
ATOM     92  F   UNL A   1      46.046  25.836  37.023  1.00  0.00    -0.200 F 
ATOM     93  F   UNL A   1      48.275  27.391  36.785  1.00  0.00    -0.200 F 
ENDBRANCH  60  83
ENDBRANCH  34  35
ENDBRANCH  26  29
ENDBRANCH  24  25
ENDBRANCH   1  24
TORSDOF 12
ENDMDL
MODEL 3
REMARK VINA RESULT:     -12.6      0.451      2.011
REMARK SMILES Cc1ccc(Cl)c(Nc2ccccc2C(=O)NCCCNC(=O)c2ccc(-c3c4nc(c(-c5c(F)c(F)c(F)c(F)c5F)c5ccc([nH]5)c(-c5c(F)c(F)c(F)c(F)c5F)c5nc(c(-c6c(F)c(F)c(F)c(F)c6F)c6ccc3[nH]6)C=C5)C=C4)cc2)c1Cl
REMARK SMILES IDX 19 1 18 2 17 3 15 4 16 5 14 7 9 8 10 9 11 10 13 11 12 12
REMARK SMILES IDX 8 13 7 15 1 16 2 17 3 18 87 19 4 20 88 21 5 22 6 23 20 24
REMARK SMILES IDX 21 25 22 26 23 28 24 29 25 30 86 31 26 32 85 33 27 34 28 35
REMARK SMILES IDX 29 36 79 37 30 38 84 39 78 40 80 41 31 42 83 43 77 44 76 45
REMARK SMILES IDX 32 47 64 48 44 49 63 50 45 51 48 52 62 53 81 54 46 55 47 56
REMARK SMILES IDX 61 58 82 59 49 60 33 61 34 62 42 63 35 64 36 65 40 66 43 67
REMARK SMILES IDX 37 68 38 69 41 70 39 71 65 72 66 73 74 74 67 75 68 76 72 77
REMARK SMILES IDX 75 78 69 79 70 80 73 81 71 82 50 83 51 84 59 85 52 86 53 87
REMARK SMILES IDX 57 88 60 89 54 90 55 91 58 92 56 93
REMARK H PARENT 17 6 8 14 21 27 80 46 48 57
REMARK Flexibility Score: inf
ROOT
ATOM      1  C   UNL A   1      31.769  28.857  26.204  1.00  0.00     0.042 C 
ENDROOT
BRANCH   1   2
ATOM      2  C   UNL A   1      32.072  27.611  27.004  1.00  0.00     0.118 C 
BRANCH   2   3
ATOM      3  N   UNL A   1      31.148  26.518  26.874  1.00  0.00    -0.352 N 
ATOM      4  C   UNL A   1      31.381  25.258  26.369  1.00  0.00     0.253 C 
ATOM      5  O   UNL A   1      30.507  24.410  26.570  1.00  0.00    -0.269 OA
ATOM      6  H   UNL A   1      30.232  26.692  27.186  1.00  0.00     0.163 HD
BRANCH   4   7
ATOM      7  C   UNL A   1      32.532  24.922  25.468  1.00  0.00     0.063 A 
ATOM      8  C   UNL A   1      32.630  25.034  24.063  1.00  0.00     0.051 A 
ATOM      9  C   UNL A   1      33.795  24.518  23.442  1.00  0.00     0.027 A 
ATOM     10  C   UNL A   1      34.858  23.984  24.171  1.00  0.00     0.002 A 
ATOM     11  C   UNL A   1      33.635  24.404  26.189  1.00  0.00     0.016 A 
ATOM     12  C   UNL A   1      34.789  23.950  25.552  1.00  0.00     0.001 A 
BRANCH   8  13
ATOM     13  N   UNL A   1      31.751  25.690  23.172  1.00  0.00    -0.352 N 
ATOM     14  H   UNL A   1      31.471  25.114  22.425  1.00  0.00     0.167 HD
BRANCH  13  15
ATOM     15  C   UNL A   1      31.180  26.985  23.104  1.00  0.00     0.077 A 
ATOM     16  C   UNL A   1      27.806  28.812  23.002  1.00  0.00     0.046 C 
ATOM     17  C   UNL A   1      29.281  28.528  22.919  1.00  0.00    -0.030 A 
ATOM     18  C   UNL A   1      30.140  29.533  22.451  1.00  0.00     0.006 A 
ATOM     19  C   UNL A   1      29.811  27.270  23.280  1.00  0.00     0.069 A 
ATOM     20  C   UNL A   1      31.510  29.309  22.370  1.00  0.00     0.023 A 
ATOM     21  Cl  UNL A   1      28.765  26.129  24.074  1.00  0.00    -0.082 Cl
ATOM     22  C   UNL A   1      32.022  28.055  22.698  1.00  0.00     0.066 A 
ATOM     23  Cl  UNL A   1      33.727  27.804  22.473  1.00  0.00    -0.082 Cl
ENDBRANCH  13  15
ENDBRANCH   8  13
ENDBRANCH   4   7
ENDBRANCH   2   3
ENDBRANCH   1   2
BRANCH   1  24
ATOM     24  C   UNL A   1      32.961  29.778  25.975  1.00  0.00     0.118 C 
BRANCH  24  25
ATOM     25  N   UNL A   1      32.819  31.129  26.522  1.00  0.00    -0.352 N 
ATOM     26  C   UNL A   1      33.582  31.868  27.403  1.00  0.00     0.251 C 
ATOM     27  H   UNL A   1      32.020  31.605  26.196  1.00  0.00     0.163 HD
ATOM     28  O   UNL A   1      33.185  32.963  27.777  1.00  0.00    -0.269 OA
BRANCH  26  29
ATOM     29  C   UNL A   1      34.858  31.335  27.932  1.00  0.00     0.039 A 
ATOM     30  C   UNL A   1      35.950  32.195  28.101  1.00  0.00     0.014 A 
ATOM     31  C   UNL A   1      34.985  29.992  28.270  1.00  0.00     0.014 A 
ATOM     32  C   UNL A   1      37.118  31.727  28.715  1.00  0.00     0.010 A 
ATOM     33  C   UNL A   1      36.078  29.568  29.010  1.00  0.00     0.010 A 
ATOM     34  C   UNL A   1      37.166  30.424  29.232  1.00  0.00    -0.014 A 
BRANCH  34  35
ATOM     35  C   UNL A   1      38.336  29.898  29.981  1.00  0.00     0.031 A 
ATOM     36  C   UNL A   1      38.601  30.389  31.381  1.00  0.00     0.074 A 
ATOM     37  C   UNL A   1      39.226  29.095  29.368  1.00  0.00     0.049 A 
ATOM     38  N   UNL A   1      39.655  30.222  32.138  1.00  0.00    -0.248 NA
ATOM     39  C   UNL A   1      37.562  31.240  31.984  1.00  0.00     0.031 C 
ATOM     40  C   UNL A   1      39.125  28.612  27.990  1.00  0.00     0.029 A 
ATOM     41  N   UNL A   1      40.410  28.565  29.818  1.00  0.00    -0.354 N 
ATOM     42  C   UNL A   1      39.422  30.981  33.276  1.00  0.00     0.074 A 
ATOM     43  C   UNL A   1      38.168  31.671  33.078  1.00  0.00     0.031 C 
ATOM     44  C   UNL A   1      40.189  27.843  27.713  1.00  0.00     0.029 A 
ATOM     45  C   UNL A   1      41.069  27.813  28.877  1.00  0.00     0.049 A 
ATOM     46  H   UNL A   1      40.753  28.711  30.729  1.00  0.00     0.167 HD
ATOM     47  C   UNL A   1      40.168  31.069  34.404  1.00  0.00     0.037 A 
ATOM     48  C   UNL A   1      42.256  27.179  28.943  1.00  0.00     0.037 A 
ATOM     49  C   UNL A   1      41.389  30.337  34.613  1.00  0.00     0.049 A 
ATOM     50  C   UNL A   1      43.045  27.243  30.222  1.00  0.00     0.074 A 
ATOM     51  C   UNL A   1      42.184  30.283  35.742  1.00  0.00     0.029 A 
ATOM     52  N   UNL A   1      41.987  29.521  33.662  1.00  0.00    -0.354 N 
ATOM     53  N   UNL A   1      42.784  27.906  31.322  1.00  0.00    -0.248 NA
ATOM     54  C   UNL A   1      44.287  26.461  30.272  1.00  0.00     0.031 C 
ATOM     55  C   UNL A   1      43.284  29.464  35.462  1.00  0.00     0.029 A 
ATOM     56  C   UNL A   1      43.149  28.968  34.174  1.00  0.00     0.049 A 
ATOM     57  H   UNL A   1      41.636  29.359  32.756  1.00  0.00     0.167 HD
ATOM     58  C   UNL A   1      43.814  27.608  32.203  1.00  0.00     0.074 A 
ATOM     59  C   UNL A   1      44.696  26.690  31.513  1.00  0.00     0.031 C 
ATOM     60  C   UNL A   1      44.012  28.055  33.468  1.00  0.00     0.037 A 
BRANCH  47  61
ATOM     61  C   UNL A   1      39.670  31.982  35.491  1.00  0.00     0.064 A 
ATOM     62  C   UNL A   1      38.709  31.560  36.426  1.00  0.00     0.173 A 
ATOM     63  C   UNL A   1      40.140  33.300  35.589  1.00  0.00     0.173 A 
ATOM     64  F   UNL A   1      38.215  30.314  36.373  1.00  0.00    -0.203 F 
ATOM     65  C   UNL A   1      38.198  32.439  37.378  1.00  0.00     0.198 A 
ATOM     66  C   UNL A   1      39.655  34.164  36.569  1.00  0.00     0.198 A 
ATOM     67  F   UNL A   1      41.063  33.755  34.729  1.00  0.00    -0.203 F 
ATOM     68  F   UNL A   1      37.223  32.035  38.203  1.00  0.00    -0.200 F 
ATOM     69  C   UNL A   1      38.674  33.739  37.452  1.00  0.00     0.200 A 
ATOM     70  F   UNL A   1      40.126  35.416  36.648  1.00  0.00    -0.200 F 
ATOM     71  F   UNL A   1      38.178  34.585  38.363  1.00  0.00    -0.200 F 
ENDBRANCH  47  61
BRANCH  48  72
ATOM     72  C   UNL A   1      42.736  26.400  27.773  1.00  0.00     0.064 A 
ATOM     73  C   UNL A   1      42.296  25.087  27.555  1.00  0.00     0.173 A 
ATOM     74  C   UNL A   1      43.608  26.961  26.828  1.00  0.00     0.173 A 
ATOM     75  F   UNL A   1      41.475  24.502  28.439  1.00  0.00    -0.203 F 
ATOM     76  C   UNL A   1      42.715  24.362  26.442  1.00  0.00     0.198 A 
ATOM     77  C   UNL A   1      44.007  26.244  25.701  1.00  0.00     0.198 A 
ATOM     78  F   UNL A   1      44.051  28.217  26.985  1.00  0.00    -0.203 F 
ATOM     79  F   UNL A   1      42.302  23.100  26.272  1.00  0.00    -0.200 F 
ATOM     80  C   UNL A   1      43.564  24.944  25.511  1.00  0.00     0.200 A 
ATOM     81  F   UNL A   1      44.812  26.815  24.796  1.00  0.00    -0.200 F 
ATOM     82  F   UNL A   1      43.953  24.251  24.432  1.00  0.00    -0.200 F 
ENDBRANCH  48  72
BRANCH  60  83
ATOM     83  C   UNL A   1      45.215  27.534  34.198  1.00  0.00     0.064 A 
ATOM     84  C   UNL A   1      45.166  26.348  34.943  1.00  0.00     0.173 A 
ATOM     85  C   UNL A   1      46.443  28.208  34.111  1.00  0.00     0.173 A 
ATOM     86  F   UNL A   1      44.012  25.675  35.067  1.00  0.00    -0.203 F 
ATOM     87  C   UNL A   1      46.298  25.866  35.594  1.00  0.00     0.198 A 
ATOM     88  C   UNL A   1      47.580  27.709  34.739  1.00  0.00     0.198 A 
ATOM     89  F   UNL A   1      46.543  29.344  33.405  1.00  0.00    -0.203 F 
ATOM     90  F   UNL A   1      46.219  24.754  36.339  1.00  0.00    -0.200 F 
ATOM     91  C   UNL A   1      47.506  26.542  35.485  1.00  0.00     0.200 A 
ATOM     92  F   UNL A   1      48.748  28.355  34.620  1.00  0.00    -0.200 F 
ATOM     93  F   UNL A   1      48.596  26.072  36.106  1.00  0.00    -0.200 F 
ENDBRANCH  60  83
ENDBRANCH  34  35
ENDBRANCH  26  29
ENDBRANCH  24  25
ENDBRANCH   1  24
TORSDOF 12
ENDMDL
