MODEL 1
REMARK VINA RESULT:     -12.9      0.000      0.000
REMARK SMILES O=C(NCCCNC(=O)[C@H]1Cc2ccc(Cl)cc2C[N@@H+]1Cc1ccccc1Cl)c1ccc(-c2c3nc(c(-c4c(F)c(F)c(F)c(F)c4F)c4ccc([nH]4)c(-c4c(F)c(F)c(F)c(F)c4F)c4nc(c(-c5c(F)c(F)c(F)c(F)c5F)c5ccc2[nH]5)C=C4)C=C3)cc1
REMARK SMILES IDX 5 1 4 2 3 3 1 4 2 5 29 7 30 8 91 9 31 10 90 11 32 12 33 13
REMARK SMILES IDX 34 14 84 15 35 16 89 17 83 18 85 19 36 20 88 21 82 22 81 23
REMARK SMILES IDX 37 25 69 26 49 27 68 28 50 29 53 30 67 31 86 32 51 33 52 34
REMARK SMILES IDX 66 36 87 37 54 38 38 39 39 40 47 41 40 42 41 43 45 44 48 45
REMARK SMILES IDX 42 46 43 47 46 48 44 49 70 50 71 51 79 52 72 53 73 54 77 55
REMARK SMILES IDX 80 56 74 57 75 58 78 59 76 60 55 61 56 62 64 63 57 64 58 65
REMARK SMILES IDX 62 66 65 67 59 68 60 69 63 70 61 71 6 72 7 73 8 74 9 76
REMARK SMILES IDX 10 77 11 78 20 79 12 80 19 81 13 83 18 84 14 85 17 86 15 87
REMARK SMILES IDX 16 88 21 89 22 90 23 91 27 92 24 93 26 94 28 95 25 96
REMARK H PARENT 3 6 85 24 53 35 7 75 20 82
REMARK Flexibility Score: inf
ROOT
ATOM      1  C   UNL A   1      33.726  28.016  26.149  1.00  0.00     0.042 C 
ENDROOT
BRANCH   1   2
ATOM      2  C   UNL A   1      33.292  28.555  27.513  1.00  0.00     0.118 C 
BRANCH   2   3
ATOM      3  N   UNL A   1      33.463  29.997  27.595  1.00  0.00    -0.352 N 
ATOM      4  O   UNL A   1      34.366  31.940  28.257  1.00  0.00    -0.269 OA
ATOM      5  C   UNL A   1      34.522  30.736  28.053  1.00  0.00     0.251 C 
ATOM      6  H   UNL A   1      32.698  30.525  27.271  1.00  0.00     0.163 HD
BRANCH   5   7
ATOM      7  C   UNL A   1      35.853  30.132  28.299  1.00  0.00     0.039 A 
ATOM      8  C   UNL A   1      36.119  29.613  29.573  1.00  0.00     0.014 A 
ATOM      9  C   UNL A   1      36.879  30.192  27.351  1.00  0.00     0.014 A 
ATOM     10  C   UNL A   1      37.401  29.153  29.895  1.00  0.00     0.010 A 
ATOM     11  C   UNL A   1      38.153  29.703  27.664  1.00  0.00     0.010 A 
ATOM     12  C   UNL A   1      38.431  29.201  28.945  1.00  0.00    -0.014 A 
BRANCH  12  13
ATOM     13  C   UNL A   1      39.818  28.804  29.305  1.00  0.00     0.031 A 
ATOM     14  C   UNL A   1      40.628  29.673  30.230  1.00  0.00     0.074 A 
ATOM     15  C   UNL A   1      40.354  27.670  28.815  1.00  0.00     0.049 A 
ATOM     16  N   UNL A   1      41.883  29.557  30.591  1.00  0.00    -0.248 NA
ATOM     17  C   UNL A   1      39.936  30.826  30.826  1.00  0.00     0.031 C 
ATOM     18  C   UNL A   1      39.668  26.720  27.942  1.00  0.00     0.029 A 
ATOM     19  N   UNL A   1      41.603  27.126  28.988  1.00  0.00    -0.354 N 
ATOM     20  C   UNL A   1      42.130  30.623  31.446  1.00  0.00     0.074 A 
ATOM     21  C   UNL A   1      40.906  31.391  31.532  1.00  0.00     0.031 C 
ATOM     22  C   UNL A   1      40.499  25.699  27.669  1.00  0.00     0.029 A 
ATOM     23  C   UNL A   1      41.787  25.943  28.316  1.00  0.00     0.049 A 
ATOM     24  H   UNL A   1      42.301  27.544  29.542  1.00  0.00     0.167 HD
ATOM     25  C   UNL A   1      43.271  30.927  32.111  1.00  0.00     0.037 A 
ATOM     26  C   UNL A   1      42.873  25.151  28.223  1.00  0.00     0.037 A 
ATOM     27  C   UNL A   1      44.487  30.162  32.043  1.00  0.00     0.049 A 
ATOM     28  C   UNL A   1      44.141  25.538  28.937  1.00  0.00     0.074 A 
ATOM     29  C   UNL A   1      45.707  30.422  32.644  1.00  0.00     0.029 A 
ATOM     30  N   UNL A   1      44.631  28.974  31.343  1.00  0.00    -0.354 N 
ATOM     31  N   UNL A   1      44.375  26.572  29.707  1.00  0.00    -0.248 NA
ATOM     32  C   UNL A   1      45.298  24.645  28.765  1.00  0.00     0.031 C 
ATOM     33  C   UNL A   1      46.594  29.397  32.300  1.00  0.00     0.029 A 
ATOM     34  C   UNL A   1      45.917  28.484  31.509  1.00  0.00     0.049 A 
ATOM     35  H   UNL A   1      43.927  28.543  30.809  1.00  0.00     0.167 HD
ATOM     36  C   UNL A   1      45.688  26.437  30.136  1.00  0.00     0.074 A 
ATOM     37  C   UNL A   1      46.202  25.220  29.546  1.00  0.00     0.031 C 
ATOM     38  C   UNL A   1      46.403  27.254  30.946  1.00  0.00     0.037 A 
BRANCH  25  39
ATOM     39  C   UNL A   1      43.264  32.143  32.985  1.00  0.00     0.064 A 
ATOM     40  C   UNL A   1      43.557  33.412  32.465  1.00  0.00     0.173 A 
ATOM     41  C   UNL A   1      42.888  32.053  34.332  1.00  0.00     0.173 A 
ATOM     42  F   UNL A   1      43.935  33.545  31.184  1.00  0.00    -0.203 F 
ATOM     43  C   UNL A   1      43.476  34.548  33.264  1.00  0.00     0.198 A 
ATOM     44  C   UNL A   1      42.787  33.194  35.125  1.00  0.00     0.198 A 
ATOM     45  F   UNL A   1      42.592  30.862  34.873  1.00  0.00    -0.203 F 
ATOM     46  F   UNL A   1      43.778  35.749  32.752  1.00  0.00    -0.200 F 
ATOM     47  C   UNL A   1      43.083  34.440  34.590  1.00  0.00     0.200 A 
ATOM     48  F   UNL A   1      42.396  33.089  36.402  1.00  0.00    -0.200 F 
ATOM     49  F   UNL A   1      42.988  35.537  35.354  1.00  0.00    -0.200 F 
ENDBRANCH  25  39
BRANCH  26  50
ATOM     50  C   UNL A   1      42.812  23.895  27.435  1.00  0.00     0.064 A 
ATOM     51  C   UNL A   1      42.414  22.692  28.037  1.00  0.00     0.173 A 
ATOM     52  C   UNL A   1      43.172  23.862  26.081  1.00  0.00     0.173 A 
ATOM     53  F   UNL A   1      42.086  22.671  29.337  1.00  0.00    -0.203 F 
ATOM     54  C   UNL A   1      42.393  21.500  27.316  1.00  0.00     0.198 A 
ATOM     55  C   UNL A   1      43.129  22.673  25.355  1.00  0.00     0.198 A 
ATOM     56  F   UNL A   1      43.563  24.986  25.462  1.00  0.00    -0.203 F 
ATOM     57  F   UNL A   1      42.048  20.358  27.925  1.00  0.00    -0.200 F 
ATOM     58  C   UNL A   1      42.745  21.493  25.975  1.00  0.00     0.200 A 
ATOM     59  F   UNL A   1      43.462  22.671  24.058  1.00  0.00    -0.200 F 
ATOM     60  F   UNL A   1      42.726  20.346  25.282  1.00  0.00    -0.200 F 
ENDBRANCH  26  50
BRANCH  38  61
ATOM     61  C   UNL A   1      47.800  26.835  31.294  1.00  0.00     0.064 A 
ATOM     62  C   UNL A   1      48.058  25.938  32.339  1.00  0.00     0.173 A 
ATOM     63  C   UNL A   1      48.885  27.296  30.535  1.00  0.00     0.173 A 
ATOM     64  F   UNL A   1      47.053  25.480  33.100  1.00  0.00    -0.203 F 
ATOM     65  C   UNL A   1      49.359  25.527  32.621  1.00  0.00     0.198 A 
ATOM     66  C   UNL A   1      50.181  26.868  30.806  1.00  0.00     0.198 A 
ATOM     67  F   UNL A   1      48.685  28.153  29.521  1.00  0.00    -0.203 F 
ATOM     68  F   UNL A   1      49.589  24.692  33.643  1.00  0.00    -0.200 F 
ATOM     69  C   UNL A   1      50.417  25.988  31.851  1.00  0.00     0.200 A 
ATOM     70  F   UNL A   1      51.202  27.307  30.056  1.00  0.00    -0.200 F 
ATOM     71  F   UNL A   1      51.667  25.586  32.119  1.00  0.00    -0.200 F 
ENDBRANCH  38  61
ENDBRANCH  12  13
ENDBRANCH   5   7
ENDBRANCH   2   3
ENDBRANCH   1   2
BRANCH   1  72
ATOM     72  C   UNL A   1      33.444  26.530  25.941  1.00  0.00     0.118 C 
BRANCH  72  73
ATOM     73  N   UNL A   1      32.126  26.144  26.410  1.00  0.00    -0.351 N 
ATOM     74  C   UNL A   1      31.365  25.046  26.108  1.00  0.00     0.278 C 
ATOM     75  H   UNL A   1      31.714  26.770  27.049  1.00  0.00     0.163 HD
ATOM     76  O   UNL A   1      30.274  24.947  26.675  1.00  0.00    -0.268 OA
BRANCH  74  77
ATOM     77  C   UNL A   1      31.928  23.967  25.160  1.00  0.00     0.279 C 
ATOM     78  C   UNL A   1      32.151  22.739  26.076  1.00  0.00     0.111 C 
ATOM     79  N   UNL A   1      31.000  23.627  24.053  1.00  0.00    -0.317 N 
ATOM     80  C   UNL A   1      32.470  21.473  25.329  1.00  0.00    -0.033 A 
ATOM     81  C   UNL A   1      31.490  22.514  23.234  1.00  0.00     0.300 C 
ATOM     82  H   UNL A   1      30.161  23.308  24.538  1.00  0.00     0.349 HD
ATOM     83  C   UNL A   1      33.095  20.400  25.980  1.00  0.00     0.006 A 
ATOM     84  C   UNL A   1      32.082  21.348  23.990  1.00  0.00     0.011 A 
ATOM     85  C   UNL A   1      33.367  19.217  25.289  1.00  0.00     0.021 A 
ATOM     86  C   UNL A   1      32.357  20.153  23.303  1.00  0.00     0.030 A 
ATOM     87  C   UNL A   1      32.997  19.099  23.953  1.00  0.00     0.041 A 
ATOM     88  Cl  UNL A   1      33.351  17.654  23.090  1.00  0.00    -0.084 Cl
BRANCH  79  89
ATOM     89  C   UNL A   1      30.501  24.762  23.244  1.00  0.00     0.301 C 
BRANCH  89  90
ATOM     90  C   UNL A   1      31.460  25.903  22.929  1.00  0.00     0.025 A 
ATOM     91  C   UNL A   1      32.723  25.624  22.370  1.00  0.00     0.011 A 
ATOM     92  C   UNL A   1      31.131  27.260  23.109  1.00  0.00     0.049 A 
ATOM     93  C   UNL A   1      33.660  26.630  22.120  1.00  0.00     0.001 A 
ATOM     94  C   UNL A   1      32.065  28.271  22.835  1.00  0.00     0.021 A 
ATOM     95  Cl  UNL A   1      29.576  27.789  23.646  1.00  0.00    -0.084 Cl
ATOM     96  C   UNL A   1      33.337  27.955  22.368  1.00  0.00     0.002 A 
ENDBRANCH  89  90
ENDBRANCH  79  89
ENDBRANCH  74  77
ENDBRANCH  72  73
ENDBRANCH   1  72
TORSDOF 12
ENDMDL
MODEL 2
REMARK VINA RESULT:     -12.9      3.243      8.851
REMARK SMILES O=C(NCCCNC(=O)[C@H]1Cc2ccc(Cl)cc2C[N@@H+]1Cc1ccccc1Cl)c1ccc(-c2c3nc(c(-c4c(F)c(F)c(F)c(F)c4F)c4ccc([nH]4)c(-c4c(F)c(F)c(F)c(F)c4F)c4nc(c(-c5c(F)c(F)c(F)c(F)c5F)c5ccc2[nH]5)C=C4)C=C3)cc1
REMARK SMILES IDX 5 1 4 2 3 3 1 4 2 5 29 7 30 8 91 9 31 10 90 11 32 12 33 13
REMARK SMILES IDX 34 14 84 15 35 16 89 17 83 18 85 19 36 20 88 21 82 22 81 23
REMARK SMILES IDX 37 25 69 26 49 27 68 28 50 29 53 30 67 31 86 32 51 33 52 34
REMARK SMILES IDX 66 36 87 37 54 38 38 39 39 40 47 41 40 42 41 43 45 44 48 45
REMARK SMILES IDX 42 46 43 47 46 48 44 49 70 50 71 51 79 52 72 53 73 54 77 55
REMARK SMILES IDX 80 56 74 57 75 58 78 59 76 60 55 61 56 62 64 63 57 64 58 65
REMARK SMILES IDX 62 66 65 67 59 68 60 69 63 70 61 71 6 72 7 73 8 74 9 76
REMARK SMILES IDX 10 77 11 78 20 79 12 80 19 81 13 83 18 84 14 85 17 86 15 87
REMARK SMILES IDX 16 88 21 89 22 90 23 91 27 92 24 93 26 94 28 95 25 96
REMARK H PARENT 3 6 85 24 53 35 7 75 20 82
REMARK Flexibility Score: inf
ROOT
ATOM      1  C   UNL A   1      35.984  23.832  25.677  1.00  0.00     0.042 C 
ENDROOT
BRANCH   1   2
ATOM      2  C   UNL A   1      37.164  23.508  24.759  1.00  0.00     0.118 C 
BRANCH   2   3
ATOM      3  N   UNL A   1      38.095  22.587  25.394  1.00  0.00    -0.352 N 
ATOM      4  O   UNL A   1      39.964  21.928  26.442  1.00  0.00    -0.269 OA
ATOM      5  C   UNL A   1      39.167  22.837  26.209  1.00  0.00     0.251 C 
ATOM      6  H   UNL A   1      37.929  21.635  25.207  1.00  0.00     0.163 HD
BRANCH   5   7
ATOM      7  C   UNL A   1      39.389  24.166  26.829  1.00  0.00     0.039 A 
ATOM      8  C   UNL A   1      40.126  25.116  26.110  1.00  0.00     0.014 A 
ATOM      9  C   UNL A   1      39.008  24.440  28.146  1.00  0.00     0.014 A 
ATOM     10  C   UNL A   1      40.476  26.334  26.703  1.00  0.00     0.010 A 
ATOM     11  C   UNL A   1      39.332  25.672  28.728  1.00  0.00     0.010 A 
ATOM     12  C   UNL A   1      40.087  26.620  28.019  1.00  0.00    -0.014 A 
BRANCH  12  13
ATOM     13  C   UNL A   1      40.534  27.868  28.691  1.00  0.00     0.031 A 
ATOM     14  C   UNL A   1      41.985  28.047  29.050  1.00  0.00     0.074 A 
ATOM     15  C   UNL A   1      39.651  28.845  28.976  1.00  0.00     0.049 A 
ATOM     16  N   UNL A   1      42.561  29.015  29.721  1.00  0.00    -0.248 NA
ATOM     17  C   UNL A   1      42.911  26.999  28.594  1.00  0.00     0.031 C 
ATOM     18  C   UNL A   1      38.226  28.817  28.652  1.00  0.00     0.029 A 
ATOM     19  N   UNL A   1      39.829  30.053  29.605  1.00  0.00    -0.354 N 
ATOM     20  C   UNL A   1      43.909  28.687  29.775  1.00  0.00     0.074 A 
ATOM     21  C   UNL A   1      44.066  27.420  29.092  1.00  0.00     0.031 C 
ATOM     22  C   UNL A   1      37.662  29.964  29.067  1.00  0.00     0.029 A 
ATOM     23  C   UNL A   1      38.675  30.789  29.721  1.00  0.00     0.049 A 
ATOM     24  H   UNL A   1      40.701  30.363  29.940  1.00  0.00     0.167 HD
ATOM     25  C   UNL A   1      44.928  29.385  30.332  1.00  0.00     0.037 A 
ATOM     26  C   UNL A   1      38.458  31.986  30.298  1.00  0.00     0.037 A 
ATOM     27  C   UNL A   1      44.785  30.651  30.999  1.00  0.00     0.049 A 
ATOM     28  C   UNL A   1      39.602  32.720  30.948  1.00  0.00     0.074 A 
ATOM     29  C   UNL A   1      45.754  31.408  31.636  1.00  0.00     0.029 A 
ATOM     30  N   UNL A   1      43.596  31.357  31.100  1.00  0.00    -0.354 N 
ATOM     31  N   UNL A   1      40.863  32.378  31.031  1.00  0.00    -0.248 NA
ATOM     32  C   UNL A   1      39.286  34.006  31.588  1.00  0.00     0.031 C 
ATOM     33  C   UNL A   1      45.151  32.568  32.132  1.00  0.00     0.029 A 
ATOM     34  C   UNL A   1      43.813  32.546  31.778  1.00  0.00     0.049 A 
ATOM     35  H   UNL A   1      42.729  31.059  30.744  1.00  0.00     0.167 HD
ATOM     36  C   UNL A   1      41.496  33.417  31.699  1.00  0.00     0.074 A 
ATOM     37  C   UNL A   1      40.483  34.405  31.997  1.00  0.00     0.031 C 
ATOM     38  C   UNL A   1      42.802  33.537  32.036  1.00  0.00     0.037 A 
BRANCH  25  39
ATOM     39  C   UNL A   1      46.304  28.801  30.240  1.00  0.00     0.064 A 
ATOM     40  C   UNL A   1      46.781  27.911  31.213  1.00  0.00     0.173 A 
ATOM     41  C   UNL A   1      47.124  29.071  29.134  1.00  0.00     0.173 A 
ATOM     42  F   UNL A   1      46.037  27.633  32.295  1.00  0.00    -0.203 F 
ATOM     43  C   UNL A   1      48.031  27.313  31.084  1.00  0.00     0.198 A 
ATOM     44  C   UNL A   1      48.365  28.456  28.997  1.00  0.00     0.198 A 
ATOM     45  F   UNL A   1      46.708  29.911  28.175  1.00  0.00    -0.203 F 
ATOM     46  F   UNL A   1      48.475  26.479  32.034  1.00  0.00    -0.200 F 
ATOM     47  C   UNL A   1      48.818  27.578  29.972  1.00  0.00     0.200 A 
ATOM     48  F   UNL A   1      49.119  28.703  27.918  1.00  0.00    -0.200 F 
ATOM     49  F   UNL A   1      50.014  26.988  29.841  1.00  0.00    -0.200 F 
ENDBRANCH  25  39
BRANCH  26  50
ATOM     50  C   UNL A   1      37.101  32.588  30.276  1.00  0.00     0.064 A 
ATOM     51  C   UNL A   1      36.726  33.469  29.251  1.00  0.00     0.173 A 
ATOM     52  C   UNL A   1      36.165  32.319  31.284  1.00  0.00     0.173 A 
ATOM     53  F   UNL A   1      37.598  33.776  28.280  1.00  0.00    -0.203 F 
ATOM     54  C   UNL A   1      35.469  34.069  29.244  1.00  0.00     0.198 A 
ATOM     55  C   UNL A   1      34.900  32.902  31.263  1.00  0.00     0.198 A 
ATOM     56  F   UNL A   1      36.478  31.486  32.287  1.00  0.00    -0.203 F 
ATOM     57  F   UNL A   1      35.151  34.938  28.276  1.00  0.00    -0.200 F 
ATOM     58  C   UNL A   1      34.556  33.782  30.246  1.00  0.00     0.200 A 
ATOM     59  F   UNL A   1      34.017  32.617  32.229  1.00  0.00    -0.200 F 
ATOM     60  F   UNL A   1      33.347  34.361  30.240  1.00  0.00    -0.200 F 
ENDBRANCH  26  50
BRANCH  38  61
ATOM     61  C   UNL A   1      43.230  34.803  32.714  1.00  0.00     0.064 A 
ATOM     62  C   UNL A   1      43.648  35.922  31.983  1.00  0.00     0.173 A 
ATOM     63  C   UNL A   1      43.164  34.913  34.111  1.00  0.00     0.173 A 
ATOM     64  F   UNL A   1      43.739  35.861  30.646  1.00  0.00    -0.203 F 
ATOM     65  C   UNL A   1      44.001  37.105  32.628  1.00  0.00     0.198 A 
ATOM     66  C   UNL A   1      43.498  36.103  34.751  1.00  0.00     0.198 A 
ATOM     67  F   UNL A   1      42.764  33.869  34.853  1.00  0.00    -0.203 F 
ATOM     68  F   UNL A   1      44.428  38.155  31.913  1.00  0.00    -0.200 F 
ATOM     69  C   UNL A   1      43.920  37.196  34.010  1.00  0.00     0.200 A 
ATOM     70  F   UNL A   1      43.411  36.192  36.086  1.00  0.00    -0.200 F 
ATOM     71  F   UNL A   1      44.253  38.337  34.628  1.00  0.00    -0.200 F 
ENDBRANCH  38  61
ENDBRANCH  12  13
ENDBRANCH   5   7
ENDBRANCH   2   3
ENDBRANCH   1   2
BRANCH   1  72
ATOM     72  C   UNL A   1      34.891  24.673  25.023  1.00  0.00     0.118 C 
BRANCH  72  73
ATOM     73  N   UNL A   1      34.652  24.296  23.641  1.00  0.00    -0.351 N 
ATOM     74  C   UNL A   1      33.564  24.517  22.838  1.00  0.00     0.278 C 
ATOM     75  H   UNL A   1      35.390  23.805  23.213  1.00  0.00     0.163 HD
ATOM     76  O   UNL A   1      33.633  24.105  21.677  1.00  0.00    -0.268 OA
BRANCH  74  77
ATOM     77  C   UNL A   1      32.368  25.324  23.382  1.00  0.00     0.279 C 
ATOM     78  C   UNL A   1      32.410  26.648  22.581  1.00  0.00     0.111 C 
ATOM     79  N   UNL A   1      31.068  24.637  23.183  1.00  0.00    -0.317 N 
ATOM     80  C   UNL A   1      31.189  27.507  22.763  1.00  0.00    -0.033 A 
ATOM     81  C   UNL A   1      29.929  25.467  23.588  1.00  0.00     0.300 C 
ATOM     82  H   UNL A   1      31.018  24.516  22.171  1.00  0.00     0.349 HD
ATOM     83  C   UNL A   1      31.231  28.877  22.465  1.00  0.00     0.006 A 
ATOM     84  C   UNL A   1      29.988  26.918  23.173  1.00  0.00     0.011 A 
ATOM     85  C   UNL A   1      30.089  29.666  22.611  1.00  0.00     0.021 A 
ATOM     86  C   UNL A   1      28.842  27.719  23.314  1.00  0.00     0.030 A 
ATOM     87  C   UNL A   1      28.899  29.084  23.036  1.00  0.00     0.041 A 
ATOM     88  Cl  UNL A   1      27.494  30.055  23.241  1.00  0.00    -0.084 Cl
BRANCH  79  89
ATOM     89  C   UNL A   1      30.976  23.247  23.684  1.00  0.00     0.301 C 
BRANCH  89  90
ATOM     90  C   UNL A   1      31.664  22.906  25.000  1.00  0.00     0.025 A 
ATOM     91  C   UNL A   1      31.394  23.673  26.152  1.00  0.00     0.011 A 
ATOM     92  C   UNL A   1      32.528  21.807  25.157  1.00  0.00     0.049 A 
ATOM     93  C   UNL A   1      32.044  23.437  27.366  1.00  0.00     0.001 A 
ATOM     94  C   UNL A   1      33.163  21.558  26.384  1.00  0.00     0.021 A 
ATOM     95  Cl  UNL A   1      32.857  20.678  23.891  1.00  0.00    -0.084 Cl
ATOM     96  C   UNL A   1      32.943  22.388  27.479  1.00  0.00     0.002 A 
ENDBRANCH  89  90
ENDBRANCH  79  89
ENDBRANCH  74  77
ENDBRANCH  72  73
ENDBRANCH   1  72
TORSDOF 12
ENDMDL
MODEL 3
REMARK VINA RESULT:     -12.8      3.052      8.150
REMARK SMILES O=C(NCCCNC(=O)[C@H]1Cc2ccc(Cl)cc2C[N@@H+]1Cc1ccccc1Cl)c1ccc(-c2c3nc(c(-c4c(F)c(F)c(F)c(F)c4F)c4ccc([nH]4)c(-c4c(F)c(F)c(F)c(F)c4F)c4nc(c(-c5c(F)c(F)c(F)c(F)c5F)c5ccc2[nH]5)C=C4)C=C3)cc1
REMARK SMILES IDX 5 1 4 2 3 3 1 4 2 5 29 7 30 8 91 9 31 10 90 11 32 12 33 13
REMARK SMILES IDX 34 14 84 15 35 16 89 17 83 18 85 19 36 20 88 21 82 22 81 23
REMARK SMILES IDX 37 25 69 26 49 27 68 28 50 29 53 30 67 31 86 32 51 33 52 34
REMARK SMILES IDX 66 36 87 37 54 38 38 39 39 40 47 41 40 42 41 43 45 44 48 45
REMARK SMILES IDX 42 46 43 47 46 48 44 49 70 50 71 51 79 52 72 53 73 54 77 55
REMARK SMILES IDX 80 56 74 57 75 58 78 59 76 60 55 61 56 62 64 63 57 64 58 65
REMARK SMILES IDX 62 66 65 67 59 68 60 69 63 70 61 71 6 72 7 73 8 74 9 76
REMARK SMILES IDX 10 77 11 78 20 79 12 80 19 81 13 83 18 84 14 85 17 86 15 87
REMARK SMILES IDX 16 88 21 89 22 90 23 91 27 92 24 93 26 94 28 95 25 96
REMARK H PARENT 3 6 85 24 53 35 7 75 20 82
REMARK Flexibility Score: inf
ROOT
ATOM      1  C   UNL A   1      33.625  28.150  23.659  1.00  0.00     0.042 C 
ENDROOT
BRANCH   1   2
ATOM      2  C   UNL A   1      34.001  28.635  25.060  1.00  0.00     0.118 C 
BRANCH   2   3
ATOM      3  N   UNL A   1      33.278  29.846  25.415  1.00  0.00    -0.352 N 
ATOM      4  O   UNL A   1      32.470  31.460  26.745  1.00  0.00    -0.269 OA
ATOM      5  C   UNL A   1      33.340  30.612  26.550  1.00  0.00     0.251 C 
ATOM      6  H   UNL A   1      32.645  30.167  24.733  1.00  0.00     0.163 HD
BRANCH   5   7
ATOM      7  C   UNL A   1      34.430  30.457  27.542  1.00  0.00     0.039 A 
ATOM      8  C   UNL A   1      35.439  31.428  27.573  1.00  0.00     0.014 A 
ATOM      9  C   UNL A   1      34.546  29.315  28.341  1.00  0.00     0.014 A 
ATOM     10  C   UNL A   1      36.557  31.259  28.398  1.00  0.00     0.010 A 
ATOM     11  C   UNL A   1      35.650  29.162  29.189  1.00  0.00     0.010 A 
ATOM     12  C   UNL A   1      36.675  30.121  29.208  1.00  0.00    -0.014 A 
BRANCH  12  13
ATOM     13  C   UNL A   1      37.900  29.885  30.016  1.00  0.00     0.031 A 
ATOM     14  C   UNL A   1      39.023  29.058  29.449  1.00  0.00     0.074 A 
ATOM     15  C   UNL A   1      38.017  30.411  31.250  1.00  0.00     0.049 A 
ATOM     16  N   UNL A   1      40.130  28.656  30.023  1.00  0.00    -0.248 NA
ATOM     17  C   UNL A   1      38.880  28.624  28.050  1.00  0.00     0.031 C 
ATOM     18  C   UNL A   1      37.024  31.261  31.905  1.00  0.00     0.029 A 
ATOM     19  N   UNL A   1      39.030  30.307  32.172  1.00  0.00    -0.354 N 
ATOM     20  C   UNL A   1      40.808  27.918  29.062  1.00  0.00     0.074 A 
ATOM     21  C   UNL A   1      39.980  27.904  27.875  1.00  0.00     0.031 C 
ATOM     22  C   UNL A   1      37.484  31.616  33.117  1.00  0.00     0.029 A 
ATOM     23  C   UNL A   1      38.785  30.988  33.340  1.00  0.00     0.049 A 
ATOM     24  H   UNL A   1      39.854  29.793  32.013  1.00  0.00     0.167 HD
ATOM     25  C   UNL A   1      42.019  27.317  29.156  1.00  0.00     0.037 A 
ATOM     26  C   UNL A   1      39.520  31.086  34.464  1.00  0.00     0.037 A 
ATOM     27  C   UNL A   1      42.855  27.338  30.326  1.00  0.00     0.049 A 
ATOM     28  C   UNL A   1      40.842  30.371  34.555  1.00  0.00     0.074 A 
ATOM     29  C   UNL A   1      44.076  26.715  30.527  1.00  0.00     0.029 A 
ATOM     30  N   UNL A   1      42.565  28.034  31.488  1.00  0.00    -0.354 N 
ATOM     31  N   UNL A   1      41.451  29.640  33.655  1.00  0.00    -0.248 NA
ATOM     32  C   UNL A   1      41.577  30.494  35.824  1.00  0.00     0.031 C 
ATOM     33  C   UNL A   1      44.520  27.026  31.816  1.00  0.00     0.029 A 
ATOM     34  C   UNL A   1      43.590  27.865  32.405  1.00  0.00     0.049 A 
ATOM     35  H   UNL A   1      41.753  28.568  31.640  1.00  0.00     0.167 HD
ATOM     36  C   UNL A   1      42.650  29.245  34.234  1.00  0.00     0.074 A 
ATOM     37  C   UNL A   1      42.687  29.820  35.560  1.00  0.00     0.031 C 
ATOM     38  C   UNL A   1      43.631  28.472  33.709  1.00  0.00     0.037 A 
BRANCH  25  39
ATOM     39  C   UNL A   1      42.527  26.583  27.953  1.00  0.00     0.064 A 
ATOM     40  C   UNL A   1      43.326  27.225  26.996  1.00  0.00     0.173 A 
ATOM     41  C   UNL A   1      42.281  25.212  27.794  1.00  0.00     0.173 A 
ATOM     42  F   UNL A   1      43.579  28.539  27.100  1.00  0.00    -0.203 F 
ATOM     43  C   UNL A   1      43.858  26.521  25.920  1.00  0.00     0.198 A 
ATOM     44  C   UNL A   1      42.830  24.505  26.728  1.00  0.00     0.198 A 
ATOM     45  F   UNL A   1      41.527  24.553  28.687  1.00  0.00    -0.203 F 
ATOM     46  F   UNL A   1      44.604  27.157  25.006  1.00  0.00    -0.200 F 
ATOM     47  C   UNL A   1      43.617  25.160  25.791  1.00  0.00     0.200 A 
ATOM     48  F   UNL A   1      42.607  23.189  26.611  1.00  0.00    -0.200 F 
ATOM     49  F   UNL A   1      44.145  24.480  24.764  1.00  0.00    -0.200 F 
ENDBRANCH  25  39
BRANCH  26  50
ATOM     50  C   UNL A   1      39.037  31.912  35.599  1.00  0.00     0.064 A 
ATOM     51  C   UNL A   1      39.395  33.263  35.704  1.00  0.00     0.173 A 
ATOM     52  C   UNL A   1      38.234  31.367  36.610  1.00  0.00     0.173 A 
ATOM     53  F   UNL A   1      40.184  33.820  34.774  1.00  0.00    -0.203 F 
ATOM     54  C   UNL A   1      38.980  34.035  36.787  1.00  0.00     0.198 A 
ATOM     55  C   UNL A   1      37.800  32.146  37.680  1.00  0.00     0.198 A 
ATOM     56  F   UNL A   1      37.867  30.078  36.555  1.00  0.00    -0.203 F 
ATOM     57  F   UNL A   1      39.371  35.313  36.884  1.00  0.00    -0.200 F 
ATOM     58  C   UNL A   1      38.179  33.477  37.771  1.00  0.00     0.200 A 
ATOM     59  F   UNL A   1      37.019  31.606  38.626  1.00  0.00    -0.200 F 
ATOM     60  F   UNL A   1      37.780  34.219  38.814  1.00  0.00    -0.200 F 
ENDBRANCH  26  50
BRANCH  38  61
ATOM     61  C   UNL A   1      44.856  28.246  34.541  1.00  0.00     0.064 A 
ATOM     62  C   UNL A   1      44.945  27.175  35.440  1.00  0.00     0.173 A 
ATOM     63  C   UNL A   1      45.974  29.081  34.394  1.00  0.00     0.173 A 
ATOM     64  F   UNL A   1      43.898  26.358  35.624  1.00  0.00    -0.203 F 
ATOM     65  C   UNL A   1      46.108  26.956  36.174  1.00  0.00     0.198 A 
ATOM     66  C   UNL A   1      47.141  28.847  35.114  1.00  0.00     0.198 A 
ATOM     67  F   UNL A   1      45.936  30.116  33.541  1.00  0.00    -0.203 F 
ATOM     68  F   UNL A   1      46.164  25.944  37.051  1.00  0.00    -0.200 F 
ATOM     69  C   UNL A   1      47.206  27.787  36.007  1.00  0.00     0.200 A 
ATOM     70  F   UNL A   1      48.204  29.646  34.945  1.00  0.00    -0.200 F 
ATOM     71  F   UNL A   1      48.326  27.571  36.709  1.00  0.00    -0.200 F 
ENDBRANCH  38  61
ENDBRANCH  12  13
ENDBRANCH   5   7
ENDBRANCH   2   3
ENDBRANCH   1   2
BRANCH   1  72
ATOM     72  C   UNL A   1      33.549  26.631  23.518  1.00  0.00     0.118 C 
BRANCH  72  73
ATOM     73  N   UNL A   1      32.850  26.005  24.627  1.00  0.00    -0.351 N 
ATOM     74  C   UNL A   1      33.118  24.842  25.299  1.00  0.00     0.278 C 
ATOM     75  H   UNL A   1      32.058  26.496  24.946  1.00  0.00     0.163 HD
ATOM     76  O   UNL A   1      32.366  24.549  26.232  1.00  0.00    -0.268 OA
BRANCH  74  77
ATOM     77  C   UNL A   1      34.365  24.016  24.924  1.00  0.00     0.279 C 
ATOM     78  C   UNL A   1      35.434  24.457  25.953  1.00  0.00     0.111 C 
ATOM     79  N   UNL A   1      34.136  22.552  25.008  1.00  0.00    -0.317 N 
ATOM     80  C   UNL A   1      36.674  23.606  25.944  1.00  0.00    -0.033 A 
ATOM     81  C   UNL A   1      35.360  21.780  24.773  1.00  0.00     0.300 C 
ATOM     82  H   UNL A   1      33.864  22.411  25.981  1.00  0.00     0.349 HD
ATOM     83  C   UNL A   1      37.874  24.088  26.486  1.00  0.00     0.006 A 
ATOM     84  C   UNL A   1      36.609  22.299  25.445  1.00  0.00     0.011 A 
ATOM     85  C   UNL A   1      39.016  23.286  26.498  1.00  0.00     0.021 A 
ATOM     86  C   UNL A   1      37.762  21.498  25.464  1.00  0.00     0.030 A 
ATOM     87  C   UNL A   1      38.956  21.994  25.986  1.00  0.00     0.041 A 
ATOM     88  Cl  UNL A   1      40.366  21.008  25.976  1.00  0.00    -0.084 Cl
BRANCH  79  89
ATOM     89  C   UNL A   1      32.970  22.027  24.262  1.00  0.00     0.301 C 
BRANCH  89  90
ATOM     90  C   UNL A   1      32.770  20.518  24.201  1.00  0.00     0.025 A 
ATOM     91  C   UNL A   1      33.011  19.732  25.345  1.00  0.00     0.011 A 
ATOM     92  C   UNL A   1      32.287  19.848  23.061  1.00  0.00     0.049 A 
ATOM     93  C   UNL A   1      32.900  18.339  25.323  1.00  0.00     0.001 A 
ATOM     94  C   UNL A   1      32.154  18.451  23.047  1.00  0.00     0.021 A 
ATOM     95  Cl  UNL A   1      31.804  20.670  21.620  1.00  0.00    -0.084 Cl
ATOM     96  C   UNL A   1      32.487  17.695  24.167  1.00  0.00     0.002 A 
ENDBRANCH  89  90
ENDBRANCH  79  89
ENDBRANCH  74  77
ENDBRANCH  72  73
ENDBRANCH   1  72
TORSDOF 12
ENDMDL
