MODEL 1
REMARK VINA RESULT:     -12.8      0.000      0.000
REMARK SMILES O=C(Cc1ccc(S(=O)(=O)N2CCNC(=O)C2)cc1)NCCCNC(=O)c1ccc(-c2c3nc(c(-c4c(F)c(F)c(F)c(F)c4F)c4ccc([nH]4)c(-c4c(F)c(F)c(F)c(F)c4F)c4nc(c(-c5c(F)c(F)c(F)c(F)c5F)c5ccc2[nH]5)C=C4)C=C3)cc1
REMARK SMILES IDX 21 1 20 2 1 3 2 4 3 6 4 7 5 8 19 9 6 10 18 11 7 12 8 13 9 14
REMARK SMILES IDX 10 15 11 16 12 17 17 18 13 19 15 20 14 21 16 22 22 24 23 25
REMARK SMILES IDX 24 26 25 27 26 29 27 30 28 31 89 32 29 33 88 34 30 35 31 36
REMARK SMILES IDX 32 37 82 38 33 39 87 40 81 41 83 42 34 43 86 44 80 45 79 46
REMARK SMILES IDX 35 48 67 49 47 50 66 51 48 52 51 53 65 54 84 55 49 56 50 57
REMARK SMILES IDX 64 59 85 60 52 61 36 62 37 63 45 64 38 65 39 66 43 67 46 68
REMARK SMILES IDX 40 69 41 70 44 71 42 72 68 73 69 74 77 75 70 76 71 77 75 78
REMARK SMILES IDX 78 79 72 80 73 81 76 82 74 83 53 84 54 85 62 86 55 87 56 88
REMARK SMILES IDX 60 89 63 90 57 91 58 92 61 93 59 94
REMARK H PARENT 20 5 14 23 24 28 83 47 51 58
REMARK Flexibility Score: inf
ROOT
ATOM      1  C   UNL A   1      31.734  30.876  25.936  1.00  0.00     0.117 C 
ENDROOT
BRANCH   1   2
ATOM      2  N   UNL A   1      31.772  29.611  26.640  1.00  0.00    -0.356 N 
ATOM      3  O   UNL A   1      31.009  28.324  24.896  1.00  0.00    -0.275 OA
ATOM      4  C   UNL A   1      31.476  28.410  26.027  1.00  0.00     0.224 C 
ATOM      5  H   UNL A   1      32.018  29.607  27.595  1.00  0.00     0.163 HD
BRANCH   4   6
ATOM      6  C   UNL A   1      31.774  27.193  26.883  1.00  0.00     0.135 C 
BRANCH   6   7
ATOM      7  C   UNL A   1      32.332  25.983  26.155  1.00  0.00    -0.039 A 
ATOM      8  C   UNL A   1      31.577  24.841  25.853  1.00  0.00     0.005 A 
ATOM      9  C   UNL A   1      33.660  26.036  25.705  1.00  0.00     0.005 A 
ATOM     10  C   UNL A   1      32.107  23.816  25.067  1.00  0.00     0.022 A 
ATOM     11  C   UNL A   1      34.213  24.986  24.964  1.00  0.00     0.022 A 
ATOM     12  C   UNL A   1      33.420  23.899  24.603  1.00  0.00     0.082 A 
BRANCH  12  13
ATOM     13  S   UNL A   1      34.032  22.591  23.561  1.00  0.00     0.243 S 
ATOM     14  O   UNL A   1      32.922  22.147  22.755  1.00  0.00    -0.207 OA
ATOM     15  O   UNL A   1      35.252  23.092  22.953  1.00  0.00    -0.207 OA
BRANCH  13  16
ATOM     16  N   UNL A   1      34.498  21.340  24.578  1.00  0.00    -0.187 NA
ATOM     17  C   UNL A   1      35.099  21.611  25.897  1.00  0.00     0.124 C 
ATOM     18  C   UNL A   1      33.855  20.015  24.464  1.00  0.00     0.202 C 
ATOM     19  C   UNL A   1      34.063  21.438  27.006  1.00  0.00     0.132 C 
ATOM     20  C   UNL A   1      33.069  19.567  25.689  1.00  0.00     0.235 C 
ATOM     21  N   UNL A   1      33.277  20.226  26.872  1.00  0.00    -0.354 N 
ATOM     22  O   UNL A   1      32.278  18.626  25.653  1.00  0.00    -0.274 OA
ATOM     23  H   UNL A   1      32.866  19.853  27.685  1.00  0.00     0.163 HD
ENDBRANCH  13  16
ENDBRANCH  12  13
ENDBRANCH   6   7
ENDBRANCH   4   6
ENDBRANCH   1   2
BRANCH   1  24
ATOM     24  C   UNL A   1      31.485  32.050  26.869  1.00  0.00     0.042 C 
BRANCH  24  25
ATOM     25  C   UNL A   1      32.741  32.826  27.251  1.00  0.00     0.118 C 
BRANCH  25  26
ATOM     26  N   UNL A   1      32.480  34.208  27.630  1.00  0.00    -0.352 N 
ATOM     27  C   UNL A   1      33.051  34.956  28.634  1.00  0.00     0.251 C 
ATOM     28  H   UNL A   1      31.800  34.673  27.092  1.00  0.00     0.163 HD
ATOM     29  O   UNL A   1      32.631  36.079  28.888  1.00  0.00    -0.269 OA
BRANCH  27  30
ATOM     30  C   UNL A   1      34.154  34.382  29.432  1.00  0.00     0.039 A 
ATOM     31  C   UNL A   1      33.846  33.619  30.560  1.00  0.00     0.014 A 
ATOM     32  C   UNL A   1      35.482  34.561  29.039  1.00  0.00     0.014 A 
ATOM     33  C   UNL A   1      34.868  32.951  31.241  1.00  0.00     0.010 A 
ATOM     34  C   UNL A   1      36.488  33.840  29.673  1.00  0.00     0.010 A 
ATOM     35  C   UNL A   1      36.189  33.017  30.771  1.00  0.00    -0.014 A 
BRANCH  35  36
ATOM     36  C   UNL A   1      37.281  32.222  31.386  1.00  0.00     0.031 A 
ATOM     37  C   UNL A   1      37.799  32.591  32.747  1.00  0.00     0.074 A 
ATOM     38  C   UNL A   1      37.879  31.244  30.678  1.00  0.00     0.049 A 
ATOM     39  N   UNL A   1      38.851  32.142  33.384  1.00  0.00    -0.248 NA
ATOM     40  C   UNL A   1      37.051  33.627  33.475  1.00  0.00     0.031 C 
ATOM     41  C   UNL A   1      37.493  30.815  29.333  1.00  0.00     0.029 A 
ATOM     42  N   UNL A   1      38.957  30.449  30.982  1.00  0.00    -0.354 N 
ATOM     43  C   UNL A   1      38.906  32.859  34.571  1.00  0.00     0.074 A 
ATOM     44  C   UNL A   1      37.805  33.799  34.550  1.00  0.00     0.031 C 
ATOM     45  C   UNL A   1      38.314  29.831  28.931  1.00  0.00     0.029 A 
ATOM     46  C   UNL A   1      39.313  29.592  29.969  1.00  0.00     0.049 A 
ATOM     47  H   UNL A   1      39.430  30.491  31.845  1.00  0.00     0.167 HD
ATOM     48  C   UNL A   1      39.786  32.733  35.591  1.00  0.00     0.037 A 
ATOM     49  C   UNL A   1      40.341  28.726  29.879  1.00  0.00     0.037 A 
ATOM     50  C   UNL A   1      40.858  31.773  35.624  1.00  0.00     0.049 A 
ATOM     51  C   UNL A   1      41.305  28.606  31.028  1.00  0.00     0.074 A 
ATOM     52  C   UNL A   1      41.766  31.530  36.638  1.00  0.00     0.029 A 
ATOM     53  N   UNL A   1      41.159  30.894  34.595  1.00  0.00    -0.354 N 
ATOM     54  N   UNL A   1      41.321  29.258  32.165  1.00  0.00    -0.248 NA
ATOM     55  C   UNL A   1      42.393  27.628  30.882  1.00  0.00     0.031 C 
ATOM     56  C   UNL A   1      42.642  30.528  36.208  1.00  0.00     0.029 A 
ATOM     57  C   UNL A   1      42.250  30.115  34.946  1.00  0.00     0.049 A 
ATOM     58  H   UNL A   1      40.670  30.832  33.743  1.00  0.00     0.167 HD
ATOM     59  C   UNL A   1      42.393  28.746  32.882  1.00  0.00     0.074 A 
ATOM     60  C   UNL A   1      43.005  27.729  32.054  1.00  0.00     0.031 C 
ATOM     61  C   UNL A   1      42.830  29.089  34.118  1.00  0.00     0.037 A 
BRANCH  48  62
ATOM     62  C   UNL A   1      39.628  33.658  36.762  1.00  0.00     0.064 A 
ATOM     63  C   UNL A   1      40.253  34.914  36.798  1.00  0.00     0.173 A 
ATOM     64  C   UNL A   1      38.812  33.300  37.846  1.00  0.00     0.173 A 
ATOM     65  F   UNL A   1      41.054  35.298  35.792  1.00  0.00    -0.203 F 
ATOM     66  C   UNL A   1      40.088  35.765  37.886  1.00  0.00     0.198 A 
ATOM     67  C   UNL A   1      38.627  34.166  38.920  1.00  0.00     0.198 A 
ATOM     68  F   UNL A   1      38.189  32.112  37.860  1.00  0.00    -0.203 F 
ATOM     69  F   UNL A   1      40.734  36.938  37.920  1.00  0.00    -0.200 F 
ATOM     70  C   UNL A   1      39.271  35.394  38.943  1.00  0.00     0.200 A 
ATOM     71  F   UNL A   1      37.828  33.810  39.935  1.00  0.00    -0.200 F 
ATOM     72  F   UNL A   1      39.108  36.216  39.989  1.00  0.00    -0.200 F 
ENDBRANCH  48  62
BRANCH  49  73
ATOM     73  C   UNL A   1      40.503  27.893  28.660  1.00  0.00     0.064 A 
ATOM     74  C   UNL A   1      39.877  26.643  28.558  1.00  0.00     0.173 A 
ATOM     75  C   UNL A   1      41.282  28.322  27.577  1.00  0.00     0.173 A 
ATOM     76  F   UNL A   1      39.140  26.180  29.579  1.00  0.00    -0.203 F 
ATOM     77  C   UNL A   1      40.038  25.847  27.427  1.00  0.00     0.198 A 
ATOM     78  C   UNL A   1      41.422  27.536  26.434  1.00  0.00     0.198 A 
ATOM     79  F   UNL A   1      41.899  29.513  27.622  1.00  0.00    -0.203 F 
ATOM     80  F   UNL A   1      39.462  24.638  27.375  1.00  0.00    -0.200 F 
ATOM     81  C   UNL A   1      40.805  26.296  26.364  1.00  0.00     0.200 A 
ATOM     82  F   UNL A   1      42.154  27.980  25.404  1.00  0.00    -0.200 F 
ATOM     83  F   UNL A   1      40.958  25.531  25.274  1.00  0.00    -0.200 F 
ENDBRANCH  49  73
BRANCH  61  84
ATOM     84  C   UNL A   1      43.990  28.323  34.680  1.00  0.00     0.064 A 
ATOM     85  C   UNL A   1      43.811  27.120  35.376  1.00  0.00     0.173 A 
ATOM     86  C   UNL A   1      45.302  28.770  34.461  1.00  0.00     0.173 A 
ATOM     87  F   UNL A   1      42.575  26.661  35.623  1.00  0.00    -0.203 F 
ATOM     88  C   UNL A   1      44.905  26.396  35.844  1.00  0.00     0.198 A 
ATOM     89  C   UNL A   1      46.394  28.032  34.907  1.00  0.00     0.198 A 
ATOM     90  F   UNL A   1      45.525  29.913  33.795  1.00  0.00    -0.203 F 
ATOM     91  F   UNL A   1      44.712  25.264  36.534  1.00  0.00    -0.200 F 
ATOM     92  C   UNL A   1      46.195  26.848  35.600  1.00  0.00     0.200 A 
ATOM     93  F   UNL A   1      47.639  28.463  34.661  1.00  0.00    -0.200 F 
ATOM     94  F   UNL A   1      47.247  26.142  36.039  1.00  0.00    -0.200 F 
ENDBRANCH  61  84
ENDBRANCH  35  36
ENDBRANCH  27  30
ENDBRANCH  25  26
ENDBRANCH  24  25
ENDBRANCH   1  24
TORSDOF 13
ENDMDL
MODEL 2
REMARK VINA RESULT:     -12.7      1.015      2.009
REMARK SMILES O=C(Cc1ccc(S(=O)(=O)N2CCNC(=O)C2)cc1)NCCCNC(=O)c1ccc(-c2c3nc(c(-c4c(F)c(F)c(F)c(F)c4F)c4ccc([nH]4)c(-c4c(F)c(F)c(F)c(F)c4F)c4nc(c(-c5c(F)c(F)c(F)c(F)c5F)c5ccc2[nH]5)C=C4)C=C3)cc1
REMARK SMILES IDX 21 1 20 2 1 3 2 4 3 6 4 7 5 8 19 9 6 10 18 11 7 12 8 13 9 14
REMARK SMILES IDX 10 15 11 16 12 17 17 18 13 19 15 20 14 21 16 22 22 24 23 25
REMARK SMILES IDX 24 26 25 27 26 29 27 30 28 31 89 32 29 33 88 34 30 35 31 36
REMARK SMILES IDX 32 37 82 38 33 39 87 40 81 41 83 42 34 43 86 44 80 45 79 46
REMARK SMILES IDX 35 48 67 49 47 50 66 51 48 52 51 53 65 54 84 55 49 56 50 57
REMARK SMILES IDX 64 59 85 60 52 61 36 62 37 63 45 64 38 65 39 66 43 67 46 68
REMARK SMILES IDX 40 69 41 70 44 71 42 72 68 73 69 74 77 75 70 76 71 77 75 78
REMARK SMILES IDX 78 79 72 80 73 81 76 82 74 83 53 84 54 85 62 86 55 87 56 88
REMARK SMILES IDX 60 89 63 90 57 91 58 92 61 93 59 94
REMARK H PARENT 20 5 14 23 24 28 83 47 51 58
REMARK Flexibility Score: inf
ROOT
ATOM      1  C   UNL A   1      31.456  30.648  26.543  1.00  0.00     0.117 C 
ENDROOT
BRANCH   1   2
ATOM      2  N   UNL A   1      32.250  30.088  25.470  1.00  0.00    -0.356 N 
ATOM      3  O   UNL A   1      33.669  28.874  26.808  1.00  0.00    -0.275 OA
ATOM      4  C   UNL A   1      33.257  29.171  25.692  1.00  0.00     0.224 C 
ATOM      5  H   UNL A   1      32.065  30.374  24.545  1.00  0.00     0.163 HD
BRANCH   4   6
ATOM      6  C   UNL A   1      33.823  28.561  24.423  1.00  0.00     0.135 C 
BRANCH   6   7
ATOM      7  C   UNL A   1      33.649  27.061  24.267  1.00  0.00    -0.039 A 
ATOM      8  C   UNL A   1      33.001  26.463  23.175  1.00  0.00     0.005 A 
ATOM      9  C   UNL A   1      34.222  26.223  25.236  1.00  0.00     0.005 A 
ATOM     10  C   UNL A   1      32.986  25.075  23.020  1.00  0.00     0.022 A 
ATOM     11  C   UNL A   1      34.161  24.831  25.112  1.00  0.00     0.022 A 
ATOM     12  C   UNL A   1      33.587  24.259  23.979  1.00  0.00     0.082 A 
BRANCH  12  13
ATOM     13  S   UNL A   1      33.587  22.499  23.710  1.00  0.00     0.243 S 
ATOM     14  O   UNL A   1      32.867  22.265  22.482  1.00  0.00    -0.207 OA
ATOM     15  O   UNL A   1      34.963  22.062  23.871  1.00  0.00    -0.207 OA
BRANCH  13  16
ATOM     16  N   UNL A   1      32.729  21.815  24.980  1.00  0.00    -0.187 NA
ATOM     17  C   UNL A   1      33.405  21.007  26.011  1.00  0.00     0.124 C 
ATOM     18  C   UNL A   1      31.452  22.413  25.417  1.00  0.00     0.202 C 
ATOM     19  C   UNL A   1      33.624  21.829  27.280  1.00  0.00     0.132 C 
ATOM     20  C   UNL A   1      31.444  22.958  26.839  1.00  0.00     0.235 C 
ATOM     21  N   UNL A   1      32.449  22.576  27.688  1.00  0.00    -0.354 N 
ATOM     22  O   UNL A   1      30.557  23.705  27.251  1.00  0.00    -0.274 OA
ATOM     23  H   UNL A   1      32.370  22.826  28.637  1.00  0.00     0.163 HD
ENDBRANCH  13  16
ENDBRANCH  12  13
ENDBRANCH   6   7
ENDBRANCH   4   6
ENDBRANCH   1   2
BRANCH   1  24
ATOM     24  C   UNL A   1      31.435  32.168  26.515  1.00  0.00     0.042 C 
BRANCH  24  25
ATOM     25  C   UNL A   1      32.596  32.826  27.252  1.00  0.00     0.118 C 
BRANCH  25  26
ATOM     26  N   UNL A   1      32.351  34.219  27.605  1.00  0.00    -0.352 N 
ATOM     27  C   UNL A   1      32.942  34.985  28.582  1.00  0.00     0.251 C 
ATOM     28  H   UNL A   1      31.665  34.676  27.066  1.00  0.00     0.163 HD
ATOM     29  O   UNL A   1      32.534  36.116  28.818  1.00  0.00    -0.269 OA
BRANCH  27  30
ATOM     30  C   UNL A   1      34.053  34.421  29.376  1.00  0.00     0.039 A 
ATOM     31  C   UNL A   1      33.762  33.750  30.566  1.00  0.00     0.014 A 
ATOM     32  C   UNL A   1      35.371  34.517  28.922  1.00  0.00     0.014 A 
ATOM     33  C   UNL A   1      34.785  33.088  31.252  1.00  0.00     0.010 A 
ATOM     34  C   UNL A   1      36.372  33.800  29.566  1.00  0.00     0.010 A 
ATOM     35  C   UNL A   1      36.087  33.067  30.729  1.00  0.00    -0.014 A 
BRANCH  35  36
ATOM     36  C   UNL A   1      37.171  32.271  31.357  1.00  0.00     0.031 A 
ATOM     37  C   UNL A   1      37.669  32.635  32.726  1.00  0.00     0.074 A 
ATOM     38  C   UNL A   1      37.780  31.296  30.653  1.00  0.00     0.049 A 
ATOM     39  N   UNL A   1      38.712  32.185  33.376  1.00  0.00    -0.248 NA
ATOM     40  C   UNL A   1      36.909  33.667  33.448  1.00  0.00     0.031 C 
ATOM     41  C   UNL A   1      37.413  30.871  29.301  1.00  0.00     0.029 A 
ATOM     42  N   UNL A   1      38.855  30.501  30.969  1.00  0.00    -0.354 N 
ATOM     43  C   UNL A   1      38.750  32.897  34.566  1.00  0.00     0.074 A 
ATOM     44  C   UNL A   1      37.649  33.836  34.534  1.00  0.00     0.031 C 
ATOM     45  C   UNL A   1      38.241  29.891  28.907  1.00  0.00     0.029 A 
ATOM     46  C   UNL A   1      39.226  29.649  29.958  1.00  0.00     0.049 A 
ATOM     47  H   UNL A   1      39.315  30.540  31.839  1.00  0.00     0.167 HD
ATOM     48  C   UNL A   1      39.616  32.769  35.598  1.00  0.00     0.037 A 
ATOM     49  C   UNL A   1      40.257  28.785  29.879  1.00  0.00     0.037 A 
ATOM     50  C   UNL A   1      40.688  31.810  35.642  1.00  0.00     0.049 A 
ATOM     51  C   UNL A   1      41.204  28.661  31.041  1.00  0.00     0.074 A 
ATOM     52  C   UNL A   1      41.583  31.564  36.668  1.00  0.00     0.029 A 
ATOM     53  N   UNL A   1      41.005  30.935  34.615  1.00  0.00    -0.354 N 
ATOM     54  N   UNL A   1      41.204  29.308  32.180  1.00  0.00    -0.248 NA
ATOM     55  C   UNL A   1      42.296  27.685  30.907  1.00  0.00     0.031 C 
ATOM     56  C   UNL A   1      42.466  30.565  36.247  1.00  0.00     0.029 A 
ATOM     57  C   UNL A   1      42.092  30.156  34.978  1.00  0.00     0.049 A 
ATOM     58  H   UNL A   1      40.529  30.875  33.755  1.00  0.00     0.167 HD
ATOM     59  C   UNL A   1      42.266  28.796  32.910  1.00  0.00     0.074 A 
ATOM     60  C   UNL A   1      42.891  27.782  32.087  1.00  0.00     0.031 C 
ATOM     61  C   UNL A   1      42.685  29.134  34.154  1.00  0.00     0.037 A 
BRANCH  48  62
ATOM     62  C   UNL A   1      39.441  33.689  36.770  1.00  0.00     0.064 A 
ATOM     63  C   UNL A   1      38.675  33.321  37.887  1.00  0.00     0.173 A 
ATOM     64  C   UNL A   1      40.075  34.941  36.794  1.00  0.00     0.173 A 
ATOM     65  F   UNL A   1      38.037  32.140  37.907  1.00  0.00    -0.203 F 
ATOM     66  C   UNL A   1      38.530  34.181  38.971  1.00  0.00     0.198 A 
ATOM     67  C   UNL A   1      39.950  35.787  37.892  1.00  0.00     0.198 A 
ATOM     68  F   UNL A   1      40.821  35.340  35.753  1.00  0.00    -0.203 F 
ATOM     69  F   UNL A   1      37.754  33.827  40.005  1.00  0.00    -0.200 F 
ATOM     70  C   UNL A   1      39.172  35.410  38.976  1.00  0.00     0.200 A 
ATOM     71  F   UNL A   1      40.581  36.969  37.900  1.00  0.00    -0.200 F 
ATOM     72  F   UNL A   1      39.036  36.236  40.023  1.00  0.00    -0.200 F 
ENDBRANCH  48  62
BRANCH  49  73
ATOM     73  C   UNL A   1      40.436  27.956  28.659  1.00  0.00     0.064 A 
ATOM     74  C   UNL A   1      39.836  26.694  28.556  1.00  0.00     0.173 A 
ATOM     75  C   UNL A   1      41.208  28.403  27.577  1.00  0.00     0.173 A 
ATOM     76  F   UNL A   1      39.107  26.215  29.576  1.00  0.00    -0.203 F 
ATOM     77  C   UNL A   1      40.014  25.902  27.424  1.00  0.00     0.198 A 
ATOM     78  C   UNL A   1      41.364  27.621  26.434  1.00  0.00     0.198 A 
ATOM     79  F   UNL A   1      41.800  29.605  27.625  1.00  0.00    -0.203 F 
ATOM     80  F   UNL A   1      39.463  24.682  27.370  1.00  0.00    -0.200 F 
ATOM     81  C   UNL A   1      40.773  26.368  26.362  1.00  0.00     0.200 A 
ATOM     82  F   UNL A   1      42.088  28.081  25.405  1.00  0.00    -0.200 F 
ATOM     83  F   UNL A   1      40.942  25.608  25.271  1.00  0.00    -0.200 F 
ENDBRANCH  49  73
BRANCH  61  84
ATOM     84  C   UNL A   1      43.838  28.368  34.729  1.00  0.00     0.064 A 
ATOM     85  C   UNL A   1      45.158  28.826  34.613  1.00  0.00     0.173 A 
ATOM     86  C   UNL A   1      43.609  27.193  35.462  1.00  0.00     0.173 A 
ATOM     87  F   UNL A   1      45.428  29.936  33.909  1.00  0.00    -0.203 F 
ATOM     88  C   UNL A   1      46.211  28.128  35.201  1.00  0.00     0.198 A 
ATOM     89  C   UNL A   1      44.659  26.512  36.070  1.00  0.00     0.198 A 
ATOM     90  F   UNL A   1      42.363  26.719  35.606  1.00  0.00    -0.203 F 
ATOM     91  F   UNL A   1      47.468  28.565  35.052  1.00  0.00    -0.200 F 
ATOM     92  C   UNL A   1      45.959  26.978  35.936  1.00  0.00     0.200 A 
ATOM     93  F   UNL A   1      44.413  25.409  36.789  1.00  0.00    -0.200 F 
ATOM     94  F   UNL A   1      46.971  26.315  36.513  1.00  0.00    -0.200 F 
ENDBRANCH  61  84
ENDBRANCH  35  36
ENDBRANCH  27  30
ENDBRANCH  25  26
ENDBRANCH  24  25
ENDBRANCH   1  24
TORSDOF 13
ENDMDL
MODEL 3
REMARK VINA RESULT:     -12.7      1.186      7.519
REMARK SMILES O=C(Cc1ccc(S(=O)(=O)N2CCNC(=O)C2)cc1)NCCCNC(=O)c1ccc(-c2c3nc(c(-c4c(F)c(F)c(F)c(F)c4F)c4ccc([nH]4)c(-c4c(F)c(F)c(F)c(F)c4F)c4nc(c(-c5c(F)c(F)c(F)c(F)c5F)c5ccc2[nH]5)C=C4)C=C3)cc1
REMARK SMILES IDX 21 1 20 2 1 3 2 4 3 6 4 7 5 8 19 9 6 10 18 11 7 12 8 13 9 14
REMARK SMILES IDX 10 15 11 16 12 17 17 18 13 19 15 20 14 21 16 22 22 24 23 25
REMARK SMILES IDX 24 26 25 27 26 29 27 30 28 31 89 32 29 33 88 34 30 35 31 36
REMARK SMILES IDX 32 37 82 38 33 39 87 40 81 41 83 42 34 43 86 44 80 45 79 46
REMARK SMILES IDX 35 48 67 49 47 50 66 51 48 52 51 53 65 54 84 55 49 56 50 57
REMARK SMILES IDX 64 59 85 60 52 61 36 62 37 63 45 64 38 65 39 66 43 67 46 68
REMARK SMILES IDX 40 69 41 70 44 71 42 72 68 73 69 74 77 75 70 76 71 77 75 78
REMARK SMILES IDX 78 79 72 80 73 81 76 82 74 83 53 84 54 85 62 86 55 87 56 88
REMARK SMILES IDX 60 89 63 90 57 91 58 92 61 93 59 94
REMARK H PARENT 20 5 14 23 24 28 83 47 51 58
REMARK Flexibility Score: inf
ROOT
ATOM      1  C   UNL A   1      32.024  30.189  26.871  1.00  0.00     0.117 C 
ENDROOT
BRANCH   1   2
ATOM      2  N   UNL A   1      32.433  29.652  25.589  1.00  0.00    -0.356 N 
ATOM      3  O   UNL A   1      34.518  28.955  26.259  1.00  0.00    -0.275 OA
ATOM      4  C   UNL A   1      33.636  28.999  25.408  1.00  0.00     0.224 C 
ATOM      5  H   UNL A   1      31.831  29.758  24.817  1.00  0.00     0.163 HD
BRANCH   4   6
ATOM      6  C   UNL A   1      33.777  28.339  24.049  1.00  0.00     0.135 C 
BRANCH   6   7
ATOM      7  C   UNL A   1      33.622  26.829  24.019  1.00  0.00    -0.039 A 
ATOM      8  C   UNL A   1      33.096  26.123  22.927  1.00  0.00     0.005 A 
ATOM      9  C   UNL A   1      34.088  26.094  25.119  1.00  0.00     0.005 A 
ATOM     10  C   UNL A   1      33.099  24.726  22.905  1.00  0.00     0.022 A 
ATOM     11  C   UNL A   1      34.042  24.695  25.124  1.00  0.00     0.022 A 
ATOM     12  C   UNL A   1      33.594  24.012  23.996  1.00  0.00     0.082 A 
BRANCH  12  13
ATOM     13  S   UNL A   1      33.625  22.234  23.898  1.00  0.00     0.243 S 
ATOM     14  O   UNL A   1      32.911  21.871  22.698  1.00  0.00    -0.207 OA
ATOM     15  O   UNL A   1      35.007  21.839  24.100  1.00  0.00    -0.207 OA
BRANCH  13  16
ATOM     16  N   UNL A   1      32.776  21.661  25.227  1.00  0.00    -0.187 NA
ATOM     17  C   UNL A   1      33.471  21.021  26.359  1.00  0.00     0.124 C 
ATOM     18  C   UNL A   1      31.460  22.237  25.569  1.00  0.00     0.202 C 
ATOM     19  C   UNL A   1      33.617  22.001  27.523  1.00  0.00     0.132 C 
ATOM     20  C   UNL A   1      31.391  22.947  26.914  1.00  0.00     0.235 C 
ATOM     21  N   UNL A   1      32.396  22.725  27.819  1.00  0.00    -0.354 N 
ATOM     22  O   UNL A   1      30.457  23.688  27.218  1.00  0.00    -0.274 OA
ATOM     23  H   UNL A   1      32.283  23.082  28.729  1.00  0.00     0.163 HD
ENDBRANCH  13  16
ENDBRANCH  12  13
ENDBRANCH   6   7
ENDBRANCH   4   6
ENDBRANCH   1   2
BRANCH   1  24
ATOM     24  C   UNL A   1      31.760  31.685  26.812  1.00  0.00     0.042 C 
BRANCH  24  25
ATOM     25  C   UNL A   1      32.878  32.544  27.395  1.00  0.00     0.118 C 
BRANCH  25  26
ATOM     26  N   UNL A   1      32.483  33.923  27.648  1.00  0.00    -0.352 N 
ATOM     27  C   UNL A   1      33.009  34.827  28.542  1.00  0.00     0.251 C 
ATOM     28  H   UNL A   1      31.734  34.255  27.103  1.00  0.00     0.163 HD
ATOM     29  O   UNL A   1      32.480  35.920  28.706  1.00  0.00    -0.269 OA
BRANCH  27  30
ATOM     30  C   UNL A   1      34.201  34.458  29.334  1.00  0.00     0.039 A 
ATOM     31  C   UNL A   1      34.024  33.904  30.604  1.00  0.00     0.014 A 
ATOM     32  C   UNL A   1      35.483  34.618  28.803  1.00  0.00     0.014 A 
ATOM     33  C   UNL A   1      35.131  33.419  31.304  1.00  0.00     0.010 A 
ATOM     34  C   UNL A   1      36.573  34.071  29.469  1.00  0.00     0.010 A 
ATOM     35  C   UNL A   1      36.407  33.453  30.720  1.00  0.00    -0.014 A 
BRANCH  35  36
ATOM     36  C   UNL A   1      37.586  32.832  31.374  1.00  0.00     0.031 A 
ATOM     37  C   UNL A   1      38.281  31.674  30.718  1.00  0.00     0.074 A 
ATOM     38  C   UNL A   1      37.960  33.237  32.603  1.00  0.00     0.049 A 
ATOM     39  N   UNL A   1      39.210  30.885  31.195  1.00  0.00    -0.248 NA
ATOM     40  C   UNL A   1      37.851  31.338  29.352  1.00  0.00     0.031 C 
ATOM     41  C   UNL A   1      37.344  34.326  33.361  1.00  0.00     0.029 A 
ATOM     42  N   UNL A   1      38.936  32.760  33.445  1.00  0.00    -0.354 N 
ATOM     43  C   UNL A   1      39.453  29.946  30.203  1.00  0.00     0.074 A 
ATOM     44  C   UNL A   1      38.549  30.238  29.112  1.00  0.00     0.031 C 
ATOM     45  C   UNL A   1      37.959  34.440  34.549  1.00  0.00     0.029 A 
ATOM     46  C   UNL A   1      38.981  33.403  34.657  1.00  0.00     0.049 A 
ATOM     47  H   UNL A   1      39.545  32.025  33.200  1.00  0.00     0.167 HD
ATOM     48  C   UNL A   1      40.359  28.940  30.198  1.00  0.00     0.037 A 
ATOM     49  C   UNL A   1      39.746  33.171  35.741  1.00  0.00     0.037 A 
ATOM     50  C   UNL A   1      41.281  28.675  31.271  1.00  0.00     0.049 A 
ATOM     51  C   UNL A   1      40.746  32.047  35.708  1.00  0.00     0.074 A 
ATOM     52  C   UNL A   1      42.276  27.716  31.334  1.00  0.00     0.029 A 
ATOM     53  N   UNL A   1      41.324  29.377  32.465  1.00  0.00    -0.354 N 
ATOM     54  N   UNL A   1      40.999  31.193  34.748  1.00  0.00    -0.248 NA
ATOM     55  C   UNL A   1      41.569  31.855  36.912  1.00  0.00     0.031 C 
ATOM     56  C   UNL A   1      42.897  27.813  32.584  1.00  0.00     0.029 A 
ATOM     57  C   UNL A   1      42.320  28.862  33.279  1.00  0.00     0.049 A 
ATOM     58  H   UNL A   1      40.734  30.130  32.700  1.00  0.00     0.167 HD
ATOM     59  C   UNL A   1      42.029  30.389  35.213  1.00  0.00     0.074 A 
ATOM     60  C   UNL A   1      42.358  30.856  36.543  1.00  0.00     0.031 C 
ATOM     61  C   UNL A   1      42.649  29.357  34.591  1.00  0.00     0.037 A 
BRANCH  48  62
ATOM     62  C   UNL A   1      40.400  28.049  28.991  1.00  0.00     0.064 A 
ATOM     63  C   UNL A   1      39.682  26.845  28.942  1.00  0.00     0.173 A 
ATOM     64  C   UNL A   1      41.137  28.421  27.857  1.00  0.00     0.173 A 
ATOM     65  F   UNL A   1      38.972  26.438  30.006  1.00  0.00    -0.203 F 
ATOM     66  C   UNL A   1      39.722  26.034  27.812  1.00  0.00     0.198 A 
ATOM     67  C   UNL A   1      41.152  27.621  26.718  1.00  0.00     0.198 A 
ATOM     68  F   UNL A   1      41.839  29.565  27.852  1.00  0.00    -0.203 F 
ATOM     69  F   UNL A   1      39.068  24.865  27.805  1.00  0.00    -0.200 F 
ATOM     70  C   UNL A   1      40.451  26.425  26.699  1.00  0.00     0.200 A 
ATOM     71  F   UNL A   1      41.847  28.007  25.640  1.00  0.00    -0.200 F 
ATOM     72  F   UNL A   1      40.484  25.646  25.608  1.00  0.00    -0.200 F 
ENDBRANCH  48  62
BRANCH  49  73
ATOM     73  C   UNL A   1      39.607  34.031  36.945  1.00  0.00     0.064 A 
ATOM     74  C   UNL A   1      38.820  33.622  38.030  1.00  0.00     0.173 A 
ATOM     75  C   UNL A   1      40.251  35.272  37.036  1.00  0.00     0.173 A 
ATOM     76  F   UNL A   1      38.166  32.451  37.978  1.00  0.00    -0.203 F 
ATOM     77  C   UNL A   1      38.669  34.430  39.154  1.00  0.00     0.198 A 
ATOM     78  C   UNL A   1      40.120  36.069  38.172  1.00  0.00     0.198 A 
ATOM     79  F   UNL A   1      41.019  35.707  36.026  1.00  0.00    -0.203 F 
ATOM     80  F   UNL A   1      37.876  34.032  40.160  1.00  0.00    -0.200 F 
ATOM     81  C   UNL A   1      39.323  35.650  39.227  1.00  0.00     0.200 A 
ATOM     82  F   UNL A   1      40.765  37.241  38.244  1.00  0.00    -0.200 F 
ATOM     83  F   UNL A   1      39.180  36.426  40.310  1.00  0.00    -0.200 F 
ENDBRANCH  49  73
BRANCH  61  84
ATOM     84  C   UNL A   1      43.784  28.694  35.313  1.00  0.00     0.064 A 
ATOM     85  C   UNL A   1      45.107  29.134  35.167  1.00  0.00     0.173 A 
ATOM     86  C   UNL A   1      43.532  27.646  36.211  1.00  0.00     0.173 A 
ATOM     87  F   UNL A   1      45.399  30.122  34.308  1.00  0.00    -0.203 F 
ATOM     88  C   UNL A   1      46.141  28.539  35.887  1.00  0.00     0.198 A 
ATOM     89  C   UNL A   1      44.562  27.071  36.949  1.00  0.00     0.198 A 
ATOM     90  F   UNL A   1      42.282  27.194  36.390  1.00  0.00    -0.203 F 
ATOM     91  F   UNL A   1      47.402  28.953  35.711  1.00  0.00    -0.200 F 
ATOM     92  C   UNL A   1      45.866  27.516  36.784  1.00  0.00     0.200 A 
ATOM     93  F   UNL A   1      44.294  26.092  37.823  1.00  0.00    -0.200 F 
ATOM     94  F   UNL A   1      46.860  26.955  37.487  1.00  0.00    -0.200 F 
ENDBRANCH  61  84
ENDBRANCH  35  36
ENDBRANCH  27  30
ENDBRANCH  25  26
ENDBRANCH  24  25
ENDBRANCH   1  24
TORSDOF 13
ENDMDL
