MODEL 1
REMARK VINA RESULT:     -11.9      0.000      0.000
REMARK SMILES CSCc1ccc(C(=O)N[C@@H](Cc2cnc[nH]2)C(=O)NCCCNC(=O)c2ccc(-c3c4nc(c(-c5c(F)c(F)c(F)c(F)c5F)c5ccc([nH]5)c(-c5c(F)c(F)c(F)c(F)c5F)c5nc(c(-c6c(F)c(F)c(F)c(F)c6F)c6ccc3[nH]6)C=C5)C=C4)cc2)o1
REMARK SMILES IDX 21 1 20 2 18 3 19 4 11 6 10 7 8 8 9 9 7 11 4 12 5 13 90 14
REMARK SMILES IDX 6 15 3 16 2 17 1 18 12 19 13 20 14 21 17 22 15 23 16 24
REMARK SMILES IDX 22 26 23 27 24 28 25 29 26 31 27 32 28 33 89 34 29 35 88 36
REMARK SMILES IDX 30 37 31 38 32 39 82 40 33 41 87 42 81 43 83 44 34 45 86 46
REMARK SMILES IDX 80 47 79 48 35 50 67 51 47 52 66 53 48 54 51 55 65 56 84 57
REMARK SMILES IDX 49 58 50 59 64 61 85 62 52 63 36 64 37 65 45 66 38 67 39 68
REMARK SMILES IDX 43 69 46 70 40 71 41 72 44 73 42 74 68 75 69 76 77 77 70 78
REMARK SMILES IDX 71 79 75 80 78 81 72 82 73 83 76 84 74 85 53 86 54 87 62 88
REMARK SMILES IDX 55 89 56 90 60 91 63 92 57 93 58 94 61 95 59 96
REMARK H PARENT 20 5 10 10 17 25 24 30 83 49 51 60
REMARK Flexibility Score: inf
ROOT
ATOM      1  C   UNL A   1      31.858  30.548  26.371  1.00  0.00     0.117 C 
ENDROOT
BRANCH   1   2
ATOM      2  N   UNL A   1      32.974  29.927  27.055  1.00  0.00    -0.354 N 
ATOM      3  C   UNL A   1      33.717  28.846  26.696  1.00  0.00     0.242 C 
ATOM      4  O   UNL A   1      34.869  28.800  27.141  1.00  0.00    -0.273 OA
ATOM      5  H   UNL A   1      33.233  30.350  27.905  1.00  0.00     0.163 HD
BRANCH   3   6
ATOM      6  C   UNL A   1      33.240  27.776  25.694  1.00  0.00     0.177 C 
BRANCH   6   7
ATOM      7  N   UNL A   1      33.515  28.100  24.296  1.00  0.00    -0.337 N 
ATOM      8  C   UNL A   1      32.684  28.487  23.269  1.00  0.00     0.287 C 
ATOM      9  O   UNL A   1      33.268  28.993  22.306  1.00  0.00    -0.266 OA
ATOM     10  H   UNL A   1      34.464  28.027  24.043  1.00  0.00     0.164 HD
BRANCH   8  11
ATOM     11  C   UNL A   1      31.242  28.280  23.285  1.00  0.00     0.191 A 
ATOM     12  C   UNL A   1      29.179  28.905  22.728  1.00  0.00     0.114 A 
ATOM     13  C   UNL A   1      29.059  27.673  23.323  1.00  0.00     0.047 A 
ATOM     14  O   UNL A   1      30.484  29.296  22.741  1.00  0.00    -0.455 OA
ATOM     15  C   UNL A   1      30.376  27.264  23.655  1.00  0.00     0.056 A 
BRANCH  12  16
ATOM     16  C   UNL A   1      28.198  29.830  22.108  1.00  0.00     0.144 C 
BRANCH  16  17
ATOM     17  S   UNL A   1      28.818  31.542  22.042  1.00  0.00    -0.157 SA
ATOM     18  C   UNL A   1      28.006  32.081  20.516  1.00  0.00     0.085 C 
ENDBRANCH  16  17
ENDBRANCH  12  16
ENDBRANCH   8  11
ENDBRANCH   6   7
BRANCH   6  19
ATOM     19  C   UNL A   1      33.582  26.327  26.088  1.00  0.00     0.090 C 
BRANCH  19  20
ATOM     20  C   UNL A   1      32.520  25.299  25.891  1.00  0.00     0.037 A 
ATOM     21  C   UNL A   1      32.258  24.414  24.866  1.00  0.00     0.134 A 
ATOM     22  N   UNL A   1      31.488  25.105  26.782  1.00  0.00    -0.348 N 
ATOM     23  N   UNL A   1      31.173  23.631  25.164  1.00  0.00    -0.245 NA
ATOM     24  C   UNL A   1      30.725  24.072  26.316  1.00  0.00     0.196 A 
ATOM     25  H   UNL A   1      31.329  25.619  27.607  1.00  0.00     0.167 HD
ENDBRANCH  19  20
ENDBRANCH   6  19
ENDBRANCH   3   6
ENDBRANCH   1   2
BRANCH   1  26
ATOM     26  C   UNL A   1      31.505  31.924  26.891  1.00  0.00     0.042 C 
BRANCH  26  27
ATOM     27  C   UNL A   1      32.697  32.683  27.448  1.00  0.00     0.118 C 
BRANCH  27  28
ATOM     28  N   UNL A   1      32.440  34.107  27.665  1.00  0.00    -0.352 N 
ATOM     29  C   UNL A   1      33.004  34.991  28.554  1.00  0.00     0.251 C 
ATOM     30  H   UNL A   1      31.750  34.495  27.080  1.00  0.00     0.163 HD
ATOM     31  O   UNL A   1      32.539  36.120  28.681  1.00  0.00    -0.269 OA
BRANCH  29  32
ATOM     32  C   UNL A   1      34.157  34.567  29.371  1.00  0.00     0.039 A 
ATOM     33  C   UNL A   1      33.950  34.062  30.656  1.00  0.00     0.014 A 
ATOM     34  C   UNL A   1      35.445  34.629  28.839  1.00  0.00     0.014 A 
ATOM     35  C   UNL A   1      35.028  33.526  31.366  1.00  0.00     0.010 A 
ATOM     36  C   UNL A   1      36.483  33.976  29.484  1.00  0.00     0.010 A 
ATOM     37  C   UNL A   1      36.292  33.428  30.761  1.00  0.00    -0.014 A 
BRANCH  37  38
ATOM     38  C   UNL A   1      37.449  32.790  31.437  1.00  0.00     0.031 A 
ATOM     39  C   UNL A   1      38.145  31.631  30.773  1.00  0.00     0.074 A 
ATOM     40  C   UNL A   1      37.802  33.172  32.680  1.00  0.00     0.049 A 
ATOM     41  N   UNL A   1      39.062  30.828  31.250  1.00  0.00    -0.248 NA
ATOM     42  C   UNL A   1      37.712  31.296  29.406  1.00  0.00     0.031 C 
ATOM     43  C   UNL A   1      37.161  34.236  33.457  1.00  0.00     0.029 A 
ATOM     44  N   UNL A   1      38.778  32.695  33.517  1.00  0.00    -0.354 N 
ATOM     45  C   UNL A   1      39.282  29.879  30.259  1.00  0.00     0.074 A 
ATOM     46  C   UNL A   1      38.358  30.162  29.185  1.00  0.00     0.031 C 
ATOM     47  C   UNL A   1      37.781  34.351  34.642  1.00  0.00     0.029 A 
ATOM     48  C   UNL A   1      38.832  33.342  34.728  1.00  0.00     0.049 A 
ATOM     49  H   UNL A   1      39.384  31.958  33.274  1.00  0.00     0.167 HD
ATOM     50  C   UNL A   1      40.198  28.884  30.231  1.00  0.00     0.037 A 
ATOM     51  C   UNL A   1      39.636  33.137  35.789  1.00  0.00     0.037 A 
ATOM     52  C   UNL A   1      41.156  28.646  31.276  1.00  0.00     0.049 A 
ATOM     53  C   UNL A   1      40.673  32.048  35.717  1.00  0.00     0.074 A 
ATOM     54  C   UNL A   1      42.176  27.713  31.318  1.00  0.00     0.029 A 
ATOM     55  N   UNL A   1      41.218  29.364  32.462  1.00  0.00    -0.354 N 
ATOM     56  N   UNL A   1      40.916  31.199  34.748  1.00  0.00    -0.248 NA
ATOM     57  C   UNL A   1      41.553  31.893  36.884  1.00  0.00     0.031 C 
ATOM     58  C   UNL A   1      42.835  27.843  32.545  1.00  0.00     0.029 A 
ATOM     59  C   UNL A   1      42.254  28.888  33.247  1.00  0.00     0.049 A 
ATOM     60  H   UNL A   1      40.614  30.102  32.709  1.00  0.00     0.167 HD
ATOM     61  C   UNL A   1      41.995  30.434  35.172  1.00  0.00     0.074 A 
ATOM     62  C   UNL A   1      42.368  30.929  36.481  1.00  0.00     0.031 C 
ATOM     63  C   UNL A   1      42.620  29.413  34.536  1.00  0.00     0.037 A 
BRANCH  50  64
ATOM     64  C   UNL A   1      40.222  27.994  29.021  1.00  0.00     0.064 A 
ATOM     65  C   UNL A   1      40.952  28.335  27.871  1.00  0.00     0.173 A 
ATOM     66  C   UNL A   1      39.529  26.775  29.018  1.00  0.00     0.173 A 
ATOM     67  F   UNL A   1      41.620  29.498  27.815  1.00  0.00    -0.203 F 
ATOM     68  C   UNL A   1      40.959  27.506  26.753  1.00  0.00     0.198 A 
ATOM     69  C   UNL A   1      39.566  25.931  27.912  1.00  0.00     0.198 A 
ATOM     70  F   UNL A   1      38.818  26.397  30.092  1.00  0.00    -0.203 F 
ATOM     71  F   UNL A   1      41.616  27.881  25.648  1.00  0.00    -0.200 F 
ATOM     72  C   UNL A   1      40.274  26.301  26.777  1.00  0.00     0.200 A 
ATOM     73  F   UNL A   1      38.913  24.760  27.940  1.00  0.00    -0.200 F 
ATOM     74  F   UNL A   1      40.287  25.499  25.703  1.00  0.00    -0.200 F 
ENDBRANCH  50  64
BRANCH  51  75
ATOM     75  C   UNL A   1      39.525  34.004  36.992  1.00  0.00     0.064 A 
ATOM     76  C   UNL A   1      38.781  33.590  38.106  1.00  0.00     0.173 A 
ATOM     77  C   UNL A   1      40.139  35.263  37.050  1.00  0.00     0.173 A 
ATOM     78  F   UNL A   1      38.159  32.402  38.091  1.00  0.00    -0.203 F 
ATOM     79  C   UNL A   1      38.633  34.412  39.221  1.00  0.00     0.198 A 
ATOM     80  C   UNL A   1      40.014  36.073  38.178  1.00  0.00     0.198 A 
ATOM     81  F   UNL A   1      40.867  35.704  36.014  1.00  0.00    -0.203 F 
ATOM     82  F   UNL A   1      37.874  34.012  40.250  1.00  0.00    -0.200 F 
ATOM     83  C   UNL A   1      39.254  35.652  39.258  1.00  0.00     0.200 A 
ATOM     84  F   UNL A   1      40.627  37.264  38.215  1.00  0.00    -0.200 F 
ATOM     85  F   UNL A   1      39.111  36.443  40.330  1.00  0.00    -0.200 F 
ENDBRANCH  51  75
BRANCH  63  86
ATOM     86  C   UNL A   1      43.803  28.798  35.223  1.00  0.00     0.064 A 
ATOM     87  C   UNL A   1      43.665  27.715  36.102  1.00  0.00     0.173 A 
ATOM     88  C   UNL A   1      45.097  29.273  34.959  1.00  0.00     0.173 A 
ATOM     89  F   UNL A   1      42.447  27.236  36.396  1.00  0.00    -0.203 F 
ATOM     90  C   UNL A   1      44.779  27.144  36.711  1.00  0.00     0.198 A 
ATOM     91  C   UNL A   1      46.211  28.679  35.546  1.00  0.00     0.198 A 
ATOM     92  F   UNL A   1      45.282  30.301  34.118  1.00  0.00    -0.203 F 
ATOM     93  F   UNL A   1      44.621  26.138  37.583  1.00  0.00    -0.200 F 
ATOM     94  C   UNL A   1      46.051  27.620  36.427  1.00  0.00     0.200 A 
ATOM     95  F   UNL A   1      47.439  29.131  35.257  1.00  0.00    -0.200 F 
ATOM     96  F   UNL A   1      47.122  27.062  37.007  1.00  0.00    -0.200 F 
ENDBRANCH  63  86
ENDBRANCH  37  38
ENDBRANCH  29  32
ENDBRANCH  27  28
ENDBRANCH  26  27
ENDBRANCH   1  26
TORSDOF 16
ENDMDL
MODEL 2
REMARK VINA RESULT:     -11.9      1.809      3.381
REMARK SMILES CSCc1ccc(C(=O)N[C@@H](Cc2cnc[nH]2)C(=O)NCCCNC(=O)c2ccc(-c3c4nc(c(-c5c(F)c(F)c(F)c(F)c5F)c5ccc([nH]5)c(-c5c(F)c(F)c(F)c(F)c5F)c5nc(c(-c6c(F)c(F)c(F)c(F)c6F)c6ccc3[nH]6)C=C5)C=C4)cc2)o1
REMARK SMILES IDX 21 1 20 2 18 3 19 4 11 6 10 7 8 8 9 9 7 11 4 12 5 13 90 14
REMARK SMILES IDX 6 15 3 16 2 17 1 18 12 19 13 20 14 21 17 22 15 23 16 24
REMARK SMILES IDX 22 26 23 27 24 28 25 29 26 31 27 32 28 33 89 34 29 35 88 36
REMARK SMILES IDX 30 37 31 38 32 39 82 40 33 41 87 42 81 43 83 44 34 45 86 46
REMARK SMILES IDX 80 47 79 48 35 50 67 51 47 52 66 53 48 54 51 55 65 56 84 57
REMARK SMILES IDX 49 58 50 59 64 61 85 62 52 63 36 64 37 65 45 66 38 67 39 68
REMARK SMILES IDX 43 69 46 70 40 71 41 72 44 73 42 74 68 75 69 76 77 77 70 78
REMARK SMILES IDX 71 79 75 80 78 81 72 82 73 83 76 84 74 85 53 86 54 87 62 88
REMARK SMILES IDX 55 89 56 90 60 91 63 92 57 93 58 94 61 95 59 96
REMARK H PARENT 20 5 10 10 17 25 24 30 83 49 51 60
REMARK Flexibility Score: inf
ROOT
ATOM      1  C   UNL A   1      31.866  30.318  25.815  1.00  0.00     0.117 C 
ENDROOT
BRANCH   1   2
ATOM      2  N   UNL A   1      31.010  30.438  24.653  1.00  0.00    -0.354 N 
ATOM      3  C   UNL A   1      30.428  29.465  23.902  1.00  0.00     0.242 C 
ATOM      4  O   UNL A   1      29.392  29.779  23.304  1.00  0.00    -0.273 OA
ATOM      5  H   UNL A   1      30.821  31.360  24.364  1.00  0.00     0.163 HD
BRANCH   3   6
ATOM      6  C   UNL A   1      30.921  28.005  23.864  1.00  0.00     0.177 C 
BRANCH   6   7
ATOM      7  N   UNL A   1      30.292  27.135  24.855  1.00  0.00    -0.337 N 
ATOM      8  C   UNL A   1      30.832  26.296  25.804  1.00  0.00     0.287 C 
ATOM      9  O   UNL A   1      30.041  25.954  26.689  1.00  0.00    -0.266 OA
ATOM     10  H   UNL A   1      29.308  27.150  24.841  1.00  0.00     0.164 HD
BRANCH   8  11
ATOM     11  C   UNL A   1      32.204  25.808  25.753  1.00  0.00     0.191 A 
ATOM     12  C   UNL A   1      33.672  24.142  25.585  1.00  0.00     0.114 A 
ATOM     13  C   UNL A   1      34.404  25.304  25.554  1.00  0.00     0.047 A 
ATOM     14  O   UNL A   1      32.352  24.435  25.748  1.00  0.00    -0.455 OA
ATOM     15  C   UNL A   1      33.466  26.365  25.636  1.00  0.00     0.056 A 
BRANCH  12  16
ATOM     16  C   UNL A   1      34.041  22.710  25.475  1.00  0.00     0.144 C 
BRANCH  16  17
ATOM     17  S   UNL A   1      32.586  21.617  25.569  1.00  0.00    -0.157 SA
ATOM     18  C   UNL A   1      32.584  20.999  23.866  1.00  0.00     0.085 C 
ENDBRANCH  16  17
ENDBRANCH  12  16
ENDBRANCH   8  11
ENDBRANCH   6   7
BRANCH   6  19
ATOM     19  C   UNL A   1      31.014  27.394  22.453  1.00  0.00     0.090 C 
BRANCH  19  20
ATOM     20  C   UNL A   1      31.989  26.283  22.256  1.00  0.00     0.037 A 
ATOM     21  C   UNL A   1      33.342  26.267  21.987  1.00  0.00     0.134 A 
ATOM     22  N   UNL A   1      31.624  24.955  22.253  1.00  0.00    -0.348 N 
ATOM     23  N   UNL A   1      33.811  24.980  21.930  1.00  0.00    -0.245 NA
ATOM     24  C   UNL A   1      32.759  24.212  22.085  1.00  0.00     0.196 A 
ATOM     25  H   UNL A   1      30.710  24.604  22.355  1.00  0.00     0.167 HD
ENDBRANCH  19  20
ENDBRANCH   6  19
ENDBRANCH   3   6
ENDBRANCH   1   2
BRANCH   1  26
ATOM     26  C   UNL A   1      31.611  31.363  26.879  1.00  0.00     0.042 C 
BRANCH  26  27
ATOM     27  C   UNL A   1      32.816  32.246  27.159  1.00  0.00     0.118 C 
BRANCH  27  28
ATOM     28  N   UNL A   1      32.474  33.644  27.419  1.00  0.00    -0.352 N 
ATOM     29  C   UNL A   1      32.967  34.526  28.351  1.00  0.00     0.251 C 
ATOM     30  H   UNL A   1      31.776  34.014  26.831  1.00  0.00     0.163 HD
ATOM     31  O   UNL A   1      32.436  35.621  28.506  1.00  0.00    -0.269 OA
BRANCH  29  32
ATOM     32  C   UNL A   1      34.124  34.137  29.180  1.00  0.00     0.039 A 
ATOM     33  C   UNL A   1      33.926  33.384  30.339  1.00  0.00     0.014 A 
ATOM     34  C   UNL A   1      35.413  34.486  28.780  1.00  0.00     0.014 A 
ATOM     35  C   UNL A   1      35.034  32.895  31.037  1.00  0.00     0.010 A 
ATOM     36  C   UNL A   1      36.504  33.889  29.391  1.00  0.00     0.010 A 
ATOM     37  C   UNL A   1      36.330  33.097  30.536  1.00  0.00    -0.014 A 
BRANCH  37  38
ATOM     38  C   UNL A   1      37.534  32.527  31.191  1.00  0.00     0.031 A 
ATOM     39  C   UNL A   1      38.291  31.419  30.508  1.00  0.00     0.074 A 
ATOM     40  C   UNL A   1      37.878  32.920  32.433  1.00  0.00     0.049 A 
ATOM     41  N   UNL A   1      39.263  30.671  30.965  1.00  0.00    -0.248 NA
ATOM     42  C   UNL A   1      37.862  31.070  29.143  1.00  0.00     0.031 C 
ATOM     43  C   UNL A   1      37.183  33.935  33.228  1.00  0.00     0.029 A 
ATOM     44  N   UNL A   1      38.893  32.498  33.253  1.00  0.00    -0.354 N 
ATOM     45  C   UNL A   1      39.529  29.747  29.962  1.00  0.00     0.074 A 
ATOM     46  C   UNL A   1      38.575  29.980  28.903  1.00  0.00     0.031 C 
ATOM     47  C   UNL A   1      37.810  34.079  34.406  1.00  0.00     0.029 A 
ATOM     48  C   UNL A   1      38.923  33.137  34.469  1.00  0.00     0.049 A 
ATOM     49  H   UNL A   1      39.541  31.802  32.995  1.00  0.00     0.167 HD
ATOM     50  C   UNL A   1      40.505  28.811  29.913  1.00  0.00     0.037 A 
ATOM     51  C   UNL A   1      39.753  32.973  35.517  1.00  0.00     0.037 A 
ATOM     52  C   UNL A   1      41.490  28.625  30.944  1.00  0.00     0.049 A 
ATOM     53  C   UNL A   1      40.855  31.952  35.422  1.00  0.00     0.074 A 
ATOM     54  C   UNL A   1      42.566  27.757  30.964  1.00  0.00     0.029 A 
ATOM     55  N   UNL A   1      41.522  29.335  32.136  1.00  0.00    -0.354 N 
ATOM     56  N   UNL A   1      41.137  31.128  34.442  1.00  0.00    -0.248 NA
ATOM     57  C   UNL A   1      41.758  31.842  36.576  1.00  0.00     0.031 C 
ATOM     58  C   UNL A   1      43.232  27.917  32.184  1.00  0.00     0.029 A 
ATOM     59  C   UNL A   1      42.597  28.918  32.903  1.00  0.00     0.049 A 
ATOM     60  H   UNL A   1      40.877  30.032  32.397  1.00  0.00     0.167 HD
ATOM     61  C   UNL A   1      42.267  30.429  34.845  1.00  0.00     0.074 A 
ATOM     62  C   UNL A   1      42.626  30.935  36.154  1.00  0.00     0.031 C 
ATOM     63  C   UNL A   1      42.946  29.454  34.192  1.00  0.00     0.037 A 
BRANCH  50  64
ATOM     64  C   UNL A   1      40.568  27.935  28.695  1.00  0.00     0.064 A 
ATOM     65  C   UNL A   1      41.346  28.280  27.579  1.00  0.00     0.173 A 
ATOM     66  C   UNL A   1      39.863  26.723  28.650  1.00  0.00     0.173 A 
ATOM     67  F   UNL A   1      42.029  29.436  27.564  1.00  0.00    -0.203 F 
ATOM     68  C   UNL A   1      41.390  27.464  26.453  1.00  0.00     0.198 A 
ATOM     69  C   UNL A   1      39.935  25.892  27.536  1.00  0.00     0.198 A 
ATOM     70  F   UNL A   1      39.105  26.341  29.690  1.00  0.00    -0.203 F 
ATOM     71  F   UNL A   1      42.095  27.844  25.379  1.00  0.00    -0.200 F 
ATOM     72  C   UNL A   1      40.692  26.266  26.435  1.00  0.00     0.200 A 
ATOM     73  F   UNL A   1      39.270  24.728  27.525  1.00  0.00    -0.200 F 
ATOM     74  F   UNL A   1      40.740  25.476  25.353  1.00  0.00    -0.200 F 
ENDBRANCH  50  64
BRANCH  51  75
ATOM     75  C   UNL A   1      39.604  33.821  36.730  1.00  0.00     0.064 A 
ATOM     76  C   UNL A   1      40.237  35.069  36.814  1.00  0.00     0.173 A 
ATOM     77  C   UNL A   1      38.844  33.401  37.831  1.00  0.00     0.173 A 
ATOM     78  F   UNL A   1      40.991  35.506  35.795  1.00  0.00    -0.203 F 
ATOM     79  C   UNL A   1      40.140  35.852  37.962  1.00  0.00     0.198 A 
ATOM     80  C   UNL A   1      38.723  34.198  38.968  1.00  0.00     0.198 A 
ATOM     81  F   UNL A   1      38.212  32.219  37.800  1.00  0.00    -0.203 F 
ATOM     82  F   UNL A   1      40.799  37.016  38.034  1.00  0.00    -0.200 F 
ATOM     83  C   UNL A   1      39.379  35.418  39.037  1.00  0.00     0.200 A 
ATOM     84  F   UNL A   1      37.976  33.782  40.000  1.00  0.00    -0.200 F 
ATOM     85  F   UNL A   1      39.287  36.171  40.142  1.00  0.00    -0.200 F 
ENDBRANCH  51  75
BRANCH  63  86
ATOM     86  C   UNL A   1      44.175  28.909  34.858  1.00  0.00     0.064 A 
ATOM     87  C   UNL A   1      45.435  29.495  34.674  1.00  0.00     0.173 A 
ATOM     88  C   UNL A   1      44.078  27.813  35.729  1.00  0.00     0.173 A 
ATOM     89  F   UNL A   1      45.579  30.537  33.841  1.00  0.00    -0.203 F 
ATOM     90  C   UNL A   1      46.559  28.989  35.320  1.00  0.00     0.198 A 
ATOM     91  C   UNL A   1      45.199  27.328  36.396  1.00  0.00     0.198 A 
ATOM     92  F   UNL A   1      42.893  27.223  35.945  1.00  0.00    -0.203 F 
ATOM     93  F   UNL A   1      47.762  29.536  35.095  1.00  0.00    -0.200 F 
ATOM     94  C   UNL A   1      46.439  27.911  36.186  1.00  0.00     0.200 A 
ATOM     95  F   UNL A   1      45.077  26.298  37.245  1.00  0.00    -0.200 F 
ATOM     96  F   UNL A   1      47.521  27.432  36.815  1.00  0.00    -0.200 F 
ENDBRANCH  63  86
ENDBRANCH  37  38
ENDBRANCH  29  32
ENDBRANCH  27  28
ENDBRANCH  26  27
ENDBRANCH   1  26
TORSDOF 16
ENDMDL
MODEL 3
REMARK VINA RESULT:     -11.8      1.872      7.921
REMARK SMILES CSCc1ccc(C(=O)N[C@@H](Cc2cnc[nH]2)C(=O)NCCCNC(=O)c2ccc(-c3c4nc(c(-c5c(F)c(F)c(F)c(F)c5F)c5ccc([nH]5)c(-c5c(F)c(F)c(F)c(F)c5F)c5nc(c(-c6c(F)c(F)c(F)c(F)c6F)c6ccc3[nH]6)C=C5)C=C4)cc2)o1
REMARK SMILES IDX 21 1 20 2 18 3 19 4 11 6 10 7 8 8 9 9 7 11 4 12 5 13 90 14
REMARK SMILES IDX 6 15 3 16 2 17 1 18 12 19 13 20 14 21 17 22 15 23 16 24
REMARK SMILES IDX 22 26 23 27 24 28 25 29 26 31 27 32 28 33 89 34 29 35 88 36
REMARK SMILES IDX 30 37 31 38 32 39 82 40 33 41 87 42 81 43 83 44 34 45 86 46
REMARK SMILES IDX 80 47 79 48 35 50 67 51 47 52 66 53 48 54 51 55 65 56 84 57
REMARK SMILES IDX 49 58 50 59 64 61 85 62 52 63 36 64 37 65 45 66 38 67 39 68
REMARK SMILES IDX 43 69 46 70 40 71 41 72 44 73 42 74 68 75 69 76 77 77 70 78
REMARK SMILES IDX 71 79 75 80 78 81 72 82 73 83 76 84 74 85 53 86 54 87 62 88
REMARK SMILES IDX 55 89 56 90 60 91 63 92 57 93 58 94 61 95 59 96
REMARK H PARENT 20 5 10 10 17 25 24 30 83 49 51 60
REMARK Flexibility Score: inf
ROOT
ATOM      1  C   UNL A   1      31.748  30.792  26.565  1.00  0.00     0.117 C 
ENDROOT
BRANCH   1   2
ATOM      2  N   UNL A   1      32.947  30.280  27.196  1.00  0.00    -0.354 N 
ATOM      3  C   UNL A   1      33.834  29.353  26.747  1.00  0.00     0.242 C 
ATOM      4  O   UNL A   1      34.985  29.434  27.190  1.00  0.00    -0.273 OA
ATOM      5  H   UNL A   1      33.151  30.660  28.081  1.00  0.00     0.163 HD
BRANCH   3   6
ATOM      6  C   UNL A   1      33.507  28.317  25.653  1.00  0.00     0.177 C 
BRANCH   6   7
ATOM      7  N   UNL A   1      32.406  27.416  25.990  1.00  0.00    -0.337 N 
ATOM      8  C   UNL A   1      32.373  26.056  26.199  1.00  0.00     0.287 C 
ATOM      9  O   UNL A   1      31.360  25.656  26.781  1.00  0.00    -0.266 OA
ATOM     10  H   UNL A   1      31.534  27.862  26.085  1.00  0.00     0.164 HD
BRANCH   8  11
ATOM     11  C   UNL A   1      33.415  25.150  25.734  1.00  0.00     0.191 A 
ATOM     12  C   UNL A   1      34.438  23.173  25.782  1.00  0.00     0.114 A 
ATOM     13  C   UNL A   1      35.018  23.881  24.758  1.00  0.00     0.047 A 
ATOM     14  O   UNL A   1      33.502  23.945  26.401  1.00  0.00    -0.455 OA
ATOM     15  C   UNL A   1      34.349  25.130  24.712  1.00  0.00     0.056 A 
BRANCH  12  16
ATOM     16  C   UNL A   1      34.635  21.797  26.300  1.00  0.00     0.144 C 
BRANCH  16  17
ATOM     17  S   UNL A   1      34.177  20.531  25.073  1.00  0.00    -0.157 SA
ATOM     18  C   UNL A   1      32.384  20.789  25.051  1.00  0.00     0.085 C 
ENDBRANCH  16  17
ENDBRANCH  12  16
ENDBRANCH   8  11
ENDBRANCH   6   7
BRANCH   6  19
ATOM     19  C   UNL A   1      33.442  28.887  24.224  1.00  0.00     0.090 C 
BRANCH  19  20
ATOM     20  C   UNL A   1      32.222  28.581  23.423  1.00  0.00     0.037 A 
ATOM     21  C   UNL A   1      31.878  27.513  22.621  1.00  0.00     0.134 A 
ATOM     22  N   UNL A   1      31.162  29.452  23.306  1.00  0.00    -0.348 N 
ATOM     23  N   UNL A   1      30.613  27.670  22.118  1.00  0.00    -0.245 NA
ATOM     24  C   UNL A   1      30.209  28.846  22.538  1.00  0.00     0.196 A 
ATOM     25  H   UNL A   1      31.102  30.350  23.704  1.00  0.00     0.167 HD
ENDBRANCH  19  20
ENDBRANCH   6  19
ENDBRANCH   3   6
ENDBRANCH   1   2
BRANCH   1  26
ATOM     26  C   UNL A   1      31.512  32.268  26.795  1.00  0.00     0.042 C 
BRANCH  26  27
ATOM     27  C   UNL A   1      32.763  33.020  27.217  1.00  0.00     0.118 C 
BRANCH  27  28
ATOM     28  N   UNL A   1      32.501  34.379  27.694  1.00  0.00    -0.352 N 
ATOM     29  C   UNL A   1      33.035  35.070  28.756  1.00  0.00     0.251 C 
ATOM     30  H   UNL A   1      31.834  34.878  27.171  1.00  0.00     0.163 HD
ATOM     31  O   UNL A   1      32.567  36.157  29.081  1.00  0.00    -0.269 OA
BRANCH  29  32
ATOM     32  C   UNL A   1      34.156  34.487  29.516  1.00  0.00     0.039 A 
ATOM     33  C   UNL A   1      33.904  33.768  30.686  1.00  0.00     0.014 A 
ATOM     34  C   UNL A   1      35.460  34.617  29.039  1.00  0.00     0.014 A 
ATOM     35  C   UNL A   1      34.952  33.095  31.319  1.00  0.00     0.010 A 
ATOM     36  C   UNL A   1      36.469  33.840  29.586  1.00  0.00     0.010 A 
ATOM     37  C   UNL A   1      36.232  33.080  30.741  1.00  0.00    -0.014 A 
BRANCH  37  38
ATOM     38  C   UNL A   1      37.359  32.310  31.325  1.00  0.00     0.031 A 
ATOM     39  C   UNL A   1      37.872  32.675  32.693  1.00  0.00     0.074 A 
ATOM     40  C   UNL A   1      37.986  31.369  30.593  1.00  0.00     0.049 A 
ATOM     41  N   UNL A   1      38.937  32.250  33.322  1.00  0.00    -0.248 NA
ATOM     42  C   UNL A   1      37.111  33.697  33.433  1.00  0.00     0.031 C 
ATOM     43  C   UNL A   1      37.628  30.972  29.230  1.00  0.00     0.029 A 
ATOM     44  N   UNL A   1      39.072  30.585  30.890  1.00  0.00    -0.354 N 
ATOM     45  C   UNL A   1      38.991  32.978  34.505  1.00  0.00     0.074 A 
ATOM     46  C   UNL A   1      37.895  33.919  34.477  1.00  0.00     0.031 C 
ATOM     47  C   UNL A   1      38.458  29.999  28.821  1.00  0.00     0.029 A 
ATOM     48  C   UNL A   1      39.433  29.734  29.873  1.00  0.00     0.049 A 
ATOM     49  H   UNL A   1      39.549  30.628  31.751  1.00  0.00     0.167 HD
ATOM     50  C   UNL A   1      39.855  32.849  35.538  1.00  0.00     0.037 A 
ATOM     51  C   UNL A   1      40.443  28.845  29.800  1.00  0.00     0.037 A 
ATOM     52  C   UNL A   1      40.906  31.869  35.586  1.00  0.00     0.049 A 
ATOM     53  C   UNL A   1      41.367  28.694  30.978  1.00  0.00     0.074 A 
ATOM     54  C   UNL A   1      41.792  31.603  36.614  1.00  0.00     0.029 A 
ATOM     55  N   UNL A   1      41.201  30.983  34.560  1.00  0.00    -0.354 N 
ATOM     56  N   UNL A   1      41.368  29.343  32.118  1.00  0.00    -0.248 NA
ATOM     57  C   UNL A   1      42.426  27.682  30.864  1.00  0.00     0.031 C 
ATOM     58  C   UNL A   1      42.647  30.577  36.197  1.00  0.00     0.029 A 
ATOM     59  C   UNL A   1      42.262  30.173  34.928  1.00  0.00     0.049 A 
ATOM     60  H   UNL A   1      40.727  30.937  33.698  1.00  0.00     0.167 HD
ATOM     61  C   UNL A   1      42.401  28.795  32.868  1.00  0.00     0.074 A 
ATOM     62  C   UNL A   1      42.996  27.752  32.058  1.00  0.00     0.031 C 
ATOM     63  C   UNL A   1      42.821  29.127  34.113  1.00  0.00     0.037 A 
BRANCH  50  64
ATOM     64  C   UNL A   1      39.683  33.774  36.708  1.00  0.00     0.064 A 
ATOM     65  C   UNL A   1      40.308  35.031  36.752  1.00  0.00     0.173 A 
ATOM     66  C   UNL A   1      38.864  33.414  37.788  1.00  0.00     0.173 A 
ATOM     67  F   UNL A   1      41.115  35.418  35.751  1.00  0.00    -0.203 F 
ATOM     68  C   UNL A   1      40.147  35.876  37.845  1.00  0.00     0.198 A 
ATOM     69  C   UNL A   1      38.678  34.276  38.865  1.00  0.00     0.198 A 
ATOM     70  F   UNL A   1      38.240  32.226  37.799  1.00  0.00    -0.203 F 
ATOM     71  F   UNL A   1      40.801  37.045  37.888  1.00  0.00    -0.200 F 
ATOM     72  C   UNL A   1      39.326  35.502  38.898  1.00  0.00     0.200 A 
ATOM     73  F   UNL A   1      37.873  33.919  39.877  1.00  0.00    -0.200 F 
ATOM     74  F   UNL A   1      39.165  36.320  39.948  1.00  0.00    -0.200 F 
ENDBRANCH  50  64
BRANCH  51  75
ATOM     75  C   UNL A   1      40.610  28.001  28.588  1.00  0.00     0.064 A 
ATOM     76  C   UNL A   1      41.390  28.442  27.509  1.00  0.00     0.173 A 
ATOM     77  C   UNL A   1      39.986  26.750  28.471  1.00  0.00     0.173 A 
ATOM     78  F   UNL A   1      41.990  29.640  27.565  1.00  0.00    -0.203 F 
ATOM     79  C   UNL A   1      41.518  27.679  26.351  1.00  0.00     0.198 A 
ATOM     80  C   UNL A   1      40.140  25.974  27.323  1.00  0.00     0.198 A 
ATOM     81  F   UNL A   1      39.235  26.277  29.476  1.00  0.00    -0.203 F 
ATOM     82  F   UNL A   1      42.227  28.150  25.316  1.00  0.00    -0.200 F 
ATOM     83  C   UNL A   1      40.896  26.443  26.261  1.00  0.00     0.200 A 
ATOM     84  F   UNL A   1      39.548  24.774  27.245  1.00  0.00    -0.200 F 
ATOM     85  F   UNL A   1      41.019  25.709  25.146  1.00  0.00    -0.200 F 
ENDBRANCH  51  75
BRANCH  63  86
ATOM     86  C   UNL A   1      43.943  28.320  34.697  1.00  0.00     0.064 A 
ATOM     87  C   UNL A   1      43.707  27.135  35.406  1.00  0.00     0.173 A 
ATOM     88  C   UNL A   1      45.274  28.717  34.501  1.00  0.00     0.173 A 
ATOM     89  F   UNL A   1      42.450  26.721  35.631  1.00  0.00    -0.203 F 
ATOM     90  C   UNL A   1      44.763  26.388  35.920  1.00  0.00     0.198 A 
ATOM     91  C   UNL A   1      46.329  27.952  34.989  1.00  0.00     0.198 A 
ATOM     92  F   UNL A   1      45.552  29.840  33.820  1.00  0.00    -0.203 F 
ATOM     93  F   UNL A   1      44.514  25.281  36.634  1.00  0.00    -0.200 F 
ATOM     94  C   UNL A   1      46.073  26.792  35.704  1.00  0.00     0.200 A 
ATOM     95  F   UNL A   1      47.593  28.337  34.766  1.00  0.00    -0.200 F 
ATOM     96  F   UNL A   1      47.088  26.066  36.191  1.00  0.00    -0.200 F 
ENDBRANCH  63  86
ENDBRANCH  37  38
ENDBRANCH  29  32
ENDBRANCH  27  28
ENDBRANCH  26  27
ENDBRANCH   1  26
TORSDOF 16
ENDMDL
