MODEL 1
REMARK VINA RESULT:     -11.5      0.000      0.000
REMARK SMILES O=C(NCCCNC(=O)[C@H](CO)NC(=O)[C@H](CS)NC(=O)c1ccc(F)cc1)c1ccc(-c2c3nc(c(-c4c(F)c(F)c(F)c(F)c4F)c4ccc([nH]4)c(-c4c(F)c(F)c(F)c(F)c4F)c4nc(c(-c5c(F)c(F)c(F)c(F)c5F)c5ccc2[nH]5)C=C4)C=C3)cc1
REMARK SMILES IDX 6 1 5 2 4 3 3 4 1 5 2 6 29 8 30 9 91 10 31 11 90 12 32 13
REMARK SMILES IDX 33 14 34 15 84 16 35 17 89 18 83 19 85 20 36 21 88 22 82 23
REMARK SMILES IDX 81 24 37 26 69 27 49 28 68 29 50 30 53 31 67 32 86 33 51 34
REMARK SMILES IDX 52 35 66 37 87 38 54 39 38 40 39 41 47 42 40 43 41 44 45 45
REMARK SMILES IDX 48 46 42 47 43 48 46 49 44 50 70 51 71 52 79 53 72 54 73 55
REMARK SMILES IDX 77 56 80 57 74 58 75 59 78 60 76 61 55 62 56 63 64 64 57 65
REMARK SMILES IDX 58 66 62 67 65 68 59 69 60 70 63 71 61 72 7 73 8 74 9 76
REMARK SMILES IDX 10 77 13 78 14 79 15 81 16 82 19 83 20 84 21 86 22 87 23 88
REMARK SMILES IDX 28 89 24 90 27 91 25 92 26 93 17 94 18 95 11 97 12 98
REMARK H PARENT 3 7 85 25 53 36 7 75 13 80 19 85 18 96 12 99
REMARK Flexibility Score: inf
ROOT
ATOM      1  C   UNL A   1      31.521  30.932  25.961  1.00  0.00     0.117 C 
ENDROOT
BRANCH   1   2
ATOM      2  C   UNL A   1      31.327  32.313  26.572  1.00  0.00     0.042 C 
BRANCH   2   3
ATOM      3  C   UNL A   1      32.605  32.862  27.191  1.00  0.00     0.118 C 
BRANCH   3   4
ATOM      4  N   UNL A   1      32.448  34.236  27.637  1.00  0.00    -0.352 N 
ATOM      5  O   UNL A   1      32.621  35.973  29.063  1.00  0.00    -0.269 OA
ATOM      6  C   UNL A   1      33.055  34.882  28.684  1.00  0.00     0.251 C 
ATOM      7  H   UNL A   1      31.815  34.781  27.115  1.00  0.00     0.163 HD
BRANCH   6   8
ATOM      8  C   UNL A   1      34.214  34.274  29.371  1.00  0.00     0.039 A 
ATOM      9  C   UNL A   1      34.029  33.421  30.461  1.00  0.00     0.014 A 
ATOM     10  C   UNL A   1      35.504  34.526  28.896  1.00  0.00     0.014 A 
ATOM     11  C   UNL A   1      35.128  32.945  31.165  1.00  0.00     0.010 A 
ATOM     12  C   UNL A   1      36.607  33.952  29.536  1.00  0.00     0.010 A 
ATOM     13  C   UNL A   1      36.429  33.170  30.688  1.00  0.00    -0.014 A 
BRANCH  13  14
ATOM     14  C   UNL A   1      37.568  32.484  31.348  1.00  0.00     0.031 A 
ATOM     15  C   UNL A   1      38.318  31.376  30.667  1.00  0.00     0.074 A 
ATOM     16  C   UNL A   1      37.932  32.893  32.579  1.00  0.00     0.049 A 
ATOM     17  N   UNL A   1      39.329  30.674  31.113  1.00  0.00    -0.248 NA
ATOM     18  C   UNL A   1      37.876  30.999  29.315  1.00  0.00     0.031 C 
ATOM     19  C   UNL A   1      37.269  33.956  33.339  1.00  0.00     0.029 A 
ATOM     20  N   UNL A   1      38.950  32.487  33.403  1.00  0.00    -0.354 N 
ATOM     21  C   UNL A   1      39.635  29.765  30.109  1.00  0.00     0.074 A 
ATOM     22  C   UNL A   1      38.687  29.984  29.038  1.00  0.00     0.031 C 
ATOM     23  C   UNL A   1      37.928  34.156  34.487  1.00  0.00     0.029 A 
ATOM     24  C   UNL A   1      39.008  33.183  34.586  1.00  0.00     0.049 A 
ATOM     25  H   UNL A   1      39.579  31.767  33.170  1.00  0.00     0.167 HD
ATOM     26  C   UNL A   1      40.626  28.842  30.086  1.00  0.00     0.037 A 
ATOM     27  C   UNL A   1      39.824  33.043  35.647  1.00  0.00     0.037 A 
ATOM     28  C   UNL A   1      41.574  28.645  31.155  1.00  0.00     0.049 A 
ATOM     29  C   UNL A   1      40.885  31.983  35.610  1.00  0.00     0.074 A 
ATOM     30  C   UNL A   1      42.634  27.757  31.212  1.00  0.00     0.029 A 
ATOM     31  N   UNL A   1      41.573  29.341  32.357  1.00  0.00    -0.354 N 
ATOM     32  N   UNL A   1      41.179  31.146  34.645  1.00  0.00    -0.248 NA
ATOM     33  C   UNL A   1      41.722  31.840  36.807  1.00  0.00     0.031 C 
ATOM     34  C   UNL A   1      43.237  27.872  32.466  1.00  0.00     0.029 A 
ATOM     35  C   UNL A   1      42.596  28.879  33.170  1.00  0.00     0.049 A 
ATOM     36  H   UNL A   1      40.940  30.055  32.595  1.00  0.00     0.167 HD
ATOM     37  C   UNL A   1      42.243  30.388  35.109  1.00  0.00     0.074 A 
ATOM     38  C   UNL A   1      42.555  30.876  36.437  1.00  0.00     0.031 C 
ATOM     39  C   UNL A   1      42.897  29.376  34.490  1.00  0.00     0.037 A 
BRANCH  26  40
ATOM     40  C   UNL A   1      40.746  27.959  28.878  1.00  0.00     0.064 A 
ATOM     41  C   UNL A   1      41.544  28.351  27.790  1.00  0.00     0.173 A 
ATOM     42  C   UNL A   1      40.005  26.776  28.751  1.00  0.00     0.173 A 
ATOM     43  F   UNL A   1      42.269  29.477  27.853  1.00  0.00    -0.203 F 
ATOM     44  C   UNL A   1      41.577  27.601  26.616  1.00  0.00     0.198 A 
ATOM     45  C   UNL A   1      40.062  26.013  27.587  1.00  0.00     0.198 A 
ATOM     46  F   UNL A   1      39.233  26.351  29.764  1.00  0.00    -0.203 F 
ATOM     47  F   UNL A   1      42.316  28.017  25.577  1.00  0.00    -0.200 F 
ATOM     48  C   UNL A   1      40.839  26.432  26.517  1.00  0.00     0.200 A 
ATOM     49  F   UNL A   1      39.366  24.872  27.500  1.00  0.00    -0.200 F 
ATOM     50  F   UNL A   1      40.876  25.709  25.390  1.00  0.00    -0.200 F 
ENDBRANCH  26  40
BRANCH  27  51
ATOM     51  C   UNL A   1      39.653  33.936  36.822  1.00  0.00     0.064 A 
ATOM     52  C   UNL A   1      40.326  35.165  36.908  1.00  0.00     0.173 A 
ATOM     53  C   UNL A   1      38.856  33.552  37.907  1.00  0.00     0.173 A 
ATOM     54  F   UNL A   1      41.108  35.573  35.898  1.00  0.00    -0.203 F 
ATOM     55  C   UNL A   1      40.233  35.959  38.047  1.00  0.00     0.198 A 
ATOM     56  C   UNL A   1      38.737  34.363  39.034  1.00  0.00     0.198 A 
ATOM     57  F   UNL A   1      38.181  32.394  37.866  1.00  0.00    -0.203 F 
ATOM     58  F   UNL A   1      40.927  37.103  38.122  1.00  0.00    -0.200 F 
ATOM     59  C   UNL A   1      39.434  35.560  39.108  1.00  0.00     0.200 A 
ATOM     60  F   UNL A   1      37.947  33.986  40.048  1.00  0.00    -0.200 F 
ATOM     61  F   UNL A   1      39.337  36.329  40.201  1.00  0.00    -0.200 F 
ENDBRANCH  27  51
BRANCH  39  62
ATOM     62  C   UNL A   1      44.035  28.734  35.227  1.00  0.00     0.064 A 
ATOM     63  C   UNL A   1      43.806  27.636  36.071  1.00  0.00     0.173 A 
ATOM     64  C   UNL A   1      45.338  29.251  35.162  1.00  0.00     0.173 A 
ATOM     65  F   UNL A   1      42.576  27.108  36.174  1.00  0.00    -0.203 F 
ATOM     66  C   UNL A   1      44.833  27.093  36.837  1.00  0.00     0.198 A 
ATOM     67  C   UNL A   1      46.369  28.685  35.905  1.00  0.00     0.198 A 
ATOM     68  F   UNL A   1      45.611  30.289  34.357  1.00  0.00    -0.203 F 
ATOM     69  F   UNL A   1      44.580  26.072  37.667  1.00  0.00    -0.200 F 
ATOM     70  C   UNL A   1      46.114  27.616  36.751  1.00  0.00     0.200 A 
ATOM     71  F   UNL A   1      47.613  29.174  35.801  1.00  0.00    -0.200 F 
ATOM     72  F   UNL A   1      47.104  27.087  37.482  1.00  0.00    -0.200 F 
ENDBRANCH  39  62
ENDBRANCH  13  14
ENDBRANCH   6   8
ENDBRANCH   3   4
ENDBRANCH   2   3
ENDBRANCH   1   2
BRANCH   1  73
ATOM     73  N   UNL A   1      31.479  29.918  26.998  1.00  0.00    -0.354 N 
ATOM     74  C   UNL A   1      32.260  28.819  27.185  1.00  0.00     0.244 C 
ATOM     75  H   UNL A   1      30.774  30.046  27.673  1.00  0.00     0.163 HD
ATOM     76  O   UNL A   1      31.757  27.920  27.871  1.00  0.00    -0.273 OA
BRANCH  74  77
ATOM     77  C   UNL A   1      33.753  28.758  26.756  1.00  0.00     0.197 C 
BRANCH  77  78
ATOM     78  N   UNL A   1      33.874  29.287  25.401  1.00  0.00    -0.340 N 
ATOM     79  C   UNL A   1      33.568  28.652  24.229  1.00  0.00     0.244 C 
ATOM     80  H   UNL A   1      34.216  30.207  25.322  1.00  0.00     0.164 HD
ATOM     81  O   UNL A   1      33.772  29.286  23.195  1.00  0.00    -0.273 OA
BRANCH  79  82
ATOM     82  C   UNL A   1      32.976  27.204  24.250  1.00  0.00     0.181 C 
BRANCH  82  83
ATOM     83  N   UNL A   1      32.490  26.834  22.907  1.00  0.00    -0.339 N 
ATOM     84  C   UNL A   1      31.292  26.991  22.253  1.00  0.00     0.251 C 
ATOM     85  H   UNL A   1      33.169  26.376  22.363  1.00  0.00     0.164 HD
ATOM     86  O   UNL A   1      31.047  26.254  21.298  1.00  0.00    -0.269 OA
BRANCH  84  87
ATOM     87  C   UNL A   1      30.278  28.023  22.600  1.00  0.00     0.040 A 
ATOM     88  C   UNL A   1      30.412  29.355  22.199  1.00  0.00     0.017 A 
ATOM     89  C   UNL A   1      29.039  27.618  23.111  1.00  0.00     0.017 A 
ATOM     90  C   UNL A   1      29.399  30.294  22.398  1.00  0.00     0.040 A 
ATOM     91  C   UNL A   1      28.000  28.546  23.281  1.00  0.00     0.040 A 
ATOM     92  C   UNL A   1      28.196  29.878  22.941  1.00  0.00     0.123 A 
ATOM     93  F   UNL A   1      27.203  30.764  23.088  1.00  0.00    -0.207 F 
ENDBRANCH  84  87
ENDBRANCH  82  83
BRANCH  82  94
ATOM     94  C   UNL A   1      34.019  26.199  24.791  1.00  0.00     0.101 C 
BRANCH  94  95
ATOM     95  S   UNL A   1      33.402  24.882  25.899  1.00  0.00    -0.177 SA
ATOM     96  H   UNL A   1      34.452  24.291  26.530  1.00  0.00     0.102 HD
ENDBRANCH  94  95
ENDBRANCH  82  94
ENDBRANCH  79  82
ENDBRANCH  77  78
BRANCH  77  97
ATOM     97  C   UNL A   1      34.869  29.294  27.646  1.00  0.00     0.191 C 
BRANCH  97  98
ATOM     98  O   UNL A   1      34.488  30.386  28.458  1.00  0.00    -0.394 OA
ATOM     99  H   UNL A   1      33.714  30.139  28.989  1.00  0.00     0.210 HD
ENDBRANCH  97  98
ENDBRANCH  77  97
ENDBRANCH  74  77
ENDBRANCH   1  73
TORSDOF 18
ENDMDL
MODEL 2
REMARK VINA RESULT:     -11.5      1.947      3.741
REMARK SMILES O=C(NCCCNC(=O)[C@H](CO)NC(=O)[C@H](CS)NC(=O)c1ccc(F)cc1)c1ccc(-c2c3nc(c(-c4c(F)c(F)c(F)c(F)c4F)c4ccc([nH]4)c(-c4c(F)c(F)c(F)c(F)c4F)c4nc(c(-c5c(F)c(F)c(F)c(F)c5F)c5ccc2[nH]5)C=C4)C=C3)cc1
REMARK SMILES IDX 6 1 5 2 4 3 3 4 1 5 2 6 29 8 30 9 91 10 31 11 90 12 32 13
REMARK SMILES IDX 33 14 34 15 84 16 35 17 89 18 83 19 85 20 36 21 88 22 82 23
REMARK SMILES IDX 81 24 37 26 69 27 49 28 68 29 50 30 53 31 67 32 86 33 51 34
REMARK SMILES IDX 52 35 66 37 87 38 54 39 38 40 39 41 47 42 40 43 41 44 45 45
REMARK SMILES IDX 48 46 42 47 43 48 46 49 44 50 70 51 71 52 79 53 72 54 73 55
REMARK SMILES IDX 77 56 80 57 74 58 75 59 78 60 76 61 55 62 56 63 64 64 57 65
REMARK SMILES IDX 58 66 62 67 65 68 59 69 60 70 63 71 61 72 7 73 8 74 9 76
REMARK SMILES IDX 10 77 13 78 14 79 15 81 16 82 19 83 20 84 21 86 22 87 23 88
REMARK SMILES IDX 28 89 24 90 27 91 25 92 26 93 17 94 18 95 11 97 12 98
REMARK H PARENT 3 7 85 25 53 36 7 75 13 80 19 85 18 96 12 99
REMARK Flexibility Score: inf
ROOT
ATOM      1  C   UNL A   1      31.379  30.970  25.810  1.00  0.00     0.117 C 
ENDROOT
BRANCH   1   2
ATOM      2  C   UNL A   1      31.210  32.310  26.513  1.00  0.00     0.042 C 
BRANCH   2   3
ATOM      3  C   UNL A   1      32.496  32.789  27.172  1.00  0.00     0.118 C 
BRANCH   3   4
ATOM      4  N   UNL A   1      32.404  34.174  27.603  1.00  0.00    -0.352 N 
ATOM      5  O   UNL A   1      32.695  35.925  28.992  1.00  0.00    -0.269 OA
ATOM      6  C   UNL A   1      33.075  34.813  28.614  1.00  0.00     0.251 C 
ATOM      7  H   UNL A   1      31.771  34.733  27.097  1.00  0.00     0.163 HD
BRANCH   6   8
ATOM      8  C   UNL A   1      34.239  34.175  29.264  1.00  0.00     0.039 A 
ATOM      9  C   UNL A   1      34.059  33.217  30.265  1.00  0.00     0.014 A 
ATOM     10  C   UNL A   1      35.529  34.506  28.842  1.00  0.00     0.014 A 
ATOM     11  C   UNL A   1      35.158  32.707  30.943  1.00  0.00     0.010 A 
ATOM     12  C   UNL A   1      36.637  33.905  29.449  1.00  0.00     0.010 A 
ATOM     13  C   UNL A   1      36.461  33.012  30.517  1.00  0.00    -0.014 A 
BRANCH  13  14
ATOM     14  C   UNL A   1      37.608  32.298  31.132  1.00  0.00     0.031 A 
ATOM     15  C   UNL A   1      38.356  31.229  30.391  1.00  0.00     0.074 A 
ATOM     16  C   UNL A   1      37.980  32.646  32.380  1.00  0.00     0.049 A 
ATOM     17  N   UNL A   1      39.372  30.509  30.793  1.00  0.00    -0.248 NA
ATOM     18  C   UNL A   1      37.905  30.919  29.025  1.00  0.00     0.031 C 
ATOM     19  C   UNL A   1      37.319  33.667  33.198  1.00  0.00     0.029 A 
ATOM     20  N   UNL A   1      39.006  32.202  33.175  1.00  0.00    -0.354 N 
ATOM     21  C   UNL A   1      39.674  29.653  29.743  1.00  0.00     0.074 A 
ATOM     22  C   UNL A   1      38.717  29.922  28.691  1.00  0.00     0.031 C 
ATOM     23  C   UNL A   1      37.986  33.811  34.350  1.00  0.00     0.029 A 
ATOM     24  C   UNL A   1      39.070  32.838  34.391  1.00  0.00     0.049 A 
ATOM     25  H   UNL A   1      39.635  31.498  32.900  1.00  0.00     0.167 HD
ATOM     26  C   UNL A   1      40.668  28.736  29.666  1.00  0.00     0.037 A 
ATOM     27  C   UNL A   1      39.895  32.648  35.437  1.00  0.00     0.037 A 
ATOM     28  C   UNL A   1      41.625  28.490  30.715  1.00  0.00     0.049 A 
ATOM     29  C   UNL A   1      40.959  31.595  35.339  1.00  0.00     0.074 A 
ATOM     30  C   UNL A   1      42.689  27.604  30.719  1.00  0.00     0.029 A 
ATOM     31  N   UNL A   1      41.631  29.123  31.951  1.00  0.00    -0.354 N 
ATOM     32  N   UNL A   1      41.249  30.810  34.330  1.00  0.00    -0.248 NA
ATOM     33  C   UNL A   1      41.806  31.395  36.521  1.00  0.00     0.031 C 
ATOM     34  C   UNL A   1      43.301  27.658  31.973  1.00  0.00     0.029 A 
ATOM     35  C   UNL A   1      42.662  28.625  32.732  1.00  0.00     0.049 A 
ATOM     36  H   UNL A   1      40.997  29.823  32.230  1.00  0.00     0.167 HD
ATOM     37  C   UNL A   1      42.319  30.033  34.748  1.00  0.00     0.074 A 
ATOM     38  C   UNL A   1      42.640  30.455  36.096  1.00  0.00     0.031 C 
ATOM     39  C   UNL A   1      42.972  29.056  34.073  1.00  0.00     0.037 A 
BRANCH  26  40
ATOM     40  C   UNL A   1      40.782  27.916  28.413  1.00  0.00     0.064 A 
ATOM     41  C   UNL A   1      40.166  26.657  28.331  1.00  0.00     0.173 A 
ATOM     42  C   UNL A   1      41.574  28.327  27.331  1.00  0.00     0.173 A 
ATOM     43  F   UNL A   1      39.403  26.209  29.340  1.00  0.00    -0.203 F 
ATOM     44  C   UNL A   1      40.355  25.834  27.223  1.00  0.00     0.198 A 
ATOM     45  C   UNL A   1      41.738  27.514  26.211  1.00  0.00     0.198 A 
ATOM     46  F   UNL A   1      42.178  29.525  27.353  1.00  0.00    -0.203 F 
ATOM     47  F   UNL A   1      39.788  24.620  27.186  1.00  0.00    -0.200 F 
ATOM     48  C   UNL A   1      41.138  26.265  26.163  1.00  0.00     0.200 A 
ATOM     49  F   UNL A   1      42.476  27.941  25.178  1.00  0.00    -0.200 F 
ATOM     50  F   UNL A   1      41.315  25.476  25.095  1.00  0.00    -0.200 F 
ENDBRANCH  26  40
BRANCH  27  51
ATOM     51  C   UNL A   1      39.730  33.480  36.657  1.00  0.00     0.064 A 
ATOM     52  C   UNL A   1      38.820  33.122  37.665  1.00  0.00     0.173 A 
ATOM     53  C   UNL A   1      40.437  34.678  36.812  1.00  0.00     0.173 A 
ATOM     54  F   UNL A   1      38.112  31.988  37.559  1.00  0.00    -0.203 F 
ATOM     55  C   UNL A   1      38.603  33.948  38.765  1.00  0.00     0.198 A 
ATOM     56  C   UNL A   1      40.243  35.488  37.930  1.00  0.00     0.198 A 
ATOM     57  F   UNL A   1      41.328  35.055  35.884  1.00  0.00    -0.203 F 
ATOM     58  F   UNL A   1      37.692  33.606  39.686  1.00  0.00    -0.200 F 
ATOM     59  C   UNL A   1      39.318  35.127  38.900  1.00  0.00     0.200 A 
ATOM     60  F   UNL A   1      40.952  36.616  38.069  1.00  0.00    -0.200 F 
ATOM     61  F   UNL A   1      39.116  35.917  39.963  1.00  0.00    -0.200 F 
ENDBRANCH  27  51
BRANCH  39  62
ATOM     62  C   UNL A   1      44.118  28.382  34.768  1.00  0.00     0.064 A 
ATOM     63  C   UNL A   1      45.414  28.914  34.680  1.00  0.00     0.173 A 
ATOM     64  C   UNL A   1      43.951  27.170  35.454  1.00  0.00     0.173 A 
ATOM     65  F   UNL A   1      45.627  30.068  34.028  1.00  0.00    -0.203 F 
ATOM     66  C   UNL A   1      46.502  28.247  35.234  1.00  0.00     0.198 A 
ATOM     67  C   UNL A   1      45.037  26.522  36.035  1.00  0.00     0.198 A 
ATOM     68  F   UNL A   1      42.730  26.629  35.580  1.00  0.00    -0.203 F 
ATOM     69  F   UNL A   1      47.735  28.753  35.100  1.00  0.00    -0.200 F 
ATOM     70  C   UNL A   1      46.312  27.054  35.913  1.00  0.00     0.200 A 
ATOM     71  F   UNL A   1      44.849  25.383  36.715  1.00  0.00    -0.200 F 
ATOM     72  F   UNL A   1      47.359  26.417  36.454  1.00  0.00    -0.200 F 
ENDBRANCH  39  62
ENDBRANCH  13  14
ENDBRANCH   6   8
ENDBRANCH   3   4
ENDBRANCH   2   3
ENDBRANCH   1   2
BRANCH   1  73
ATOM     73  N   UNL A   1      31.758  29.949  26.767  1.00  0.00    -0.354 N 
ATOM     74  C   UNL A   1      31.745  28.592  26.658  1.00  0.00     0.244 C 
ATOM     75  H   UNL A   1      32.076  30.292  27.634  1.00  0.00     0.163 HD
ATOM     76  O   UNL A   1      31.706  27.973  27.729  1.00  0.00    -0.273 OA
BRANCH  74  77
ATOM     77  C   UNL A   1      31.970  27.850  25.311  1.00  0.00     0.197 C 
BRANCH  77  78
ATOM     78  N   UNL A   1      30.674  27.610  24.685  1.00  0.00    -0.340 N 
ATOM     79  C   UNL A   1      30.115  26.403  24.363  1.00  0.00     0.244 C 
ATOM     80  H   UNL A   1      30.141  28.409  24.467  1.00  0.00     0.164 HD
ATOM     81  O   UNL A   1      29.013  26.441  23.816  1.00  0.00    -0.273 OA
BRANCH  79  82
ATOM     82  C   UNL A   1      30.862  25.073  24.708  1.00  0.00     0.181 C 
BRANCH  82  83
ATOM     83  N   UNL A   1      30.317  24.491  25.950  1.00  0.00    -0.339 N 
ATOM     84  C   UNL A   1      30.600  23.359  26.673  1.00  0.00     0.251 C 
ATOM     85  H   UNL A   1      29.594  25.030  26.343  1.00  0.00     0.164 HD
ATOM     86  O   UNL A   1      29.742  22.927  27.442  1.00  0.00    -0.269 OA
BRANCH  84  87
ATOM     87  C   UNL A   1      31.898  22.634  26.618  1.00  0.00     0.040 A 
ATOM     88  C   UNL A   1      32.071  21.486  25.841  1.00  0.00     0.017 A 
ATOM     89  C   UNL A   1      33.045  23.247  27.140  1.00  0.00     0.017 A 
ATOM     90  C   UNL A   1      33.320  20.885  25.673  1.00  0.00     0.040 A 
ATOM     91  C   UNL A   1      34.311  22.672  26.946  1.00  0.00     0.040 A 
ATOM     92  C   UNL A   1      34.434  21.487  26.232  1.00  0.00     0.123 A 
ATOM     93  F   UNL A   1      35.641  20.943  26.033  1.00  0.00    -0.207 F 
ENDBRANCH  84  87
ENDBRANCH  82  83
BRANCH  82  94
ATOM     94  C   UNL A   1      30.791  24.087  23.520  1.00  0.00     0.101 C 
BRANCH  94  95
ATOM     95  S   UNL A   1      32.381  23.544  22.799  1.00  0.00    -0.177 SA
ATOM     96  H   UNL A   1      33.378  24.361  23.235  1.00  0.00     0.102 HD
ENDBRANCH  94  95
ENDBRANCH  82  94
ENDBRANCH  79  82
ENDBRANCH  77  78
BRANCH  77  97
ATOM     97  C   UNL A   1      32.985  28.337  24.282  1.00  0.00     0.191 C 
BRANCH  97  98
ATOM     98  O   UNL A   1      34.120  28.964  24.843  1.00  0.00    -0.394 OA
ATOM     99  H   UNL A   1      34.496  29.587  24.202  1.00  0.00     0.210 HD
ENDBRANCH  97  98
ENDBRANCH  77  97
ENDBRANCH  74  77
ENDBRANCH   1  73
TORSDOF 18
ENDMDL
MODEL 3
REMARK VINA RESULT:     -11.4      3.912      9.278
REMARK SMILES O=C(NCCCNC(=O)[C@H](CO)NC(=O)[C@H](CS)NC(=O)c1ccc(F)cc1)c1ccc(-c2c3nc(c(-c4c(F)c(F)c(F)c(F)c4F)c4ccc([nH]4)c(-c4c(F)c(F)c(F)c(F)c4F)c4nc(c(-c5c(F)c(F)c(F)c(F)c5F)c5ccc2[nH]5)C=C4)C=C3)cc1
REMARK SMILES IDX 6 1 5 2 4 3 3 4 1 5 2 6 29 8 30 9 91 10 31 11 90 12 32 13
REMARK SMILES IDX 33 14 34 15 84 16 35 17 89 18 83 19 85 20 36 21 88 22 82 23
REMARK SMILES IDX 81 24 37 26 69 27 49 28 68 29 50 30 53 31 67 32 86 33 51 34
REMARK SMILES IDX 52 35 66 37 87 38 54 39 38 40 39 41 47 42 40 43 41 44 45 45
REMARK SMILES IDX 48 46 42 47 43 48 46 49 44 50 70 51 71 52 79 53 72 54 73 55
REMARK SMILES IDX 77 56 80 57 74 58 75 59 78 60 76 61 55 62 56 63 64 64 57 65
REMARK SMILES IDX 58 66 62 67 65 68 59 69 60 70 63 71 61 72 7 73 8 74 9 76
REMARK SMILES IDX 10 77 13 78 14 79 15 81 16 82 19 83 20 84 21 86 22 87 23 88
REMARK SMILES IDX 28 89 24 90 27 91 25 92 26 93 17 94 18 95 11 97 12 98
REMARK H PARENT 3 7 85 25 53 36 7 75 13 80 19 85 18 96 12 99
REMARK Flexibility Score: inf
ROOT
ATOM      1  C   UNL A   1      32.436  25.799  26.467  1.00  0.00     0.117 C 
ENDROOT
BRANCH   1   2
ATOM      2  C   UNL A   1      32.269  27.306  26.606  1.00  0.00     0.042 C 
BRANCH   2   3
ATOM      3  C   UNL A   1      33.595  28.023  26.818  1.00  0.00     0.118 C 
BRANCH   3   4
ATOM      4  N   UNL A   1      33.420  29.457  26.975  1.00  0.00    -0.352 N 
ATOM      5  O   UNL A   1      33.794  31.495  27.864  1.00  0.00    -0.269 OA
ATOM      6  C   UNL A   1      34.220  30.361  27.626  1.00  0.00     0.251 C 
ATOM      7  H   UNL A   1      32.613  29.834  26.555  1.00  0.00     0.163 HD
BRANCH   6   8
ATOM      8  C   UNL A   1      35.583  29.985  28.057  1.00  0.00     0.039 A 
ATOM      9  C   UNL A   1      36.674  30.157  27.201  1.00  0.00     0.014 A 
ATOM     10  C   UNL A   1      35.784  29.491  29.349  1.00  0.00     0.014 A 
ATOM     11  C   UNL A   1      37.930  29.698  27.576  1.00  0.00     0.010 A 
ATOM     12  C   UNL A   1      37.071  29.136  29.767  1.00  0.00     0.010 A 
ATOM     13  C   UNL A   1      38.153  29.220  28.877  1.00  0.00    -0.014 A 
BRANCH  13  14
ATOM     14  C   UNL A   1      39.542  28.925  29.310  1.00  0.00     0.031 A 
ATOM     15  C   UNL A   1      40.279  29.831  30.253  1.00  0.00     0.074 A 
ATOM     16  C   UNL A   1      40.129  27.804  28.847  1.00  0.00     0.049 A 
ATOM     17  N   UNL A   1      41.497  29.714  30.719  1.00  0.00    -0.248 NA
ATOM     18  C   UNL A   1      39.566  31.024  30.733  1.00  0.00     0.031 C 
ATOM     19  C   UNL A   1      39.508  26.855  27.919  1.00  0.00     0.029 A 
ATOM     20  N   UNL A   1      41.362  27.258  29.099  1.00  0.00    -0.354 N 
ATOM     21  C   UNL A   1      41.703  30.821  31.531  1.00  0.00     0.074 A 
ATOM     22  C   UNL A   1      40.494  31.615  31.476  1.00  0.00     0.031 C 
ATOM     23  C   UNL A   1      40.336  25.820  27.725  1.00  0.00     0.029 A 
ATOM     24  C   UNL A   1      41.577  26.069  28.446  1.00  0.00     0.049 A 
ATOM     25  H   UNL A   1      42.026  27.677  29.692  1.00  0.00     0.167 HD
ATOM     26  C   UNL A   1      42.800  31.134  32.261  1.00  0.00     0.037 A 
ATOM     27  C   UNL A   1      42.662  25.274  28.409  1.00  0.00     0.037 A 
ATOM     28  C   UNL A   1      43.992  30.326  32.318  1.00  0.00     0.049 A 
ATOM     29  C   UNL A   1      43.878  25.669  29.193  1.00  0.00     0.074 A 
ATOM     30  C   UNL A   1      45.144  30.542  33.054  1.00  0.00     0.029 A 
ATOM     31  N   UNL A   1      44.191  29.150  31.607  1.00  0.00    -0.354 N 
ATOM     32  N   UNL A   1      44.051  26.706  29.976  1.00  0.00    -0.248 NA
ATOM     33  C   UNL A   1      45.051  24.793  29.086  1.00  0.00     0.031 C 
ATOM     34  C   UNL A   1      46.060  29.534  32.745  1.00  0.00     0.029 A 
ATOM     35  C   UNL A   1      45.457  28.649  31.866  1.00  0.00     0.049 A 
ATOM     36  H   UNL A   1      43.530  28.734  31.008  1.00  0.00     0.167 HD
ATOM     37  C   UNL A   1      45.343  26.600  30.468  1.00  0.00     0.074 A 
ATOM     38  C   UNL A   1      45.905  25.387  29.909  1.00  0.00     0.031 C 
ATOM     39  C   UNL A   1      46.003  27.438  31.304  1.00  0.00     0.037 A 
BRANCH  26  40
ATOM     40  C   UNL A   1      42.783  32.407  33.058  1.00  0.00     0.064 A 
ATOM     41  C   UNL A   1      42.300  32.411  34.377  1.00  0.00     0.173 A 
ATOM     42  C   UNL A   1      43.152  33.636  32.494  1.00  0.00     0.173 A 
ATOM     43  F   UNL A   1      41.926  31.264  34.965  1.00  0.00    -0.203 F 
ATOM     44  C   UNL A   1      42.170  33.599  35.092  1.00  0.00     0.198 A 
ATOM     45  C   UNL A   1      43.048  34.820  33.221  1.00  0.00     0.198 A 
ATOM     46  F   UNL A   1      43.628  33.688  31.240  1.00  0.00    -0.203 F 
ATOM     47  F   UNL A   1      41.670  33.581  36.336  1.00  0.00    -0.200 F 
ATOM     48  C   UNL A   1      42.547  34.802  34.514  1.00  0.00     0.200 A 
ATOM     49  F   UNL A   1      43.433  35.979  32.670  1.00  0.00    -0.200 F 
ATOM     50  F   UNL A   1      42.427  35.944  35.204  1.00  0.00    -0.200 F 
ENDBRANCH  26  40
BRANCH  27  51
ATOM     51  C   UNL A   1      42.629  24.032  27.593  1.00  0.00     0.064 A 
ATOM     52  C   UNL A   1      42.314  22.791  28.168  1.00  0.00     0.173 A 
ATOM     53  C   UNL A   1      42.966  24.054  26.234  1.00  0.00     0.173 A 
ATOM     54  F   UNL A   1      41.992  22.716  29.468  1.00  0.00    -0.203 F 
ATOM     55  C   UNL A   1      42.368  21.617  27.422  1.00  0.00     0.198 A 
ATOM     56  C   UNL A   1      42.989  22.882  25.480  1.00  0.00     0.198 A 
ATOM     57  F   UNL A   1      43.260  25.217  25.635  1.00  0.00    -0.203 F 
ATOM     58  F   UNL A   1      42.112  20.440  28.009  1.00  0.00    -0.200 F 
ATOM     59  C   UNL A   1      42.701  21.664  26.077  1.00  0.00     0.200 A 
ATOM     60  F   UNL A   1      43.288  22.934  24.175  1.00  0.00    -0.200 F 
ATOM     61  F   UNL A   1      42.744  20.535  25.356  1.00  0.00    -0.200 F 
ENDBRANCH  27  51
BRANCH  39  62
ATOM     62  C   UNL A   1      47.405  27.068  31.690  1.00  0.00     0.064 A 
ATOM     63  C   UNL A   1      47.644  26.280  32.827  1.00  0.00     0.173 A 
ATOM     64  C   UNL A   1      48.514  27.556  30.984  1.00  0.00     0.173 A 
ATOM     65  F   UNL A   1      46.616  25.795  33.541  1.00  0.00    -0.203 F 
ATOM     66  C   UNL A   1      48.940  26.013  33.254  1.00  0.00     0.198 A 
ATOM     67  C   UNL A   1      49.810  27.259  31.396  1.00  0.00     0.198 A 
ATOM     68  F   UNL A   1      48.338  28.300  29.882  1.00  0.00    -0.203 F 
ATOM     69  F   UNL A   1      49.143  25.293  34.366  1.00  0.00    -0.200 F 
ATOM     70  C   UNL A   1      50.022  26.499  32.537  1.00  0.00     0.200 A 
ATOM     71  F   UNL A   1      50.855  27.708  30.688  1.00  0.00    -0.200 F 
ATOM     72  F   UNL A   1      51.270  26.234  32.944  1.00  0.00    -0.200 F 
ENDBRANCH  39  62
ENDBRANCH  13  14
ENDBRANCH   6   8
ENDBRANCH   3   4
ENDBRANCH   2   3
ENDBRANCH   1   2
BRANCH   1  73
ATOM     73  N   UNL A   1      31.742  25.328  25.283  1.00  0.00    -0.354 N 
ATOM     74  C   UNL A   1      31.383  24.068  24.917  1.00  0.00     0.244 C 
ATOM     75  H   UNL A   1      31.491  26.033  24.643  1.00  0.00     0.163 HD
ATOM     76  O   UNL A   1      31.197  23.898  23.706  1.00  0.00    -0.273 OA
BRANCH  74  77
ATOM     77  C   UNL A   1      31.024  22.958  25.946  1.00  0.00     0.197 C 
BRANCH  77  78
ATOM     78  N   UNL A   1      32.246  22.529  26.619  1.00  0.00    -0.340 N 
ATOM     79  C   UNL A   1      33.180  21.640  26.164  1.00  0.00     0.244 C 
ATOM     80  H   UNL A   1      32.417  22.926  27.504  1.00  0.00     0.164 HD
ATOM     81  O   UNL A   1      34.126  21.409  26.915  1.00  0.00    -0.273 OA
BRANCH  79  82
ATOM     82  C   UNL A   1      33.022  20.988  24.750  1.00  0.00     0.181 C 
BRANCH  82  83
ATOM     83  N   UNL A   1      33.559  21.890  23.713  1.00  0.00    -0.339 N 
ATOM     84  C   UNL A   1      34.617  22.765  23.669  1.00  0.00     0.251 C 
ATOM     85  H   UNL A   1      33.049  21.859  22.873  1.00  0.00     0.164 HD
ATOM     86  O   UNL A   1      34.601  23.660  22.824  1.00  0.00    -0.269 OA
BRANCH  84  87
ATOM     87  C   UNL A   1      35.809  22.682  24.556  1.00  0.00     0.040 A 
ATOM     88  C   UNL A   1      36.713  21.620  24.481  1.00  0.00     0.017 A 
ATOM     89  C   UNL A   1      36.185  23.807  25.301  1.00  0.00     0.017 A 
ATOM     90  C   UNL A   1      37.905  21.607  25.208  1.00  0.00     0.040 A 
ATOM     91  C   UNL A   1      37.398  23.822  26.007  1.00  0.00     0.040 A 
ATOM     92  C   UNL A   1      38.237  22.714  25.969  1.00  0.00     0.123 A 
ATOM     93  F   UNL A   1      39.402  22.730  26.629  1.00  0.00    -0.207 F 
ENDBRANCH  84  87
ENDBRANCH  82  83
BRANCH  82  94
ATOM     94  C   UNL A   1      33.692  19.596  24.717  1.00  0.00     0.101 C 
BRANCH  94  95
ATOM     95  S   UNL A   1      32.743  18.206  25.433  1.00  0.00    -0.177 SA
ATOM     96  H   UNL A   1      31.415  18.496  25.394  1.00  0.00     0.102 HD
ENDBRANCH  94  95
ENDBRANCH  82  94
ENDBRANCH  79  82
ENDBRANCH  77  78
BRANCH  77  97
ATOM     97  C   UNL A   1      29.886  23.125  26.947  1.00  0.00     0.191 C 
BRANCH  97  98
ATOM     98  O   UNL A   1      29.194  24.352  26.836  1.00  0.00    -0.394 OA
ATOM     99  H   UNL A   1      28.239  24.186  26.824  1.00  0.00     0.210 HD
ENDBRANCH  97  98
ENDBRANCH  77  97
ENDBRANCH  74  77
ENDBRANCH   1  73
TORSDOF 18
ENDMDL
