MODEL 1
REMARK VINA RESULT:     -11.2      0.000      0.000
REMARK SMILES CC[C@@]1(C(=O)NCCCNC(=O)c2ccc(-c3c4nc(c(-c5c(F)c(F)c(F)c(F)c5F)c5ccc([nH]5)c(-c5c(F)c(F)c(F)c(F)c5F)c5nc(c(-c6c(F)c(F)c(F)c(F)c6F)c6ccc3[nH]6)C=C5)C=C4)cc2)CCN(C(=O)N(C)CCc2cccs2)C1
REMARK SMILES IDX 4 1 5 2 6 3 3 5 76 6 90 7 77 8 78 9 2 10 1 11 79 12 80 13
REMARK SMILES IDX 81 14 82 15 83 16 84 17 85 18 86 19 89 20 87 21 88 22 7 23
REMARK SMILES IDX 8 24 9 25 10 26 11 27 12 29 13 30 14 31 75 32 15 33 74 34
REMARK SMILES IDX 16 35 17 36 18 37 68 38 19 39 73 40 67 41 69 42 20 43 72 44
REMARK SMILES IDX 66 45 65 46 21 48 53 49 33 50 52 51 34 52 37 53 51 54 70 55
REMARK SMILES IDX 35 56 36 57 50 59 71 60 38 61 22 62 23 63 31 64 24 65 25 66
REMARK SMILES IDX 29 67 32 68 26 69 27 70 30 71 28 72 54 73 55 74 63 75 56 76
REMARK SMILES IDX 57 77 61 78 64 79 58 80 59 81 62 82 60 83 39 84 40 85 48 86
REMARK SMILES IDX 41 87 42 88 46 89 49 90 43 91 44 92 47 93 45 94
REMARK H PARENT 6 4 10 28 69 47 37 58
REMARK Flexibility Score: inf
ROOT
ATOM      1  C   UNL A   1      33.540  26.464  22.452  1.00  0.00     0.228 C 
ATOM      2  O   UNL A   1      33.598  26.115  21.262  1.00  0.00    -0.274 OA
ATOM      3  N   UNL A   1      33.804  27.770  22.641  1.00  0.00    -0.355 N 
ATOM      4  H   UNL A   1      33.858  28.267  21.792  1.00  0.00     0.163 HD
ENDROOT
BRANCH   1   5
ATOM      5  C   UNL A   1      33.117  25.429  23.514  1.00  0.00     0.068 C 
ATOM      6  C   UNL A   1      33.550  25.516  24.983  1.00  0.00     0.040 C 
ATOM      7  C   UNL A   1      33.821  24.123  23.095  1.00  0.00     0.138 C 
ATOM      8  C   UNL A   1      34.957  24.939  25.038  1.00  0.00     0.122 C 
ATOM      9  N   UNL A   1      35.038  24.038  23.910  1.00  0.00    -0.324 N 
BRANCH   5  10
ATOM     10  C   UNL A   1      31.563  25.353  23.346  1.00  0.00     0.015 C 
ATOM     11  C   UNL A   1      30.935  23.984  23.125  1.00  0.00     0.005 C 
ENDBRANCH   5  10
BRANCH   9  12
ATOM     12  C   UNL A   1      35.963  23.073  23.594  1.00  0.00     0.319 C 
ATOM     13  O   UNL A   1      36.342  22.952  22.428  1.00  0.00    -0.248 OA
BRANCH  12  14
ATOM     14  N   UNL A   1      36.385  22.186  24.563  1.00  0.00    -0.327 N 
ATOM     15  C   UNL A   1      37.747  22.051  25.050  1.00  0.00     0.148 C 
BRANCH  14  16
ATOM     16  C   UNL A   1      35.432  21.145  24.991  1.00  0.00     0.126 C 
BRANCH  16  17
ATOM     17  C   UNL A   1      34.766  21.396  26.360  1.00  0.00     0.068 C 
BRANCH  17  18
ATOM     18  C   UNL A   1      33.323  21.835  26.361  1.00  0.00     0.006 A 
ATOM     19  C   UNL A   1      32.717  22.736  27.218  1.00  0.00     0.015 A 
ATOM     20  S   UNL A   1      32.158  21.116  25.322  1.00  0.00    -0.149 S 
ATOM     21  C   UNL A   1      31.347  22.966  26.894  1.00  0.00     0.012 A 
ATOM     22  C   UNL A   1      30.943  22.209  25.819  1.00  0.00     0.065 A 
ENDBRANCH  17  18
ENDBRANCH  16  17
ENDBRANCH  14  16
ENDBRANCH  12  14
ENDBRANCH   9  12
ENDBRANCH   1   5
BRANCH   3  23
ATOM     23  C   UNL A   1      34.028  28.618  23.789  1.00  0.00     0.117 C 
BRANCH  23  24
ATOM     24  C   UNL A   1      32.705  29.051  24.411  1.00  0.00     0.042 C 
BRANCH  24  25
ATOM     25  C   UNL A   1      32.826  29.363  25.900  1.00  0.00     0.118 C 
BRANCH  25  26
ATOM     26  N   UNL A   1      32.686  30.790  26.165  1.00  0.00    -0.352 N 
ATOM     27  C   UNL A   1      33.267  31.577  27.122  1.00  0.00     0.251 C 
ATOM     28  H   UNL A   1      32.074  31.265  25.556  1.00  0.00     0.163 HD
ATOM     29  O   UNL A   1      32.769  32.679  27.380  1.00  0.00    -0.269 OA
BRANCH  27  30
ATOM     30  C   UNL A   1      34.475  31.136  27.847  1.00  0.00     0.039 A 
ATOM     31  C   UNL A   1      35.545  32.025  27.989  1.00  0.00     0.014 A 
ATOM     32  C   UNL A   1      34.591  29.830  28.328  1.00  0.00     0.014 A 
ATOM     33  C   UNL A   1      36.704  31.618  28.654  1.00  0.00     0.010 A 
ATOM     34  C   UNL A   1      35.705  29.455  29.072  1.00  0.00     0.010 A 
ATOM     35  C   UNL A   1      36.781  30.339  29.227  1.00  0.00    -0.014 A 
BRANCH  35  36
ATOM     36  C   UNL A   1      37.986  29.903  29.977  1.00  0.00     0.031 A 
ATOM     37  C   UNL A   1      38.233  30.403  31.374  1.00  0.00     0.074 A 
ATOM     38  C   UNL A   1      38.889  29.108  29.373  1.00  0.00     0.049 A 
ATOM     39  N   UNL A   1      39.252  30.182  32.166  1.00  0.00    -0.248 NA
ATOM     40  C   UNL A   1      37.215  31.298  31.948  1.00  0.00     0.031 C 
ATOM     41  C   UNL A   1      38.792  28.612  27.998  1.00  0.00     0.029 A 
ATOM     42  N   UNL A   1      40.069  28.581  29.833  1.00  0.00    -0.354 N 
ATOM     43  C   UNL A   1      39.007  30.923  33.314  1.00  0.00     0.074 A 
ATOM     44  C   UNL A   1      37.773  31.646  33.097  1.00  0.00     0.031 C 
ATOM     45  C   UNL A   1      39.853  27.831  27.736  1.00  0.00     0.029 A 
ATOM     46  C   UNL A   1      40.719  27.799  28.911  1.00  0.00     0.049 A 
ATOM     47  H   UNL A   1      40.417  28.748  30.739  1.00  0.00     0.167 HD
ATOM     48  C   UNL A   1      39.732  30.976  34.458  1.00  0.00     0.037 A 
ATOM     49  C   UNL A   1      41.883  27.131  29.003  1.00  0.00     0.037 A 
ATOM     50  C   UNL A   1      40.940  30.227  34.682  1.00  0.00     0.049 A 
ATOM     51  C   UNL A   1      42.654  27.181  30.294  1.00  0.00     0.074 A 
ATOM     52  C   UNL A   1      41.712  30.153  35.827  1.00  0.00     0.029 A 
ATOM     53  N   UNL A   1      41.551  29.417  33.735  1.00  0.00    -0.354 N 
ATOM     54  N   UNL A   1      42.373  27.826  31.400  1.00  0.00    -0.248 NA
ATOM     55  C   UNL A   1      43.897  26.401  30.352  1.00  0.00     0.031 C 
ATOM     56  C   UNL A   1      42.811  29.329  35.562  1.00  0.00     0.029 A 
ATOM     57  C   UNL A   1      42.700  28.854  34.265  1.00  0.00     0.049 A 
ATOM     58  H   UNL A   1      41.217  29.267  32.821  1.00  0.00     0.167 HD
ATOM     59  C   UNL A   1      43.391  27.517  32.290  1.00  0.00     0.074 A 
ATOM     60  C   UNL A   1      44.283  26.606  31.603  1.00  0.00     0.031 C 
ATOM     61  C   UNL A   1      43.576  27.951  33.561  1.00  0.00     0.037 A 
BRANCH  48  62
ATOM     62  C   UNL A   1      39.228  31.866  35.559  1.00  0.00     0.064 A 
ATOM     63  C   UNL A   1      39.581  33.222  35.626  1.00  0.00     0.173 A 
ATOM     64  C   UNL A   1      38.360  31.365  36.541  1.00  0.00     0.173 A 
ATOM     65  F   UNL A   1      40.417  33.749  34.720  1.00  0.00    -0.203 F 
ATOM     66  C   UNL A   1      39.109  34.036  36.654  1.00  0.00     0.198 A 
ATOM     67  C   UNL A   1      37.867  32.189  37.549  1.00  0.00     0.198 A 
ATOM     68  F   UNL A   1      37.986  30.077  36.520  1.00  0.00    -0.203 F 
ATOM     69  F   UNL A   1      39.502  35.315  36.727  1.00  0.00    -0.200 F 
ATOM     70  C   UNL A   1      38.248  33.520  37.610  1.00  0.00     0.200 A 
ATOM     71  F   UNL A   1      37.024  31.692  38.465  1.00  0.00    -0.200 F 
ATOM     72  F   UNL A   1      37.791  34.306  38.595  1.00  0.00    -0.200 F 
ENDBRANCH  48  62
BRANCH  49  73
ATOM     73  C   UNL A   1      42.370  26.329  27.851  1.00  0.00     0.064 A 
ATOM     74  C   UNL A   1      43.272  26.873  26.927  1.00  0.00     0.173 A 
ATOM     75  C   UNL A   1      41.954  25.003  27.655  1.00  0.00     0.173 A 
ATOM     76  F   UNL A   1      43.686  28.142  27.064  1.00  0.00    -0.203 F 
ATOM     77  C   UNL A   1      43.727  26.130  25.839  1.00  0.00     0.198 A 
ATOM     78  C   UNL A   1      42.430  24.252  26.582  1.00  0.00     0.198 A 
ATOM     79  F   UNL A   1      41.100  24.433  28.516  1.00  0.00    -0.203 F 
ATOM     80  F   UNL A   1      44.558  26.688  24.950  1.00  0.00    -0.200 F 
ATOM     81  C   UNL A   1      43.310  24.818  25.672  1.00  0.00     0.200 A 
ATOM     82  F   UNL A   1      42.041  22.979  26.433  1.00  0.00    -0.200 F 
ATOM     83  F   UNL A   1      43.754  24.100  24.631  1.00  0.00    -0.200 F 
ENDBRANCH  49  73
BRANCH  61  84
ATOM     84  C   UNL A   1      44.778  27.430  34.291  1.00  0.00     0.064 A 
ATOM     85  C   UNL A   1      46.002  28.114  34.270  1.00  0.00     0.173 A 
ATOM     86  C   UNL A   1      44.698  26.245  35.039  1.00  0.00     0.173 A 
ATOM     87  F   UNL A   1      46.132  29.243  33.557  1.00  0.00    -0.203 F 
ATOM     88  C   UNL A   1      47.112  27.615  34.947  1.00  0.00     0.198 A 
ATOM     89  C   UNL A   1      45.801  25.765  35.738  1.00  0.00     0.198 A 
ATOM     90  F   UNL A   1      43.547  25.557  35.095  1.00  0.00    -0.203 F 
ATOM     91  F   UNL A   1      48.285  28.257  34.870  1.00  0.00    -0.200 F 
ATOM     92  C   UNL A   1      47.009  26.445  35.685  1.00  0.00     0.200 A 
ATOM     93  F   UNL A   1      45.697  24.640  36.460  1.00  0.00    -0.200 F 
ATOM     94  F   UNL A   1      48.077  25.966  36.337  1.00  0.00    -0.200 F 
ENDBRANCH  61  84
ENDBRANCH  35  36
ENDBRANCH  27  30
ENDBRANCH  25  26
ENDBRANCH  24  25
ENDBRANCH  23  24
ENDBRANCH   3  23
TORSDOF 16
ENDMDL
MODEL 2
REMARK VINA RESULT:     -11.1      4.969     10.399
REMARK SMILES CC[C@@]1(C(=O)NCCCNC(=O)c2ccc(-c3c4nc(c(-c5c(F)c(F)c(F)c(F)c5F)c5ccc([nH]5)c(-c5c(F)c(F)c(F)c(F)c5F)c5nc(c(-c6c(F)c(F)c(F)c(F)c6F)c6ccc3[nH]6)C=C5)C=C4)cc2)CCN(C(=O)N(C)CCc2cccs2)C1
REMARK SMILES IDX 4 1 5 2 6 3 3 5 76 6 90 7 77 8 78 9 2 10 1 11 79 12 80 13
REMARK SMILES IDX 81 14 82 15 83 16 84 17 85 18 86 19 89 20 87 21 88 22 7 23
REMARK SMILES IDX 8 24 9 25 10 26 11 27 12 29 13 30 14 31 75 32 15 33 74 34
REMARK SMILES IDX 16 35 17 36 18 37 68 38 19 39 73 40 67 41 69 42 20 43 72 44
REMARK SMILES IDX 66 45 65 46 21 48 53 49 33 50 52 51 34 52 37 53 51 54 70 55
REMARK SMILES IDX 35 56 36 57 50 59 71 60 38 61 22 62 23 63 31 64 24 65 25 66
REMARK SMILES IDX 29 67 32 68 26 69 27 70 30 71 28 72 54 73 55 74 63 75 56 76
REMARK SMILES IDX 57 77 61 78 64 79 58 80 59 81 62 82 60 83 39 84 40 85 48 86
REMARK SMILES IDX 41 87 42 88 46 89 49 90 43 91 44 92 47 93 45 94
REMARK H PARENT 6 4 10 28 69 47 37 58
REMARK Flexibility Score: inf
ROOT
ATOM      1  C   UNL A   1      44.861  22.326  26.295  1.00  0.00     0.228 C 
ATOM      2  O   UNL A   1      46.021  21.919  26.115  1.00  0.00    -0.274 OA
ATOM      3  N   UNL A   1      43.920  21.464  25.869  1.00  0.00    -0.355 N 
ATOM      4  H   UNL A   1      44.299  20.590  25.617  1.00  0.00     0.163 HD
ENDROOT
BRANCH   1   5
ATOM      5  C   UNL A   1      44.644  23.669  27.021  1.00  0.00     0.068 C 
ATOM      6  C   UNL A   1      43.513  24.640  26.659  1.00  0.00     0.040 C 
ATOM      7  C   UNL A   1      45.872  24.523  26.645  1.00  0.00     0.138 C 
ATOM      8  C   UNL A   1      44.003  25.418  25.447  1.00  0.00     0.122 C 
ATOM      9  N   UNL A   1      45.446  25.381  25.534  1.00  0.00    -0.324 N 
BRANCH   5  10
ATOM     10  C   UNL A   1      44.634  23.266  28.533  1.00  0.00     0.015 C 
ATOM     11  C   UNL A   1      43.291  23.210  29.249  1.00  0.00     0.005 C 
ENDBRANCH   5  10
BRANCH   9  12
ATOM     12  C   UNL A   1      46.407  26.099  24.865  1.00  0.00     0.319 C 
ATOM     13  O   UNL A   1      47.311  25.505  24.277  1.00  0.00    -0.248 OA
BRANCH  12  14
ATOM     14  N   UNL A   1      46.406  27.478  24.939  1.00  0.00    -0.327 N 
ATOM     15  C   UNL A   1      46.774  28.382  23.864  1.00  0.00     0.148 C 
BRANCH  14  16
ATOM     16  C   UNL A   1      46.225  28.085  26.271  1.00  0.00     0.126 C 
BRANCH  16  17
ATOM     17  C   UNL A   1      44.847  28.739  26.506  1.00  0.00     0.068 C 
BRANCH  17  18
ATOM     18  C   UNL A   1      44.830  30.184  26.936  1.00  0.00     0.006 A 
ATOM     19  C   UNL A   1      43.818  30.853  27.604  1.00  0.00     0.015 A 
ATOM     20  S   UNL A   1      46.081  31.276  26.494  1.00  0.00    -0.149 S 
ATOM     21  C   UNL A   1      44.161  32.203  27.909  1.00  0.00     0.012 A 
ATOM     22  C   UNL A   1      45.411  32.532  27.437  1.00  0.00     0.065 A 
ENDBRANCH  17  18
ENDBRANCH  16  17
ENDBRANCH  14  16
ENDBRANCH  12  14
ENDBRANCH   9  12
ENDBRANCH   1   5
BRANCH   3  23
ATOM     23  C   UNL A   1      42.487  21.511  25.693  1.00  0.00     0.117 C 
BRANCH  23  24
ATOM     24  C   UNL A   1      41.776  20.758  26.812  1.00  0.00     0.042 C 
BRANCH  24  25
ATOM     25  C   UNL A   1      40.603  21.538  27.398  1.00  0.00     0.118 C 
BRANCH  25  26
ATOM     26  N   UNL A   1      39.645  21.925  26.368  1.00  0.00    -0.352 N 
ATOM     27  C   UNL A   1      38.935  23.083  26.205  1.00  0.00     0.251 C 
ATOM     28  H   UNL A   1      39.482  21.240  25.679  1.00  0.00     0.163 HD
ATOM     29  O   UNL A   1      37.944  23.084  25.466  1.00  0.00    -0.269 OA
BRANCH  27  30
ATOM     30  C   UNL A   1      39.332  24.328  26.891  1.00  0.00     0.039 A 
ATOM     31  C   UNL A   1      38.950  24.523  28.222  1.00  0.00     0.014 A 
ATOM     32  C   UNL A   1      40.018  25.338  26.212  1.00  0.00     0.014 A 
ATOM     33  C   UNL A   1      39.299  25.705  28.880  1.00  0.00     0.010 A 
ATOM     34  C   UNL A   1      40.448  26.472  26.894  1.00  0.00     0.010 A 
ATOM     35  C   UNL A   1      40.076  26.676  28.230  1.00  0.00    -0.014 A 
BRANCH  35  36
ATOM     36  C   UNL A   1      40.496  27.919  28.925  1.00  0.00     0.031 A 
ATOM     37  C   UNL A   1      41.897  28.054  29.457  1.00  0.00     0.074 A 
ATOM     38  C   UNL A   1      39.595  28.897  29.133  1.00  0.00     0.049 A 
ATOM     39  N   UNL A   1      42.433  29.035  30.140  1.00  0.00    -0.248 NA
ATOM     40  C   UNL A   1      42.809  26.925  29.220  1.00  0.00     0.031 C 
ATOM     41  C   UNL A   1      38.191  28.853  28.723  1.00  0.00     0.029 A 
ATOM     42  N   UNL A   1      39.723  30.117  29.747  1.00  0.00    -0.354 N 
ATOM     43  C   UNL A   1      43.730  28.630  30.428  1.00  0.00     0.074 A 
ATOM     44  C   UNL A   1      43.885  27.293  29.898  1.00  0.00     0.031 C 
ATOM     45  C   UNL A   1      37.593  30.004  29.070  1.00  0.00     0.029 A 
ATOM     46  C   UNL A   1      38.563  30.852  29.757  1.00  0.00     0.049 A 
ATOM     47  H   UNL A   1      40.566  30.436  30.143  1.00  0.00     0.167 HD
ATOM     48  C   UNL A   1      44.712  29.321  31.056  1.00  0.00     0.037 A 
ATOM     49  C   UNL A   1      38.311  32.073  30.264  1.00  0.00     0.037 A 
ATOM     50  C   UNL A   1      44.563  30.665  31.550  1.00  0.00     0.049 A 
ATOM     51  C   UNL A   1      39.426  32.832  30.929  1.00  0.00     0.074 A 
ATOM     52  C   UNL A   1      45.514  31.481  32.136  1.00  0.00     0.029 A 
ATOM     53  N   UNL A   1      43.381  31.391  31.512  1.00  0.00    -0.354 N 
ATOM     54  N   UNL A   1      40.670  32.468  31.129  1.00  0.00    -0.248 NA
ATOM     55  C   UNL A   1      39.105  34.176  31.428  1.00  0.00     0.031 C 
ATOM     56  C   UNL A   1      44.898  32.687  32.489  1.00  0.00     0.029 A 
ATOM     57  C   UNL A   1      43.575  32.639  32.081  1.00  0.00     0.049 A 
ATOM     58  H   UNL A   1      42.531  31.066  31.137  1.00  0.00     0.167 HD
ATOM     59  C   UNL A   1      41.284  33.541  31.759  1.00  0.00     0.074 A 
ATOM     60  C   UNL A   1      40.282  34.580  31.885  1.00  0.00     0.031 C 
ATOM     61  C   UNL A   1      42.562  33.657  32.199  1.00  0.00     0.037 A 
BRANCH  48  62
ATOM     62  C   UNL A   1      46.039  28.638  31.231  1.00  0.00     0.064 A 
ATOM     63  C   UNL A   1      47.085  28.820  30.313  1.00  0.00     0.173 A 
ATOM     64  C   UNL A   1      46.278  27.816  32.343  1.00  0.00     0.173 A 
ATOM     65  F   UNL A   1      46.906  29.586  29.227  1.00  0.00    -0.203 F 
ATOM     66  C   UNL A   1      48.310  28.178  30.485  1.00  0.00     0.198 A 
ATOM     67  C   UNL A   1      47.514  27.201  32.527  1.00  0.00     0.198 A 
ATOM     68  F   UNL A   1      45.314  27.613  33.253  1.00  0.00    -0.203 F 
ATOM     69  F   UNL A   1      49.276  28.326  29.568  1.00  0.00    -0.200 F 
ATOM     70  C   UNL A   1      48.525  27.375  31.594  1.00  0.00     0.200 A 
ATOM     71  F   UNL A   1      47.724  26.435  33.606  1.00  0.00    -0.200 F 
ATOM     72  F   UNL A   1      49.705  26.763  31.761  1.00  0.00    -0.200 F 
ENDBRANCH  48  62
BRANCH  49  73
ATOM     73  C   UNL A   1      36.955  32.665  30.129  1.00  0.00     0.064 A 
ATOM     74  C   UNL A   1      36.029  32.585  31.177  1.00  0.00     0.173 A 
ATOM     75  C   UNL A   1      36.562  33.331  28.958  1.00  0.00     0.173 A 
ATOM     76  F   UNL A   1      36.354  31.944  32.309  1.00  0.00    -0.203 F 
ATOM     77  C   UNL A   1      34.752  33.131  31.054  1.00  0.00     0.198 A 
ATOM     78  C   UNL A   1      35.295  33.900  28.847  1.00  0.00     0.198 A 
ATOM     79  F   UNL A   1      37.415  33.444  27.931  1.00  0.00    -0.203 F 
ATOM     80  F   UNL A   1      33.873  33.005  32.057  1.00  0.00    -0.200 F 
ATOM     81  C   UNL A   1      34.389  33.793  29.892  1.00  0.00     0.200 A 
ATOM     82  F   UNL A   1      34.954  34.557  27.730  1.00  0.00    -0.200 F 
ATOM     83  F   UNL A   1      33.165  34.327  29.777  1.00  0.00    -0.200 F 
ENDBRANCH  49  73
BRANCH  61  84
ATOM     84  C   UNL A   1      42.946  34.958  32.839  1.00  0.00     0.064 A 
ATOM     85  C   UNL A   1      42.876  35.140  34.228  1.00  0.00     0.173 A 
ATOM     86  C   UNL A   1      43.412  36.025  32.057  1.00  0.00     0.173 A 
ATOM     87  F   UNL A   1      42.422  34.153  35.016  1.00  0.00    -0.203 F 
ATOM     88  C   UNL A   1      43.230  36.355  34.808  1.00  0.00     0.198 A 
ATOM     89  C   UNL A   1      43.793  37.229  32.644  1.00  0.00     0.198 A 
ATOM     90  F   UNL A   1      43.503  35.899  30.725  1.00  0.00    -0.203 F 
ATOM     91  F   UNL A   1      43.105  36.524  36.132  1.00  0.00    -0.200 F 
ATOM     92  C   UNL A   1      43.693  37.395  34.017  1.00  0.00     0.200 A 
ATOM     93  F   UNL A   1      44.251  38.229  31.879  1.00  0.00    -0.200 F 
ATOM     94  F   UNL A   1      44.035  38.564  34.577  1.00  0.00    -0.200 F 
ENDBRANCH  61  84
ENDBRANCH  35  36
ENDBRANCH  27  30
ENDBRANCH  25  26
ENDBRANCH  24  25
ENDBRANCH  23  24
ENDBRANCH   3  23
TORSDOF 16
ENDMDL
MODEL 3
REMARK VINA RESULT:     -11.1      1.135      2.174
REMARK SMILES CC[C@@]1(C(=O)NCCCNC(=O)c2ccc(-c3c4nc(c(-c5c(F)c(F)c(F)c(F)c5F)c5ccc([nH]5)c(-c5c(F)c(F)c(F)c(F)c5F)c5nc(c(-c6c(F)c(F)c(F)c(F)c6F)c6ccc3[nH]6)C=C5)C=C4)cc2)CCN(C(=O)N(C)CCc2cccs2)C1
REMARK SMILES IDX 4 1 5 2 6 3 3 5 76 6 90 7 77 8 78 9 2 10 1 11 79 12 80 13
REMARK SMILES IDX 81 14 82 15 83 16 84 17 85 18 86 19 89 20 87 21 88 22 7 23
REMARK SMILES IDX 8 24 9 25 10 26 11 27 12 29 13 30 14 31 75 32 15 33 74 34
REMARK SMILES IDX 16 35 17 36 18 37 68 38 19 39 73 40 67 41 69 42 20 43 72 44
REMARK SMILES IDX 66 45 65 46 21 48 53 49 33 50 52 51 34 52 37 53 51 54 70 55
REMARK SMILES IDX 35 56 36 57 50 59 71 60 38 61 22 62 23 63 31 64 24 65 25 66
REMARK SMILES IDX 29 67 32 68 26 69 27 70 30 71 28 72 54 73 55 74 63 75 56 76
REMARK SMILES IDX 57 77 61 78 64 79 58 80 59 81 62 82 60 83 39 84 40 85 48 86
REMARK SMILES IDX 41 87 42 88 46 89 49 90 43 91 44 92 47 93 45 94
REMARK H PARENT 6 4 10 28 69 47 37 58
REMARK Flexibility Score: inf
ROOT
ATOM      1  C   UNL A   1      33.523  26.555  22.541  1.00  0.00     0.228 C 
ATOM      2  O   UNL A   1      33.601  26.119  21.381  1.00  0.00    -0.274 OA
ATOM      3  N   UNL A   1      33.905  27.840  22.657  1.00  0.00    -0.355 N 
ATOM      4  H   UNL A   1      34.047  28.269  21.782  1.00  0.00     0.163 HD
ENDROOT
BRANCH   1   5
ATOM      5  C   UNL A   1      32.951  25.643  23.645  1.00  0.00     0.068 C 
ATOM      6  C   UNL A   1      33.434  25.691  25.100  1.00  0.00     0.040 C 
ATOM      7  C   UNL A   1      33.398  24.220  23.252  1.00  0.00     0.138 C 
ATOM      8  C   UNL A   1      34.715  24.871  25.142  1.00  0.00     0.122 C 
ATOM      9  N   UNL A   1      34.602  23.940  24.041  1.00  0.00    -0.324 N 
BRANCH   5  10
ATOM     10  C   UNL A   1      31.404  25.843  23.515  1.00  0.00     0.015 C 
ATOM     11  C   UNL A   1      30.638  26.310  24.745  1.00  0.00     0.005 C 
ENDBRANCH   5  10
BRANCH   9  12
ATOM     12  C   UNL A   1      35.329  22.816  23.736  1.00  0.00     0.319 C 
ATOM     13  O   UNL A   1      36.076  22.822  22.756  1.00  0.00    -0.248 OA
BRANCH  12  14
ATOM     14  N   UNL A   1      35.146  21.661  24.469  1.00  0.00    -0.327 N 
ATOM     15  C   UNL A   1      36.179  20.953  25.203  1.00  0.00     0.148 C 
BRANCH  14  16
ATOM     16  C   UNL A   1      33.852  20.968  24.328  1.00  0.00     0.126 C 
BRANCH  16  17
ATOM     17  C   UNL A   1      33.599  19.846  25.357  1.00  0.00     0.068 C 
BRANCH  17  18
ATOM     18  C   UNL A   1      33.589  18.426  24.848  1.00  0.00     0.006 A 
ATOM     19  C   UNL A   1      34.340  17.896  23.813  1.00  0.00     0.015 A 
ATOM     20  S   UNL A   1      32.471  17.262  25.436  1.00  0.00    -0.149 S 
ATOM     21  C   UNL A   1      34.124  16.497  23.639  1.00  0.00     0.012 A 
ATOM     22  C   UNL A   1      33.192  16.010  24.526  1.00  0.00     0.065 A 
ENDBRANCH  17  18
ENDBRANCH  16  17
ENDBRANCH  14  16
ENDBRANCH  12  14
ENDBRANCH   9  12
ENDBRANCH   1   5
BRANCH   3  23
ATOM     23  C   UNL A   1      34.157  28.742  23.757  1.00  0.00     0.117 C 
BRANCH  23  24
ATOM     24  C   UNL A   1      32.851  29.292  24.321  1.00  0.00     0.042 C 
BRANCH  24  25
ATOM     25  C   UNL A   1      32.917  29.547  25.823  1.00  0.00     0.118 C 
BRANCH  25  26
ATOM     26  N   UNL A   1      32.738  30.960  26.138  1.00  0.00    -0.352 N 
ATOM     27  C   UNL A   1      33.297  31.727  27.123  1.00  0.00     0.251 C 
ATOM     28  H   UNL A   1      32.114  31.439  25.546  1.00  0.00     0.163 HD
ATOM     29  O   UNL A   1      32.770  32.806  27.419  1.00  0.00    -0.269 OA
BRANCH  27  30
ATOM     30  C   UNL A   1      34.516  31.294  27.834  1.00  0.00     0.039 A 
ATOM     31  C   UNL A   1      35.545  32.217  28.044  1.00  0.00     0.014 A 
ATOM     32  C   UNL A   1      34.684  29.966  28.234  1.00  0.00     0.014 A 
ATOM     33  C   UNL A   1      36.715  31.819  28.696  1.00  0.00     0.010 A 
ATOM     34  C   UNL A   1      35.807  29.594  28.967  1.00  0.00     0.010 A 
ATOM     35  C   UNL A   1      36.842  30.512  29.190  1.00  0.00    -0.014 A 
BRANCH  35  36
ATOM     36  C   UNL A   1      38.058  30.080  29.925  1.00  0.00     0.031 A 
ATOM     37  C   UNL A   1      38.307  30.564  31.327  1.00  0.00     0.074 A 
ATOM     38  C   UNL A   1      38.967  29.306  29.304  1.00  0.00     0.049 A 
ATOM     39  N   UNL A   1      39.335  30.346  32.110  1.00  0.00    -0.248 NA
ATOM     40  C   UNL A   1      37.282  31.437  31.920  1.00  0.00     0.031 C 
ATOM     41  C   UNL A   1      38.868  28.829  27.924  1.00  0.00     0.029 A 
ATOM     42  N   UNL A   1      40.157  28.789  29.748  1.00  0.00    -0.354 N 
ATOM     43  C   UNL A   1      39.088  31.068  33.270  1.00  0.00     0.074 A 
ATOM     44  C   UNL A   1      37.843  31.777  33.071  1.00  0.00     0.031 C 
ATOM     45  C   UNL A   1      39.936  28.065  27.643  1.00  0.00     0.029 A 
ATOM     46  C   UNL A   1      40.811  28.029  28.811  1.00  0.00     0.049 A 
ATOM     47  H   UNL A   1      40.509  28.948  30.654  1.00  0.00     0.167 HD
ATOM     48  C   UNL A   1      39.819  31.114  34.409  1.00  0.00     0.037 A 
ATOM     49  C   UNL A   1      41.985  27.375  28.886  1.00  0.00     0.037 A 
ATOM     50  C   UNL A   1      41.039  30.378  34.614  1.00  0.00     0.049 A 
ATOM     51  C   UNL A   1      42.763  27.417  30.173  1.00  0.00     0.074 A 
ATOM     52  C   UNL A   1      41.819  30.298  35.754  1.00  0.00     0.029 A 
ATOM     53  N   UNL A   1      41.655  29.590  33.652  1.00  0.00    -0.354 N 
ATOM     54  N   UNL A   1      42.481  28.043  31.289  1.00  0.00    -0.248 NA
ATOM     55  C   UNL A   1      44.017  26.653  30.211  1.00  0.00     0.031 C 
ATOM     56  C   UNL A   1      42.928  29.493  35.469  1.00  0.00     0.029 A 
ATOM     57  C   UNL A   1      42.815  29.035  34.167  1.00  0.00     0.049 A 
ATOM     58  H   UNL A   1      41.317  29.448  32.738  1.00  0.00     0.167 HD
ATOM     59  C   UNL A   1      43.510  27.735  32.169  1.00  0.00     0.074 A 
ATOM     60  C   UNL A   1      44.409  26.846  31.463  1.00  0.00     0.031 C 
ATOM     61  C   UNL A   1      43.697  28.154  33.445  1.00  0.00     0.037 A 
BRANCH  48  62
ATOM     62  C   UNL A   1      39.312  31.982  35.526  1.00  0.00     0.064 A 
ATOM     63  C   UNL A   1      38.447  31.480  36.510  1.00  0.00     0.173 A 
ATOM     64  C   UNL A   1      39.715  33.322  35.629  1.00  0.00     0.173 A 
ATOM     65  F   UNL A   1      38.021  30.209  36.452  1.00  0.00    -0.203 F 
ATOM     66  C   UNL A   1      37.981  32.296  37.539  1.00  0.00     0.198 A 
ATOM     67  C   UNL A   1      39.271  34.125  36.677  1.00  0.00     0.198 A 
ATOM     68  F   UNL A   1      40.545  33.851  34.718  1.00  0.00    -0.203 F 
ATOM     69  F   UNL A   1      37.115  31.807  38.438  1.00  0.00    -0.200 F 
ATOM     70  C   UNL A   1      38.398  33.614  37.625  1.00  0.00     0.200 A 
ATOM     71  F   UNL A   1      39.685  35.397  36.765  1.00  0.00    -0.200 F 
ATOM     72  F   UNL A   1      37.952  34.396  38.618  1.00  0.00    -0.200 F 
ENDBRANCH  48  62
BRANCH  49  73
ATOM     73  C   UNL A   1      42.474  26.596  27.720  1.00  0.00     0.064 A 
ATOM     74  C   UNL A   1      43.398  27.149  26.823  1.00  0.00     0.173 A 
ATOM     75  C   UNL A   1      42.040  25.283  27.483  1.00  0.00     0.173 A 
ATOM     76  F   UNL A   1      43.829  28.407  26.999  1.00  0.00    -0.203 F 
ATOM     77  C   UNL A   1      43.855  26.428  25.722  1.00  0.00     0.198 A 
ATOM     78  C   UNL A   1      42.519  24.552  26.398  1.00  0.00     0.198 A 
ATOM     79  F   UNL A   1      41.166  24.704  28.318  1.00  0.00    -0.203 F 
ATOM     80  F   UNL A   1      44.707  26.996  24.858  1.00  0.00    -0.200 F 
ATOM     81  C   UNL A   1      43.420  25.128  25.514  1.00  0.00     0.200 A 
ATOM     82  F   UNL A   1      42.112  23.290  26.210  1.00  0.00    -0.200 F 
ATOM     83  F   UNL A   1      43.866  24.430  24.461  1.00  0.00    -0.200 F 
ENDBRANCH  49  73
BRANCH  61  84
ATOM     84  C   UNL A   1      44.911  27.638  34.159  1.00  0.00     0.064 A 
ATOM     85  C   UNL A   1      44.884  26.431  34.873  1.00  0.00     0.173 A 
ATOM     86  C   UNL A   1      46.121  28.348  34.109  1.00  0.00     0.173 A 
ATOM     87  F   UNL A   1      43.747  25.725  34.962  1.00  0.00    -0.203 F 
ATOM     88  C   UNL A   1      46.017  25.968  35.536  1.00  0.00     0.198 A 
ATOM     89  C   UNL A   1      47.259  27.866  34.750  1.00  0.00     0.198 A 
ATOM     90  F   UNL A   1      46.199  29.505  33.435  1.00  0.00    -0.203 F 
ATOM     91  F   UNL A   1      45.955  24.839  36.256  1.00  0.00    -0.200 F 
ATOM     92  C   UNL A   1      47.204  26.682  35.470  1.00  0.00     0.200 A 
ATOM     93  F   UNL A   1      48.408  28.552  34.675  1.00  0.00    -0.200 F 
ATOM     94  F   UNL A   1      48.294  26.235  36.108  1.00  0.00    -0.200 F 
ENDBRANCH  61  84
ENDBRANCH  35  36
ENDBRANCH  27  30
ENDBRANCH  25  26
ENDBRANCH  24  25
ENDBRANCH  23  24
ENDBRANCH   3  23
TORSDOF 16
ENDMDL
