MODEL 1
REMARK VINA RESULT:     -13.1      0.000      0.000
REMARK SMILES Cc1cc2c(c(C)c1Br)C=C(C(=O)NCCCNC(=O)c1ccc(-c3c4nc(c(-c5c(F)c(F)c(F)c(F)c5F)c5ccc([nH]5)c(-c5c(F)c(F)c(F)c(F)c5F)c5nc(c(-c6c(F)c(F)c(F)c(F)c6F)c6ccc3[nH]6)C=C5)C=C4)cc1)[C@@H](C(F)(F)F)O2
REMARK SMILES IDX 16 1 15 2 14 3 12 4 13 5 11 7 1 8 2 9 3 10 8 11 4 12 6 13
REMARK SMILES IDX 9 14 5 15 89 16 7 17 10 18 84 19 85 20 86 21 87 22 88 23
REMARK SMILES IDX 17 24 18 25 19 26 20 28 21 29 22 30 83 31 23 32 82 33 24 34
REMARK SMILES IDX 25 35 26 36 76 37 27 38 81 39 75 40 77 41 28 42 80 43 74 44
REMARK SMILES IDX 73 45 29 47 61 48 41 49 60 50 42 51 45 52 59 53 78 54 43 55
REMARK SMILES IDX 44 56 58 58 79 59 46 60 30 61 31 62 39 63 32 64 33 65 37 66
REMARK SMILES IDX 40 67 34 68 35 69 38 70 36 71 62 72 63 73 71 74 64 75 65 76
REMARK SMILES IDX 69 77 72 78 66 79 67 80 70 81 68 82 47 83 48 84 56 85 49 86
REMARK SMILES IDX 50 87 54 88 57 89 51 90 52 91 55 92 53 93
REMARK H PARENT 14 6 18 27 77 46 45 57
REMARK Flexibility Score: inf
ROOT
ATOM      1  C   UNL A   1      37.859  19.652  24.887  1.00  0.00     0.042 C 
ENDROOT
BRANCH   1   2
ATOM      2  C   UNL A   1      36.561  20.417  25.093  1.00  0.00     0.118 C 
BRANCH   2   3
ATOM      3  N   UNL A   1      35.399  19.547  24.983  1.00  0.00    -0.352 N 
ATOM      4  C   UNL A   1      34.054  19.682  24.968  1.00  0.00     0.251 C 
ATOM      5  O   UNL A   1      33.423  18.625  24.859  1.00  0.00    -0.270 OA
ATOM      6  H   UNL A   1      35.666  18.603  24.897  1.00  0.00     0.163 HD
BRANCH   4   7
ATOM      7  C   UNL A   1      33.320  20.977  25.073  1.00  0.00     0.067 C 
ATOM      8  C   UNL A   1      30.156  26.602  24.262  1.00  0.00     0.046 C 
ATOM      9  C   UNL A   1      30.989  25.357  24.109  1.00  0.00    -0.033 A 
ATOM     10  C   UNL A   1      31.019  24.457  25.176  1.00  0.00     0.051 A 
ATOM     11  C   UNL A   1      31.735  25.063  22.947  1.00  0.00     0.024 A 
ATOM     12  C   UNL A   1      31.768  23.290  25.097  1.00  0.00     0.128 A 
ATOM     13  C   UNL A   1      32.498  23.869  22.849  1.00  0.00    -0.026 A 
ATOM     14  Br  UNL A   1      31.681  26.315  21.500  1.00  0.00    -0.050 Br
ATOM     15  C   UNL A   1      32.498  22.972  23.948  1.00  0.00     0.021 A 
ATOM     16  O   UNL A   1      31.690  22.478  26.191  1.00  0.00    -0.475 OA
ATOM     17  C   UNL A   1      33.299  23.517  21.617  1.00  0.00     0.046 C 
ATOM     18  C   UNL A   1      33.197  21.681  23.932  1.00  0.00     0.026 C 
ATOM     19  C   UNL A   1      32.755  21.513  26.352  1.00  0.00     0.314 C 
BRANCH  19  20
ATOM     20  C   UNL A   1      33.836  22.085  27.289  1.00  0.00     0.429 C 
ATOM     21  F   UNL A   1      33.259  22.708  28.347  1.00  0.00    -0.167 F 
ATOM     22  F   UNL A   1      34.640  21.125  27.805  1.00  0.00    -0.167 F 
ATOM     23  F   UNL A   1      34.640  22.981  26.677  1.00  0.00    -0.167 F 
ENDBRANCH  19  20
ENDBRANCH   4   7
ENDBRANCH   2   3
ENDBRANCH   1   2
BRANCH   1  24
ATOM     24  C   UNL A   1      38.991  20.209  25.740  1.00  0.00     0.118 C 
BRANCH  24  25
ATOM     25  N   UNL A   1      40.038  19.216  25.964  1.00  0.00    -0.352 N 
ATOM     26  C   UNL A   1      41.393  19.374  26.101  1.00  0.00     0.251 C 
ATOM     27  H   UNL A   1      39.721  18.286  26.027  1.00  0.00     0.163 HD
ATOM     28  O   UNL A   1      42.139  18.402  25.995  1.00  0.00    -0.269 OA
BRANCH  26  29
ATOM     29  C   UNL A   1      41.955  20.708  26.373  1.00  0.00     0.039 A 
ATOM     30  C   UNL A   1      42.208  21.577  25.309  1.00  0.00     0.014 A 
ATOM     31  C   UNL A   1      42.260  21.091  27.682  1.00  0.00     0.014 A 
ATOM     32  C   UNL A   1      42.704  22.855  25.570  1.00  0.00     0.010 A 
ATOM     33  C   UNL A   1      42.651  22.394  27.948  1.00  0.00     0.010 A 
ATOM     34  C   UNL A   1      42.896  23.283  26.893  1.00  0.00    -0.014 A 
BRANCH  34  35
ATOM     35  C   UNL A   1      43.386  24.648  27.198  1.00  0.00     0.031 A 
ATOM     36  C   UNL A   1      42.442  25.666  27.776  1.00  0.00     0.074 A 
ATOM     37  C   UNL A   1      44.658  24.980  26.905  1.00  0.00     0.049 A 
ATOM     38  N   UNL A   1      42.659  26.927  28.056  1.00  0.00    -0.248 NA
ATOM     39  C   UNL A   1      41.063  25.222  28.048  1.00  0.00     0.031 C 
ATOM     40  C   UNL A   1      45.644  24.086  26.295  1.00  0.00     0.029 A 
ATOM     41  N   UNL A   1      45.339  26.158  27.076  1.00  0.00    -0.354 N 
ATOM     42  C   UNL A   1      41.448  27.420  28.523  1.00  0.00     0.074 A 
ATOM     43  C   UNL A   1      40.483  26.350  28.430  1.00  0.00     0.031 C 
ATOM     44  C   UNL A   1      46.812  24.737  26.175  1.00  0.00     0.029 A 
ATOM     45  C   UNL A   1      46.647  26.104  26.660  1.00  0.00     0.049 A 
ATOM     46  H   UNL A   1      44.929  26.966  27.461  1.00  0.00     0.167 HD
ATOM     47  C   UNL A   1      41.179  28.649  29.020  1.00  0.00     0.037 A 
ATOM     48  C   UNL A   1      47.603  27.054  26.667  1.00  0.00     0.037 A 
ATOM     49  C   UNL A   1      42.157  29.693  29.151  1.00  0.00     0.049 A 
ATOM     50  C   UNL A   1      47.272  28.415  27.220  1.00  0.00     0.074 A 
ATOM     51  C   UNL A   1      42.001  30.951  29.704  1.00  0.00     0.029 A 
ATOM     52  N   UNL A   1      43.475  29.598  28.727  1.00  0.00    -0.354 N 
ATOM     53  N   UNL A   1      46.142  28.847  27.728  1.00  0.00    -0.248 NA
ATOM     54  C   UNL A   1      48.345  29.417  27.207  1.00  0.00     0.031 C 
ATOM     55  C   UNL A   1      43.211  31.637  29.569  1.00  0.00     0.029 A 
ATOM     56  C   UNL A   1      44.135  30.787  28.982  1.00  0.00     0.049 A 
ATOM     57  H   UNL A   1      43.878  28.804  28.308  1.00  0.00     0.167 HD
ATOM     58  C   UNL A   1      46.375  30.159  28.114  1.00  0.00     0.074 A 
ATOM     59  C   UNL A   1      47.758  30.448  27.800  1.00  0.00     0.031 C 
ATOM     60  C   UNL A   1      45.518  31.047  28.673  1.00  0.00     0.037 A 
BRANCH  47  61
ATOM     61  C   UNL A   1      39.784  28.931  29.493  1.00  0.00     0.064 A 
ATOM     62  C   UNL A   1      38.795  29.402  28.615  1.00  0.00     0.173 A 
ATOM     63  C   UNL A   1      39.406  28.641  30.812  1.00  0.00     0.173 A 
ATOM     64  F   UNL A   1      39.108  29.708  27.347  1.00  0.00    -0.203 F 
ATOM     65  C   UNL A   1      37.483  29.577  29.043  1.00  0.00     0.198 A 
ATOM     66  C   UNL A   1      38.086  28.790  31.229  1.00  0.00     0.198 A 
ATOM     67  F   UNL A   1      40.313  28.186  31.691  1.00  0.00    -0.203 F 
ATOM     68  F   UNL A   1      36.561  30.053  28.194  1.00  0.00    -0.200 F 
ATOM     69  C   UNL A   1      37.126  29.258  30.345  1.00  0.00     0.200 A 
ATOM     70  F   UNL A   1      37.740  28.468  32.483  1.00  0.00    -0.200 F 
ATOM     71  F   UNL A   1      35.856  29.401  30.747  1.00  0.00    -0.200 F 
ENDBRANCH  47  61
BRANCH  48  72
ATOM     72  C   UNL A   1      48.965  26.741  26.160  1.00  0.00     0.064 A 
ATOM     73  C   UNL A   1      49.338  27.069  24.849  1.00  0.00     0.173 A 
ATOM     74  C   UNL A   1      49.924  26.117  26.972  1.00  0.00     0.173 A 
ATOM     75  F   UNL A   1      48.451  27.650  24.027  1.00  0.00    -0.203 F 
ATOM     76  C   UNL A   1      50.609  26.769  24.363  1.00  0.00     0.198 A 
ATOM     77  C   UNL A   1      51.206  25.845  26.495  1.00  0.00     0.198 A 
ATOM     78  F   UNL A   1      49.622  25.787  28.236  1.00  0.00    -0.203 F 
ATOM     79  F   UNL A   1      50.924  27.054  23.093  1.00  0.00    -0.200 F 
ATOM     80  C   UNL A   1      51.544  26.163  25.189  1.00  0.00     0.200 A 
ATOM     81  F   UNL A   1      52.111  25.277  27.302  1.00  0.00    -0.200 F 
ATOM     82  F   UNL A   1      52.769  25.883  24.725  1.00  0.00    -0.200 F 
ENDBRANCH  48  72
BRANCH  60  83
ATOM     83  C   UNL A   1      46.043  32.414  29.002  1.00  0.00     0.064 A 
ATOM     84  C   UNL A   1      45.931  33.476  28.096  1.00  0.00     0.173 A 
ATOM     85  C   UNL A   1      46.571  32.685  30.274  1.00  0.00     0.173 A 
ATOM     86  F   UNL A   1      45.442  33.264  26.863  1.00  0.00    -0.203 F 
ATOM     87  C   UNL A   1      46.335  34.761  28.448  1.00  0.00     0.198 A 
ATOM     88  C   UNL A   1      46.944  33.975  30.634  1.00  0.00     0.198 A 
ATOM     89  F   UNL A   1      46.688  31.703  31.181  1.00  0.00    -0.203 F 
ATOM     90  F   UNL A   1      46.245  35.757  27.556  1.00  0.00    -0.200 F 
ATOM     91  C   UNL A   1      46.828  35.012  29.719  1.00  0.00     0.200 A 
ATOM     92  F   UNL A   1      47.402  34.219  31.869  1.00  0.00    -0.200 F 
ATOM     93  F   UNL A   1      47.193  36.254  30.065  1.00  0.00    -0.200 F 
ENDBRANCH  60  83
ENDBRANCH  34  35
ENDBRANCH  26  29
ENDBRANCH  24  25
ENDBRANCH   1  24
TORSDOF 11
ENDMDL
MODEL 2
REMARK VINA RESULT:     -13.0      4.260      7.817
REMARK SMILES Cc1cc2c(c(C)c1Br)C=C(C(=O)NCCCNC(=O)c1ccc(-c3c4nc(c(-c5c(F)c(F)c(F)c(F)c5F)c5ccc([nH]5)c(-c5c(F)c(F)c(F)c(F)c5F)c5nc(c(-c6c(F)c(F)c(F)c(F)c6F)c6ccc3[nH]6)C=C5)C=C4)cc1)[C@@H](C(F)(F)F)O2
REMARK SMILES IDX 16 1 15 2 14 3 12 4 13 5 11 7 1 8 2 9 3 10 8 11 4 12 6 13
REMARK SMILES IDX 9 14 5 15 89 16 7 17 10 18 84 19 85 20 86 21 87 22 88 23
REMARK SMILES IDX 17 24 18 25 19 26 20 28 21 29 22 30 83 31 23 32 82 33 24 34
REMARK SMILES IDX 25 35 26 36 76 37 27 38 81 39 75 40 77 41 28 42 80 43 74 44
REMARK SMILES IDX 73 45 29 47 61 48 41 49 60 50 42 51 45 52 59 53 78 54 43 55
REMARK SMILES IDX 44 56 58 58 79 59 46 60 30 61 31 62 39 63 32 64 33 65 37 66
REMARK SMILES IDX 40 67 34 68 35 69 38 70 36 71 62 72 63 73 71 74 64 75 65 76
REMARK SMILES IDX 69 77 72 78 66 79 67 80 70 81 68 82 47 83 48 84 56 85 49 86
REMARK SMILES IDX 50 87 54 88 57 89 51 90 52 91 55 92 53 93
REMARK H PARENT 14 6 18 27 77 46 45 57
REMARK Flexibility Score: inf
ROOT
ATOM      1  C   UNL A   1      34.072  28.188  24.782  1.00  0.00     0.042 C 
ENDROOT
BRANCH   1   2
ATOM      2  C   UNL A   1      32.950  27.290  24.286  1.00  0.00     0.118 C 
BRANCH   2   3
ATOM      3  N   UNL A   1      32.136  26.788  25.383  1.00  0.00    -0.352 N 
ATOM      4  C   UNL A   1      31.926  25.607  26.006  1.00  0.00     0.251 C 
ATOM      5  O   UNL A   1      31.103  25.641  26.928  1.00  0.00    -0.270 OA
ATOM      6  H   UNL A   1      31.589  27.505  25.779  1.00  0.00     0.163 HD
BRANCH   4   7
ATOM      7  C   UNL A   1      32.599  24.322  25.658  1.00  0.00     0.067 C 
ATOM      8  C   UNL A   1      36.498  19.184  24.820  1.00  0.00     0.046 C 
ATOM      9  C   UNL A   1      35.903  20.536  25.105  1.00  0.00    -0.033 A 
ATOM     10  C   UNL A   1      34.515  20.669  25.022  1.00  0.00     0.051 A 
ATOM     11  C   UNL A   1      36.677  21.667  25.447  1.00  0.00     0.024 A 
ATOM     12  C   UNL A   1      33.905  21.891  25.274  1.00  0.00     0.128 A 
ATOM     13  C   UNL A   1      36.066  22.920  25.715  1.00  0.00    -0.026 A 
ATOM     14  Br  UNL A   1      38.577  21.460  25.548  1.00  0.00    -0.050 Br
ATOM     15  C   UNL A   1      34.653  23.017  25.631  1.00  0.00     0.021 A 
ATOM     16  O   UNL A   1      32.543  21.884  25.193  1.00  0.00    -0.475 OA
ATOM     17  C   UNL A   1      36.862  24.147  26.094  1.00  0.00     0.046 C 
ATOM     18  C   UNL A   1      33.910  24.242  25.950  1.00  0.00     0.026 C 
ATOM     19  C   UNL A   1      31.904  23.168  25.004  1.00  0.00     0.314 C 
BRANCH  19  20
ATOM     20  C   UNL A   1      31.643  23.401  23.503  1.00  0.00     0.429 C 
ATOM     21  F   UNL A   1      30.420  23.960  23.320  1.00  0.00    -0.167 F 
ATOM     22  F   UNL A   1      32.537  24.252  22.945  1.00  0.00    -0.167 F 
ATOM     23  F   UNL A   1      31.684  22.262  22.780  1.00  0.00    -0.167 F 
ENDBRANCH  19  20
ENDBRANCH   4   7
ENDBRANCH   2   3
ENDBRANCH   1   2
BRANCH   1  24
ATOM     24  C   UNL A   1      34.033  28.368  26.294  1.00  0.00     0.118 C 
BRANCH  24  25
ATOM     25  N   UNL A   1      33.780  29.757  26.667  1.00  0.00    -0.352 N 
ATOM     26  C   UNL A   1      34.422  30.562  27.572  1.00  0.00     0.251 C 
ATOM     27  H   UNL A   1      33.029  30.183  26.193  1.00  0.00     0.163 HD
ATOM     28  O   UNL A   1      33.889  31.601  27.956  1.00  0.00    -0.269 OA
BRANCH  26  29
ATOM     29  C   UNL A   1      35.749  30.181  28.085  1.00  0.00     0.039 A 
ATOM     30  C   UNL A   1      35.858  29.621  29.360  1.00  0.00     0.014 A 
ATOM     31  C   UNL A   1      36.893  30.403  27.314  1.00  0.00     0.014 A 
ATOM     32  C   UNL A   1      37.110  29.224  29.832  1.00  0.00     0.010 A 
ATOM     33  C   UNL A   1      38.119  29.912  27.738  1.00  0.00     0.010 A 
ATOM     34  C   UNL A   1      38.243  29.336  29.009  1.00  0.00    -0.014 A 
BRANCH  34  35
ATOM     35  C   UNL A   1      39.577  28.887  29.471  1.00  0.00     0.031 A 
ATOM     36  C   UNL A   1      40.354  29.737  30.439  1.00  0.00     0.074 A 
ATOM     37  C   UNL A   1      40.106  27.751  28.978  1.00  0.00     0.049 A 
ATOM     38  N   UNL A   1      41.559  29.552  30.916  1.00  0.00    -0.248 NA
ATOM     39  C   UNL A   1      39.708  30.974  30.912  1.00  0.00     0.031 C 
ATOM     40  C   UNL A   1      39.462  26.877  27.995  1.00  0.00     0.029 A 
ATOM     41  N   UNL A   1      41.306  27.137  29.231  1.00  0.00    -0.354 N 
ATOM     42  C   UNL A   1      41.812  30.648  31.730  1.00  0.00     0.074 A 
ATOM     43  C   UNL A   1      40.670  31.526  31.636  1.00  0.00     0.031 C 
ATOM     44  C   UNL A   1      40.258  25.824  27.755  1.00  0.00     0.029 A 
ATOM     45  C   UNL A   1      41.484  25.967  28.534  1.00  0.00     0.049 A 
ATOM     46  H   UNL A   1      41.976  27.500  29.854  1.00  0.00     0.167 HD
ATOM     47  C   UNL A   1      42.889  30.879  32.515  1.00  0.00     0.037 A 
ATOM     48  C   UNL A   1      42.524  25.110  28.523  1.00  0.00     0.037 A 
ATOM     49  C   UNL A   1      44.001  29.977  32.636  1.00  0.00     0.049 A 
ATOM     50  C   UNL A   1      43.712  25.397  29.403  1.00  0.00     0.074 A 
ATOM     51  C   UNL A   1      45.110  30.087  33.456  1.00  0.00     0.029 A 
ATOM     52  N   UNL A   1      44.142  28.797  31.922  1.00  0.00    -0.354 N 
ATOM     53  N   UNL A   1      43.907  26.400  30.225  1.00  0.00    -0.248 NA
ATOM     54  C   UNL A   1      44.821  24.434  29.357  1.00  0.00     0.031 C 
ATOM     55  C   UNL A   1      45.948  28.999  33.199  1.00  0.00     0.029 A 
ATOM     56  C   UNL A   1      45.334  28.183  32.262  1.00  0.00     0.049 A 
ATOM     57  H   UNL A   1      43.491  28.449  31.270  1.00  0.00     0.167 HD
ATOM     58  C   UNL A   1      45.146  26.178  30.810  1.00  0.00     0.074 A 
ATOM     59  C   UNL A   1      45.649  24.935  30.264  1.00  0.00     0.031 C 
ATOM     60  C   UNL A   1      45.809  26.938  31.715  1.00  0.00     0.037 A 
BRANCH  47  61
ATOM     61  C   UNL A   1      42.913  32.136  33.332  1.00  0.00     0.064 A 
ATOM     62  C   UNL A   1      43.456  33.327  32.826  1.00  0.00     0.173 A 
ATOM     63  C   UNL A   1      42.305  32.177  34.595  1.00  0.00     0.173 A 
ATOM     64  F   UNL A   1      44.062  33.338  31.630  1.00  0.00    -0.203 F 
ATOM     65  C   UNL A   1      43.395  34.509  33.558  1.00  0.00     0.198 A 
ATOM     66  C   UNL A   1      42.219  33.367  35.311  1.00  0.00     0.198 A 
ATOM     67  F   UNL A   1      41.768  31.066  35.124  1.00  0.00    -0.203 F 
ATOM     68  F   UNL A   1      43.944  35.629  33.065  1.00  0.00    -0.200 F 
ATOM     69  C   UNL A   1      42.764  34.532  34.793  1.00  0.00     0.200 A 
ATOM     70  F   UNL A   1      41.597  33.391  36.498  1.00  0.00    -0.200 F 
ATOM     71  F   UNL A   1      42.682  35.677  35.483  1.00  0.00    -0.200 F 
ENDBRANCH  47  61
BRANCH  48  72
ATOM     72  C   UNL A   1      42.473  23.890  27.674  1.00  0.00     0.064 A 
ATOM     73  C   UNL A   1      42.893  23.926  26.338  1.00  0.00     0.173 A 
ATOM     74  C   UNL A   1      42.012  22.665  28.179  1.00  0.00     0.173 A 
ATOM     75  F   UNL A   1      43.325  25.077  25.803  1.00  0.00    -0.203 F 
ATOM     76  C   UNL A   1      42.837  22.789  25.532  1.00  0.00     0.198 A 
ATOM     77  C   UNL A   1      41.986  21.521  27.382  1.00  0.00     0.198 A 
ATOM     78  F   UNL A   1      41.605  22.573  29.453  1.00  0.00    -0.203 F 
ATOM     79  F   UNL A   1      43.204  22.863  24.247  1.00  0.00    -0.200 F 
ATOM     80  C   UNL A   1      42.391  21.586  26.058  1.00  0.00     0.200 A 
ATOM     81  F   UNL A   1      41.571  20.357  27.900  1.00  0.00    -0.200 F 
ATOM     82  F   UNL A   1      42.345  20.491  25.287  1.00  0.00    -0.200 F 
ENDBRANCH  48  72
BRANCH  60  83
ATOM     83  C   UNL A   1      47.146  26.450  32.192  1.00  0.00     0.064 A 
ATOM     84  C   UNL A   1      47.256  25.568  33.274  1.00  0.00     0.173 A 
ATOM     85  C   UNL A   1      48.316  26.789  31.494  1.00  0.00     0.173 A 
ATOM     86  F   UNL A   1      46.167  25.222  33.979  1.00  0.00    -0.203 F 
ATOM     87  C   UNL A   1      48.492  25.047  33.647  1.00  0.00     0.198 A 
ATOM     88  C   UNL A   1      49.544  26.243  31.850  1.00  0.00     0.198 A 
ATOM     89  F   UNL A   1      48.260  27.621  30.443  1.00  0.00    -0.203 F 
ATOM     90  F   UNL A   1      48.579  24.227  34.704  1.00  0.00    -0.200 F 
ATOM     91  C   UNL A   1      49.632  25.374  32.928  1.00  0.00     0.200 A 
ATOM     92  F   UNL A   1      50.640  26.544  31.141  1.00  0.00    -0.200 F 
ATOM     93  F   UNL A   1      50.817  24.851  33.273  1.00  0.00    -0.200 F 
ENDBRANCH  60  83
ENDBRANCH  34  35
ENDBRANCH  26  29
ENDBRANCH  24  25
ENDBRANCH   1  24
TORSDOF 11
ENDMDL
MODEL 3
REMARK VINA RESULT:     -13.0      4.889      9.924
REMARK SMILES Cc1cc2c(c(C)c1Br)C=C(C(=O)NCCCNC(=O)c1ccc(-c3c4nc(c(-c5c(F)c(F)c(F)c(F)c5F)c5ccc([nH]5)c(-c5c(F)c(F)c(F)c(F)c5F)c5nc(c(-c6c(F)c(F)c(F)c(F)c6F)c6ccc3[nH]6)C=C5)C=C4)cc1)[C@@H](C(F)(F)F)O2
REMARK SMILES IDX 16 1 15 2 14 3 12 4 13 5 11 7 1 8 2 9 3 10 8 11 4 12 6 13
REMARK SMILES IDX 9 14 5 15 89 16 7 17 10 18 84 19 85 20 86 21 87 22 88 23
REMARK SMILES IDX 17 24 18 25 19 26 20 28 21 29 22 30 83 31 23 32 82 33 24 34
REMARK SMILES IDX 25 35 26 36 76 37 27 38 81 39 75 40 77 41 28 42 80 43 74 44
REMARK SMILES IDX 73 45 29 47 61 48 41 49 60 50 42 51 45 52 59 53 78 54 43 55
REMARK SMILES IDX 44 56 58 58 79 59 46 60 30 61 31 62 39 63 32 64 33 65 37 66
REMARK SMILES IDX 40 67 34 68 35 69 38 70 36 71 62 72 63 73 71 74 64 75 65 76
REMARK SMILES IDX 69 77 72 78 66 79 67 80 70 81 68 82 47 83 48 84 56 85 49 86
REMARK SMILES IDX 50 87 54 88 57 89 51 90 52 91 55 92 53 93
REMARK H PARENT 14 6 18 27 77 46 45 57
REMARK Flexibility Score: inf
ROOT
ATOM      1  C   UNL A   1      33.066  28.908  23.808  1.00  0.00     0.042 C 
ENDROOT
BRANCH   1   2
ATOM      2  C   UNL A   1      32.007  27.819  23.883  1.00  0.00     0.118 C 
BRANCH   2   3
ATOM      3  N   UNL A   1      31.618  27.538  25.257  1.00  0.00    -0.352 N 
ATOM      4  C   UNL A   1      31.524  26.456  26.062  1.00  0.00     0.251 C 
ATOM      5  O   UNL A   1      31.124  26.690  27.208  1.00  0.00    -0.270 OA
ATOM      6  H   UNL A   1      31.351  28.361  25.729  1.00  0.00     0.163 HD
BRANCH   4   7
ATOM      7  C   UNL A   1      31.858  25.058  25.663  1.00  0.00     0.067 C 
ATOM      8  C   UNL A   1      34.408  19.184  24.523  1.00  0.00     0.046 C 
ATOM      9  C   UNL A   1      34.160  20.632  24.854  1.00  0.00    -0.033 A 
ATOM     10  C   UNL A   1      32.837  21.077  24.880  1.00  0.00     0.051 A 
ATOM     11  C   UNL A   1      35.196  21.550  25.132  1.00  0.00     0.024 A 
ATOM     12  C   UNL A   1      32.542  22.402  25.179  1.00  0.00     0.128 A 
ATOM     13  C   UNL A   1      34.908  22.905  25.447  1.00  0.00    -0.026 A 
ATOM     14  Br  UNL A   1      37.000  20.916  25.084  1.00  0.00    -0.050 Br
ATOM     15  C   UNL A   1      33.552  23.321  25.475  1.00  0.00     0.021 A 
ATOM     16  O   UNL A   1      31.212  22.705  25.205  1.00  0.00    -0.475 OA
ATOM     17  C   UNL A   1      35.989  23.912  25.761  1.00  0.00     0.046 C 
ATOM     18  C   UNL A   1      33.135  24.678  25.851  1.00  0.00     0.026 C 
ATOM     19  C   UNL A   1      30.870  24.104  25.066  1.00  0.00     0.314 C 
BRANCH  19  20
ATOM     20  C   UNL A   1      30.554  24.417  23.590  1.00  0.00     0.429 C 
ATOM     21  F   UNL A   1      30.044  23.320  22.977  1.00  0.00    -0.167 F 
ATOM     22  F   UNL A   1      29.628  25.395  23.451  1.00  0.00    -0.167 F 
ATOM     23  F   UNL A   1      31.642  24.807  22.892  1.00  0.00    -0.167 F 
ENDBRANCH  19  20
ENDBRANCH   4   7
ENDBRANCH   2   3
ENDBRANCH   1   2
BRANCH   1  24
ATOM     24  C   UNL A   1      33.645  29.236  25.177  1.00  0.00     0.118 C 
BRANCH  24  25
ATOM     25  N   UNL A   1      33.086  30.471  25.720  1.00  0.00    -0.352 N 
ATOM     26  C   UNL A   1      33.383  31.144  26.877  1.00  0.00     0.251 C 
ATOM     27  H   UNL A   1      32.385  30.886  25.167  1.00  0.00     0.163 HD
ATOM     28  O   UNL A   1      32.612  32.001  27.303  1.00  0.00    -0.269 OA
BRANCH  26  29
ATOM     29  C   UNL A   1      34.624  30.837  27.610  1.00  0.00     0.039 A 
ATOM     30  C   UNL A   1      35.600  31.826  27.749  1.00  0.00     0.014 A 
ATOM     31  C   UNL A   1      34.833  29.560  28.136  1.00  0.00     0.014 A 
ATOM     32  C   UNL A   1      36.759  31.548  28.477  1.00  0.00     0.010 A 
ATOM     33  C   UNL A   1      35.933  29.318  28.946  1.00  0.00     0.010 A 
ATOM     34  C   UNL A   1      36.916  30.304  29.108  1.00  0.00    -0.014 A 
BRANCH  34  35
ATOM     35  C   UNL A   1      38.119  29.996  29.917  1.00  0.00     0.031 A 
ATOM     36  C   UNL A   1      39.169  29.070  29.368  1.00  0.00     0.074 A 
ATOM     37  C   UNL A   1      38.235  30.505  31.159  1.00  0.00     0.049 A 
ATOM     38  N   UNL A   1      40.260  28.629  29.939  1.00  0.00    -0.248 NA
ATOM     39  C   UNL A   1      38.951  28.544  28.008  1.00  0.00     0.031 C 
ATOM     40  C   UNL A   1      37.252  31.372  31.811  1.00  0.00     0.029 A 
ATOM     41  N   UNL A   1      39.226  30.365  32.096  1.00  0.00    -0.354 N 
ATOM     42  C   UNL A   1      40.846  27.773  29.016  1.00  0.00     0.074 A 
ATOM     43  C   UNL A   1      39.965  27.701  27.875  1.00  0.00     0.031 C 
ATOM     44  C   UNL A   1      37.705  31.714  33.027  1.00  0.00     0.029 A 
ATOM     45  C   UNL A   1      38.989  31.059  33.258  1.00  0.00     0.049 A 
ATOM     46  H   UNL A   1      40.032  29.819  31.950  1.00  0.00     0.167 HD
ATOM     47  C   UNL A   1      42.035  27.134  29.102  1.00  0.00     0.037 A 
ATOM     48  C   UNL A   1      39.725  31.151  34.382  1.00  0.00     0.037 A 
ATOM     49  C   UNL A   1      42.927  27.247  30.223  1.00  0.00     0.049 A 
ATOM     50  C   UNL A   1      41.041  30.423  34.452  1.00  0.00     0.074 A 
ATOM     51  C   UNL A   1      44.185  26.693  30.379  1.00  0.00     0.029 A 
ATOM     52  N   UNL A   1      42.657  27.967  31.378  1.00  0.00    -0.354 N 
ATOM     53  N   UNL A   1      41.620  29.675  33.542  1.00  0.00    -0.248 NA
ATOM     54  C   UNL A   1      41.809  30.552  35.697  1.00  0.00     0.031 C 
ATOM     55  C   UNL A   1      44.655  27.035  31.649  1.00  0.00     0.029 A 
ATOM     56  C   UNL A   1      43.714  27.848  32.262  1.00  0.00     0.049 A 
ATOM     57  H   UNL A   1      41.836  28.484  31.542  1.00  0.00     0.167 HD
ATOM     58  C   UNL A   1      42.825  29.266  34.095  1.00  0.00     0.074 A 
ATOM     59  C   UNL A   1      42.905  29.864  35.412  1.00  0.00     0.031 C 
ATOM     60  C   UNL A   1      43.778  28.463  33.563  1.00  0.00     0.037 A 
BRANCH  47  61
ATOM     61  C   UNL A   1      42.465  26.279  27.947  1.00  0.00     0.064 A 
ATOM     62  C   UNL A   1      41.979  24.973  27.783  1.00  0.00     0.173 A 
ATOM     63  C   UNL A   1      43.297  26.801  26.946  1.00  0.00     0.173 A 
ATOM     64  F   UNL A   1      41.193  24.422  28.720  1.00  0.00    -0.203 F 
ATOM     65  C   UNL A   1      42.316  24.220  26.662  1.00  0.00     0.198 A 
ATOM     66  C   UNL A   1      43.607  26.056  25.811  1.00  0.00     0.198 A 
ATOM     67  F   UNL A   1      43.786  28.046  27.053  1.00  0.00    -0.203 F 
ATOM     68  F   UNL A   1      41.861  22.965  26.539  1.00  0.00    -0.200 F 
ATOM     69  C   UNL A   1      43.117  24.767  25.670  1.00  0.00     0.200 A 
ATOM     70  F   UNL A   1      44.369  26.590  24.847  1.00  0.00    -0.200 F 
ATOM     71  F   UNL A   1      43.416  24.050  24.579  1.00  0.00    -0.200 F 
ENDBRANCH  47  61
BRANCH  48  72
ATOM     72  C   UNL A   1      39.247  31.985  35.517  1.00  0.00     0.064 A 
ATOM     73  C   UNL A   1      39.598  33.338  35.613  1.00  0.00     0.173 A 
ATOM     74  C   UNL A   1      38.427  31.452  36.523  1.00  0.00     0.173 A 
ATOM     75  F   UNL A   1      40.395  33.890  34.686  1.00  0.00    -0.203 F 
ATOM     76  C   UNL A   1      39.163  34.123  36.680  1.00  0.00     0.198 A 
ATOM     77  C   UNL A   1      37.966  32.245  37.573  1.00  0.00     0.198 A 
ATOM     78  F   UNL A   1      38.056  30.164  36.476  1.00  0.00    -0.203 F 
ATOM     79  F   UNL A   1      39.549  35.402  36.770  1.00  0.00    -0.200 F 
ATOM     80  C   UNL A   1      38.341  33.577  37.655  1.00  0.00     0.200 A 
ATOM     81  F   UNL A   1      37.159  31.718  38.502  1.00  0.00    -0.200 F 
ATOM     82  F   UNL A   1      37.916  34.333  38.676  1.00  0.00    -0.200 F 
ENDBRANCH  48  72
BRANCH  60  83
ATOM     83  C   UNL A   1      45.002  28.189  34.387  1.00  0.00     0.064 A 
ATOM     84  C   UNL A   1      46.102  29.057  34.369  1.00  0.00     0.173 A 
ATOM     85  C   UNL A   1      45.031  27.105  35.277  1.00  0.00     0.173 A 
ATOM     86  F   UNL A   1      46.126  30.102  33.527  1.00  0.00    -0.203 F 
ATOM     87  C   UNL A   1      47.192  28.844  35.209  1.00  0.00     0.198 A 
ATOM     88  C   UNL A   1      46.107  26.913  36.136  1.00  0.00     0.198 A 
ATOM     89  F   UNL A   1      43.996  26.253  35.339  1.00  0.00    -0.203 F 
ATOM     90  F   UNL A   1      48.246  29.670  35.156  1.00  0.00    -0.200 F 
ATOM     91  C   UNL A   1      47.188  27.782  36.100  1.00  0.00     0.200 A 
ATOM     92  F   UNL A   1      46.092  25.898  37.011  1.00  0.00    -0.200 F 
ATOM     93  F   UNL A   1      48.227  27.594  36.925  1.00  0.00    -0.200 F 
ENDBRANCH  60  83
ENDBRANCH  34  35
ENDBRANCH  26  29
ENDBRANCH  24  25
ENDBRANCH   1  24
TORSDOF 11
ENDMDL
