MODEL 1
REMARK VINA RESULT:     -12.6      0.000      0.000
REMARK SMILES CC(C)(O)C[C@]1(C(=O)NCCCNC(=O)c2ccc(-c3c4nc(c(-c5c(F)c(F)c(F)c(F)c5F)c5ccc([nH]5)c(-c5c(F)c(F)c(F)c(F)c5F)c5nc(c(-c6c(F)c(F)c(F)c(F)c6F)c6ccc3[nH]6)C=C5)C=C4)cc2)CCc2ccccc2C1
REMARK SMILES IDX 10 1 9 2 7 3 8 4 6 6 79 7 87 8 80 9 86 10 81 11 85 12 82 13
REMARK SMILES IDX 84 14 83 15 5 16 2 17 1 18 3 19 4 20 11 22 12 23 13 24 14 25
REMARK SMILES IDX 15 27 16 28 17 29 78 30 18 31 77 32 19 33 20 34 21 35 71 36
REMARK SMILES IDX 22 37 76 38 70 39 72 40 23 41 75 42 69 43 68 44 24 46 56 47
REMARK SMILES IDX 36 48 55 49 37 50 40 51 54 52 73 53 38 54 39 55 53 57 74 58
REMARK SMILES IDX 41 59 25 60 26 61 34 62 27 63 28 64 32 65 35 66 29 67 30 68
REMARK SMILES IDX 33 69 31 70 57 71 58 72 66 73 59 74 60 75 64 76 67 77 61 78
REMARK SMILES IDX 62 79 65 80 63 81 42 82 43 83 51 84 44 85 45 86 49 87 52 88
REMARK SMILES IDX 46 89 47 90 50 91 48 92
REMARK H PARENT 9 5 4 21 13 26 72 45 40 56
REMARK Flexibility Score: inf
ROOT
ATOM      1  C   UNL A   1      31.735  30.843  26.117  1.00  0.00     0.117 C 
ENDROOT
BRANCH   1   2
ATOM      2  N   UNL A   1      31.675  29.719  27.019  1.00  0.00    -0.356 N 
ATOM      3  C   UNL A   1      31.561  28.381  26.886  1.00  0.00     0.226 C 
ATOM      4  O   UNL A   1      31.350  27.833  27.981  1.00  0.00    -0.274 OA
ATOM      5  H   UNL A   1      31.733  29.995  27.963  1.00  0.00     0.163 HD
BRANCH   3   6
ATOM      6  C   UNL A   1      31.591  27.538  25.560  1.00  0.00     0.056 C 
ATOM      7  C   UNL A   1      33.039  27.443  25.034  1.00  0.00     0.022 C 
ATOM      8  C   UNL A   1      30.942  26.133  25.691  1.00  0.00     0.052 C 
ATOM      9  C   UNL A   1      33.905  26.235  25.392  1.00  0.00     0.037 C 
ATOM     10  C   UNL A   1      31.823  24.977  26.088  1.00  0.00    -0.044 A 
ATOM     11  C   UNL A   1      33.211  25.029  25.938  1.00  0.00    -0.045 A 
ATOM     12  C   UNL A   1      31.236  23.837  26.663  1.00  0.00     0.004 A 
ATOM     13  C   UNL A   1      33.996  23.954  26.392  1.00  0.00     0.004 A 
ATOM     14  C   UNL A   1      32.026  22.787  27.135  1.00  0.00     0.000 A 
ATOM     15  C   UNL A   1      33.408  22.849  27.004  1.00  0.00     0.000 A 
BRANCH   6  16
ATOM     16  C   UNL A   1      30.607  28.354  24.558  1.00  0.00     0.052 C 
BRANCH  16  17
ATOM     17  C   UNL A   1      30.952  28.624  23.072  1.00  0.00     0.060 C 
ATOM     18  C   UNL A   1      29.891  29.420  22.302  1.00  0.00     0.042 C 
ATOM     19  C   UNL A   1      31.137  27.272  22.356  1.00  0.00     0.042 C 
BRANCH  17  20
ATOM     20  O   UNL A   1      32.212  29.293  23.010  1.00  0.00    -0.390 OA
ATOM     21  H   UNL A   1      32.101  30.152  22.573  1.00  0.00     0.211 HD
ENDBRANCH  17  20
ENDBRANCH  16  17
ENDBRANCH   6  16
ENDBRANCH   3   6
ENDBRANCH   1   2
BRANCH   1  22
ATOM     22  C   UNL A   1      31.502  32.156  26.850  1.00  0.00     0.042 C 
BRANCH  22  23
ATOM     23  C   UNL A   1      32.792  32.915  27.103  1.00  0.00     0.118 C 
BRANCH  23  24
ATOM     24  N   UNL A   1      32.538  34.252  27.625  1.00  0.00    -0.352 N 
ATOM     25  C   UNL A   1      33.047  34.888  28.730  1.00  0.00     0.251 C 
ATOM     26  H   UNL A   1      31.899  34.786  27.100  1.00  0.00     0.163 HD
ATOM     27  O   UNL A   1      32.524  35.923  29.131  1.00  0.00    -0.269 OA
BRANCH  25  28
ATOM     28  C   UNL A   1      34.214  34.330  29.443  1.00  0.00     0.039 A 
ATOM     29  C   UNL A   1      34.003  33.544  30.581  1.00  0.00     0.014 A 
ATOM     30  C   UNL A   1      35.515  34.601  29.016  1.00  0.00     0.014 A 
ATOM     31  C   UNL A   1      35.095  32.989  31.252  1.00  0.00     0.010 A 
ATOM     32  C   UNL A   1      36.590  33.958  29.615  1.00  0.00     0.010 A 
ATOM     33  C   UNL A   1      36.394  33.165  30.753  1.00  0.00    -0.014 A 
BRANCH  33  34
ATOM     34  C   UNL A   1      37.577  32.571  31.422  1.00  0.00     0.031 A 
ATOM     35  C   UNL A   1      38.305  31.429  30.764  1.00  0.00     0.074 A 
ATOM     36  C   UNL A   1      37.941  32.998  32.646  1.00  0.00     0.049 A 
ATOM     37  N   UNL A   1      39.273  30.684  31.231  1.00  0.00    -0.248 NA
ATOM     38  C   UNL A   1      37.855  31.050  29.414  1.00  0.00     0.031 C 
ATOM     39  C   UNL A   1      37.285  34.066  33.401  1.00  0.00     0.029 A 
ATOM     40  N   UNL A   1      38.946  32.572  33.478  1.00  0.00    -0.354 N 
ATOM     41  C   UNL A   1      39.525  29.736  30.247  1.00  0.00     0.074 A 
ATOM     42  C   UNL A   1      38.570  29.959  29.186  1.00  0.00     0.031 C 
ATOM     43  C   UNL A   1      37.917  34.229  34.574  1.00  0.00     0.029 A 
ATOM     44  C   UNL A   1      38.992  33.246  34.674  1.00  0.00     0.049 A 
ATOM     45  H   UNL A   1      39.574  31.853  33.241  1.00  0.00     0.167 HD
ATOM     46  C   UNL A   1      40.487  28.783  30.219  1.00  0.00     0.037 A 
ATOM     47  C   UNL A   1      39.803  33.079  35.735  1.00  0.00     0.037 A 
ATOM     48  C   UNL A   1      41.459  28.595  31.262  1.00  0.00     0.049 A 
ATOM     49  C   UNL A   1      40.865  32.013  35.679  1.00  0.00     0.074 A 
ATOM     50  C   UNL A   1      42.512  27.700  31.310  1.00  0.00     0.029 A 
ATOM     51  N   UNL A   1      41.493  29.320  32.445  1.00  0.00    -0.354 N 
ATOM     52  N   UNL A   1      41.133  31.160  34.720  1.00  0.00    -0.248 NA
ATOM     53  C   UNL A   1      41.742  31.890  36.851  1.00  0.00     0.031 C 
ATOM     54  C   UNL A   1      43.155  27.851  32.542  1.00  0.00     0.029 A 
ATOM     55  C   UNL A   1      42.540  28.880  33.237  1.00  0.00     0.049 A 
ATOM     56  H   UNL A   1      40.867  30.040  32.686  1.00  0.00     0.167 HD
ATOM     57  C   UNL A   1      42.229  30.428  35.154  1.00  0.00     0.074 A 
ATOM     58  C   UNL A   1      42.581  30.942  36.461  1.00  0.00     0.031 C 
ATOM     59  C   UNL A   1      42.886  29.422  34.528  1.00  0.00     0.037 A 
BRANCH  46  60
ATOM     60  C   UNL A   1      40.538  27.878  29.020  1.00  0.00     0.064 A 
ATOM     61  C   UNL A   1      41.373  28.149  27.925  1.00  0.00     0.173 A 
ATOM     62  C   UNL A   1      39.764  26.708  28.979  1.00  0.00     0.173 A 
ATOM     63  F   UNL A   1      42.125  29.261  27.906  1.00  0.00    -0.203 F 
ATOM     64  C   UNL A   1      41.406  27.303  26.820  1.00  0.00     0.198 A 
ATOM     65  C   UNL A   1      39.826  25.845  27.887  1.00  0.00     0.198 A 
ATOM     66  F   UNL A   1      38.952  26.397  29.999  1.00  0.00    -0.203 F 
ATOM     67  F   UNL A   1      42.168  27.614  25.763  1.00  0.00    -0.200 F 
ATOM     68  C   UNL A   1      40.639  26.147  26.806  1.00  0.00     0.200 A 
ATOM     69  F   UNL A   1      39.096  24.722  27.881  1.00  0.00    -0.200 F 
ATOM     70  F   UNL A   1      40.678  25.329  25.745  1.00  0.00    -0.200 F 
ENDBRANCH  46  60
BRANCH  47  71
ATOM     71  C   UNL A   1      39.661  33.956  36.927  1.00  0.00     0.064 A 
ATOM     72  C   UNL A   1      38.899  33.549  38.032  1.00  0.00     0.173 A 
ATOM     73  C   UNL A   1      40.276  35.215  36.990  1.00  0.00     0.173 A 
ATOM     74  F   UNL A   1      38.276  32.361  38.015  1.00  0.00    -0.203 F 
ATOM     75  C   UNL A   1      38.738  34.377  39.141  1.00  0.00     0.198 A 
ATOM     76  C   UNL A   1      40.141  36.029  38.112  1.00  0.00     0.198 A 
ATOM     77  F   UNL A   1      41.023  35.649  35.963  1.00  0.00    -0.203 F 
ATOM     78  F   UNL A   1      37.964  33.983  40.161  1.00  0.00    -0.200 F 
ATOM     79  C   UNL A   1      39.363  35.614  39.182  1.00  0.00     0.200 A 
ATOM     80  F   UNL A   1      40.761  37.216  38.156  1.00  0.00    -0.200 F 
ATOM     81  F   UNL A   1      39.211  36.409  40.251  1.00  0.00    -0.200 F 
ENDBRANCH  47  71
BRANCH  59  82
ATOM     82  C   UNL A   1      44.088  28.846  35.218  1.00  0.00     0.064 A 
ATOM     83  C   UNL A   1      43.981  27.780  36.124  1.00  0.00     0.173 A 
ATOM     84  C   UNL A   1      45.370  29.336  34.925  1.00  0.00     0.173 A 
ATOM     85  F   UNL A   1      42.777  27.286  36.447  1.00  0.00    -0.203 F 
ATOM     86  C   UNL A   1      45.114  27.241  36.728  1.00  0.00     0.198 A 
ATOM     87  C   UNL A   1      46.502  28.773  35.506  1.00  0.00     0.198 A 
ATOM     88  F   UNL A   1      45.526  30.349  34.059  1.00  0.00    -0.203 F 
ATOM     89  F   UNL A   1      44.986  26.255  37.626  1.00  0.00    -0.200 F 
ATOM     90  C   UNL A   1      46.373  27.732  36.412  1.00  0.00     0.200 A 
ATOM     91  F   UNL A   1      47.718  29.237  35.187  1.00  0.00    -0.200 F 
ATOM     92  F   UNL A   1      47.462  27.204  36.987  1.00  0.00    -0.200 F 
ENDBRANCH  59  82
ENDBRANCH  33  34
ENDBRANCH  25  28
ENDBRANCH  23  24
ENDBRANCH  22  23
ENDBRANCH   1  22
TORSDOF 13
ENDMDL
MODEL 2
REMARK VINA RESULT:     -12.5      5.980     11.288
REMARK SMILES CC(C)(O)C[C@]1(C(=O)NCCCNC(=O)c2ccc(-c3c4nc(c(-c5c(F)c(F)c(F)c(F)c5F)c5ccc([nH]5)c(-c5c(F)c(F)c(F)c(F)c5F)c5nc(c(-c6c(F)c(F)c(F)c(F)c6F)c6ccc3[nH]6)C=C5)C=C4)cc2)CCc2ccccc2C1
REMARK SMILES IDX 10 1 9 2 7 3 8 4 6 6 79 7 87 8 80 9 86 10 81 11 85 12 82 13
REMARK SMILES IDX 84 14 83 15 5 16 2 17 1 18 3 19 4 20 11 22 12 23 13 24 14 25
REMARK SMILES IDX 15 27 16 28 17 29 78 30 18 31 77 32 19 33 20 34 21 35 71 36
REMARK SMILES IDX 22 37 76 38 70 39 72 40 23 41 75 42 69 43 68 44 24 46 56 47
REMARK SMILES IDX 36 48 55 49 37 50 40 51 54 52 73 53 38 54 39 55 53 57 74 58
REMARK SMILES IDX 41 59 25 60 26 61 34 62 27 63 28 64 32 65 35 66 29 67 30 68
REMARK SMILES IDX 33 69 31 70 57 71 58 72 66 73 59 74 60 75 64 76 67 77 61 78
REMARK SMILES IDX 62 79 65 80 63 81 42 82 43 83 51 84 44 85 45 86 49 87 52 88
REMARK SMILES IDX 46 89 47 90 50 91 48 92
REMARK H PARENT 9 5 4 21 13 26 72 45 40 56
REMARK Flexibility Score: inf
ROOT
ATOM      1  C   UNL A   1      37.064  21.061  24.666  1.00  0.00     0.117 C 
ENDROOT
BRANCH   1   2
ATOM      2  N   UNL A   1      36.148  21.249  25.764  1.00  0.00    -0.356 N 
ATOM      3  C   UNL A   1      34.811  21.168  25.929  1.00  0.00     0.226 C 
ATOM      4  O   UNL A   1      34.462  21.620  27.032  1.00  0.00    -0.274 OA
ATOM      5  H   UNL A   1      36.611  21.495  26.598  1.00  0.00     0.163 HD
BRANCH   3   6
ATOM      6  C   UNL A   1      33.741  20.664  24.893  1.00  0.00     0.056 C 
ATOM      7  C   UNL A   1      32.333  20.734  25.520  1.00  0.00     0.022 C 
ATOM      8  C   UNL A   1      33.790  21.402  23.527  1.00  0.00     0.052 C 
ATOM      9  C   UNL A   1      31.450  21.960  25.286  1.00  0.00     0.037 C 
ATOM     10  C   UNL A   1      32.938  22.631  23.352  1.00  0.00    -0.044 A 
ATOM     11  C   UNL A   1      31.838  22.883  24.176  1.00  0.00    -0.045 A 
ATOM     12  C   UNL A   1      33.285  23.568  22.363  1.00  0.00     0.004 A 
ATOM     13  C   UNL A   1      31.118  24.081  24.020  1.00  0.00     0.004 A 
ATOM     14  C   UNL A   1      32.581  24.766  22.236  1.00  0.00     0.000 A 
ATOM     15  C   UNL A   1      31.499  25.026  23.069  1.00  0.00     0.000 A 
BRANCH   6  16
ATOM     16  C   UNL A   1      34.209  19.145  24.558  1.00  0.00     0.052 C 
BRANCH  16  17
ATOM     17  C   UNL A   1      33.224  18.041  24.098  1.00  0.00     0.060 C 
ATOM     18  C   UNL A   1      32.479  17.333  25.235  1.00  0.00     0.042 C 
ATOM     19  C   UNL A   1      34.012  16.974  23.315  1.00  0.00     0.042 C 
BRANCH  17  20
ATOM     20  O   UNL A   1      32.293  18.615  23.179  1.00  0.00    -0.390 OA
ATOM     21  H   UNL A   1      32.673  18.605  22.286  1.00  0.00     0.211 HD
ENDBRANCH  17  20
ENDBRANCH  16  17
ENDBRANCH   6  16
ENDBRANCH   3   6
ENDBRANCH   1   2
BRANCH   1  22
ATOM     22  C   UNL A   1      38.002  19.890  24.919  1.00  0.00     0.042 C 
BRANCH  22  23
ATOM     23  C   UNL A   1      39.010  20.182  26.016  1.00  0.00     0.118 C 
BRANCH  23  24
ATOM     24  N   UNL A   1      40.105  19.219  26.014  1.00  0.00    -0.352 N 
ATOM     25  C   UNL A   1      41.463  19.415  26.050  1.00  0.00     0.251 C 
ATOM     26  H   UNL A   1      39.824  18.276  25.980  1.00  0.00     0.163 HD
ATOM     27  O   UNL A   1      42.219  18.482  25.796  1.00  0.00    -0.269 OA
BRANCH  25  28
ATOM     28  C   UNL A   1      42.019  20.742  26.385  1.00  0.00     0.039 A 
ATOM     29  C   UNL A   1      42.261  21.656  25.355  1.00  0.00     0.014 A 
ATOM     30  C   UNL A   1      42.331  21.079  27.703  1.00  0.00     0.014 A 
ATOM     31  C   UNL A   1      42.764  22.923  25.657  1.00  0.00     0.010 A 
ATOM     32  C   UNL A   1      42.722  22.374  28.014  1.00  0.00     0.010 A 
ATOM     33  C   UNL A   1      42.966  23.302  26.993  1.00  0.00    -0.014 A 
BRANCH  33  34
ATOM     34  C   UNL A   1      43.474  24.648  27.357  1.00  0.00     0.031 A 
ATOM     35  C   UNL A   1      42.531  25.662  27.948  1.00  0.00     0.074 A 
ATOM     36  C   UNL A   1      44.749  24.981  27.082  1.00  0.00     0.049 A 
ATOM     37  N   UNL A   1      42.732  26.926  28.214  1.00  0.00    -0.248 NA
ATOM     38  C   UNL A   1      41.163  25.199  28.242  1.00  0.00     0.031 C 
ATOM     39  C   UNL A   1      45.743  24.098  26.470  1.00  0.00     0.029 A 
ATOM     40  N   UNL A   1      45.424  26.162  27.267  1.00  0.00    -0.354 N 
ATOM     41  C   UNL A   1      41.515  27.411  28.676  1.00  0.00     0.074 A 
ATOM     42  C   UNL A   1      40.566  26.325  28.596  1.00  0.00     0.031 C 
ATOM     43  C   UNL A   1      46.906  24.758  26.353  1.00  0.00     0.029 A 
ATOM     44  C   UNL A   1      46.727  26.124  26.835  1.00  0.00     0.049 A 
ATOM     45  H   UNL A   1      45.013  26.959  27.672  1.00  0.00     0.167 HD
ATOM     46  C   UNL A   1      41.224  28.646  29.152  1.00  0.00     0.037 A 
ATOM     47  C   UNL A   1      47.666  27.089  26.820  1.00  0.00     0.037 A 
ATOM     48  C   UNL A   1      42.186  29.708  29.264  1.00  0.00     0.049 A 
ATOM     49  C   UNL A   1      47.317  28.452  27.355  1.00  0.00     0.074 A 
ATOM     50  C   UNL A   1      42.015  30.978  29.785  1.00  0.00     0.029 A 
ATOM     51  N   UNL A   1      43.507  29.621  28.846  1.00  0.00    -0.354 N 
ATOM     52  N   UNL A   1      46.180  28.884  27.844  1.00  0.00    -0.248 NA
ATOM     53  C   UNL A   1      48.385  29.461  27.341  1.00  0.00     0.031 C 
ATOM     54  C   UNL A   1      43.217  31.675  29.639  1.00  0.00     0.029 A 
ATOM     55  C   UNL A   1      44.156  30.821  29.082  1.00  0.00     0.049 A 
ATOM     56  H   UNL A   1      43.921  28.825  28.442  1.00  0.00     0.167 HD
ATOM     57  C   UNL A   1      46.404  30.198  28.231  1.00  0.00     0.074 A 
ATOM     58  C   UNL A   1      47.790  30.491  27.926  1.00  0.00     0.031 C 
ATOM     59  C   UNL A   1      45.543  31.083  28.789  1.00  0.00     0.037 A 
BRANCH  46  60
ATOM     60  C   UNL A   1      39.811  28.908  29.592  1.00  0.00     0.064 A 
ATOM     61  C   UNL A   1      39.391  28.669  30.909  1.00  0.00     0.173 A 
ATOM     62  C   UNL A   1      38.872  29.435  28.691  1.00  0.00     0.173 A 
ATOM     63  F   UNL A   1      40.244  28.153  31.808  1.00  0.00    -0.203 F 
ATOM     64  C   UNL A   1      38.078  28.914  31.300  1.00  0.00     0.198 A 
ATOM     65  C   UNL A   1      37.568  29.712  29.095  1.00  0.00     0.198 A 
ATOM     66  F   UNL A   1      39.220  29.688  27.421  1.00  0.00    -0.203 F 
ATOM     67  F   UNL A   1      37.686  28.623  32.548  1.00  0.00    -0.200 F 
ATOM     68  C   UNL A   1      37.169  29.444  30.395  1.00  0.00     0.200 A 
ATOM     69  F   UNL A   1      36.697  30.238  28.223  1.00  0.00    -0.200 F 
ATOM     70  F   UNL A   1      35.908  29.687  30.775  1.00  0.00    -0.200 F 
ENDBRANCH  46  60
BRANCH  47  71
ATOM     71  C   UNL A   1      49.028  26.794  26.305  1.00  0.00     0.064 A 
ATOM     72  C   UNL A   1      49.360  27.041  24.965  1.00  0.00     0.173 A 
ATOM     73  C   UNL A   1      50.026  26.258  27.133  1.00  0.00     0.173 A 
ATOM     74  F   UNL A   1      48.436  27.536  24.127  1.00  0.00    -0.203 F 
ATOM     75  C   UNL A   1      50.626  26.741  24.467  1.00  0.00     0.198 A 
ATOM     76  C   UNL A   1      51.302  25.989  26.643  1.00  0.00     0.198 A 
ATOM     77  F   UNL A   1      49.764  26.011  28.425  1.00  0.00    -0.203 F 
ATOM     78  F   UNL A   1      50.899  26.941  23.172  1.00  0.00    -0.200 F 
ATOM     79  C   UNL A   1      51.598  26.221  25.309  1.00  0.00     0.200 A 
ATOM     80  F   UNL A   1      52.243  25.502  27.463  1.00  0.00    -0.200 F 
ATOM     81  F   UNL A   1      52.818  25.935  24.832  1.00  0.00    -0.200 F 
ENDBRANCH  47  71
BRANCH  59  82
ATOM     82  C   UNL A   1      46.084  32.433  29.161  1.00  0.00     0.064 A 
ATOM     83  C   UNL A   1      46.663  32.679  30.414  1.00  0.00     0.173 A 
ATOM     84  C   UNL A   1      46.068  33.480  28.225  1.00  0.00     0.173 A 
ATOM     85  F   UNL A   1      46.690  31.715  31.347  1.00  0.00    -0.203 F 
ATOM     86  C   UNL A   1      47.187  33.931  30.725  1.00  0.00     0.198 A 
ATOM     87  C   UNL A   1      46.621  34.720  28.528  1.00  0.00     0.198 A 
ATOM     88  F   UNL A   1      45.532  33.293  27.010  1.00  0.00    -0.203 F 
ATOM     89  F   UNL A   1      47.694  34.158  31.944  1.00  0.00    -0.200 F 
ATOM     90  C   UNL A   1      47.174  34.946  29.780  1.00  0.00     0.200 A 
ATOM     91  F   UNL A   1      46.623  35.694  27.608  1.00  0.00    -0.200 F 
ATOM     92  F   UNL A   1      47.689  36.147  30.078  1.00  0.00    -0.200 F 
ENDBRANCH  59  82
ENDBRANCH  33  34
ENDBRANCH  25  28
ENDBRANCH  23  24
ENDBRANCH  22  23
ENDBRANCH   1  22
TORSDOF 13
ENDMDL
MODEL 3
REMARK VINA RESULT:     -12.5      4.211      8.066
REMARK SMILES CC(C)(O)C[C@]1(C(=O)NCCCNC(=O)c2ccc(-c3c4nc(c(-c5c(F)c(F)c(F)c(F)c5F)c5ccc([nH]5)c(-c5c(F)c(F)c(F)c(F)c5F)c5nc(c(-c6c(F)c(F)c(F)c(F)c6F)c6ccc3[nH]6)C=C5)C=C4)cc2)CCc2ccccc2C1
REMARK SMILES IDX 10 1 9 2 7 3 8 4 6 6 79 7 87 8 80 9 86 10 81 11 85 12 82 13
REMARK SMILES IDX 84 14 83 15 5 16 2 17 1 18 3 19 4 20 11 22 12 23 13 24 14 25
REMARK SMILES IDX 15 27 16 28 17 29 78 30 18 31 77 32 19 33 20 34 21 35 71 36
REMARK SMILES IDX 22 37 76 38 70 39 72 40 23 41 75 42 69 43 68 44 24 46 56 47
REMARK SMILES IDX 36 48 55 49 37 50 40 51 54 52 73 53 38 54 39 55 53 57 74 58
REMARK SMILES IDX 41 59 25 60 26 61 34 62 27 63 28 64 32 65 35 66 29 67 30 68
REMARK SMILES IDX 33 69 31 70 57 71 58 72 66 73 59 74 60 75 64 76 67 77 61 78
REMARK SMILES IDX 62 79 65 80 63 81 42 82 43 83 51 84 44 85 45 86 49 87 52 88
REMARK SMILES IDX 46 89 47 90 50 91 48 92
REMARK H PARENT 9 5 4 21 13 26 72 45 40 56
REMARK Flexibility Score: inf
ROOT
ATOM      1  C   UNL A   1      33.859  23.038  25.914  1.00  0.00     0.117 C 
ENDROOT
BRANCH   1   2
ATOM      2  N   UNL A   1      32.775  23.880  26.359  1.00  0.00    -0.356 N 
ATOM      3  C   UNL A   1      32.344  25.127  26.076  1.00  0.00     0.226 C 
ATOM      4  O   UNL A   1      31.468  25.495  26.875  1.00  0.00    -0.274 OA
ATOM      5  H   UNL A   1      32.212  23.436  27.034  1.00  0.00     0.163 HD
BRANCH   3   6
ATOM      6  C   UNL A   1      32.873  26.099  24.960  1.00  0.00     0.056 C 
ATOM      7  C   UNL A   1      31.699  26.912  24.376  1.00  0.00     0.022 C 
ATOM      8  C   UNL A   1      34.028  27.027  25.428  1.00  0.00     0.052 C 
ATOM      9  C   UNL A   1      31.382  28.303  24.926  1.00  0.00     0.037 C 
ATOM     10  C   UNL A   1      33.670  28.371  26.005  1.00  0.00    -0.044 A 
ATOM     11  C   UNL A   1      32.430  28.967  25.760  1.00  0.00    -0.045 A 
ATOM     12  C   UNL A   1      34.591  29.021  26.846  1.00  0.00     0.004 A 
ATOM     13  C   UNL A   1      32.116  30.189  26.382  1.00  0.00     0.004 A 
ATOM     14  C   UNL A   1      34.258  30.219  27.479  1.00  0.00     0.000 A 
ATOM     15  C   UNL A   1      33.016  30.801  27.251  1.00  0.00     0.000 A 
BRANCH   6  16
ATOM     16  C   UNL A   1      33.558  25.107  23.872  1.00  0.00     0.052 C 
BRANCH  16  17
ATOM     17  C   UNL A   1      32.844  24.659  22.572  1.00  0.00     0.060 C 
ATOM     18  C   UNL A   1      32.507  25.796  21.601  1.00  0.00     0.042 C 
ATOM     19  C   UNL A   1      31.525  23.958  22.951  1.00  0.00     0.042 C 
BRANCH  17  20
ATOM     20  O   UNL A   1      33.653  23.678  21.922  1.00  0.00    -0.390 OA
ATOM     21  H   UNL A   1      34.397  23.441  22.498  1.00  0.00     0.211 HD
ENDBRANCH  17  20
ENDBRANCH  16  17
ENDBRANCH   6  16
ENDBRANCH   3   6
ENDBRANCH   1   2
BRANCH   1  22
ATOM     22  C   UNL A   1      35.095  23.217  26.784  1.00  0.00     0.042 C 
BRANCH  22  23
ATOM     23  C   UNL A   1      36.319  23.610  25.978  1.00  0.00     0.118 C 
BRANCH  23  24
ATOM     24  N   UNL A   1      37.385  22.622  26.099  1.00  0.00    -0.352 N 
ATOM     25  C   UNL A   1      38.717  22.782  26.388  1.00  0.00     0.251 C 
ATOM     26  H   UNL A   1      37.104  21.691  25.948  1.00  0.00     0.163 HD
ATOM     27  O   UNL A   1      39.495  21.851  26.205  1.00  0.00    -0.269 OA
BRANCH  25  28
ATOM     28  C   UNL A   1      39.220  24.068  26.911  1.00  0.00     0.039 A 
ATOM     29  C   UNL A   1      39.938  24.914  26.059  1.00  0.00     0.014 A 
ATOM     30  C   UNL A   1      39.015  24.432  28.244  1.00  0.00     0.014 A 
ATOM     31  C   UNL A   1      40.400  26.144  26.532  1.00  0.00     0.010 A 
ATOM     32  C   UNL A   1      39.375  25.700  28.679  1.00  0.00     0.010 A 
ATOM     33  C   UNL A   1      40.091  26.560  27.836  1.00  0.00    -0.014 A 
BRANCH  33  34
ATOM     34  C   UNL A   1      40.541  27.871  28.367  1.00  0.00     0.031 A 
ATOM     35  C   UNL A   1      41.993  28.075  28.705  1.00  0.00     0.074 A 
ATOM     36  C   UNL A   1      39.638  28.837  28.622  1.00  0.00     0.049 A 
ATOM     37  N   UNL A   1      42.573  29.087  29.298  1.00  0.00    -0.248 NA
ATOM     38  C   UNL A   1      42.911  26.974  28.366  1.00  0.00     0.031 C 
ATOM     39  C   UNL A   1      38.198  28.738  28.377  1.00  0.00     0.029 A 
ATOM     40  N   UNL A   1      39.798  30.090  29.157  1.00  0.00    -0.354 N 
ATOM     41  C   UNL A   1      43.910  28.731  29.426  1.00  0.00     0.074 A 
ATOM     42  C   UNL A   1      44.045  27.389  28.908  1.00  0.00     0.031 C 
ATOM     43  C   UNL A   1      37.611  29.889  28.739  1.00  0.00     0.029 A 
ATOM     44  C   UNL A   1      38.622  30.788  29.285  1.00  0.00     0.049 A 
ATOM     45  H   UNL A   1      40.673  30.454  29.425  1.00  0.00     0.167 HD
ATOM     46  C   UNL A   1      44.938  29.470  29.907  1.00  0.00     0.037 A 
ATOM     47  C   UNL A   1      38.389  32.011  29.797  1.00  0.00     0.037 A 
ATOM     48  C   UNL A   1      44.799  30.820  30.384  1.00  0.00     0.049 A 
ATOM     49  C   UNL A   1      39.549  32.813  30.325  1.00  0.00     0.074 A 
ATOM     50  C   UNL A   1      45.782  31.681  30.837  1.00  0.00     0.029 A 
ATOM     51  N   UNL A   1      43.595  31.505  30.466  1.00  0.00    -0.354 N 
ATOM     52  N   UNL A   1      40.818  32.491  30.388  1.00  0.00    -0.248 NA
ATOM     53  C   UNL A   1      39.244  34.152  30.847  1.00  0.00     0.031 C 
ATOM     54  C   UNL A   1      45.167  32.870  31.239  1.00  0.00     0.029 A 
ATOM     55  C   UNL A   1      43.810  32.773  30.980  1.00  0.00     0.049 A 
ATOM     56  H   UNL A   1      42.719  31.144  30.199  1.00  0.00     0.167 HD
ATOM     57  C   UNL A   1      41.468  33.597  30.918  1.00  0.00     0.074 A 
ATOM     58  C   UNL A   1      40.452  34.603  31.154  1.00  0.00     0.031 C 
ATOM     59  C   UNL A   1      42.785  33.766  31.186  1.00  0.00     0.037 A 
BRANCH  46  60
ATOM     60  C   UNL A   1      46.300  28.836  29.933  1.00  0.00     0.064 A 
ATOM     61  C   UNL A   1      46.764  28.128  31.052  1.00  0.00     0.173 A 
ATOM     62  C   UNL A   1      47.142  28.913  28.813  1.00  0.00     0.173 A 
ATOM     63  F   UNL A   1      46.005  28.035  32.156  1.00  0.00    -0.203 F 
ATOM     64  C   UNL A   1      48.030  27.549  31.062  1.00  0.00     0.198 A 
ATOM     65  C   UNL A   1      48.394  28.302  28.813  1.00  0.00     0.198 A 
ATOM     66  F   UNL A   1      46.748  29.573  27.714  1.00  0.00    -0.203 F 
ATOM     67  F   UNL A   1      48.472  26.927  32.164  1.00  0.00    -0.200 F 
ATOM     68  C   UNL A   1      48.840  27.629  29.939  1.00  0.00     0.200 A 
ATOM     69  F   UNL A   1      49.169  28.368  27.722  1.00  0.00    -0.200 F 
ATOM     70  F   UNL A   1      50.055  27.064  29.947  1.00  0.00    -0.200 F 
ENDBRANCH  46  60
BRANCH  47  71
ATOM     71  C   UNL A   1      37.008  32.561  29.813  1.00  0.00     0.064 A 
ATOM     72  C   UNL A   1      36.500  33.260  28.708  1.00  0.00     0.173 A 
ATOM     73  C   UNL A   1      36.168  32.404  30.925  1.00  0.00     0.173 A 
ATOM     74  F   UNL A   1      37.269  33.452  27.626  1.00  0.00    -0.203 F 
ATOM     75  C   UNL A   1      35.217  33.803  28.726  1.00  0.00     0.198 A 
ATOM     76  C   UNL A   1      34.874  32.919  30.930  1.00  0.00     0.198 A 
ATOM     77  F   UNL A   1      36.601  31.736  32.004  1.00  0.00    -0.203 F 
ATOM     78  F   UNL A   1      34.777  34.510  27.677  1.00  0.00    -0.200 F 
ATOM     79  C   UNL A   1      34.403  33.627  29.834  1.00  0.00     0.200 A 
ATOM     80  F   UNL A   1      34.084  32.733  31.996  1.00  0.00    -0.200 F 
ATOM     81  F   UNL A   1      33.167  34.146  29.850  1.00  0.00    -0.200 F 
ENDBRANCH  47  71
BRANCH  59  82
ATOM     82  C   UNL A   1      43.217  35.105  31.710  1.00  0.00     0.064 A 
ATOM     83  C   UNL A   1      43.652  36.129  30.856  1.00  0.00     0.173 A 
ATOM     84  C   UNL A   1      43.142  35.380  33.085  1.00  0.00     0.173 A 
ATOM     85  F   UNL A   1      43.754  35.910  29.536  1.00  0.00    -0.203 F 
ATOM     86  C   UNL A   1      44.018  37.373  31.362  1.00  0.00     0.198 A 
ATOM     87  C   UNL A   1      43.478  36.636  33.583  1.00  0.00     0.198 A 
ATOM     88  F   UNL A   1      42.725  34.437  33.942  1.00  0.00    -0.203 F 
ATOM     89  F   UNL A   1      44.474  38.322  30.533  1.00  0.00    -0.200 F 
ATOM     90  C   UNL A   1      43.922  37.628  32.722  1.00  0.00     0.200 A 
ATOM     91  F   UNL A   1      43.368  36.885  34.895  1.00  0.00    -0.200 F 
ATOM     92  F   UNL A   1      44.263  38.831  33.205  1.00  0.00    -0.200 F 
ENDBRANCH  59  82
ENDBRANCH  33  34
ENDBRANCH  25  28
ENDBRANCH  23  24
ENDBRANCH  22  23
ENDBRANCH   1  22
TORSDOF 13
ENDMDL
