MODEL 1
REMARK VINA RESULT:     -13.2      0.000      0.000
REMARK SMILES Cc1ccc(C(=O)NCCCNC(=O)c2ccc(-c3c4nc(c(-c5c(F)c(F)c(F)c(F)c5F)c5ccc([nH]5)c(-c5c(F)c(F)c(F)c(F)c5F)c5nc(c(-c6c(F)c(F)c(F)c(F)c6F)c6ccc3[nH]6)C=C5)C=C4)cc2)c2c1N[C@H](c1ccccc1F)[C@H]1CC=C[C@@H]21
REMARK SMILES IDX 10 1 9 2 8 3 6 4 7 5 5 7 1 8 2 9 3 10 79 11 4 12 78 13 80 14
REMARK SMILES IDX 93 15 81 16 89 18 92 19 90 20 91 21 82 22 83 23 87 24 84 25
REMARK SMILES IDX 86 26 88 27 85 28 11 29 12 30 13 31 14 33 15 34 16 35 77 36
REMARK SMILES IDX 17 37 76 38 18 39 19 40 20 41 70 42 21 43 75 44 69 45 71 46
REMARK SMILES IDX 22 47 74 48 68 49 67 50 23 52 55 53 35 54 54 55 36 56 39 57
REMARK SMILES IDX 53 58 72 59 37 60 38 61 52 63 73 64 40 65 24 66 25 67 33 68
REMARK SMILES IDX 26 69 27 70 31 71 34 72 28 73 29 74 32 75 30 76 56 77 57 78
REMARK SMILES IDX 65 79 58 80 59 81 63 82 66 83 60 84 61 85 64 86 62 87 41 88
REMARK SMILES IDX 42 89 50 90 43 91 44 92 48 93 51 94 45 95 46 96 49 97 47 98
REMARK H PARENT 8 6 80 17 12 32 71 51 39 62
REMARK Flexibility Score: inf
ROOT
ATOM      1  C   UNL A   1      35.321  23.287  26.067  1.00  0.00     0.042 C 
ENDROOT
BRANCH   1   2
ATOM      2  C   UNL A   1      34.910  21.869  25.664  1.00  0.00     0.118 C 
BRANCH   2   3
ATOM      3  N   UNL A   1      34.275  21.896  24.362  1.00  0.00    -0.352 N 
ATOM      4  C   UNL A   1      33.004  22.142  23.913  1.00  0.00     0.251 C 
ATOM      5  O   UNL A   1      32.806  21.767  22.757  1.00  0.00    -0.269 OA
ATOM      6  H   UNL A   1      34.901  21.689  23.631  1.00  0.00     0.163 HD
BRANCH   4   7
ATOM      7  C   UNL A   1      31.929  22.831  24.712  1.00  0.00     0.045 A 
ATOM      8  C   UNL A   1      29.003  24.777  27.251  1.00  0.00     0.046 C 
ATOM      9  C   UNL A   1      29.942  24.117  26.275  1.00  0.00    -0.028 A 
ATOM     10  C   UNL A   1      30.339  22.806  26.551  1.00  0.00     0.006 A 
ATOM     11  C   UNL A   1      30.484  24.787  25.156  1.00  0.00     0.042 A 
ATOM     12  C   UNL A   1      31.278  22.161  25.751  1.00  0.00     0.014 A 
ATOM     13  C   UNL A   1      31.508  24.160  24.397  1.00  0.00    -0.005 A 
ATOM     14  N   UNL A   1      30.022  26.051  24.824  1.00  0.00    -0.377 N 
ATOM     15  C   UNL A   1      32.088  24.907  23.213  1.00  0.00     0.050 C 
ATOM     16  C   UNL A   1      30.757  26.947  23.945  1.00  0.00     0.117 C 
ATOM     17  H   UNL A   1      29.164  26.354  25.197  1.00  0.00     0.161 HD
ATOM     18  C   UNL A   1      31.324  26.162  22.754  1.00  0.00     0.031 C 
ATOM     19  C   UNL A   1      33.482  25.449  23.399  1.00  0.00    -0.023 C 
ATOM     20  C   UNL A   1      32.395  26.978  22.004  1.00  0.00     0.034 C 
ATOM     21  C   UNL A   1      33.654  26.585  22.710  1.00  0.00    -0.030 C 
BRANCH  16  22
ATOM     22  C   UNL A   1      29.870  28.147  23.610  1.00  0.00     0.010 A 
ATOM     23  C   UNL A   1      28.568  27.901  23.126  1.00  0.00     0.009 A 
ATOM     24  C   UNL A   1      30.247  29.486  23.775  1.00  0.00     0.128 A 
ATOM     25  C   UNL A   1      27.687  28.951  22.844  1.00  0.00     0.001 A 
ATOM     26  C   UNL A   1      29.370  30.536  23.501  1.00  0.00     0.039 A 
ATOM     27  F   UNL A   1      31.462  29.822  24.227  1.00  0.00    -0.207 F 
ATOM     28  C   UNL A   1      28.086  30.270  23.039  1.00  0.00     0.003 A 
ENDBRANCH  16  22
ENDBRANCH   4   7
ENDBRANCH   2   3
ENDBRANCH   1   2
BRANCH   1  29
ATOM     29  C   UNL A   1      36.720  23.656  25.571  1.00  0.00     0.118 C 
BRANCH  29  30
ATOM     30  N   UNL A   1      37.701  22.646  25.946  1.00  0.00    -0.352 N 
ATOM     31  C   UNL A   1      38.980  22.817  26.410  1.00  0.00     0.251 C 
ATOM     32  H   UNL A   1      37.405  21.711  25.852  1.00  0.00     0.163 HD
ATOM     33  O   UNL A   1      39.777  21.887  26.402  1.00  0.00    -0.269 OA
BRANCH  31  34
ATOM     34  C   UNL A   1      39.387  24.134  26.932  1.00  0.00     0.039 A 
ATOM     35  C   UNL A   1      40.030  25.038  26.084  1.00  0.00     0.014 A 
ATOM     36  C   UNL A   1      39.161  24.452  28.276  1.00  0.00     0.014 A 
ATOM     37  C   UNL A   1      40.415  26.285  26.577  1.00  0.00     0.010 A 
ATOM     38  C   UNL A   1      39.493  25.716  28.750  1.00  0.00     0.010 A 
ATOM     39  C   UNL A   1      40.138  26.633  27.908  1.00  0.00    -0.014 A 
BRANCH  39  40
ATOM     40  C   UNL A   1      40.571  27.937  28.461  1.00  0.00     0.031 A 
ATOM     41  C   UNL A   1      42.025  28.166  28.756  1.00  0.00     0.074 A 
ATOM     42  C   UNL A   1      39.659  28.887  28.730  1.00  0.00     0.049 A 
ATOM     43  N   UNL A   1      42.609  29.221  29.265  1.00  0.00    -0.248 NA
ATOM     44  C   UNL A   1      42.942  27.055  28.456  1.00  0.00     0.031 C 
ATOM     45  C   UNL A   1      38.220  28.759  28.507  1.00  0.00     0.029 A 
ATOM     46  N   UNL A   1      39.809  30.146  29.253  1.00  0.00    -0.354 N 
ATOM     47  C   UNL A   1      43.957  28.901  29.339  1.00  0.00     0.074 A 
ATOM     48  C   UNL A   1      44.098  27.533  28.890  1.00  0.00     0.031 C 
ATOM     49  C   UNL A   1      37.618  29.904  28.869  1.00  0.00     0.029 A 
ATOM     50  C   UNL A   1      38.626  30.833  29.376  1.00  0.00     0.049 A 
ATOM     51  H   UNL A   1      40.680  30.521  29.515  1.00  0.00     0.167 HD
ATOM     52  C   UNL A   1      44.990  29.691  29.714  1.00  0.00     0.037 A 
ATOM     53  C   UNL A   1      38.388  32.073  29.843  1.00  0.00     0.037 A 
ATOM     54  C   UNL A   1      44.841  31.052  30.156  1.00  0.00     0.049 A 
ATOM     55  C   UNL A   1      39.546  32.915  30.310  1.00  0.00     0.074 A 
ATOM     56  C   UNL A   1      45.823  31.950  30.527  1.00  0.00     0.029 A 
ATOM     57  N   UNL A   1      43.624  31.707  30.292  1.00  0.00    -0.354 N 
ATOM     58  N   UNL A   1      40.825  32.628  30.317  1.00  0.00    -0.248 NA
ATOM     59  C   UNL A   1      39.227  34.252  30.827  1.00  0.00     0.031 C 
ATOM     60  C   UNL A   1      45.200  33.132  30.938  1.00  0.00     0.029 A 
ATOM     61  C   UNL A   1      43.831  32.990  30.770  1.00  0.00     0.049 A 
ATOM     62  H   UNL A   1      42.745  31.317  30.080  1.00  0.00     0.167 HD
ATOM     63  C   UNL A   1      41.467  33.754  30.817  1.00  0.00     0.074 A 
ATOM     64  C   UNL A   1      40.436  34.735  31.087  1.00  0.00     0.031 C 
ATOM     65  C   UNL A   1      42.791  33.955  31.032  1.00  0.00     0.037 A 
BRANCH  52  66
ATOM     66  C   UNL A   1      46.370  29.105  29.652  1.00  0.00     0.064 A 
ATOM     67  C   UNL A   1      47.146  29.185  28.484  1.00  0.00     0.173 A 
ATOM     68  C   UNL A   1      46.940  28.489  30.775  1.00  0.00     0.173 A 
ATOM     69  F   UNL A   1      46.644  29.753  27.377  1.00  0.00    -0.203 F 
ATOM     70  C   UNL A   1      48.429  28.646  28.436  1.00  0.00     0.198 A 
ATOM     71  C   UNL A   1      48.235  27.980  30.734  1.00  0.00     0.198 A 
ATOM     72  F   UNL A   1      46.244  28.388  31.917  1.00  0.00    -0.203 F 
ATOM     73  F   UNL A   1      49.130  28.692  27.295  1.00  0.00    -0.200 F 
ATOM     74  C   UNL A   1      48.976  28.052  29.563  1.00  0.00     0.200 A 
ATOM     75  F   UNL A   1      48.768  27.418  31.827  1.00  0.00    -0.200 F 
ATOM     76  F   UNL A   1      50.215  27.544  29.518  1.00  0.00    -0.200 F 
ENDBRANCH  52  66
BRANCH  53  77
ATOM     77  C   UNL A   1      37.000  32.601  29.844  1.00  0.00     0.064 A 
ATOM     78  C   UNL A   1      36.183  32.462  30.974  1.00  0.00     0.173 A 
ATOM     79  C   UNL A   1      36.474  33.289  28.740  1.00  0.00     0.173 A 
ATOM     80  F   UNL A   1      36.634  31.796  32.047  1.00  0.00    -0.203 F 
ATOM     81  C   UNL A   1      34.894  32.989  31.000  1.00  0.00     0.198 A 
ATOM     82  C   UNL A   1      35.194  33.838  28.776  1.00  0.00     0.198 A 
ATOM     83  F   UNL A   1      37.218  33.454  27.636  1.00  0.00    -0.203 F 
ATOM     84  F   UNL A   1      34.125  32.820  32.085  1.00  0.00    -0.200 F 
ATOM     85  C   UNL A   1      34.403  33.684  29.905  1.00  0.00     0.200 A 
ATOM     86  F   UNL A   1      34.730  34.523  27.722  1.00  0.00    -0.200 F 
ATOM     87  F   UNL A   1      33.169  34.206  29.937  1.00  0.00    -0.200 F 
ENDBRANCH  53  77
BRANCH  65  88
ATOM     88  C   UNL A   1      43.214  35.287  31.579  1.00  0.00     0.064 A 
ATOM     89  C   UNL A   1      43.609  36.333  30.732  1.00  0.00     0.173 A 
ATOM     90  C   UNL A   1      43.135  35.550  32.955  1.00  0.00     0.173 A 
ATOM     91  F   UNL A   1      43.712  36.129  29.409  1.00  0.00    -0.203 F 
ATOM     92  C   UNL A   1      43.919  37.589  31.244  1.00  0.00     0.198 A 
ATOM     93  C   UNL A   1      43.415  36.816  33.460  1.00  0.00     0.198 A 
ATOM     94  F   UNL A   1      42.754  34.586  33.806  1.00  0.00    -0.203 F 
ATOM     95  F   UNL A   1      44.325  38.566  30.420  1.00  0.00    -0.200 F 
ATOM     96  C   UNL A   1      43.811  37.834  32.605  1.00  0.00     0.200 A 
ATOM     97  F   UNL A   1      43.291  37.054  34.773  1.00  0.00    -0.200 F 
ATOM     98  F   UNL A   1      44.087  39.050  33.094  1.00  0.00    -0.200 F 
ENDBRANCH  65  88
ENDBRANCH  39  40
ENDBRANCH  31  34
ENDBRANCH  29  30
ENDBRANCH   1  29
TORSDOF 11
ENDMDL
MODEL 2
REMARK VINA RESULT:     -13.1      3.570      8.954
REMARK SMILES Cc1ccc(C(=O)NCCCNC(=O)c2ccc(-c3c4nc(c(-c5c(F)c(F)c(F)c(F)c5F)c5ccc([nH]5)c(-c5c(F)c(F)c(F)c(F)c5F)c5nc(c(-c6c(F)c(F)c(F)c(F)c6F)c6ccc3[nH]6)C=C5)C=C4)cc2)c2c1N[C@H](c1ccccc1F)[C@H]1CC=C[C@@H]21
REMARK SMILES IDX 10 1 9 2 8 3 6 4 7 5 5 7 1 8 2 9 3 10 79 11 4 12 78 13 80 14
REMARK SMILES IDX 93 15 81 16 89 18 92 19 90 20 91 21 82 22 83 23 87 24 84 25
REMARK SMILES IDX 86 26 88 27 85 28 11 29 12 30 13 31 14 33 15 34 16 35 77 36
REMARK SMILES IDX 17 37 76 38 18 39 19 40 20 41 70 42 21 43 75 44 69 45 71 46
REMARK SMILES IDX 22 47 74 48 68 49 67 50 23 52 55 53 35 54 54 55 36 56 39 57
REMARK SMILES IDX 53 58 72 59 37 60 38 61 52 63 73 64 40 65 24 66 25 67 33 68
REMARK SMILES IDX 26 69 27 70 31 71 34 72 28 73 29 74 32 75 30 76 56 77 57 78
REMARK SMILES IDX 65 79 58 80 59 81 63 82 66 83 60 84 61 85 64 86 62 87 41 88
REMARK SMILES IDX 42 89 50 90 43 91 44 92 48 93 51 94 45 95 46 96 49 97 47 98
REMARK H PARENT 8 6 80 17 12 32 71 51 39 62
REMARK Flexibility Score: inf
ROOT
ATOM      1  C   UNL A   1      33.828  28.050  25.352  1.00  0.00     0.042 C 
ENDROOT
BRANCH   1   2
ATOM      2  C   UNL A   1      32.585  28.723  24.768  1.00  0.00     0.118 C 
BRANCH   2   3
ATOM      3  N   UNL A   1      31.414  27.918  25.050  1.00  0.00    -0.352 N 
ATOM      4  C   UNL A   1      30.786  26.874  24.423  1.00  0.00     0.251 C 
ATOM      5  O   UNL A   1      29.643  26.666  24.830  1.00  0.00    -0.269 OA
ATOM      6  H   UNL A   1      30.966  28.182  25.886  1.00  0.00     0.163 HD
BRANCH   4   7
ATOM      7  C   UNL A   1      31.409  26.015  23.354  1.00  0.00     0.045 A 
ATOM      8  C   UNL A   1      33.405  23.752  20.241  1.00  0.00     0.046 C 
ATOM      9  C   UNL A   1      32.628  24.448  21.329  1.00  0.00    -0.028 A 
ATOM     10  C   UNL A   1      32.148  25.731  21.056  1.00  0.00     0.006 A 
ATOM     11  C   UNL A   1      32.438  23.893  22.613  1.00  0.00     0.042 A 
ATOM     12  C   UNL A   1      31.505  26.477  22.039  1.00  0.00     0.014 A 
ATOM     13  C   UNL A   1      31.865  24.690  23.640  1.00  0.00    -0.005 A 
ATOM     14  N   UNL A   1      32.828  22.585  22.860  1.00  0.00    -0.377 N 
ATOM     15  C   UNL A   1      31.689  24.079  25.015  1.00  0.00     0.050 C 
ATOM     16  C   UNL A   1      33.013  22.064  24.204  1.00  0.00     0.117 C 
ATOM     17  H   UNL A   1      32.985  21.986  22.095  1.00  0.00     0.161 HD
ATOM     18  C   UNL A   1      31.880  22.555  25.116  1.00  0.00     0.031 C 
ATOM     19  C   UNL A   1      32.634  24.576  26.078  1.00  0.00    -0.023 C 
ATOM     20  C   UNL A   1      32.222  22.336  26.603  1.00  0.00     0.034 C 
ATOM     21  C   UNL A   1      32.909  23.614  26.968  1.00  0.00    -0.030 C 
BRANCH  16  22
ATOM     22  C   UNL A   1      33.215  20.550  24.124  1.00  0.00     0.010 A 
ATOM     23  C   UNL A   1      32.274  19.788  23.401  1.00  0.00     0.009 A 
ATOM     24  C   UNL A   1      34.291  19.859  24.697  1.00  0.00     0.128 A 
ATOM     25  C   UNL A   1      32.422  18.405  23.248  1.00  0.00     0.001 A 
ATOM     26  C   UNL A   1      34.447  18.481  24.541  1.00  0.00     0.039 A 
ATOM     27  F   UNL A   1      35.236  20.493  25.402  1.00  0.00    -0.207 F 
ATOM     28  C   UNL A   1      33.514  17.752  23.812  1.00  0.00     0.003 A 
ENDBRANCH  16  22
ENDBRANCH   4   7
ENDBRANCH   2   3
ENDBRANCH   1   2
BRANCH   1  29
ATOM     29  C   UNL A   1      33.971  28.284  26.857  1.00  0.00     0.118 C 
BRANCH  29  30
ATOM     30  N   UNL A   1      33.778  29.687  27.197  1.00  0.00    -0.352 N 
ATOM     31  C   UNL A   1      34.548  30.495  27.994  1.00  0.00     0.251 C 
ATOM     32  H   UNL A   1      32.985  30.115  26.800  1.00  0.00     0.163 HD
ATOM     33  O   UNL A   1      34.108  31.555  28.421  1.00  0.00    -0.269 OA
BRANCH  31  34
ATOM     34  C   UNL A   1      35.923  30.079  28.327  1.00  0.00     0.039 A 
ATOM     35  C   UNL A   1      36.202  29.604  29.610  1.00  0.00     0.014 A 
ATOM     36  C   UNL A   1      36.938  30.198  27.373  1.00  0.00     0.014 A 
ATOM     37  C   UNL A   1      37.503  29.209  29.927  1.00  0.00     0.010 A 
ATOM     38  C   UNL A   1      38.220  29.750  27.671  1.00  0.00     0.010 A 
ATOM     39  C   UNL A   1      38.514  29.270  28.955  1.00  0.00    -0.014 A 
BRANCH  39  40
ATOM     40  C   UNL A   1      39.908  28.891  29.281  1.00  0.00     0.031 A 
ATOM     41  C   UNL A   1      40.741  29.806  30.130  1.00  0.00     0.074 A 
ATOM     42  C   UNL A   1      40.427  27.755  28.784  1.00  0.00     0.049 A 
ATOM     43  N   UNL A   1      41.987  29.676  30.510  1.00  0.00    -0.248 NA
ATOM     44  C   UNL A   1      40.093  31.040  30.601  1.00  0.00     0.031 C 
ATOM     45  C   UNL A   1      39.715  26.808  27.927  1.00  0.00     0.029 A 
ATOM     46  N   UNL A   1      41.677  27.207  28.925  1.00  0.00    -0.354 N 
ATOM     47  C   UNL A   1      42.266  30.805  31.266  1.00  0.00     0.074 A 
ATOM     48  C   UNL A   1      41.088  31.642  31.236  1.00  0.00     0.031 C 
ATOM     49  C   UNL A   1      40.531  25.782  27.636  1.00  0.00     0.029 A 
ATOM     50  C   UNL A   1      41.831  26.015  28.261  1.00  0.00     0.049 A 
ATOM     51  H   UNL A   1      42.394  27.629  29.450  1.00  0.00     0.167 HD
ATOM     52  C   UNL A   1      43.394  31.099  31.954  1.00  0.00     0.037 A 
ATOM     53  C   UNL A   1      42.902  25.204  28.174  1.00  0.00     0.037 A 
ATOM     54  C   UNL A   1      44.561  30.257  31.981  1.00  0.00     0.049 A 
ATOM     55  C   UNL A   1      44.166  25.579  28.901  1.00  0.00     0.074 A 
ATOM     56  C   UNL A   1      45.743  30.445  32.671  1.00  0.00     0.029 A 
ATOM     57  N   UNL A   1      44.690  29.068  31.276  1.00  0.00    -0.354 N 
ATOM     58  N   UNL A   1      44.402  26.616  29.666  1.00  0.00    -0.248 NA
ATOM     59  C   UNL A   1      45.309  24.667  28.757  1.00  0.00     0.031 C 
ATOM     60  C   UNL A   1      46.609  29.397  32.345  1.00  0.00     0.029 A 
ATOM     61  C   UNL A   1      45.946  28.526  31.494  1.00  0.00     0.049 A 
ATOM     62  H   UNL A   1      43.994  28.669  30.707  1.00  0.00     0.167 HD
ATOM     63  C   UNL A   1      45.709  26.475  30.113  1.00  0.00     0.074 A 
ATOM     64  C   UNL A   1      46.211  25.240  29.544  1.00  0.00     0.031 C 
ATOM     65  C   UNL A   1      46.428  27.294  30.920  1.00  0.00     0.037 A 
BRANCH  52  66
ATOM     66  C   UNL A   1      43.413  32.376  32.740  1.00  0.00     0.064 A 
ATOM     67  C   UNL A   1      42.999  32.416  34.081  1.00  0.00     0.173 A 
ATOM     68  C   UNL A   1      43.882  33.566  32.165  1.00  0.00     0.173 A 
ATOM     69  F   UNL A   1      42.530  31.308  34.676  1.00  0.00    -0.203 F 
ATOM     70  C   UNL A   1      43.028  33.604  34.807  1.00  0.00     0.198 A 
ATOM     71  C   UNL A   1      43.941  34.745  32.903  1.00  0.00     0.198 A 
ATOM     72  F   UNL A   1      44.294  33.584  30.888  1.00  0.00    -0.203 F 
ATOM     73  F   UNL A   1      42.581  33.626  36.070  1.00  0.00    -0.200 F 
ATOM     74  C   UNL A   1      43.507  34.765  34.220  1.00  0.00     0.200 A 
ATOM     75  F   UNL A   1      44.416  35.864  32.340  1.00  0.00    -0.200 F 
ATOM     76  F   UNL A   1      43.544  35.905  34.924  1.00  0.00    -0.200 F 
ENDBRANCH  52  66
BRANCH  53  77
ATOM     77  C   UNL A   1      42.800  23.936  27.406  1.00  0.00     0.064 A 
ATOM     78  C   UNL A   1      43.181  23.886  26.059  1.00  0.00     0.173 A 
ATOM     79  C   UNL A   1      42.362  22.746  28.006  1.00  0.00     0.173 A 
ATOM     80  F   UNL A   1      43.590  25.001  25.436  1.00  0.00    -0.203 F 
ATOM     81  C   UNL A   1      43.128  22.693  25.340  1.00  0.00     0.198 A 
ATOM     82  C   UNL A   1      42.333  21.549  27.293  1.00  0.00     0.198 A 
ATOM     83  F   UNL A   1      41.990  22.741  29.294  1.00  0.00    -0.203 F 
ATOM     84  F   UNL A   1      43.475  22.678  24.045  1.00  0.00    -0.200 F 
ATOM     85  C   UNL A   1      42.713  21.525  25.960  1.00  0.00     0.200 A 
ATOM     86  F   UNL A   1      41.947  20.419  27.900  1.00  0.00    -0.200 F 
ATOM     87  F   UNL A   1      42.678  20.375  25.272  1.00  0.00    -0.200 F 
ENDBRANCH  53  77
BRANCH  65  88
ATOM     88  C   UNL A   1      47.834  26.887  31.252  1.00  0.00     0.064 A 
ATOM     89  C   UNL A   1      48.109  25.992  32.296  1.00  0.00     0.173 A 
ATOM     90  C   UNL A   1      48.908  27.324  30.461  1.00  0.00     0.173 A 
ATOM     91  F   UNL A   1      47.119  25.555  33.089  1.00  0.00    -0.203 F 
ATOM     92  C   UNL A   1      49.408  25.558  32.542  1.00  0.00     0.198 A 
ATOM     93  C   UNL A   1      50.201  26.862  30.689  1.00  0.00     0.198 A 
ATOM     94  F   UNL A   1      48.697  28.173  29.444  1.00  0.00    -0.203 F 
ATOM     95  F   UNL A   1      49.653  24.726  33.564  1.00  0.00    -0.200 F 
ATOM     96  C   UNL A   1      50.451  25.983  31.732  1.00  0.00     0.200 A 
ATOM     97  F   UNL A   1      51.203  27.260  29.893  1.00  0.00    -0.200 F 
ATOM     98  F   UNL A   1      51.697  25.545  31.954  1.00  0.00    -0.200 F 
ENDBRANCH  65  88
ENDBRANCH  39  40
ENDBRANCH  31  34
ENDBRANCH  29  30
ENDBRANCH   1  29
TORSDOF 11
ENDMDL
MODEL 3
REMARK VINA RESULT:     -13.1      4.334      9.185
REMARK SMILES Cc1ccc(C(=O)NCCCNC(=O)c2ccc(-c3c4nc(c(-c5c(F)c(F)c(F)c(F)c5F)c5ccc([nH]5)c(-c5c(F)c(F)c(F)c(F)c5F)c5nc(c(-c6c(F)c(F)c(F)c(F)c6F)c6ccc3[nH]6)C=C5)C=C4)cc2)c2c1N[C@H](c1ccccc1F)[C@H]1CC=C[C@@H]21
REMARK SMILES IDX 10 1 9 2 8 3 6 4 7 5 5 7 1 8 2 9 3 10 79 11 4 12 78 13 80 14
REMARK SMILES IDX 93 15 81 16 89 18 92 19 90 20 91 21 82 22 83 23 87 24 84 25
REMARK SMILES IDX 86 26 88 27 85 28 11 29 12 30 13 31 14 33 15 34 16 35 77 36
REMARK SMILES IDX 17 37 76 38 18 39 19 40 20 41 70 42 21 43 75 44 69 45 71 46
REMARK SMILES IDX 22 47 74 48 68 49 67 50 23 52 55 53 35 54 54 55 36 56 39 57
REMARK SMILES IDX 53 58 72 59 37 60 38 61 52 63 73 64 40 65 24 66 25 67 33 68
REMARK SMILES IDX 26 69 27 70 31 71 34 72 28 73 29 74 32 75 30 76 56 77 57 78
REMARK SMILES IDX 65 79 58 80 59 81 63 82 66 83 60 84 61 85 64 86 62 87 41 88
REMARK SMILES IDX 42 89 50 90 43 91 44 92 48 93 51 94 45 95 46 96 49 97 47 98
REMARK H PARENT 8 6 80 17 12 32 71 51 39 62
REMARK Flexibility Score: inf
ROOT
ATOM      1  C   UNL A   1      33.209  29.556  25.677  1.00  0.00     0.042 C 
ENDROOT
BRANCH   1   2
ATOM      2  C   UNL A   1      33.818  28.182  25.966  1.00  0.00     0.118 C 
BRANCH   2   3
ATOM      3  N   UNL A   1      32.810  27.310  26.535  1.00  0.00    -0.352 N 
ATOM      4  C   UNL A   1      32.022  26.299  26.048  1.00  0.00     0.251 C 
ATOM      5  O   UNL A   1      31.075  26.013  26.781  1.00  0.00    -0.269 OA
ATOM      6  H   UNL A   1      32.655  27.483  27.492  1.00  0.00     0.163 HD
BRANCH   4   7
ATOM      7  C   UNL A   1      32.271  25.561  24.759  1.00  0.00     0.045 A 
ATOM      8  C   UNL A   1      33.195  23.635  20.987  1.00  0.00     0.046 C 
ATOM      9  C   UNL A   1      32.787  24.219  22.314  1.00  0.00    -0.028 A 
ATOM     10  C   UNL A   1      32.376  25.555  22.331  1.00  0.00     0.006 A 
ATOM     11  C   UNL A   1      32.876  23.504  23.529  1.00  0.00     0.042 A 
ATOM     12  C   UNL A   1      32.075  26.194  23.530  1.00  0.00     0.014 A 
ATOM     13  C   UNL A   1      32.658  24.184  24.757  1.00  0.00    -0.005 A 
ATOM     14  N   UNL A   1      33.191  22.154  23.508  1.00  0.00    -0.377 N 
ATOM     15  C   UNL A   1      32.779  23.401  26.048  1.00  0.00     0.050 C 
ATOM     16  C   UNL A   1      33.660  21.441  24.686  1.00  0.00     0.117 C 
ATOM     17  H   UNL A   1      33.093  21.658  22.664  1.00  0.00     0.161 HD
ATOM     18  C   UNL A   1      32.846  21.869  25.914  1.00  0.00     0.031 C 
ATOM     19  C   UNL A   1      34.005  23.689  26.876  1.00  0.00    -0.023 C 
ATOM     20  C   UNL A   1      33.530  21.426  27.223  1.00  0.00     0.034 C 
ATOM     21  C   UNL A   1      34.404  22.597  27.543  1.00  0.00    -0.030 C 
BRANCH  16  22
ATOM     22  C   UNL A   1      33.693  19.944  24.377  1.00  0.00     0.010 A 
ATOM     23  C   UNL A   1      32.551  19.357  23.794  1.00  0.00     0.009 A 
ATOM     24  C   UNL A   1      34.793  19.107  24.607  1.00  0.00     0.128 A 
ATOM     25  C   UNL A   1      32.528  18.003  23.442  1.00  0.00     0.001 A 
ATOM     26  C   UNL A   1      34.778  17.758  24.251  1.00  0.00     0.039 A 
ATOM     27  F   UNL A   1      35.923  19.570  25.156  1.00  0.00    -0.207 F 
ATOM     28  C   UNL A   1      33.646  17.205  23.664  1.00  0.00     0.003 A 
ENDBRANCH  16  22
ENDBRANCH   4   7
ENDBRANCH   2   3
ENDBRANCH   1   2
BRANCH   1  29
ATOM     29  C   UNL A   1      32.626  30.215  26.929  1.00  0.00     0.118 C 
BRANCH  29  30
ATOM     30  N   UNL A   1      32.743  31.665  26.869  1.00  0.00    -0.352 N 
ATOM     31  C   UNL A   1      33.591  32.491  27.560  1.00  0.00     0.251 C 
ATOM     32  H   UNL A   1      32.126  32.116  26.247  1.00  0.00     0.163 HD
ATOM     33  O   UNL A   1      33.376  33.695  27.626  1.00  0.00    -0.269 OA
BRANCH  31  34
ATOM     34  C   UNL A   1      34.778  31.916  28.219  1.00  0.00     0.039 A 
ATOM     35  C   UNL A   1      34.708  30.629  28.755  1.00  0.00     0.014 A 
ATOM     36  C   UNL A   1      35.947  32.675  28.335  1.00  0.00     0.014 A 
ATOM     37  C   UNL A   1      35.831  30.084  29.378  1.00  0.00     0.010 A 
ATOM     38  C   UNL A   1      37.083  32.110  28.904  1.00  0.00     0.010 A 
ATOM     39  C   UNL A   1      37.026  30.818  29.445  1.00  0.00    -0.014 A 
BRANCH  39  40
ATOM     40  C   UNL A   1      38.217  30.272  30.135  1.00  0.00     0.031 A 
ATOM     41  C   UNL A   1      38.526  30.716  31.534  1.00  0.00     0.074 A 
ATOM     42  C   UNL A   1      39.031  29.418  29.491  1.00  0.00     0.049 A 
ATOM     43  N   UNL A   1      39.531  30.382  32.306  1.00  0.00    -0.248 NA
ATOM     44  C   UNL A   1      37.593  31.677  32.143  1.00  0.00     0.031 C 
ATOM     45  C   UNL A   1      38.839  28.942  28.122  1.00  0.00     0.029 A 
ATOM     46  N   UNL A   1      40.185  28.801  29.903  1.00  0.00    -0.354 N 
ATOM     47  C   UNL A   1      39.343  31.086  33.486  1.00  0.00     0.074 A 
ATOM     48  C   UNL A   1      38.174  31.918  33.309  1.00  0.00     0.031 C 
ATOM     49  C   UNL A   1      39.828  28.088  27.813  1.00  0.00     0.029 A 
ATOM     50  C   UNL A   1      40.739  27.981  28.951  1.00  0.00     0.049 A 
ATOM     51  H   UNL A   1      40.579  28.935  30.795  1.00  0.00     0.167 HD
ATOM     52  C   UNL A   1      40.065  31.018  34.630  1.00  0.00     0.037 A 
ATOM     53  C   UNL A   1      41.853  27.227  28.999  1.00  0.00     0.037 A 
ATOM     54  C   UNL A   1      41.225  30.185  34.798  1.00  0.00     0.049 A 
ATOM     55  C   UNL A   1      42.673  27.209  30.262  1.00  0.00     0.074 A 
ATOM     56  C   UNL A   1      42.009  30.016  35.924  1.00  0.00     0.029 A 
ATOM     57  N   UNL A   1      41.772  29.385  33.803  1.00  0.00    -0.354 N 
ATOM     58  N   UNL A   1      42.455  27.828  31.396  1.00  0.00    -0.248 NA
ATOM     59  C   UNL A   1      43.888  26.384  30.252  1.00  0.00     0.031 C 
ATOM     60  C   UNL A   1      43.061  29.154  35.598  1.00  0.00     0.029 A 
ATOM     61  C   UNL A   1      42.901  28.743  34.283  1.00  0.00     0.049 A 
ATOM     62  H   UNL A   1      41.412  29.289  32.893  1.00  0.00     0.167 HD
ATOM     63  C   UNL A   1      43.490  27.454  32.242  1.00  0.00     0.074 A 
ATOM     64  C   UNL A   1      44.328  26.539  31.494  1.00  0.00     0.031 C 
ATOM     65  C   UNL A   1      43.724  27.834  33.523  1.00  0.00     0.037 A 
BRANCH  52  66
ATOM     66  C   UNL A   1      39.610  31.857  35.787  1.00  0.00     0.064 A 
ATOM     67  C   UNL A   1      40.179  33.115  36.046  1.00  0.00     0.173 A 
ATOM     68  C   UNL A   1      38.575  31.422  36.627  1.00  0.00     0.173 A 
ATOM     69  F   UNL A   1      41.181  33.573  35.281  1.00  0.00    -0.203 F 
ATOM     70  C   UNL A   1      39.746  33.892  37.118  1.00  0.00     0.198 A 
ATOM     71  C   UNL A   1      38.122  32.216  37.678  1.00  0.00     0.198 A 
ATOM     72  F   UNL A   1      37.995  30.230  36.423  1.00  0.00    -0.203 F 
ATOM     73  F   UNL A   1      40.338  35.067  37.372  1.00  0.00    -0.200 F 
ATOM     74  C   UNL A   1      38.713  33.445  37.927  1.00  0.00     0.200 A 
ATOM     75  F   UNL A   1      37.115  31.789  38.452  1.00  0.00    -0.200 F 
ATOM     76  F   UNL A   1      38.290  34.199  38.951  1.00  0.00    -0.200 F 
ENDBRANCH  52  66
BRANCH  53  77
ATOM     77  C   UNL A   1      42.224  26.393  27.826  1.00  0.00     0.064 A 
ATOM     78  C   UNL A   1      43.196  26.832  26.917  1.00  0.00     0.173 A 
ATOM     79  C   UNL A   1      41.651  25.131  27.611  1.00  0.00     0.173 A 
ATOM     80  F   UNL A   1      43.759  28.039  27.070  1.00  0.00    -0.203 F 
ATOM     81  C   UNL A   1      43.580  26.041  25.837  1.00  0.00     0.198 A 
ATOM     82  C   UNL A   1      42.054  24.330  26.544  1.00  0.00     0.198 A 
ATOM     83  F   UNL A   1      40.720  24.664  28.455  1.00  0.00    -0.203 F 
ATOM     84  F   UNL A   1      44.494  26.496  24.968  1.00  0.00    -0.200 F 
ATOM     85  C   UNL A   1      43.016  24.787  25.656  1.00  0.00     0.200 A 
ATOM     86  F   UNL A   1      41.518  23.112  26.382  1.00  0.00    -0.200 F 
ATOM     87  F   UNL A   1      43.398  24.020  24.626  1.00  0.00    -0.200 F 
ENDBRANCH  53  77
BRANCH  65  88
ATOM     88  C   UNL A   1      44.928  27.259  34.212  1.00  0.00     0.064 A 
ATOM     89  C   UNL A   1      46.151  27.944  34.239  1.00  0.00     0.173 A 
ATOM     90  C   UNL A   1      44.831  26.056  34.929  1.00  0.00     0.173 A 
ATOM     91  F   UNL A   1      46.298  29.092  33.560  1.00  0.00    -0.203 F 
ATOM     92  C   UNL A   1      47.236  27.442  34.951  1.00  0.00     0.198 A 
ATOM     93  C   UNL A   1      45.909  25.573  35.665  1.00  0.00     0.198 A 
ATOM     94  F   UNL A   1      43.681  25.367  34.941  1.00  0.00    -0.203 F 
ATOM     95  F   UNL A   1      48.405  28.097  34.939  1.00  0.00    -0.200 F 
ATOM     96  C   UNL A   1      47.111  26.263  35.673  1.00  0.00     0.200 A 
ATOM     97  F   UNL A   1      45.779  24.445  36.377  1.00  0.00    -0.200 F 
ATOM     98  F   UNL A   1      48.150  25.793  36.377  1.00  0.00    -0.200 F 
ENDBRANCH  65  88
ENDBRANCH  39  40
ENDBRANCH  31  34
ENDBRANCH  29  30
ENDBRANCH   1  29
TORSDOF 11
ENDMDL
