MODEL 1
REMARK VINA RESULT:     -13.1      0.000      0.000
REMARK SMILES O=C(NCCCNC(=O)[C@@H]1CCCC[N@H+]1Cc1cc(F)cc(Br)c1)c1ccc(-c2c3nc(c(-c4c(F)c(F)c(F)c(F)c4F)c4ccc([nH]4)c(-c4c(F)c(F)c(F)c(F)c4F)c4nc(c(-c5c(F)c(F)c(F)c(F)c5F)c5ccc2[nH]5)C=C4)C=C3)cc1
REMARK SMILES IDX 5 1 4 2 3 3 1 4 2 5 25 7 26 8 87 9 27 10 86 11 28 12 29 13
REMARK SMILES IDX 30 14 80 15 31 16 85 17 79 18 81 19 32 20 84 21 78 22 77 23
REMARK SMILES IDX 33 25 65 26 45 27 64 28 46 29 49 30 63 31 82 32 47 33 48 34
REMARK SMILES IDX 62 36 83 37 50 38 34 39 35 40 43 41 36 42 37 43 41 44 44 45
REMARK SMILES IDX 38 46 39 47 42 48 40 49 66 50 67 51 75 52 68 53 69 54 73 55
REMARK SMILES IDX 76 56 70 57 71 58 74 59 72 60 51 61 52 62 60 63 53 64 54 65
REMARK SMILES IDX 58 66 61 67 55 68 56 69 59 70 57 71 6 72 7 73 8 74 9 76
REMARK SMILES IDX 10 77 11 78 15 79 12 80 14 81 13 83 16 84 17 85 18 86 24 87
REMARK SMILES IDX 19 88 22 89 20 90 21 91 23 92
REMARK H PARENT 3 6 81 24 49 35 7 75 15 82
REMARK Flexibility Score: inf
ROOT
ATOM      1  C   UNL A   1      31.396  32.264  26.505  1.00  0.00     0.042 C 
ENDROOT
BRANCH   1   2
ATOM      2  C   UNL A   1      32.646  32.844  27.124  1.00  0.00     0.118 C 
BRANCH   2   3
ATOM      3  N   UNL A   1      32.442  34.202  27.627  1.00  0.00    -0.352 N 
ATOM      4  O   UNL A   1      32.529  35.938  29.056  1.00  0.00    -0.269 OA
ATOM      5  C   UNL A   1      33.009  34.874  28.685  1.00  0.00     0.251 C 
ATOM      6  H   UNL A   1      31.782  34.728  27.119  1.00  0.00     0.163 HD
BRANCH   5   7
ATOM      7  C   UNL A   1      34.190  34.318  29.378  1.00  0.00     0.039 A 
ATOM      8  C   UNL A   1      34.028  33.490  30.487  1.00  0.00     0.014 A 
ATOM      9  C   UNL A   1      35.474  34.578  28.890  1.00  0.00     0.014 A 
ATOM     10  C   UNL A   1      35.127  33.090  31.225  1.00  0.00     0.010 A 
ATOM     11  C   UNL A   1      36.587  34.036  29.542  1.00  0.00     0.010 A 
ATOM     12  C   UNL A   1      36.418  33.298  30.724  1.00  0.00    -0.014 A 
BRANCH  12  13
ATOM     13  C   UNL A   1      37.543  32.592  31.378  1.00  0.00     0.031 A 
ATOM     14  C   UNL A   1      38.240  31.447  30.715  1.00  0.00     0.074 A 
ATOM     15  C   UNL A   1      37.929  33.028  32.596  1.00  0.00     0.049 A 
ATOM     16  N   UNL A   1      39.215  30.704  31.175  1.00  0.00    -0.248 NA
ATOM     17  C   UNL A   1      37.788  31.074  29.366  1.00  0.00     0.031 C 
ATOM     18  C   UNL A   1      37.306  34.136  33.331  1.00  0.00     0.029 A 
ATOM     19  N   UNL A   1      38.934  32.612  33.427  1.00  0.00    -0.354 N 
ATOM     20  C   UNL A   1      39.469  29.759  30.192  1.00  0.00     0.074 A 
ATOM     21  C   UNL A   1      38.544  30.014  29.109  1.00  0.00     0.031 C 
ATOM     22  C   UNL A   1      37.966  34.338  34.476  1.00  0.00     0.029 A 
ATOM     23  C   UNL A   1      38.992  33.314  34.608  1.00  0.00     0.049 A 
ATOM     24  H   UNL A   1      39.556  31.882  33.203  1.00  0.00     0.167 HD
ATOM     25  C   UNL A   1      40.394  28.769  30.208  1.00  0.00     0.037 A 
ATOM     26  C   UNL A   1      39.749  33.124  35.701  1.00  0.00     0.037 A 
ATOM     27  C   UNL A   1      41.321  28.551  31.289  1.00  0.00     0.049 A 
ATOM     28  C   UNL A   1      40.733  31.992  35.698  1.00  0.00     0.074 A 
ATOM     29  C   UNL A   1      42.344  27.623  31.372  1.00  0.00     0.029 A 
ATOM     30  N   UNL A   1      41.328  29.261  32.482  1.00  0.00    -0.354 N 
ATOM     31  N   UNL A   1      41.005  31.140  34.740  1.00  0.00    -0.248 NA
ATOM     32  C   UNL A   1      41.506  31.784  36.928  1.00  0.00     0.031 C 
ATOM     33  C   UNL A   1      42.921  27.722  32.641  1.00  0.00     0.029 A 
ATOM     34  C   UNL A   1      42.304  28.756  33.326  1.00  0.00     0.049 A 
ATOM     35  H   UNL A   1      40.727  30.011  32.698  1.00  0.00     0.167 HD
ATOM     36  C   UNL A   1      41.986  30.301  35.245  1.00  0.00     0.074 A 
ATOM     37  C   UNL A   1      42.282  30.767  36.584  1.00  0.00     0.031 C 
ATOM     38  C   UNL A   1      42.581  29.236  34.656  1.00  0.00     0.037 A 
BRANCH  25  39
ATOM     39  C   UNL A   1      40.440  27.819  29.045  1.00  0.00     0.064 A 
ATOM     40  C   UNL A   1      39.659  26.656  29.002  1.00  0.00     0.173 A 
ATOM     41  C   UNL A   1      41.219  28.128  27.919  1.00  0.00     0.173 A 
ATOM     42  F   UNL A   1      38.903  26.309  30.054  1.00  0.00    -0.203 F 
ATOM     43  C   UNL A   1      39.665  25.831  27.879  1.00  0.00     0.198 A 
ATOM     44  C   UNL A   1      41.202  27.316  26.788  1.00  0.00     0.198 A 
ATOM     45  F   UNL A   1      41.980  29.232  27.905  1.00  0.00    -0.203 F 
ATOM     46  F   UNL A   1      38.934  24.707  27.871  1.00  0.00    -0.200 F 
ATOM     47  C   UNL A   1      40.428  26.166  26.770  1.00  0.00     0.200 A 
ATOM     48  F   UNL A   1      41.928  27.652  25.712  1.00  0.00    -0.200 F 
ATOM     49  F   UNL A   1      40.418  25.382  25.684  1.00  0.00    -0.200 F 
ENDBRANCH  25  39
BRANCH  26  50
ATOM     50  C   UNL A   1      39.557  33.984  36.898  1.00  0.00     0.064 A 
ATOM     51  C   UNL A   1      40.167  35.241  36.996  1.00  0.00     0.173 A 
ATOM     52  C   UNL A   1      38.759  33.562  37.974  1.00  0.00     0.173 A 
ATOM     53  F   UNL A   1      40.949  35.684  36.001  1.00  0.00    -0.203 F 
ATOM     54  C   UNL A   1      40.010  36.029  38.134  1.00  0.00     0.198 A 
ATOM     55  C   UNL A   1      38.572  34.367  39.094  1.00  0.00     0.198 A 
ATOM     56  F   UNL A   1      38.144  32.370  37.930  1.00  0.00    -0.203 F 
ATOM     57  F   UNL A   1      40.650  37.203  38.225  1.00  0.00    -0.200 F 
ATOM     58  C   UNL A   1      39.208  35.595  39.179  1.00  0.00     0.200 A 
ATOM     59  F   UNL A   1      37.776  33.952  40.089  1.00  0.00    -0.200 F 
ATOM     60  F   UNL A   1      39.055  36.357  40.270  1.00  0.00    -0.200 F 
ENDBRANCH  26  50
BRANCH  38  61
ATOM     61  C   UNL A   1      43.625  28.514  35.455  1.00  0.00     0.064 A 
ATOM     62  C   UNL A   1      44.984  28.846  35.352  1.00  0.00     0.173 A 
ATOM     63  C   UNL A   1      43.257  27.510  36.362  1.00  0.00     0.173 A 
ATOM     64  F   UNL A   1      45.387  29.784  34.481  1.00  0.00    -0.203 F 
ATOM     65  C   UNL A   1      45.939  28.186  36.118  1.00  0.00     0.198 A 
ATOM     66  C   UNL A   1      44.211  26.876  37.151  1.00  0.00     0.198 A 
ATOM     67  F   UNL A   1      41.970  27.158  36.498  1.00  0.00    -0.203 F 
ATOM     68  F   UNL A   1      47.237  28.486  35.972  1.00  0.00    -0.200 F 
ATOM     69  C   UNL A   1      45.552  27.209  37.024  1.00  0.00     0.200 A 
ATOM     70  F   UNL A   1      43.834  25.944  38.037  1.00  0.00    -0.200 F 
ATOM     71  F   UNL A   1      46.471  26.585  37.773  1.00  0.00    -0.200 F 
ENDBRANCH  38  61
ENDBRANCH  12  13
ENDBRANCH   5   7
ENDBRANCH   2   3
ENDBRANCH   1   2
BRANCH   1  72
ATOM     72  C   UNL A   1      31.434  30.758  26.411  1.00  0.00     0.118 C 
BRANCH  72  73
ATOM     73  N   UNL A   1      32.548  30.200  25.697  1.00  0.00    -0.351 N 
ATOM     74  C   UNL A   1      32.591  29.183  24.785  1.00  0.00     0.278 C 
ATOM     75  H   UNL A   1      33.418  30.616  25.894  1.00  0.00     0.163 HD
ATOM     76  O   UNL A   1      33.501  29.328  23.954  1.00  0.00    -0.268 OA
BRANCH  74  77
ATOM     77  C   UNL A   1      31.773  27.839  24.877  1.00  0.00     0.274 C 
ATOM     78  C   UNL A   1      32.498  27.043  26.012  1.00  0.00     0.076 C 
ATOM     79  N   UNL A   1      31.643  26.998  23.643  1.00  0.00    -0.321 N 
ATOM     80  C   UNL A   1      31.914  25.667  26.266  1.00  0.00     0.012 C 
ATOM     81  C   UNL A   1      31.200  25.612  23.905  1.00  0.00     0.263 C 
ATOM     82  H   UNL A   1      32.621  27.078  23.365  1.00  0.00     0.349 HD
ATOM     83  C   UNL A   1      31.986  24.882  24.977  1.00  0.00     0.062 C 
BRANCH  79  84
ATOM     84  C   UNL A   1      30.870  27.466  22.475  1.00  0.00     0.299 C 
BRANCH  84  85
ATOM     85  C   UNL A   1      29.606  28.325  22.666  1.00  0.00     0.010 A 
ATOM     86  C   UNL A   1      28.377  27.859  23.162  1.00  0.00     0.048 A 
ATOM     87  C   UNL A   1      29.697  29.713  22.446  1.00  0.00     0.025 A 
ATOM     88  C   UNL A   1      27.293  28.710  23.375  1.00  0.00     0.124 A 
ATOM     89  C   UNL A   1      28.601  30.562  22.669  1.00  0.00     0.021 A 
ATOM     90  F   UNL A   1      26.153  28.203  23.864  1.00  0.00    -0.207 F 
ATOM     91  C   UNL A   1      27.388  30.064  23.126  1.00  0.00     0.055 A 
ATOM     92  Br  UNL A   1      28.778  32.421  22.376  1.00  0.00    -0.051 Br
ENDBRANCH  84  85
ENDBRANCH  79  84
ENDBRANCH  74  77
ENDBRANCH  72  73
ENDBRANCH   1  72
TORSDOF 12
ENDMDL
MODEL 2
REMARK VINA RESULT:     -13.0      0.154      1.617
REMARK SMILES O=C(NCCCNC(=O)[C@@H]1CCCC[N@H+]1Cc1cc(F)cc(Br)c1)c1ccc(-c2c3nc(c(-c4c(F)c(F)c(F)c(F)c4F)c4ccc([nH]4)c(-c4c(F)c(F)c(F)c(F)c4F)c4nc(c(-c5c(F)c(F)c(F)c(F)c5F)c5ccc2[nH]5)C=C4)C=C3)cc1
REMARK SMILES IDX 5 1 4 2 3 3 1 4 2 5 25 7 26 8 87 9 27 10 86 11 28 12 29 13
REMARK SMILES IDX 30 14 80 15 31 16 85 17 79 18 81 19 32 20 84 21 78 22 77 23
REMARK SMILES IDX 33 25 65 26 45 27 64 28 46 29 49 30 63 31 82 32 47 33 48 34
REMARK SMILES IDX 62 36 83 37 50 38 34 39 35 40 43 41 36 42 37 43 41 44 44 45
REMARK SMILES IDX 38 46 39 47 42 48 40 49 66 50 67 51 75 52 68 53 69 54 73 55
REMARK SMILES IDX 76 56 70 57 71 58 74 59 72 60 51 61 52 62 60 63 53 64 54 65
REMARK SMILES IDX 58 66 61 67 55 68 56 69 59 70 57 71 6 72 7 73 8 74 9 76
REMARK SMILES IDX 10 77 11 78 15 79 12 80 14 81 13 83 16 84 17 85 18 86 24 87
REMARK SMILES IDX 19 88 22 89 20 90 21 91 23 92
REMARK H PARENT 3 6 81 24 49 35 7 75 15 82
REMARK Flexibility Score: inf
ROOT
ATOM      1  C   UNL A   1      31.391  32.231  26.552  1.00  0.00     0.042 C 
ENDROOT
BRANCH   1   2
ATOM      2  C   UNL A   1      32.652  32.808  27.150  1.00  0.00     0.118 C 
BRANCH   2   3
ATOM      3  N   UNL A   1      32.467  34.178  27.631  1.00  0.00    -0.352 N 
ATOM      4  O   UNL A   1      32.585  35.938  29.028  1.00  0.00    -0.269 OA
ATOM      5  C   UNL A   1      33.050  34.861  28.672  1.00  0.00     0.251 C 
ATOM      6  H   UNL A   1      31.809  34.702  27.119  1.00  0.00     0.163 HD
BRANCH   5   7
ATOM      7  C   UNL A   1      34.231  34.305  29.366  1.00  0.00     0.039 A 
ATOM      8  C   UNL A   1      34.068  33.406  30.418  1.00  0.00     0.014 A 
ATOM      9  C   UNL A   1      35.518  34.637  28.932  1.00  0.00     0.014 A 
ATOM     10  C   UNL A   1      35.160  33.000  31.163  1.00  0.00     0.010 A 
ATOM     11  C   UNL A   1      36.631  34.095  29.583  1.00  0.00     0.010 A 
ATOM     12  C   UNL A   1      36.456  33.282  30.713  1.00  0.00    -0.014 A 
BRANCH  12  13
ATOM     13  C   UNL A   1      37.587  32.576  31.358  1.00  0.00     0.031 A 
ATOM     14  C   UNL A   1      38.304  31.456  30.672  1.00  0.00     0.074 A 
ATOM     15  C   UNL A   1      37.960  32.988  32.588  1.00  0.00     0.049 A 
ATOM     16  N   UNL A   1      39.286  30.716  31.120  1.00  0.00    -0.248 NA
ATOM     17  C   UNL A   1      37.864  31.109  29.312  1.00  0.00     0.031 C 
ATOM     18  C   UNL A   1      37.317  34.069  33.345  1.00  0.00     0.029 A 
ATOM     19  N   UNL A   1      38.966  32.566  33.415  1.00  0.00    -0.354 N 
ATOM     20  C   UNL A   1      39.559  29.798  30.116  1.00  0.00     0.074 A 
ATOM     21  C   UNL A   1      38.636  30.066  29.034  1.00  0.00     0.031 C 
ATOM     22  C   UNL A   1      37.969  34.253  34.499  1.00  0.00     0.029 A 
ATOM     23  C   UNL A   1      39.007  33.240  34.613  1.00  0.00     0.049 A 
ATOM     24  H   UNL A   1      39.599  31.850  33.177  1.00  0.00     0.167 HD
ATOM     25  C   UNL A   1      40.497  28.821  30.114  1.00  0.00     0.037 A 
ATOM     26  C   UNL A   1      39.761  33.035  35.705  1.00  0.00     0.037 A 
ATOM     27  C   UNL A   1      41.421  28.590  31.196  1.00  0.00     0.049 A 
ATOM     28  C   UNL A   1      40.760  31.917  35.681  1.00  0.00     0.074 A 
ATOM     29  C   UNL A   1      42.456  27.675  31.263  1.00  0.00     0.029 A 
ATOM     30  N   UNL A   1      41.412  29.271  32.406  1.00  0.00    -0.354 N 
ATOM     31  N   UNL A   1      41.049  31.091  34.705  1.00  0.00    -0.248 NA
ATOM     32  C   UNL A   1      41.529  31.690  36.910  1.00  0.00     0.031 C 
ATOM     33  C   UNL A   1      43.025  27.751  32.537  1.00  0.00     0.029 A 
ATOM     34  C   UNL A   1      42.390  28.761  33.243  1.00  0.00     0.049 A 
ATOM     35  H   UNL A   1      40.799  30.008  32.635  1.00  0.00     0.167 HD
ATOM     36  C   UNL A   1      42.039  30.255  35.196  1.00  0.00     0.074 A 
ATOM     37  C   UNL A   1      42.321  30.693  36.547  1.00  0.00     0.031 C 
ATOM     38  C   UNL A   1      42.652  29.212  34.586  1.00  0.00     0.037 A 
BRANCH  25  39
ATOM     39  C   UNL A   1      40.563  27.899  28.930  1.00  0.00     0.064 A 
ATOM     40  C   UNL A   1      39.796  26.728  28.854  1.00  0.00     0.173 A 
ATOM     41  C   UNL A   1      41.346  28.244  27.818  1.00  0.00     0.173 A 
ATOM     42  F   UNL A   1      39.037  26.348  29.892  1.00  0.00    -0.203 F 
ATOM     43  C   UNL A   1      39.821  25.930  27.711  1.00  0.00     0.198 A 
ATOM     44  C   UNL A   1      41.347  27.460  26.668  1.00  0.00     0.198 A 
ATOM     45  F   UNL A   1      42.094  29.358  27.836  1.00  0.00    -0.203 F 
ATOM     46  F   UNL A   1      39.103  24.799  27.671  1.00  0.00    -0.200 F 
ATOM     47  C   UNL A   1      40.587  26.301  26.616  1.00  0.00     0.200 A 
ATOM     48  F   UNL A   1      42.076  27.830  25.605  1.00  0.00    -0.200 F 
ATOM     49  F   UNL A   1      40.594  25.543  25.511  1.00  0.00    -0.200 F 
ENDBRANCH  25  39
BRANCH  26  50
ATOM     50  C   UNL A   1      39.550  33.863  36.921  1.00  0.00     0.064 A 
ATOM     51  C   UNL A   1      38.757  33.408  37.982  1.00  0.00     0.173 A 
ATOM     52  C   UNL A   1      40.135  35.134  37.044  1.00  0.00     0.173 A 
ATOM     53  F   UNL A   1      38.165  32.208  37.908  1.00  0.00    -0.203 F 
ATOM     54  C   UNL A   1      38.536  34.202  39.106  1.00  0.00     0.198 A 
ATOM     55  C   UNL A   1      39.945  35.910  38.183  1.00  0.00     0.198 A 
ATOM     56  F   UNL A   1      40.911  35.616  36.062  1.00  0.00    -0.203 F 
ATOM     57  F   UNL A   1      37.728  33.766  40.082  1.00  0.00    -0.200 F 
ATOM     58  C   UNL A   1      39.134  35.449  39.209  1.00  0.00     0.200 A 
ATOM     59  F   UNL A   1      40.546  37.103  38.287  1.00  0.00    -0.200 F 
ATOM     60  F   UNL A   1      38.923  36.209  40.292  1.00  0.00    -0.200 F 
ENDBRANCH  26  50
BRANCH  38  61
ATOM     61  C   UNL A   1      43.702  28.486  35.373  1.00  0.00     0.064 A 
ATOM     62  C   UNL A   1      43.379  27.391  36.188  1.00  0.00     0.173 A 
ATOM     63  C   UNL A   1      45.049  28.863  35.278  1.00  0.00     0.173 A 
ATOM     64  F   UNL A   1      42.101  27.007  36.330  1.00  0.00    -0.203 F 
ATOM     65  C   UNL A   1      44.367  26.711  36.893  1.00  0.00     0.198 A 
ATOM     66  C   UNL A   1      46.038  28.159  35.956  1.00  0.00     0.198 A 
ATOM     67  F   UNL A   1      45.409  29.902  34.510  1.00  0.00    -0.203 F 
ATOM     68  F   UNL A   1      44.032  25.696  37.702  1.00  0.00    -0.200 F 
ATOM     69  C   UNL A   1      45.696  27.087  36.768  1.00  0.00     0.200 A 
ATOM     70  F   UNL A   1      47.323  28.514  35.823  1.00  0.00    -0.200 F 
ATOM     71  F   UNL A   1      46.648  26.421  37.435  1.00  0.00    -0.200 F 
ENDBRANCH  38  61
ENDBRANCH  12  13
ENDBRANCH   5   7
ENDBRANCH   2   3
ENDBRANCH   1   2
BRANCH   1  72
ATOM     72  C   UNL A   1      31.430  30.726  26.444  1.00  0.00     0.118 C 
BRANCH  72  73
ATOM     73  N   UNL A   1      32.547  30.175  25.727  1.00  0.00    -0.351 N 
ATOM     74  C   UNL A   1      32.591  29.172  24.801  1.00  0.00     0.278 C 
ATOM     75  H   UNL A   1      33.417  30.586  25.937  1.00  0.00     0.163 HD
ATOM     76  O   UNL A   1      33.506  29.328  23.977  1.00  0.00    -0.268 OA
BRANCH  74  77
ATOM     77  C   UNL A   1      31.768  27.830  24.867  1.00  0.00     0.274 C 
ATOM     78  C   UNL A   1      32.483  27.014  25.994  1.00  0.00     0.076 C 
ATOM     79  N   UNL A   1      31.643  27.008  23.620  1.00  0.00    -0.321 N 
ATOM     80  C   UNL A   1      31.893  25.637  26.225  1.00  0.00     0.012 C 
ATOM     81  C   UNL A   1      31.194  25.620  23.858  1.00  0.00     0.263 C 
ATOM     82  H   UNL A   1      32.624  27.089  23.350  1.00  0.00     0.349 HD
ATOM     83  C   UNL A   1      31.971  24.871  24.925  1.00  0.00     0.062 C 
BRANCH  79  84
ATOM     84  C   UNL A   1      30.879  27.496  22.454  1.00  0.00     0.299 C 
BRANCH  84  85
ATOM     85  C   UNL A   1      29.613  28.349  22.651  1.00  0.00     0.010 A 
ATOM     86  C   UNL A   1      28.382  27.874  23.133  1.00  0.00     0.048 A 
ATOM     87  C   UNL A   1      29.701  29.740  22.450  1.00  0.00     0.025 A 
ATOM     88  C   UNL A   1      27.294  28.719  23.351  1.00  0.00     0.124 A 
ATOM     89  C   UNL A   1      28.602  30.584  22.679  1.00  0.00     0.021 A 
ATOM     90  F   UNL A   1      26.153  28.202  23.826  1.00  0.00    -0.207 F 
ATOM     91  C   UNL A   1      27.388  30.077  23.122  1.00  0.00     0.055 A 
ATOM     92  Br  UNL A   1      28.777  32.447  22.413  1.00  0.00    -0.051 Br
ENDBRANCH  84  85
ENDBRANCH  79  84
ENDBRANCH  74  77
ENDBRANCH  72  73
ENDBRANCH   1  72
TORSDOF 12
ENDMDL
MODEL 3
REMARK VINA RESULT:     -12.9      6.608     11.831
REMARK SMILES O=C(NCCCNC(=O)[C@@H]1CCCC[N@H+]1Cc1cc(F)cc(Br)c1)c1ccc(-c2c3nc(c(-c4c(F)c(F)c(F)c(F)c4F)c4ccc([nH]4)c(-c4c(F)c(F)c(F)c(F)c4F)c4nc(c(-c5c(F)c(F)c(F)c(F)c5F)c5ccc2[nH]5)C=C4)C=C3)cc1
REMARK SMILES IDX 5 1 4 2 3 3 1 4 2 5 25 7 26 8 87 9 27 10 86 11 28 12 29 13
REMARK SMILES IDX 30 14 80 15 31 16 85 17 79 18 81 19 32 20 84 21 78 22 77 23
REMARK SMILES IDX 33 25 65 26 45 27 64 28 46 29 49 30 63 31 82 32 47 33 48 34
REMARK SMILES IDX 62 36 83 37 50 38 34 39 35 40 43 41 36 42 37 43 41 44 44 45
REMARK SMILES IDX 38 46 39 47 42 48 40 49 66 50 67 51 75 52 68 53 69 54 73 55
REMARK SMILES IDX 76 56 70 57 71 58 74 59 72 60 51 61 52 62 60 63 53 64 54 65
REMARK SMILES IDX 58 66 61 67 55 68 56 69 59 70 57 71 6 72 7 73 8 74 9 76
REMARK SMILES IDX 10 77 11 78 15 79 12 80 14 81 13 83 16 84 17 85 18 86 24 87
REMARK SMILES IDX 19 88 22 89 20 90 21 91 23 92
REMARK H PARENT 3 6 81 24 49 35 7 75 15 82
REMARK Flexibility Score: inf
ROOT
ATOM      1  C   UNL A   1      38.038  19.805  24.683  1.00  0.00     0.042 C 
ENDROOT
BRANCH   1   2
ATOM      2  C   UNL A   1      39.004  20.164  25.788  1.00  0.00     0.118 C 
BRANCH   2   3
ATOM      3  N   UNL A   1      40.104  19.206  25.900  1.00  0.00    -0.352 N 
ATOM      4  O   UNL A   1      42.222  18.445  25.906  1.00  0.00    -0.269 OA
ATOM      5  C   UNL A   1      41.458  19.393  26.051  1.00  0.00     0.251 C 
ATOM      6  H   UNL A   1      39.826  18.262  25.861  1.00  0.00     0.163 HD
BRANCH   5   7
ATOM      7  C   UNL A   1      41.999  20.729  26.382  1.00  0.00     0.039 A 
ATOM      8  C   UNL A   1      42.198  21.674  25.379  1.00  0.00     0.014 A 
ATOM      9  C   UNL A   1      42.261  21.066  27.714  1.00  0.00     0.014 A 
ATOM     10  C   UNL A   1      42.838  22.867  25.661  1.00  0.00     0.010 A 
ATOM     11  C   UNL A   1      42.757  22.337  28.022  1.00  0.00     0.010 A 
ATOM     12  C   UNL A   1      43.061  23.240  26.992  1.00  0.00    -0.014 A 
BRANCH  12  13
ATOM     13  C   UNL A   1      43.461  24.640  27.266  1.00  0.00     0.031 A 
ATOM     14  C   UNL A   1      42.491  25.637  27.817  1.00  0.00     0.074 A 
ATOM     15  C   UNL A   1      44.741  24.984  27.012  1.00  0.00     0.049 A 
ATOM     16  N   UNL A   1      42.679  26.907  28.073  1.00  0.00    -0.248 NA
ATOM     17  C   UNL A   1      41.131  25.161  28.113  1.00  0.00     0.031 C 
ATOM     18  C   UNL A   1      45.763  24.083  26.466  1.00  0.00     0.029 A 
ATOM     19  N   UNL A   1      45.409  26.167  27.185  1.00  0.00    -0.354 N 
ATOM     20  C   UNL A   1      41.459  27.388  28.527  1.00  0.00     0.074 A 
ATOM     21  C   UNL A   1      40.531  26.277  28.507  1.00  0.00     0.031 C 
ATOM     22  C   UNL A   1      46.932  24.729  26.390  1.00  0.00     0.029 A 
ATOM     23  C   UNL A   1      46.723  26.115  26.783  1.00  0.00     0.049 A 
ATOM     24  H   UNL A   1      44.991  26.976  27.560  1.00  0.00     0.167 HD
ATOM     25  C   UNL A   1      41.155  28.648  28.919  1.00  0.00     0.037 A 
ATOM     26  C   UNL A   1      47.647  27.086  26.689  1.00  0.00     0.037 A 
ATOM     27  C   UNL A   1      42.104  29.732  28.953  1.00  0.00     0.049 A 
ATOM     28  C   UNL A   1      47.260  28.478  27.091  1.00  0.00     0.074 A 
ATOM     29  C   UNL A   1      41.916  31.027  29.400  1.00  0.00     0.029 A 
ATOM     30  N   UNL A   1      43.417  29.650  28.507  1.00  0.00    -0.354 N 
ATOM     31  N   UNL A   1      46.120  28.909  27.574  1.00  0.00    -0.248 NA
ATOM     32  C   UNL A   1      48.279  29.521  26.927  1.00  0.00     0.031 C 
ATOM     33  C   UNL A   1      43.089  31.747  29.160  1.00  0.00     0.029 A 
ATOM     34  C   UNL A   1      44.032  30.886  28.623  1.00  0.00     0.049 A 
ATOM     35  H   UNL A   1      43.846  28.834  28.159  1.00  0.00     0.167 HD
ATOM     36  C   UNL A   1      46.286  30.269  27.780  1.00  0.00     0.074 A 
ATOM     37  C   UNL A   1      47.647  30.585  27.399  1.00  0.00     0.031 C 
ATOM     38  C   UNL A   1      45.389  31.176  28.236  1.00  0.00     0.037 A 
BRANCH  25  39
ATOM     39  C   UNL A   1      39.737  28.948  29.312  1.00  0.00     0.064 A 
ATOM     40  C   UNL A   1      38.780  29.377  28.382  1.00  0.00     0.173 A 
ATOM     41  C   UNL A   1      39.313  28.720  30.631  1.00  0.00     0.173 A 
ATOM     42  F   UNL A   1      39.133  29.618  27.111  1.00  0.00    -0.203 F 
ATOM     43  C   UNL A   1      37.453  29.576  28.760  1.00  0.00     0.198 A 
ATOM     44  C   UNL A   1      37.982  28.894  30.999  1.00  0.00     0.198 A 
ATOM     45  F   UNL A   1      40.187  28.304  31.560  1.00  0.00    -0.203 F 
ATOM     46  F   UNL A   1      36.561  30.015  27.861  1.00  0.00    -0.200 F 
ATOM     47  C   UNL A   1      37.053  29.325  30.064  1.00  0.00     0.200 A 
ATOM     48  F   UNL A   1      37.596  28.635  32.256  1.00  0.00    -0.200 F 
ATOM     49  F   UNL A   1      35.774  29.499  30.422  1.00  0.00    -0.200 F 
ENDBRANCH  25  39
BRANCH  26  50
ATOM     50  C   UNL A   1      48.992  26.782  26.135  1.00  0.00     0.064 A 
ATOM     51  C   UNL A   1      49.286  26.992  24.782  1.00  0.00     0.173 A 
ATOM     52  C   UNL A   1      50.013  26.268  26.951  1.00  0.00     0.173 A 
ATOM     53  F   UNL A   1      48.342  27.469  23.959  1.00  0.00    -0.203 F 
ATOM     54  C   UNL A   1      50.539  26.675  24.262  1.00  0.00     0.198 A 
ATOM     55  C   UNL A   1      51.276  25.988  26.438  1.00  0.00     0.198 A 
ATOM     56  F   UNL A   1      49.789  26.054  28.257  1.00  0.00    -0.203 F 
ATOM     57  F   UNL A   1      50.776  26.833  22.952  1.00  0.00    -0.200 F 
ATOM     58  C   UNL A   1      51.534  26.179  25.090  1.00  0.00     0.200 A 
ATOM     59  F   UNL A   1      52.240  25.532  27.249  1.00  0.00    -0.200 F 
ATOM     60  F   UNL A   1      52.740  25.878  24.588  1.00  0.00    -0.200 F 
ENDBRANCH  26  50
BRANCH  38  61
ATOM     61  C   UNL A   1      45.861  32.594  28.362  1.00  0.00     0.064 A 
ATOM     62  C   UNL A   1      46.502  33.052  29.522  1.00  0.00     0.173 A 
ATOM     63  C   UNL A   1      45.708  33.492  27.294  1.00  0.00     0.173 A 
ATOM     64  F   UNL A   1      46.651  32.238  30.578  1.00  0.00    -0.203 F 
ATOM     65  C   UNL A   1      46.958  34.363  29.616  1.00  0.00     0.198 A 
ATOM     66  C   UNL A   1      46.197  34.792  27.378  1.00  0.00     0.198 A 
ATOM     67  F   UNL A   1      45.104  33.101  26.163  1.00  0.00    -0.203 F 
ATOM     68  F   UNL A   1      47.527  34.794  30.750  1.00  0.00    -0.200 F 
ATOM     69  C   UNL A   1      46.815  35.228  28.540  1.00  0.00     0.200 A 
ATOM     70  F   UNL A   1      46.071  35.621  26.334  1.00  0.00    -0.200 F 
ATOM     71  F   UNL A   1      47.269  36.486  28.626  1.00  0.00    -0.200 F 
ENDBRANCH  38  61
ENDBRANCH  12  13
ENDBRANCH   5   7
ENDBRANCH   2   3
ENDBRANCH   1   2
BRANCH   1  72
ATOM     72  C   UNL A   1      36.616  20.200  24.999  1.00  0.00     0.118 C 
BRANCH  72  73
ATOM     73  N   UNL A   1      36.428  21.536  25.495  1.00  0.00    -0.351 N 
ATOM     74  C   UNL A   1      35.304  22.310  25.540  1.00  0.00     0.278 C 
ATOM     75  H   UNL A   1      37.238  21.959  25.861  1.00  0.00     0.163 HD
ATOM     76  O   UNL A   1      35.307  23.097  26.499  1.00  0.00    -0.268 OA
BRANCH  74  77
ATOM     77  C   UNL A   1      34.218  22.410  24.402  1.00  0.00     0.274 C 
ATOM     78  C   UNL A   1      34.468  23.822  23.777  1.00  0.00     0.076 C 
ATOM     79  N   UNL A   1      32.776  22.247  24.776  1.00  0.00    -0.321 N 
ATOM     80  C   UNL A   1      33.502  24.182  22.665  1.00  0.00     0.012 C 
ATOM     81  C   UNL A   1      31.830  22.723  23.744  1.00  0.00     0.263 C 
ATOM     82  H   UNL A   1      32.821  22.840  25.605  1.00  0.00     0.349 HD
ATOM     83  C   UNL A   1      32.100  24.122  23.226  1.00  0.00     0.062 C 
BRANCH  79  84
ATOM     84  C   UNL A   1      32.250  20.953  25.255  1.00  0.00     0.299 C 
BRANCH  84  85
ATOM     85  C   UNL A   1      32.538  19.656  24.477  1.00  0.00     0.010 A 
ATOM     86  C   UNL A   1      32.171  19.413  23.143  1.00  0.00     0.048 A 
ATOM     87  C   UNL A   1      33.331  18.667  25.088  1.00  0.00     0.025 A 
ATOM     88  C   UNL A   1      32.525  18.239  22.478  1.00  0.00     0.124 A 
ATOM     89  C   UNL A   1      33.689  17.491  24.409  1.00  0.00     0.021 A 
ATOM     90  F   UNL A   1      32.155  18.077  21.200  1.00  0.00    -0.207 F 
ATOM     91  C   UNL A   1      33.279  17.265  23.101  1.00  0.00     0.055 A 
ATOM     92  Br  UNL A   1      34.771  16.201  25.268  1.00  0.00    -0.051 Br
ENDBRANCH  84  85
ENDBRANCH  79  84
ENDBRANCH  74  77
ENDBRANCH  72  73
ENDBRANCH   1  72
TORSDOF 12
ENDMDL
