MODEL 1
REMARK VINA RESULT:     -13.1      0.000      0.000
REMARK SMILES COc1cc(/C=C2/CCc3c2nc2ccccc2c3C(=O)NCCCNC(=O)c2ccc(-c3c4nc(c(-c5c(F)c(F)c(F)c(F)c5F)c5ccc([nH]5)c(-c5c(F)c(F)c(F)c(F)c5F)c5nc(c(-c6c(F)c(F)c(F)c(F)c6F)c6ccc3[nH]6)C=C5)C=C4)cc2)cc(Br)c1O
REMARK SMILES IDX 24 1 23 2 22 3 20 4 21 5 19 7 6 8 7 9 8 10 11 11 9 12 10 13
REMARK SMILES IDX 12 14 13 15 18 16 14 17 17 18 15 19 16 20 5 21 3 22 4 23
REMARK SMILES IDX 95 24 93 25 92 26 94 27 2 28 1 29 96 30 25 32 26 33 27 34
REMARK SMILES IDX 28 36 29 37 30 38 91 39 31 40 90 41 32 42 33 43 34 44 84 45
REMARK SMILES IDX 35 46 89 47 83 48 85 49 36 50 88 51 82 52 81 53 37 55 69 56
REMARK SMILES IDX 49 57 68 58 50 59 53 60 67 61 86 62 51 63 52 64 66 66 87 67
REMARK SMILES IDX 54 68 38 69 39 70 47 71 40 72 41 73 45 74 48 75 42 76 43 77
REMARK SMILES IDX 46 78 44 79 70 80 71 81 79 82 72 83 73 84 77 85 80 86 74 87
REMARK SMILES IDX 75 88 78 89 76 90 55 91 56 92 64 93 57 94 58 95 62 96 65 97
REMARK SMILES IDX 59 98 60 99 63 100 61 101
REMARK H PARENT 22 6 96 31 26 35 85 54 53 65
REMARK Flexibility Score: inf
ROOT
ATOM      1  C   UNL A   1      31.995  27.975  27.646  1.00  0.00     0.042 C 
ENDROOT
BRANCH   1   2
ATOM      2  C   UNL A   1      30.981  28.240  26.537  1.00  0.00     0.118 C 
BRANCH   2   3
ATOM      3  N   UNL A   1      31.201  27.543  25.268  1.00  0.00    -0.352 N 
ATOM      4  C   UNL A   1      30.593  26.623  24.430  1.00  0.00     0.252 C 
ATOM      5  O   UNL A   1      29.545  26.039  24.675  1.00  0.00    -0.269 OA
ATOM      6  H   UNL A   1      32.066  27.818  24.887  1.00  0.00     0.163 HD
BRANCH   4   7
ATOM      7  C   UNL A   1      31.384  26.422  23.112  1.00  0.00     0.054 A 
ATOM      8  C   UNL A   1      34.402  26.475  24.971  1.00  0.00     0.014 C 
ATOM      9  C   UNL A   1      34.174  27.230  23.833  1.00  0.00    -0.021 C 
ATOM     10  C   UNL A   1      33.850  28.745  23.932  1.00  0.00     0.042 C 
ATOM     11  C   UNL A   1      33.454  27.005  22.543  1.00  0.00     0.071 A 
ATOM     12  C   UNL A   1      32.422  28.878  23.281  1.00  0.00     0.043 C 
ATOM     13  C   UNL A   1      32.205  27.485  22.779  1.00  0.00    -0.008 A 
ATOM     14  N   UNL A   1      33.672  26.109  21.612  1.00  0.00    -0.248 NA
ATOM     15  C   UNL A   1      32.626  25.352  21.352  1.00  0.00     0.072 A 
ATOM     16  C   UNL A   1      31.783  25.174  22.447  1.00  0.00     0.013 A 
ATOM     17  C   UNL A   1      32.879  24.385  20.408  1.00  0.00     0.029 A 
ATOM     18  C   UNL A   1      31.933  23.854  22.925  1.00  0.00     0.011 A 
ATOM     19  C   UNL A   1      33.135  23.143  20.917  1.00  0.00     0.002 A 
ATOM     20  C   UNL A   1      32.775  22.933  22.236  1.00  0.00     0.001 A 
BRANCH   8  21
ATOM     21  C   UNL A   1      33.888  25.117  25.469  1.00  0.00    -0.020 A 
ATOM     22  C   UNL A   1      32.412  23.635  26.789  1.00  0.00     0.162 A 
ATOM     23  C   UNL A   1      32.694  24.891  26.161  1.00  0.00     0.058 A 
ATOM     24  C   UNL A   1      33.327  22.580  26.700  1.00  0.00     0.172 A 
ATOM     25  C   UNL A   1      34.396  22.713  25.831  1.00  0.00     0.064 A 
ATOM     26  C   UNL A   1      34.612  23.939  25.177  1.00  0.00     0.028 A 
ATOM     27  Br  UNL A   1      35.672  21.313  25.645  1.00  0.00    -0.047 Br
BRANCH  22  28
ATOM     28  O   UNL A   1      31.249  23.600  27.518  1.00  0.00    -0.493 OA
ATOM     29  C   UNL A   1      30.098  23.066  26.858  1.00  0.00     0.278 C 
ENDBRANCH  22  28
BRANCH  24  30
ATOM     30  O   UNL A   1      33.251  21.492  27.530  1.00  0.00    -0.503 OA
ATOM     31  H   UNL A   1      33.060  21.609  28.439  1.00  0.00     0.293 HD
ENDBRANCH  24  30
ENDBRANCH   8  21
ENDBRANCH   4   7
ENDBRANCH   2   3
ENDBRANCH   1   2
BRANCH   1  32
ATOM     32  C   UNL A   1      33.344  28.642  27.323  1.00  0.00     0.118 C 
BRANCH  32  33
ATOM     33  N   UNL A   1      33.414  30.067  27.668  1.00  0.00    -0.352 N 
ATOM     34  C   UNL A   1      34.488  30.802  28.131  1.00  0.00     0.251 C 
ATOM     35  H   UNL A   1      32.577  30.570  27.553  1.00  0.00     0.163 HD
ATOM     36  O   UNL A   1      34.373  31.989  28.413  1.00  0.00    -0.269 OA
BRANCH  34  37
ATOM     37  C   UNL A   1      35.781  30.116  28.325  1.00  0.00     0.039 A 
ATOM     38  C   UNL A   1      36.071  29.547  29.562  1.00  0.00     0.014 A 
ATOM     39  C   UNL A   1      36.747  30.161  27.317  1.00  0.00     0.014 A 
ATOM     40  C   UNL A   1      37.388  29.251  29.872  1.00  0.00     0.010 A 
ATOM     41  C   UNL A   1      38.052  29.741  27.596  1.00  0.00     0.010 A 
ATOM     42  C   UNL A   1      38.399  29.344  28.896  1.00  0.00    -0.014 A 
BRANCH  42  43
ATOM     43  C   UNL A   1      39.799  29.015  29.278  1.00  0.00     0.031 A 
ATOM     44  C   UNL A   1      40.530  29.802  30.334  1.00  0.00     0.074 A 
ATOM     45  C   UNL A   1      40.378  27.928  28.729  1.00  0.00     0.049 A 
ATOM     46  N   UNL A   1      41.753  29.644  30.781  1.00  0.00    -0.248 NA
ATOM     47  C   UNL A   1      39.805  30.912  30.970  1.00  0.00     0.031 C 
ATOM     48  C   UNL A   1      39.754  27.071  27.719  1.00  0.00     0.029 A 
ATOM     49  N   UNL A   1      41.583  27.325  28.975  1.00  0.00    -0.354 N 
ATOM     50  C   UNL A   1      41.954  30.651  31.717  1.00  0.00     0.074 A 
ATOM     51  C   UNL A   1      40.731  31.425  31.768  1.00  0.00     0.031 C 
ATOM     52  C   UNL A   1      40.526  25.996  27.517  1.00  0.00     0.029 A 
ATOM     53  C   UNL A   1      41.749  26.141  28.297  1.00  0.00     0.049 A 
ATOM     54  H   UNL A   1      42.264  27.701  29.579  1.00  0.00     0.167 HD
ATOM     55  C   UNL A   1      43.056  30.901  32.466  1.00  0.00     0.037 A 
ATOM     56  C   UNL A   1      42.777  25.275  28.286  1.00  0.00     0.037 A 
ATOM     57  C   UNL A   1      44.255  30.102  32.431  1.00  0.00     0.049 A 
ATOM     58  C   UNL A   1      44.000  25.596  29.090  1.00  0.00     0.074 A 
ATOM     59  C   UNL A   1      45.434  30.280  33.133  1.00  0.00     0.029 A 
ATOM     60  N   UNL A   1      44.421  28.961  31.657  1.00  0.00    -0.354 N 
ATOM     61  N   UNL A   1      44.201  26.591  29.918  1.00  0.00    -0.248 NA
ATOM     62  C   UNL A   1      45.148  24.696  28.933  1.00  0.00     0.031 C 
ATOM     63  C   UNL A   1      46.324  29.265  32.761  1.00  0.00     0.029 A 
ATOM     64  C   UNL A   1      45.686  28.432  31.858  1.00  0.00     0.049 A 
ATOM     65  H   UNL A   1      43.739  28.583  31.055  1.00  0.00     0.167 HD
ATOM     66  C   UNL A   1      45.502  26.446  30.376  1.00  0.00     0.074 A 
ATOM     67  C   UNL A   1      46.031  25.247  29.757  1.00  0.00     0.031 C 
ATOM     68  C   UNL A   1      46.196  27.241  31.225  1.00  0.00     0.037 A 
BRANCH  55  69
ATOM     69  C   UNL A   1      43.031  32.099  33.373  1.00  0.00     0.064 A 
ATOM     70  C   UNL A   1      43.409  33.373  32.926  1.00  0.00     0.173 A 
ATOM     71  C   UNL A   1      42.579  31.978  34.697  1.00  0.00     0.173 A 
ATOM     72  F   UNL A   1      43.859  33.542  31.673  1.00  0.00    -0.203 F 
ATOM     73  C   UNL A   1      43.358  34.477  33.775  1.00  0.00     0.198 A 
ATOM     74  C   UNL A   1      42.503  33.088  35.535  1.00  0.00     0.198 A 
ATOM     75  F   UNL A   1      42.195  30.784  35.174  1.00  0.00    -0.203 F 
ATOM     76  F   UNL A   1      43.761  35.677  33.337  1.00  0.00    -0.200 F 
ATOM     77  C   UNL A   1      42.898  34.335  35.076  1.00  0.00     0.200 A 
ATOM     78  F   UNL A   1      42.045  32.951  36.787  1.00  0.00    -0.200 F 
ATOM     79  F   UNL A   1      42.842  35.399  35.890  1.00  0.00    -0.200 F 
ENDBRANCH  55  69
BRANCH  56  80
ATOM     80  C   UNL A   1      42.674  24.033  27.478  1.00  0.00     0.064 A 
ATOM     81  C   UNL A   1      43.054  24.028  26.128  1.00  0.00     0.173 A 
ATOM     82  C   UNL A   1      42.275  22.817  28.050  1.00  0.00     0.173 A 
ATOM     83  F   UNL A   1      43.425  25.169  25.532  1.00  0.00    -0.203 F 
ATOM     84  C   UNL A   1      43.051  22.847  25.389  1.00  0.00     0.198 A 
ATOM     85  C   UNL A   1      42.302  21.633  27.319  1.00  0.00     0.198 A 
ATOM     86  F   UNL A   1      41.908  22.771  29.340  1.00  0.00    -0.203 F 
ATOM     87  F   UNL A   1      43.409  22.868  24.098  1.00  0.00    -0.200 F 
ATOM     88  C   UNL A   1      42.690  21.649  25.987  1.00  0.00     0.200 A 
ATOM     89  F   UNL A   1      41.976  20.476  27.908  1.00  0.00    -0.200 F 
ATOM     90  F   UNL A   1      42.720  20.509  25.284  1.00  0.00    -0.200 F 
ENDBRANCH  56  80
BRANCH  68  91
ATOM     91  C   UNL A   1      47.605  26.840  31.535  1.00  0.00     0.064 A 
ATOM     92  C   UNL A   1      47.892  25.930  32.562  1.00  0.00     0.173 A 
ATOM     93  C   UNL A   1      48.671  27.327  30.766  1.00  0.00     0.173 A 
ATOM     94  F   UNL A   1      46.906  25.451  33.335  1.00  0.00    -0.203 F 
ATOM     95  C   UNL A   1      49.201  25.530  32.816  1.00  0.00     0.198 A 
ATOM     96  C   UNL A   1      49.976  26.908  31.007  1.00  0.00     0.198 A 
ATOM     97  F   UNL A   1      48.444  28.198  29.772  1.00  0.00    -0.203 F 
ATOM     98  F   UNL A   1      49.459  24.684  33.823  1.00  0.00    -0.200 F 
ATOM     99  C   UNL A   1      50.240  26.013  32.033  1.00  0.00     0.200 A 
ATOM    100  F   UNL A   1      50.978  27.368  30.245  1.00  0.00    -0.200 F 
ATOM    101  F   UNL A   1      51.498  25.620  32.272  1.00  0.00    -0.200 F 
ENDBRANCH  68  91
ENDBRANCH  42  43
ENDBRANCH  34  37
ENDBRANCH  32  33
ENDBRANCH   1  32
TORSDOF 13
ENDMDL
MODEL 2
REMARK VINA RESULT:     -13.0      1.040      7.005
REMARK SMILES COc1cc(/C=C2/CCc3c2nc2ccccc2c3C(=O)NCCCNC(=O)c2ccc(-c3c4nc(c(-c5c(F)c(F)c(F)c(F)c5F)c5ccc([nH]5)c(-c5c(F)c(F)c(F)c(F)c5F)c5nc(c(-c6c(F)c(F)c(F)c(F)c6F)c6ccc3[nH]6)C=C5)C=C4)cc2)cc(Br)c1O
REMARK SMILES IDX 24 1 23 2 22 3 20 4 21 5 19 7 6 8 7 9 8 10 11 11 9 12 10 13
REMARK SMILES IDX 12 14 13 15 18 16 14 17 17 18 15 19 16 20 5 21 3 22 4 23
REMARK SMILES IDX 95 24 93 25 92 26 94 27 2 28 1 29 96 30 25 32 26 33 27 34
REMARK SMILES IDX 28 36 29 37 30 38 91 39 31 40 90 41 32 42 33 43 34 44 84 45
REMARK SMILES IDX 35 46 89 47 83 48 85 49 36 50 88 51 82 52 81 53 37 55 69 56
REMARK SMILES IDX 49 57 68 58 50 59 53 60 67 61 86 62 51 63 52 64 66 66 87 67
REMARK SMILES IDX 54 68 38 69 39 70 47 71 40 72 41 73 45 74 48 75 42 76 43 77
REMARK SMILES IDX 46 78 44 79 70 80 71 81 79 82 72 83 73 84 77 85 80 86 74 87
REMARK SMILES IDX 75 88 78 89 76 90 55 91 56 92 64 93 57 94 58 95 62 96 65 97
REMARK SMILES IDX 59 98 60 99 63 100 61 101
REMARK H PARENT 22 6 96 31 26 35 85 54 53 65
REMARK Flexibility Score: inf
ROOT
ATOM      1  C   UNL A   1      31.956  27.905  27.696  1.00  0.00     0.042 C 
ENDROOT
BRANCH   1   2
ATOM      2  C   UNL A   1      30.950  28.187  26.583  1.00  0.00     0.118 C 
BRANCH   2   3
ATOM      3  N   UNL A   1      31.178  27.506  25.307  1.00  0.00    -0.352 N 
ATOM      4  C   UNL A   1      30.576  26.594  24.456  1.00  0.00     0.252 C 
ATOM      5  O   UNL A   1      29.530  26.002  24.690  1.00  0.00    -0.269 OA
ATOM      6  H   UNL A   1      32.043  27.789  24.932  1.00  0.00     0.163 HD
BRANCH   4   7
ATOM      7  C   UNL A   1      31.373  26.411  23.138  1.00  0.00     0.054 A 
ATOM      8  C   UNL A   1      34.384  26.441  25.010  1.00  0.00     0.014 C 
ATOM      9  C   UNL A   1      34.160  27.212  23.882  1.00  0.00    -0.021 C 
ATOM     10  C   UNL A   1      33.835  28.725  24.001  1.00  0.00     0.042 C 
ATOM     11  C   UNL A   1      33.445  27.005  22.586  1.00  0.00     0.071 A 
ATOM     12  C   UNL A   1      32.409  28.865  23.347  1.00  0.00     0.043 C 
ATOM     13  C   UNL A   1      32.195  27.480  22.823  1.00  0.00    -0.008 A 
ATOM     14  N   UNL A   1      33.668  26.121  21.644  1.00  0.00    -0.248 NA
ATOM     15  C   UNL A   1      32.624  25.367  21.369  1.00  0.00     0.072 A 
ATOM     16  C   UNL A   1      31.776  25.173  22.457  1.00  0.00     0.013 A 
ATOM     17  C   UNL A   1      32.882  24.414  20.413  1.00  0.00     0.029 A 
ATOM     18  C   UNL A   1      31.926  23.847  22.917  1.00  0.00     0.011 A 
ATOM     19  C   UNL A   1      33.137  23.165  20.905  1.00  0.00     0.002 A 
ATOM     20  C   UNL A   1      32.771  22.937  22.219  1.00  0.00     0.001 A 
BRANCH   8  21
ATOM     21  C   UNL A   1      33.869  25.076  25.487  1.00  0.00    -0.020 A 
ATOM     22  C   UNL A   1      32.405  23.575  26.799  1.00  0.00     0.162 A 
ATOM     23  C   UNL A   1      32.685  24.842  26.195  1.00  0.00     0.058 A 
ATOM     24  C   UNL A   1      33.310  22.516  26.672  1.00  0.00     0.172 A 
ATOM     25  C   UNL A   1      34.366  22.660  25.788  1.00  0.00     0.064 A 
ATOM     26  C   UNL A   1      34.579  23.899  25.157  1.00  0.00     0.028 A 
ATOM     27  Br  UNL A   1      35.629  21.257  25.550  1.00  0.00    -0.047 Br
BRANCH  22  28
ATOM     28  O   UNL A   1      31.253  23.530  27.546  1.00  0.00    -0.493 OA
ATOM     29  C   UNL A   1      30.097  22.988  26.905  1.00  0.00     0.278 C 
ENDBRANCH  22  28
BRANCH  24  30
ATOM     30  O   UNL A   1      33.241  21.410  27.479  1.00  0.00    -0.503 OA
ATOM     31  H   UNL A   1      33.658  21.416  28.317  1.00  0.00     0.293 HD
ENDBRANCH  24  30
ENDBRANCH   8  21
ENDBRANCH   4   7
ENDBRANCH   2   3
ENDBRANCH   1   2
BRANCH   1  32
ATOM     32  C   UNL A   1      33.297  28.605  27.409  1.00  0.00     0.118 C 
BRANCH  32  33
ATOM     33  N   UNL A   1      33.319  30.033  27.746  1.00  0.00    -0.352 N 
ATOM     34  C   UNL A   1      34.376  30.814  28.174  1.00  0.00     0.251 C 
ATOM     35  H   UNL A   1      32.459  30.502  27.652  1.00  0.00     0.163 HD
ATOM     36  O   UNL A   1      34.221  31.996  28.454  1.00  0.00    -0.269 OA
BRANCH  34  37
ATOM     37  C   UNL A   1      35.700  30.181  28.335  1.00  0.00     0.039 A 
ATOM     38  C   UNL A   1      36.082  29.710  29.589  1.00  0.00     0.014 A 
ATOM     39  C   UNL A   1      36.602  30.182  27.269  1.00  0.00     0.014 A 
ATOM     40  C   UNL A   1      37.424  29.475  29.836  1.00  0.00     0.010 A 
ATOM     41  C   UNL A   1      37.934  29.822  27.495  1.00  0.00     0.010 A 
ATOM     42  C   UNL A   1      38.371  29.528  28.796  1.00  0.00    -0.014 A 
BRANCH  42  43
ATOM     43  C   UNL A   1      39.802  29.268  29.112  1.00  0.00     0.031 A 
ATOM     44  C   UNL A   1      40.505  28.034  28.607  1.00  0.00     0.074 A 
ATOM     45  C   UNL A   1      40.496  30.211  29.780  1.00  0.00     0.049 A 
ATOM     46  N   UNL A   1      41.748  27.661  28.794  1.00  0.00    -0.248 NA
ATOM     47  C   UNL A   1      39.719  27.095  27.794  1.00  0.00     0.031 C 
ATOM     48  C   UNL A   1      39.927  31.461  30.289  1.00  0.00     0.029 A 
ATOM     49  N   UNL A   1      41.826  30.299  30.096  1.00  0.00    -0.354 N 
ATOM     50  C   UNL A   1      41.880  26.432  28.157  1.00  0.00     0.074 A 
ATOM     51  C   UNL A   1      40.588  26.115  27.586  1.00  0.00     0.031 C 
ATOM     52  C   UNL A   1      40.915  32.237  30.749  1.00  0.00     0.029 A 
ATOM     53  C   UNL A   1      42.171  31.499  30.671  1.00  0.00     0.049 A 
ATOM     54  H   UNL A   1      42.472  29.576  29.929  1.00  0.00     0.167 HD
ATOM     55  C   UNL A   1      42.981  25.647  28.056  1.00  0.00     0.037 A 
ATOM     56  C   UNL A   1      43.359  31.953  31.104  1.00  0.00     0.037 A 
ATOM     57  C   UNL A   1      44.271  25.990  28.599  1.00  0.00     0.049 A 
ATOM     58  C   UNL A   1      44.552  31.049  31.019  1.00  0.00     0.074 A 
ATOM     59  C   UNL A   1      45.445  25.258  28.570  1.00  0.00     0.029 A 
ATOM     60  N   UNL A   1      44.559  27.177  29.260  1.00  0.00    -0.354 N 
ATOM     61  N   UNL A   1      44.644  29.861  30.476  1.00  0.00    -0.248 NA
ATOM     62  C   UNL A   1      45.792  31.533  31.636  1.00  0.00     0.031 C 
ATOM     63  C   UNL A   1      46.434  25.986  29.239  1.00  0.00     0.029 A 
ATOM     64  C   UNL A   1      45.888  27.191  29.651  1.00  0.00     0.049 A 
ATOM     65  H   UNL A   1      43.914  27.902  29.425  1.00  0.00     0.167 HD
ATOM     66  C   UNL A   1      45.950  29.447  30.692  1.00  0.00     0.074 A 
ATOM     67  C   UNL A   1      46.621  30.526  31.388  1.00  0.00     0.031 C 
ATOM     68  C   UNL A   1      46.534  28.273  30.351  1.00  0.00     0.037 A 
BRANCH  55  69
ATOM     69  C   UNL A   1      42.839  24.327  27.352  1.00  0.00     0.064 A 
ATOM     70  C   UNL A   1      43.130  24.181  25.988  1.00  0.00     0.173 A 
ATOM     71  C   UNL A   1      42.450  23.181  28.063  1.00  0.00     0.173 A 
ATOM     72  F   UNL A   1      43.496  25.247  25.259  1.00  0.00    -0.203 F 
ATOM     73  C   UNL A   1      43.016  22.944  25.357  1.00  0.00     0.198 A 
ATOM     74  C   UNL A   1      42.363  21.940  27.436  1.00  0.00     0.198 A 
ATOM     75  F   UNL A   1      42.169  23.260  29.373  1.00  0.00    -0.203 F 
ATOM     76  F   UNL A   1      43.261  22.838  24.044  1.00  0.00    -0.200 F 
ATOM     77  C   UNL A   1      42.639  21.824  26.082  1.00  0.00     0.200 A 
ATOM     78  F   UNL A   1      42.012  20.856  28.142  1.00  0.00    -0.200 F 
ATOM     79  F   UNL A   1      42.536  20.633  25.476  1.00  0.00    -0.200 F 
ENDBRANCH  55  69
BRANCH  56  80
ATOM     80  C   UNL A   1      43.456  33.328  31.658  1.00  0.00     0.064 A 
ATOM     81  C   UNL A   1      43.644  34.427  30.808  1.00  0.00     0.173 A 
ATOM     82  C   UNL A   1      43.283  33.580  33.027  1.00  0.00     0.173 A 
ATOM     83  F   UNL A   1      43.832  34.235  29.495  1.00  0.00    -0.203 F 
ATOM     84  C   UNL A   1      43.639  35.727  31.309  1.00  0.00     0.198 A 
ATOM     85  C   UNL A   1      43.248  34.881  33.520  1.00  0.00     0.198 A 
ATOM     86  F   UNL A   1      43.093  32.561  33.877  1.00  0.00    -0.203 F 
ATOM     87  F   UNL A   1      43.831  36.762  30.479  1.00  0.00    -0.200 F 
ATOM     88  C   UNL A   1      43.428  35.955  32.661  1.00  0.00     0.200 A 
ATOM     89  F   UNL A   1      43.018  35.096  34.822  1.00  0.00    -0.200 F 
ATOM     90  F   UNL A   1      43.390  37.207  33.135  1.00  0.00    -0.200 F 
ENDBRANCH  56  80
BRANCH  68  91
ATOM     91  C   UNL A   1      47.973  28.095  30.727  1.00  0.00     0.064 A 
ATOM     92  C   UNL A   1      48.340  27.508  31.946  1.00  0.00     0.173 A 
ATOM     93  C   UNL A   1      48.993  28.464  29.838  1.00  0.00     0.173 A 
ATOM     94  F   UNL A   1      47.399  27.155  32.834  1.00  0.00    -0.203 F 
ATOM     95  C   UNL A   1      49.679  27.308  32.268  1.00  0.00     0.198 A 
ATOM     96  C   UNL A   1      50.330  28.243  30.153  1.00  0.00     0.198 A 
ATOM     97  F   UNL A   1      48.690  29.028  28.659  1.00  0.00    -0.203 F 
ATOM     98  F   UNL A   1      50.010  26.775  33.452  1.00  0.00    -0.200 F 
ATOM     99  C   UNL A   1      50.672  27.668  31.368  1.00  0.00     0.200 A 
ATOM    100  F   UNL A   1      51.288  28.581  29.280  1.00  0.00    -0.200 F 
ATOM    101  F   UNL A   1      51.960  27.465  31.675  1.00  0.00    -0.200 F 
ENDBRANCH  68  91
ENDBRANCH  42  43
ENDBRANCH  34  37
ENDBRANCH  32  33
ENDBRANCH   1  32
TORSDOF 13
ENDMDL
MODEL 3
REMARK VINA RESULT:     -13.0      2.247      7.300
REMARK SMILES COc1cc(/C=C2/CCc3c2nc2ccccc2c3C(=O)NCCCNC(=O)c2ccc(-c3c4nc(c(-c5c(F)c(F)c(F)c(F)c5F)c5ccc([nH]5)c(-c5c(F)c(F)c(F)c(F)c5F)c5nc(c(-c6c(F)c(F)c(F)c(F)c6F)c6ccc3[nH]6)C=C5)C=C4)cc2)cc(Br)c1O
REMARK SMILES IDX 24 1 23 2 22 3 20 4 21 5 19 7 6 8 7 9 8 10 11 11 9 12 10 13
REMARK SMILES IDX 12 14 13 15 18 16 14 17 17 18 15 19 16 20 5 21 3 22 4 23
REMARK SMILES IDX 95 24 93 25 92 26 94 27 2 28 1 29 96 30 25 32 26 33 27 34
REMARK SMILES IDX 28 36 29 37 30 38 91 39 31 40 90 41 32 42 33 43 34 44 84 45
REMARK SMILES IDX 35 46 89 47 83 48 85 49 36 50 88 51 82 52 81 53 37 55 69 56
REMARK SMILES IDX 49 57 68 58 50 59 53 60 67 61 86 62 51 63 52 64 66 66 87 67
REMARK SMILES IDX 54 68 38 69 39 70 47 71 40 72 41 73 45 74 48 75 42 76 43 77
REMARK SMILES IDX 46 78 44 79 70 80 71 81 79 82 72 83 73 84 77 85 80 86 74 87
REMARK SMILES IDX 75 88 78 89 76 90 55 91 56 92 64 93 57 94 58 95 62 96 65 97
REMARK SMILES IDX 59 98 60 99 63 100 61 101
REMARK H PARENT 22 6 96 31 26 35 85 54 53 65
REMARK Flexibility Score: inf
ROOT
ATOM      1  C   UNL A   1      32.115  28.731  27.143  1.00  0.00     0.042 C 
ENDROOT
BRANCH   1   2
ATOM      2  C   UNL A   1      30.880  28.373  26.321  1.00  0.00     0.118 C 
BRANCH   2   3
ATOM      3  N   UNL A   1      31.112  27.632  25.080  1.00  0.00    -0.352 N 
ATOM      4  C   UNL A   1      30.529  26.659  24.287  1.00  0.00     0.252 C 
ATOM      5  O   UNL A   1      29.504  26.050  24.566  1.00  0.00    -0.269 OA
ATOM      6  H   UNL A   1      31.964  27.921  24.679  1.00  0.00     0.163 HD
BRANCH   4   7
ATOM      7  C   UNL A   1      31.315  26.430  22.969  1.00  0.00     0.054 A 
ATOM      8  C   UNL A   1      34.346  26.783  24.772  1.00  0.00     0.014 C 
ATOM      9  C   UNL A   1      34.057  27.455  23.596  1.00  0.00    -0.021 C 
ATOM     10  C   UNL A   1      33.637  28.949  23.613  1.00  0.00     0.042 C 
ATOM     11  C   UNL A   1      33.335  27.110  22.334  1.00  0.00     0.071 A 
ATOM     12  C   UNL A   1      32.196  28.953  22.980  1.00  0.00     0.043 C 
ATOM     13  C   UNL A   1      32.062  27.523  22.562  1.00  0.00    -0.008 A 
ATOM     14  N   UNL A   1      33.599  26.175  21.453  1.00  0.00    -0.248 NA
ATOM     15  C   UNL A   1      32.601  25.340  21.254  1.00  0.00     0.072 A 
ATOM     16  C   UNL A   1      31.784  25.173  22.371  1.00  0.00     0.013 A 
ATOM     17  C   UNL A   1      32.903  24.337  20.364  1.00  0.00     0.029 A 
ATOM     18  C   UNL A   1      32.025  23.896  22.922  1.00  0.00     0.011 A 
ATOM     19  C   UNL A   1      33.245  23.145  20.939  1.00  0.00     0.002 A 
ATOM     20  C   UNL A   1      32.915  22.992  22.274  1.00  0.00     0.001 A 
BRANCH   8  21
ATOM     21  C   UNL A   1      33.927  25.428  25.356  1.00  0.00    -0.020 A 
ATOM     22  C   UNL A   1      32.559  23.934  26.776  1.00  0.00     0.162 A 
ATOM     23  C   UNL A   1      32.754  25.165  26.071  1.00  0.00     0.058 A 
ATOM     24  C   UNL A   1      33.542  22.939  26.744  1.00  0.00     0.172 A 
ATOM     25  C   UNL A   1      34.597  23.089  25.861  1.00  0.00     0.064 A 
ATOM     26  C   UNL A   1      34.727  24.285  25.131  1.00  0.00     0.028 A 
ATOM     27  Br  UNL A   1      35.963  21.770  25.751  1.00  0.00    -0.047 Br
BRANCH  22  28
ATOM     28  O   UNL A   1      31.403  23.866  27.515  1.00  0.00    -0.493 OA
ATOM     29  C   UNL A   1      30.272  23.270  26.876  1.00  0.00     0.278 C 
ENDBRANCH  22  28
BRANCH  24  30
ATOM     30  O   UNL A   1      33.543  21.902  27.640  1.00  0.00    -0.503 OA
ATOM     31  H   UNL A   1      34.243  21.814  28.255  1.00  0.00     0.293 HD
ENDBRANCH  24  30
ENDBRANCH   8  21
ENDBRANCH   4   7
ENDBRANCH   2   3
ENDBRANCH   1   2
BRANCH   1  32
ATOM     32  C   UNL A   1      32.982  29.765  26.403  1.00  0.00     0.118 C 
BRANCH  32  33
ATOM     33  N   UNL A   1      32.817  31.145  26.875  1.00  0.00    -0.352 N 
ATOM     34  C   UNL A   1      33.683  31.924  27.619  1.00  0.00     0.251 C 
ATOM     35  H   UNL A   1      31.968  31.577  26.627  1.00  0.00     0.163 HD
ATOM     36  O   UNL A   1      33.377  33.057  27.969  1.00  0.00    -0.269 OA
BRANCH  34  37
ATOM     37  C   UNL A   1      34.978  31.346  28.026  1.00  0.00     0.039 A 
ATOM     38  C   UNL A   1      35.043  30.000  28.378  1.00  0.00     0.014 A 
ATOM     39  C   UNL A   1      36.090  32.177  28.182  1.00  0.00     0.014 A 
ATOM     40  C   UNL A   1      36.130  29.550  29.110  1.00  0.00     0.010 A 
ATOM     41  C   UNL A   1      37.236  31.682  28.811  1.00  0.00     0.010 A 
ATOM     42  C   UNL A   1      37.241  30.382  29.339  1.00  0.00    -0.014 A 
BRANCH  42  43
ATOM     43  C   UNL A   1      38.385  29.853  30.132  1.00  0.00     0.031 A 
ATOM     44  C   UNL A   1      39.422  28.955  29.509  1.00  0.00     0.074 A 
ATOM     45  C   UNL A   1      38.535  30.273  31.404  1.00  0.00     0.049 A 
ATOM     46  N   UNL A   1      40.478  28.410  30.063  1.00  0.00    -0.248 NA
ATOM     47  C   UNL A   1      39.257  28.618  28.087  1.00  0.00     0.031 C 
ATOM     48  C   UNL A   1      37.611  31.169  32.102  1.00  0.00     0.029 A 
ATOM     49  N   UNL A   1      39.537  30.057  32.314  1.00  0.00    -0.354 N 
ATOM     50  C   UNL A   1      41.078  27.640  29.072  1.00  0.00     0.074 A 
ATOM     51  C   UNL A   1      40.263  27.779  27.884  1.00  0.00     0.031 C 
ATOM     52  C   UNL A   1      38.141  31.515  33.281  1.00  0.00     0.029 A 
ATOM     53  C   UNL A   1      39.387  30.782  33.472  1.00  0.00     0.049 A 
ATOM     54  H   UNL A   1      40.289  29.443  32.155  1.00  0.00     0.167 HD
ATOM     55  C   UNL A   1      42.206  26.893  29.150  1.00  0.00     0.037 A 
ATOM     56  C   UNL A   1      40.154  30.840  34.574  1.00  0.00     0.037 A 
ATOM     57  C   UNL A   1      43.028  26.792  30.330  1.00  0.00     0.049 A 
ATOM     58  C   UNL A   1      41.373  29.973  34.651  1.00  0.00     0.074 A 
ATOM     59  C   UNL A   1      44.180  26.047  30.521  1.00  0.00     0.029 A 
ATOM     60  N   UNL A   1      42.791  27.469  31.519  1.00  0.00    -0.354 N 
ATOM     61  N   UNL A   1      41.889  29.196  33.731  1.00  0.00    -0.248 NA
ATOM     62  C   UNL A   1      42.096  29.962  35.928  1.00  0.00     0.031 C 
ATOM     63  C   UNL A   1      44.621  26.250  31.833  1.00  0.00     0.029 A 
ATOM     64  C   UNL A   1      43.768  27.152  32.449  1.00  0.00     0.049 A 
ATOM     65  H   UNL A   1      42.040  28.085  31.677  1.00  0.00     0.167 HD
ATOM     66  C   UNL A   1      42.992  28.595  34.316  1.00  0.00     0.074 A 
ATOM     67  C   UNL A   1      43.089  29.122  35.663  1.00  0.00     0.031 C 
ATOM     68  C   UNL A   1      43.841  27.682  33.787  1.00  0.00     0.037 A 
BRANCH  55  69
ATOM     69  C   UNL A   1      42.612  26.106  27.937  1.00  0.00     0.064 A 
ATOM     70  C   UNL A   1      42.057  24.851  27.648  1.00  0.00     0.173 A 
ATOM     71  C   UNL A   1      43.537  26.637  27.023  1.00  0.00     0.173 A 
ATOM     72  F   UNL A   1      41.176  24.294  28.493  1.00  0.00    -0.203 F 
ATOM     73  C   UNL A   1      42.428  24.146  26.505  1.00  0.00     0.198 A 
ATOM     74  C   UNL A   1      43.886  25.942  25.867  1.00  0.00     0.198 A 
ATOM     75  F   UNL A   1      44.093  27.838  27.243  1.00  0.00    -0.203 F 
ATOM     76  F   UNL A   1      41.913  22.932  26.272  1.00  0.00    -0.200 F 
ATOM     77  C   UNL A   1      43.337  24.695  25.612  1.00  0.00     0.200 A 
ATOM     78  F   UNL A   1      44.754  26.480  24.998  1.00  0.00    -0.200 F 
ATOM     79  F   UNL A   1      43.687  24.019  24.509  1.00  0.00    -0.200 F 
ENDBRANCH  55  69
BRANCH  56  80
ATOM     80  C   UNL A   1      39.770  31.753  35.681  1.00  0.00     0.064 A 
ATOM     81  C   UNL A   1      40.362  33.018  35.800  1.00  0.00     0.173 A 
ATOM     82  C   UNL A   1      38.754  31.417  36.588  1.00  0.00     0.173 A 
ATOM     83  F   UNL A   1      41.349  33.377  34.967  1.00  0.00    -0.203 F 
ATOM     84  C   UNL A   1      39.940  33.917  36.776  1.00  0.00     0.198 A 
ATOM     85  C   UNL A   1      38.313  32.328  37.543  1.00  0.00     0.198 A 
ATOM     86  F   UNL A   1      38.153  30.221  36.509  1.00  0.00    -0.203 F 
ATOM     87  F   UNL A   1      40.528  35.117  36.877  1.00  0.00    -0.200 F 
ATOM     88  C   UNL A   1      38.907  33.578  37.638  1.00  0.00     0.200 A 
ATOM     89  F   UNL A   1      37.298  32.005  38.356  1.00  0.00    -0.200 F 
ATOM     90  F   UNL A   1      38.479  34.456  38.555  1.00  0.00    -0.200 F 
ENDBRANCH  56  80
BRANCH  68  91
ATOM     91  C   UNL A   1      44.951  27.194  34.667  1.00  0.00     0.064 A 
ATOM     92  C   UNL A   1      44.806  26.039  35.447  1.00  0.00     0.173 A 
ATOM     93  C   UNL A   1      46.187  27.855  34.688  1.00  0.00     0.173 A 
ATOM     94  F   UNL A   1      43.636  25.383  35.472  1.00  0.00    -0.203 F 
ATOM     95  C   UNL A   1      45.858  25.569  36.229  1.00  0.00     0.198 A 
ATOM     96  C   UNL A   1      47.244  27.371  35.453  1.00  0.00     0.198 A 
ATOM     97  F   UNL A   1      46.373  28.964  33.956  1.00  0.00    -0.203 F 
ATOM     98  F   UNL A   1      45.689  24.482  36.994  1.00  0.00    -0.200 F 
ATOM     99  C   UNL A   1      47.077  26.231  36.225  1.00  0.00     0.200 A 
ATOM    100  F   UNL A   1      48.424  28.004  35.441  1.00  0.00    -0.200 F 
ATOM    101  F   UNL A   1      48.091  25.772  36.970  1.00  0.00    -0.200 F 
ENDBRANCH  68  91
ENDBRANCH  42  43
ENDBRANCH  34  37
ENDBRANCH  32  33
ENDBRANCH   1  32
TORSDOF 13
ENDMDL
