MODEL 1
REMARK VINA RESULT:     -13.5      0.000      0.000
REMARK SMILES Cc1ccc(/C=C2/SC(=O)N(CC(=O)NCCCNC(=O)c3ccc(-c4c5nc(c(-c6c(F)c(F)c(F)c(F)c6F)c6ccc([nH]6)c(-c6c(F)c(F)c(F)c(F)c6F)c6nc(c(-c7c(F)c(F)c(F)c(F)c7F)c7ccc4[nH]7)C=C6)C=C5)cc3)C2=O)cc1
REMARK SMILES IDX 17 1 16 2 15 3 13 4 14 5 12 7 11 8 6 9 7 10 8 11 85 12 9 13
REMARK SMILES IDX 86 14 10 15 5 16 1 17 2 18 3 19 88 20 4 21 87 22 18 23 19 24
REMARK SMILES IDX 20 25 21 27 22 28 23 29 84 30 24 31 83 32 25 33 26 34 27 35
REMARK SMILES IDX 77 36 28 37 82 38 76 39 78 40 29 41 81 42 75 43 74 44 30 46
REMARK SMILES IDX 62 47 42 48 61 49 43 50 46 51 60 52 79 53 44 54 45 55 59 57
REMARK SMILES IDX 80 58 47 59 31 60 32 61 40 62 33 63 34 64 38 65 41 66 35 67
REMARK SMILES IDX 36 68 39 69 37 70 63 71 64 72 72 73 65 74 66 75 70 76 73 77
REMARK SMILES IDX 67 78 68 79 71 80 69 81 48 82 49 83 57 84 50 85 51 86 55 87
REMARK SMILES IDX 58 88 52 89 53 90 56 91 54 92
REMARK H PARENT 15 6 19 26 78 45 46 56
REMARK Flexibility Score: inf
ROOT
ATOM      1  C   UNL A   1      31.925  31.144  26.489  1.00  0.00     0.042 C 
ENDROOT
BRANCH   1   2
ATOM      2  C   UNL A   1      31.563  30.125  25.421  1.00  0.00     0.117 C 
BRANCH   2   3
ATOM      3  N   UNL A   1      32.718  29.725  24.641  1.00  0.00    -0.354 N 
ATOM      4  C   UNL A   1      33.322  28.503  24.556  1.00  0.00     0.240 C 
ATOM      5  O   UNL A   1      34.154  28.346  23.662  1.00  0.00    -0.273 OA
ATOM      6  H   UNL A   1      33.125  30.435  24.094  1.00  0.00     0.163 HD
BRANCH   4   7
ATOM      7  C   UNL A   1      32.923  27.354  25.490  1.00  0.00     0.229 C 
BRANCH   7   8
ATOM      8  N   UNL A   1      32.501  26.176  24.754  1.00  0.00    -0.259 N 
ATOM      9  C   UNL A   1      33.196  22.802  23.578  1.00  0.00     0.029 C 
ATOM     10  C   UNL A   1      32.707  24.028  23.819  1.00  0.00     0.083 C 
ATOM     11  S   UNL A   1      31.134  24.536  23.327  1.00  0.00    -0.022 SA
ATOM     12  C   UNL A   1      33.382  25.142  24.549  1.00  0.00     0.268 C 
ATOM     13  C   UNL A   1      31.291  26.093  24.125  1.00  0.00     0.294 C 
ATOM     14  O   UNL A   1      34.548  25.150  24.909  1.00  0.00    -0.268 OA
ATOM     15  O   UNL A   1      30.414  26.934  24.104  1.00  0.00    -0.261 OA
BRANCH   9  16
ATOM     16  C   UNL A   1      34.525  22.368  24.009  1.00  0.00    -0.024 A 
ATOM     17  C   UNL A   1      38.482  21.675  25.553  1.00  0.00     0.044 C 
ATOM     18  C   UNL A   1      37.103  21.850  24.990  1.00  0.00    -0.051 A 
ATOM     19  C   UNL A   1      36.928  22.472  23.748  1.00  0.00     0.004 A 
ATOM     20  C   UNL A   1      35.978  21.434  25.710  1.00  0.00     0.004 A 
ATOM     21  C   UNL A   1      35.646  22.731  23.259  1.00  0.00     0.008 A 
ATOM     22  C   UNL A   1      34.695  21.682  25.217  1.00  0.00     0.008 A 
ENDBRANCH   9  16
ENDBRANCH   7   8
ENDBRANCH   4   7
ENDBRANCH   2   3
ENDBRANCH   1   2
BRANCH   1  23
ATOM     23  C   UNL A   1      32.958  30.635  27.480  1.00  0.00     0.118 C 
BRANCH  23  24
ATOM     24  N   UNL A   1      33.951  31.640  27.860  1.00  0.00    -0.352 N 
ATOM     25  C   UNL A   1      35.220  31.511  28.400  1.00  0.00     0.251 C 
ATOM     26  H   UNL A   1      33.668  32.570  27.705  1.00  0.00     0.163 HD
ATOM     27  O   UNL A   1      35.863  32.518  28.685  1.00  0.00    -0.269 OA
BRANCH  25  28
ATOM     28  C   UNL A   1      35.883  30.185  28.444  1.00  0.00     0.039 A 
ATOM     29  C   UNL A   1      36.110  29.656  29.723  1.00  0.00     0.014 A 
ATOM     30  C   UNL A   1      36.660  29.783  27.373  1.00  0.00     0.014 A 
ATOM     31  C   UNL A   1      37.329  29.054  29.989  1.00  0.00     0.010 A 
ATOM     32  C   UNL A   1      37.939  29.399  27.663  1.00  0.00     0.010 A 
ATOM     33  C   UNL A   1      38.282  29.094  28.985  1.00  0.00    -0.014 A 
BRANCH  33  34
ATOM     34  C   UNL A   1      39.679  28.771  29.155  1.00  0.00     0.031 A 
ATOM     35  C   UNL A   1      40.064  27.386  28.838  1.00  0.00     0.074 A 
ATOM     36  C   UNL A   1      40.552  29.792  29.306  1.00  0.00     0.049 A 
ATOM     37  N   UNL A   1      41.223  26.887  29.055  1.00  0.00    -0.248 NA
ATOM     38  C   UNL A   1      39.131  26.421  28.259  1.00  0.00     0.031 C 
ATOM     39  C   UNL A   1      41.989  29.792  29.056  1.00  0.00     0.029 A 
ATOM     40  N   UNL A   1      40.309  31.049  29.892  1.00  0.00    -0.354 N 
ATOM     41  C   UNL A   1      41.292  25.679  28.394  1.00  0.00     0.074 A 
ATOM     42  C   UNL A   1      39.942  25.397  27.985  1.00  0.00     0.031 C 
ATOM     43  C   UNL A   1      42.552  30.804  29.740  1.00  0.00     0.029 A 
ATOM     44  C   UNL A   1      41.509  31.381  30.570  1.00  0.00     0.049 A 
ATOM     45  H   UNL A   1      39.482  31.582  29.842  1.00  0.00     0.167 HD
ATOM     46  C   UNL A   1      42.532  25.159  28.176  1.00  0.00     0.037 A 
ATOM     47  C   UNL A   1      41.544  31.413  31.936  1.00  0.00     0.037 A 
ATOM     48  C   UNL A   1      43.517  25.955  28.910  1.00  0.00     0.049 A 
ATOM     49  C   UNL A   1      42.461  30.355  32.503  1.00  0.00     0.074 A 
ATOM     50  C   UNL A   1      44.338  27.004  28.531  1.00  0.00     0.029 A 
ATOM     51  N   UNL A   1      43.443  25.988  30.298  1.00  0.00    -0.354 N 
ATOM     52  N   UNL A   1      42.714  29.217  31.913  1.00  0.00    -0.248 NA
ATOM     53  C   UNL A   1      43.217  30.533  33.737  1.00  0.00     0.031 C 
ATOM     54  C   UNL A   1      44.695  27.717  29.707  1.00  0.00     0.029 A 
ATOM     55  C   UNL A   1      44.115  27.086  30.796  1.00  0.00     0.049 A 
ATOM     56  H   UNL A   1      42.976  25.320  30.851  1.00  0.00     0.167 HD
ATOM     57  C   UNL A   1      43.666  28.539  32.631  1.00  0.00     0.074 A 
ATOM     58  C   UNL A   1      43.940  29.401  33.766  1.00  0.00     0.031 C 
ATOM     59  C   UNL A   1      44.183  27.339  32.228  1.00  0.00     0.037 A 
BRANCH  46  60
ATOM     60  C   UNL A   1      42.910  24.123  27.137  1.00  0.00     0.064 A 
ATOM     61  C   UNL A   1      42.587  22.763  27.358  1.00  0.00     0.173 A 
ATOM     62  C   UNL A   1      43.638  24.360  25.955  1.00  0.00     0.173 A 
ATOM     63  F   UNL A   1      41.849  22.380  28.408  1.00  0.00    -0.203 F 
ATOM     64  C   UNL A   1      43.013  21.736  26.512  1.00  0.00     0.198 A 
ATOM     65  C   UNL A   1      44.081  23.328  25.118  1.00  0.00     0.198 A 
ATOM     66  F   UNL A   1      43.929  25.590  25.531  1.00  0.00    -0.203 F 
ATOM     67  F   UNL A   1      42.687  20.466  26.794  1.00  0.00    -0.200 F 
ATOM     68  C   UNL A   1      43.774  22.016  25.400  1.00  0.00     0.200 A 
ATOM     69  F   UNL A   1      44.808  23.626  24.031  1.00  0.00    -0.200 F 
ATOM     70  F   UNL A   1      44.198  21.031  24.596  1.00  0.00    -0.200 F 
ENDBRANCH  46  60
BRANCH  47  71
ATOM     71  C   UNL A   1      40.251  31.884  32.513  1.00  0.00     0.064 A 
ATOM     72  C   UNL A   1      39.890  33.220  32.238  1.00  0.00     0.173 A 
ATOM     73  C   UNL A   1      39.220  30.990  32.828  1.00  0.00     0.173 A 
ATOM     74  F   UNL A   1      40.842  34.125  31.962  1.00  0.00    -0.203 F 
ATOM     75  C   UNL A   1      38.556  33.591  32.081  1.00  0.00     0.198 A 
ATOM     76  C   UNL A   1      37.882  31.379  32.704  1.00  0.00     0.198 A 
ATOM     77  F   UNL A   1      39.494  29.709  33.112  1.00  0.00    -0.203 F 
ATOM     78  F   UNL A   1      38.252  34.822  31.645  1.00  0.00    -0.200 F 
ATOM     79  C   UNL A   1      37.555  32.657  32.272  1.00  0.00     0.200 A 
ATOM     80  F   UNL A   1      36.905  30.480  32.897  1.00  0.00    -0.200 F 
ATOM     81  F   UNL A   1      36.281  32.971  31.995  1.00  0.00    -0.200 F 
ENDBRANCH  47  71
BRANCH  59  82
ATOM     82  C   UNL A   1      44.909  26.346  33.112  1.00  0.00     0.064 A 
ATOM     83  C   UNL A   1      44.278  25.567  34.097  1.00  0.00     0.173 A 
ATOM     84  C   UNL A   1      46.273  26.026  32.881  1.00  0.00     0.173 A 
ATOM     85  F   UNL A   1      42.960  25.644  34.316  1.00  0.00    -0.203 F 
ATOM     86  C   UNL A   1      44.973  24.621  34.856  1.00  0.00     0.198 A 
ATOM     87  C   UNL A   1      46.941  25.025  33.584  1.00  0.00     0.198 A 
ATOM     88  F   UNL A   1      47.000  26.647  31.943  1.00  0.00    -0.203 F 
ATOM     89  F   UNL A   1      44.333  23.958  35.828  1.00  0.00    -0.200 F 
ATOM     90  C   UNL A   1      46.298  24.342  34.593  1.00  0.00     0.200 A 
ATOM     91  F   UNL A   1      48.204  24.714  33.259  1.00  0.00    -0.200 F 
ATOM     92  F   UNL A   1      46.946  23.400  35.290  1.00  0.00    -0.200 F 
ENDBRANCH  59  82
ENDBRANCH  33  34
ENDBRANCH  25  28
ENDBRANCH  23  24
ENDBRANCH   1  23
TORSDOF 12
ENDMDL
MODEL 2
REMARK VINA RESULT:     -13.4      2.812      9.230
REMARK SMILES Cc1ccc(/C=C2/SC(=O)N(CC(=O)NCCCNC(=O)c3ccc(-c4c5nc(c(-c6c(F)c(F)c(F)c(F)c6F)c6ccc([nH]6)c(-c6c(F)c(F)c(F)c(F)c6F)c6nc(c(-c7c(F)c(F)c(F)c(F)c7F)c7ccc4[nH]7)C=C6)C=C5)cc3)C2=O)cc1
REMARK SMILES IDX 17 1 16 2 15 3 13 4 14 5 12 7 11 8 6 9 7 10 8 11 85 12 9 13
REMARK SMILES IDX 86 14 10 15 5 16 1 17 2 18 3 19 88 20 4 21 87 22 18 23 19 24
REMARK SMILES IDX 20 25 21 27 22 28 23 29 84 30 24 31 83 32 25 33 26 34 27 35
REMARK SMILES IDX 77 36 28 37 82 38 76 39 78 40 29 41 81 42 75 43 74 44 30 46
REMARK SMILES IDX 62 47 42 48 61 49 43 50 46 51 60 52 79 53 44 54 45 55 59 57
REMARK SMILES IDX 80 58 47 59 31 60 32 61 40 62 33 63 34 64 38 65 41 66 35 67
REMARK SMILES IDX 36 68 39 69 37 70 63 71 64 72 72 73 65 74 66 75 70 76 73 77
REMARK SMILES IDX 67 78 68 79 71 80 69 81 48 82 49 83 57 84 50 85 51 86 55 87
REMARK SMILES IDX 58 88 52 89 53 90 56 91 54 92
REMARK H PARENT 15 6 19 26 78 45 46 56
REMARK Flexibility Score: inf
ROOT
ATOM      1  C   UNL A   1      37.908  20.623  25.178  1.00  0.00     0.042 C 
ENDROOT
BRANCH   1   2
ATOM      2  C   UNL A   1      36.391  20.603  25.094  1.00  0.00     0.117 C 
BRANCH   2   3
ATOM      3  N   UNL A   1      35.777  21.260  26.232  1.00  0.00    -0.354 N 
ATOM      4  C   UNL A   1      35.024  22.399  26.268  1.00  0.00     0.240 C 
ATOM      5  O   UNL A   1      34.427  22.647  27.317  1.00  0.00    -0.273 OA
ATOM      6  H   UNL A   1      35.924  20.824  27.102  1.00  0.00     0.163 HD
BRANCH   4   7
ATOM      7  C   UNL A   1      34.872  23.290  25.029  1.00  0.00     0.229 C 
BRANCH   7   8
ATOM      8  N   UNL A   1      33.495  23.705  24.824  1.00  0.00    -0.259 N 
ATOM      9  C   UNL A   1      30.942  26.292  25.026  1.00  0.00     0.029 C 
ATOM     10  C   UNL A   1      31.647  25.158  24.899  1.00  0.00     0.083 C 
ATOM     11  S   UNL A   1      30.997  23.707  24.229  1.00  0.00    -0.022 SA
ATOM     12  C   UNL A   1      33.077  24.935  25.270  1.00  0.00     0.268 C 
ATOM     13  C   UNL A   1      32.539  22.870  24.320  1.00  0.00     0.294 C 
ATOM     14  O   UNL A   1      33.779  25.720  25.887  1.00  0.00    -0.268 OA
ATOM     15  O   UNL A   1      32.684  21.719  23.960  1.00  0.00    -0.261 OA
BRANCH   9  16
ATOM     16  C   UNL A   1      31.500  27.526  25.581  1.00  0.00    -0.024 A 
ATOM     17  C   UNL A   1      33.676  30.809  27.316  1.00  0.00     0.044 C 
ATOM     18  C   UNL A   1      32.864  29.709  26.700  1.00  0.00    -0.051 A 
ATOM     19  C   UNL A   1      32.156  28.820  27.518  1.00  0.00     0.004 A 
ATOM     20  C   UNL A   1      32.833  29.532  25.313  1.00  0.00     0.004 A 
ATOM     21  C   UNL A   1      31.477  27.733  26.963  1.00  0.00     0.008 A 
ATOM     22  C   UNL A   1      32.147  28.452  24.755  1.00  0.00     0.008 A 
ENDBRANCH   9  16
ENDBRANCH   7   8
ENDBRANCH   4   7
ENDBRANCH   2   3
ENDBRANCH   1   2
BRANCH   1  23
ATOM     23  C   UNL A   1      38.482  22.018  25.351  1.00  0.00     0.118 C 
BRANCH  23  24
ATOM     24  N   UNL A   1      39.689  22.059  26.176  1.00  0.00    -0.352 N 
ATOM     25  C   UNL A   1      40.362  23.120  26.760  1.00  0.00     0.251 C 
ATOM     26  H   UNL A   1      40.095  21.178  26.345  1.00  0.00     0.163 HD
ATOM     27  O   UNL A   1      41.399  22.911  27.381  1.00  0.00    -0.269 OA
BRANCH  25  28
ATOM     28  C   UNL A   1      39.734  24.463  26.816  1.00  0.00     0.039 A 
ATOM     29  C   UNL A   1      40.381  25.472  26.088  1.00  0.00     0.014 A 
ATOM     30  C   UNL A   1      38.923  24.784  27.889  1.00  0.00     0.014 A 
ATOM     31  C   UNL A   1      40.529  26.722  26.668  1.00  0.00     0.010 A 
ATOM     32  C   UNL A   1      39.243  25.926  28.569  1.00  0.00     0.010 A 
ATOM     33  C   UNL A   1      40.097  26.863  27.976  1.00  0.00    -0.014 A 
BRANCH  33  34
ATOM     34  C   UNL A   1      40.402  27.984  28.833  1.00  0.00     0.031 A 
ATOM     35  C   UNL A   1      39.432  29.091  28.818  1.00  0.00     0.074 A 
ATOM     36  C   UNL A   1      41.364  27.823  29.769  1.00  0.00     0.049 A 
ATOM     37  N   UNL A   1      39.602  30.215  29.406  1.00  0.00    -0.248 NA
ATOM     38  C   UNL A   1      38.165  29.020  28.090  1.00  0.00     0.031 C 
ATOM     39  C   UNL A   1      41.559  28.582  30.999  1.00  0.00     0.029 A 
ATOM     40  N   UNL A   1      42.497  26.991  29.699  1.00  0.00    -0.354 N 
ATOM     41  C   UNL A   1      38.396  30.881  29.401  1.00  0.00     0.074 A 
ATOM     42  C   UNL A   1      37.558  30.135  28.501  1.00  0.00     0.031 C 
ATOM     43  C   UNL A   1      42.832  28.438  31.404  1.00  0.00     0.029 A 
ATOM     44  C   UNL A   1      43.527  27.711  30.356  1.00  0.00     0.049 A 
ATOM     45  H   UNL A   1      42.560  26.100  29.284  1.00  0.00     0.167 HD
ATOM     46  C   UNL A   1      38.249  31.909  30.283  1.00  0.00     0.037 A 
ATOM     47  C   UNL A   1      44.583  28.208  29.646  1.00  0.00     0.037 A 
ATOM     48  C   UNL A   1      39.543  32.189  30.907  1.00  0.00     0.049 A 
ATOM     49  C   UNL A   1      44.617  29.717  29.664  1.00  0.00     0.074 A 
ATOM     50  C   UNL A   1      40.109  31.783  32.104  1.00  0.00     0.029 A 
ATOM     51  N   UNL A   1      40.588  32.629  30.101  1.00  0.00    -0.354 N 
ATOM     52  N   UNL A   1      43.555  30.469  29.784  1.00  0.00    -0.248 NA
ATOM     53  C   UNL A   1      45.854  30.489  29.625  1.00  0.00     0.031 C 
ATOM     54  C   UNL A   1      41.519  31.912  31.979  1.00  0.00     0.029 A 
ATOM     55  C   UNL A   1      41.803  32.421  30.722  1.00  0.00     0.049 A 
ATOM     56  H   UNL A   1      40.476  33.034  29.210  1.00  0.00     0.167 HD
ATOM     57  C   UNL A   1      43.940  31.782  29.879  1.00  0.00     0.074 A 
ATOM     58  C   UNL A   1      45.386  31.741  29.765  1.00  0.00     0.031 C 
ATOM     59  C   UNL A   1      43.051  32.803  30.076  1.00  0.00     0.037 A 
BRANCH  46  60
ATOM     60  C   UNL A   1      36.944  32.497  30.780  1.00  0.00     0.064 A 
ATOM     61  C   UNL A   1      36.202  33.360  29.938  1.00  0.00     0.173 A 
ATOM     62  C   UNL A   1      36.394  32.329  32.065  1.00  0.00     0.173 A 
ATOM     63  F   UNL A   1      36.563  33.579  28.667  1.00  0.00    -0.203 F 
ATOM     64  C   UNL A   1      35.060  34.041  30.369  1.00  0.00     0.198 A 
ATOM     65  C   UNL A   1      35.260  33.025  32.502  1.00  0.00     0.198 A 
ATOM     66  F   UNL A   1      36.896  31.465  32.948  1.00  0.00    -0.203 F 
ATOM     67  F   UNL A   1      34.419  34.860  29.523  1.00  0.00    -0.200 F 
ATOM     68  C   UNL A   1      34.597  33.887  31.656  1.00  0.00     0.200 A 
ATOM     69  F   UNL A   1      34.817  32.848  33.755  1.00  0.00    -0.200 F 
ATOM     70  F   UNL A   1      33.512  34.551  32.076  1.00  0.00    -0.200 F 
ENDBRANCH  46  60
BRANCH  47  71
ATOM     71  C   UNL A   1      44.956  27.315  28.509  1.00  0.00     0.064 A 
ATOM     72  C   UNL A   1      45.496  26.057  28.850  1.00  0.00     0.173 A 
ATOM     73  C   UNL A   1      44.353  27.438  27.252  1.00  0.00     0.173 A 
ATOM     74  F   UNL A   1      46.114  25.893  30.031  1.00  0.00    -0.203 F 
ATOM     75  C   UNL A   1      45.257  24.931  28.065  1.00  0.00     0.198 A 
ATOM     76  C   UNL A   1      44.149  26.310  26.450  1.00  0.00     0.198 A 
ATOM     77  F   UNL A   1      43.831  28.608  26.860  1.00  0.00    -0.203 F 
ATOM     78  F   UNL A   1      45.629  23.720  28.504  1.00  0.00    -0.200 F 
ATOM     79  C   UNL A   1      44.545  25.053  26.886  1.00  0.00     0.200 A 
ATOM     80  F   UNL A   1      43.467  26.422  25.301  1.00  0.00    -0.200 F 
ATOM     81  F   UNL A   1      44.200  23.957  26.194  1.00  0.00    -0.200 F 
ENDBRANCH  47  71
BRANCH  59  82
ATOM     82  C   UNL A   1      43.310  34.269  29.798  1.00  0.00     0.064 A 
ATOM     83  C   UNL A   1      43.451  35.243  30.802  1.00  0.00     0.173 A 
ATOM     84  C   UNL A   1      43.589  34.724  28.482  1.00  0.00     0.173 A 
ATOM     85  F   UNL A   1      43.374  34.930  32.100  1.00  0.00    -0.203 F 
ATOM     86  C   UNL A   1      43.744  36.577  30.507  1.00  0.00     0.198 A 
ATOM     87  C   UNL A   1      43.962  36.037  28.202  1.00  0.00     0.198 A 
ATOM     88  F   UNL A   1      43.545  33.905  27.423  1.00  0.00    -0.203 F 
ATOM     89  F   UNL A   1      43.797  37.475  31.501  1.00  0.00    -0.200 F 
ATOM     90  C   UNL A   1      44.011  36.972  29.212  1.00  0.00     0.200 A 
ATOM     91  F   UNL A   1      44.295  36.381  26.950  1.00  0.00    -0.200 F 
ATOM     92  F   UNL A   1      44.340  38.241  28.942  1.00  0.00    -0.200 F 
ENDBRANCH  59  82
ENDBRANCH  33  34
ENDBRANCH  25  28
ENDBRANCH  23  24
ENDBRANCH   1  23
TORSDOF 12
ENDMDL
MODEL 3
REMARK VINA RESULT:     -13.1      3.159      9.566
REMARK SMILES Cc1ccc(/C=C2/SC(=O)N(CC(=O)NCCCNC(=O)c3ccc(-c4c5nc(c(-c6c(F)c(F)c(F)c(F)c6F)c6ccc([nH]6)c(-c6c(F)c(F)c(F)c(F)c6F)c6nc(c(-c7c(F)c(F)c(F)c(F)c7F)c7ccc4[nH]7)C=C6)C=C5)cc3)C2=O)cc1
REMARK SMILES IDX 17 1 16 2 15 3 13 4 14 5 12 7 11 8 6 9 7 10 8 11 85 12 9 13
REMARK SMILES IDX 86 14 10 15 5 16 1 17 2 18 3 19 88 20 4 21 87 22 18 23 19 24
REMARK SMILES IDX 20 25 21 27 22 28 23 29 84 30 24 31 83 32 25 33 26 34 27 35
REMARK SMILES IDX 77 36 28 37 82 38 76 39 78 40 29 41 81 42 75 43 74 44 30 46
REMARK SMILES IDX 62 47 42 48 61 49 43 50 46 51 60 52 79 53 44 54 45 55 59 57
REMARK SMILES IDX 80 58 47 59 31 60 32 61 40 62 33 63 34 64 38 65 41 66 35 67
REMARK SMILES IDX 36 68 39 69 37 70 63 71 64 72 72 73 65 74 66 75 70 76 73 77
REMARK SMILES IDX 67 78 68 79 71 80 69 81 48 82 49 83 57 84 50 85 51 86 55 87
REMARK SMILES IDX 58 88 52 89 53 90 56 91 54 92
REMARK H PARENT 15 6 19 26 78 45 46 56
REMARK Flexibility Score: inf
ROOT
ATOM      1  C   UNL A   1      38.493  21.256  25.455  1.00  0.00     0.042 C 
ENDROOT
BRANCH   1   2
ATOM      2  C   UNL A   1      37.079  20.943  24.999  1.00  0.00     0.117 C 
BRANCH   2   3
ATOM      3  N   UNL A   1      36.644  21.829  23.936  1.00  0.00    -0.354 N 
ATOM      4  C   UNL A   1      35.499  22.567  23.842  1.00  0.00     0.240 C 
ATOM      5  O   UNL A   1      35.446  23.414  22.949  1.00  0.00    -0.273 OA
ATOM      6  H   UNL A   1      37.262  21.910  23.174  1.00  0.00     0.163 HD
BRANCH   4   7
ATOM      7  C   UNL A   1      34.359  22.397  24.853  1.00  0.00     0.229 C 
BRANCH   7   8
ATOM      8  N   UNL A   1      33.189  23.177  24.490  1.00  0.00    -0.259 N 
ATOM      9  C   UNL A   1      31.338  26.307  24.657  1.00  0.00     0.029 C 
ATOM     10  C   UNL A   1      31.763  25.047  24.478  1.00  0.00     0.083 C 
ATOM     11  S   UNL A   1      30.930  23.895  23.501  1.00  0.00    -0.022 SA
ATOM     12  C   UNL A   1      32.997  24.421  25.040  1.00  0.00     0.268 C 
ATOM     13  C   UNL A   1      32.180  22.678  23.717  1.00  0.00     0.294 C 
ATOM     14  O   UNL A   1      33.730  24.926  25.875  1.00  0.00    -0.268 OA
ATOM     15  O   UNL A   1      32.114  21.573  23.216  1.00  0.00    -0.261 OA
BRANCH   9  16
ATOM     16  C   UNL A   1      32.053  27.288  25.475  1.00  0.00    -0.024 A 
ATOM     17  C   UNL A   1      33.750  30.605  27.628  1.00  0.00     0.044 C 
ATOM     18  C   UNL A   1      33.204  29.407  26.911  1.00  0.00    -0.051 A 
ATOM     19  C   UNL A   1      33.646  29.104  25.618  1.00  0.00     0.004 A 
ATOM     20  C   UNL A   1      32.224  28.603  27.503  1.00  0.00     0.004 A 
ATOM     21  C   UNL A   1      33.074  28.050  24.901  1.00  0.00     0.008 A 
ATOM     22  C   UNL A   1      31.659  27.542  26.793  1.00  0.00     0.008 A 
ENDBRANCH   9  16
ENDBRANCH   7   8
ENDBRANCH   4   7
ENDBRANCH   2   3
ENDBRANCH   1   2
BRANCH   1  23
ATOM     23  C   UNL A   1      38.622  22.613  26.126  1.00  0.00     0.118 C 
BRANCH  23  24
ATOM     24  N   UNL A   1      39.885  22.797  26.842  1.00  0.00    -0.352 N 
ATOM     25  C   UNL A   1      40.532  23.943  27.273  1.00  0.00     0.251 C 
ATOM     26  H   UNL A   1      40.357  21.959  27.054  1.00  0.00     0.163 HD
ATOM     27  O   UNL A   1      41.625  23.851  27.823  1.00  0.00    -0.269 OA
BRANCH  25  28
ATOM     28  C   UNL A   1      39.827  25.249  27.262  1.00  0.00     0.039 A 
ATOM     29  C   UNL A   1      40.363  26.227  26.411  1.00  0.00     0.014 A 
ATOM     30  C   UNL A   1      39.069  25.615  28.358  1.00  0.00     0.014 A 
ATOM     31  C   UNL A   1      40.471  27.528  26.874  1.00  0.00     0.010 A 
ATOM     32  C   UNL A   1      39.360  26.827  28.919  1.00  0.00     0.010 A 
ATOM     33  C   UNL A   1      40.115  27.756  28.193  1.00  0.00    -0.014 A 
BRANCH  33  34
ATOM     34  C   UNL A   1      40.404  28.962  28.933  1.00  0.00     0.031 A 
ATOM     35  C   UNL A   1      39.332  29.970  28.968  1.00  0.00     0.074 A 
ATOM     36  C   UNL A   1      41.481  28.962  29.750  1.00  0.00     0.049 A 
ATOM     37  N   UNL A   1      39.457  31.146  29.459  1.00  0.00    -0.248 NA
ATOM     38  C   UNL A   1      38.002  29.728  28.411  1.00  0.00     0.031 C 
ATOM     39  C   UNL A   1      41.742  29.826  30.895  1.00  0.00     0.029 A 
ATOM     40  N   UNL A   1      42.677  28.235  29.592  1.00  0.00    -0.354 N 
ATOM     41  C   UNL A   1      38.197  31.696  29.562  1.00  0.00     0.074 A 
ATOM     42  C   UNL A   1      37.339  30.809  28.822  1.00  0.00     0.031 C 
ATOM     43  C   UNL A   1      43.063  29.832  31.146  1.00  0.00     0.029 A 
ATOM     44  C   UNL A   1      43.699  29.094  30.068  1.00  0.00     0.049 A 
ATOM     45  H   UNL A   1      42.780  27.325  29.229  1.00  0.00     0.167 HD
ATOM     46  C   UNL A   1      38.052  32.769  30.388  1.00  0.00     0.037 A 
ATOM     47  C   UNL A   1      44.608  29.633  29.201  1.00  0.00     0.037 A 
ATOM     48  C   UNL A   1      39.376  33.214  30.826  1.00  0.00     0.049 A 
ATOM     49  C   UNL A   1      44.491  31.136  29.119  1.00  0.00     0.074 A 
ATOM     50  C   UNL A   1      40.117  32.953  31.967  1.00  0.00     0.029 A 
ATOM     51  N   UNL A   1      40.268  33.687  29.870  1.00  0.00    -0.354 N 
ATOM     52  N   UNL A   1      43.380  31.792  29.323  1.00  0.00    -0.248 NA
ATOM     53  C   UNL A   1      45.630  32.013  28.877  1.00  0.00     0.031 C 
ATOM     54  C   UNL A   1      41.482  33.203  31.659  1.00  0.00     0.029 A 
ATOM     55  C   UNL A   1      41.563  33.639  30.346  1.00  0.00     0.049 A 
ATOM     56  H   UNL A   1      40.012  34.012  28.976  1.00  0.00     0.167 HD
ATOM     57  C   UNL A   1      43.639  33.140  29.286  1.00  0.00     0.074 A 
ATOM     58  C   UNL A   1      45.058  33.224  28.995  1.00  0.00     0.031 C 
ATOM     59  C   UNL A   1      42.681  34.085  29.526  1.00  0.00     0.037 A 
BRANCH  46  60
ATOM     60  C   UNL A   1      36.762  33.270  31.005  1.00  0.00     0.064 A 
ATOM     61  C   UNL A   1      35.806  33.921  30.191  1.00  0.00     0.173 A 
ATOM     62  C   UNL A   1      36.421  33.218  32.371  1.00  0.00     0.173 A 
ATOM     63  F   UNL A   1      35.957  34.004  28.863  1.00  0.00    -0.203 F 
ATOM     64  C   UNL A   1      34.655  34.522  30.708  1.00  0.00     0.198 A 
ATOM     65  C   UNL A   1      35.277  33.836  32.890  1.00  0.00     0.198 A 
ATOM     66  F   UNL A   1      37.148  32.545  33.263  1.00  0.00    -0.203 F 
ATOM     67  F   UNL A   1      33.801  35.141  29.879  1.00  0.00    -0.200 F 
ATOM     68  C   UNL A   1      34.397  34.494  32.060  1.00  0.00     0.200 A 
ATOM     69  F   UNL A   1      35.037  33.783  34.209  1.00  0.00    -0.200 F 
ATOM     70  F   UNL A   1      33.302  35.084  32.559  1.00  0.00    -0.200 F 
ENDBRANCH  46  60
BRANCH  47  71
ATOM     71  C   UNL A   1      44.933  28.695  28.086  1.00  0.00     0.064 A 
ATOM     72  C   UNL A   1      45.614  27.511  28.439  1.00  0.00     0.173 A 
ATOM     73  C   UNL A   1      44.188  28.680  26.900  1.00  0.00     0.173 A 
ATOM     74  F   UNL A   1      46.369  27.481  29.550  1.00  0.00    -0.203 F 
ATOM     75  C   UNL A   1      45.391  26.317  27.756  1.00  0.00     0.198 A 
ATOM     76  C   UNL A   1      43.998  27.486  26.197  1.00  0.00     0.198 A 
ATOM     77  F   UNL A   1      43.526  29.775  26.500  1.00  0.00    -0.203 F 
ATOM     78  F   UNL A   1      45.912  25.173  28.222  1.00  0.00    -0.200 F 
ATOM     79  C   UNL A   1      44.548  26.299  26.660  1.00  0.00     0.200 A 
ATOM     80  F   UNL A   1      43.188  27.463  25.128  1.00  0.00    -0.200 F 
ATOM     81  F   UNL A   1      44.227  25.133  26.079  1.00  0.00    -0.200 F 
ENDBRANCH  47  71
BRANCH  59  82
ATOM     82  C   UNL A   1      42.756  35.544  29.126  1.00  0.00     0.064 A 
ATOM     83  C   UNL A   1      42.082  36.088  28.019  1.00  0.00     0.173 A 
ATOM     84  C   UNL A   1      43.403  36.496  29.958  1.00  0.00     0.173 A 
ATOM     85  F   UNL A   1      41.301  35.338  27.234  1.00  0.00    -0.203 F 
ATOM     86  C   UNL A   1      42.134  37.451  27.714  1.00  0.00     0.198 A 
ATOM     87  C   UNL A   1      43.382  37.864  29.694  1.00  0.00     0.198 A 
ATOM     88  F   UNL A   1      44.049  36.140  31.077  1.00  0.00    -0.203 F 
ATOM     89  F   UNL A   1      41.528  37.901  26.606  1.00  0.00    -0.200 F 
ATOM     90  C   UNL A   1      42.772  38.339  28.555  1.00  0.00     0.200 A 
ATOM     91  F   UNL A   1      43.938  38.717  30.566  1.00  0.00    -0.200 F 
ATOM     92  F   UNL A   1      42.775  39.650  28.283  1.00  0.00    -0.200 F 
ENDBRANCH  59  82
ENDBRANCH  33  34
ENDBRANCH  25  28
ENDBRANCH  23  24
ENDBRANCH   1  23
TORSDOF 12
ENDMDL
