MODEL 1
REMARK VINA RESULT:     -11.9      0.000      0.000
REMARK SMILES COc1ccc([C@H](CC(=O)NCCCNC(=O)c2ccc(-c3c4nc(c(-c5c(F)c(F)c(F)c(F)c5F)c5ccc([nH]5)c(-c5c(F)c(F)c(F)c(F)c5F)c5nc(c(-c6c(F)c(F)c(F)c(F)c6F)c6ccc3[nH]6)C=C5)C=C4)cc2)NC(C)=O)cc1
REMARK SMILES IDX 12 1 11 2 9 3 10 4 8 6 7 7 6 8 3 9 4 10 86 11 5 12 85 13
REMARK SMILES IDX 2 14 1 15 81 16 82 17 83 19 84 20 13 21 14 22 15 23 16 24
REMARK SMILES IDX 17 26 18 27 19 28 80 29 20 30 79 31 21 32 22 33 23 34 73 35
REMARK SMILES IDX 24 36 78 37 72 38 74 39 25 40 77 41 71 42 70 43 26 45 58 46
REMARK SMILES IDX 38 47 57 48 39 49 42 50 56 51 75 52 40 53 41 54 55 56 76 57
REMARK SMILES IDX 43 58 27 59 28 60 36 61 29 62 30 63 34 64 37 65 31 66 32 67
REMARK SMILES IDX 35 68 33 69 59 70 60 71 68 72 61 73 62 74 66 75 69 76 63 77
REMARK SMILES IDX 64 78 67 79 65 80 44 81 45 82 53 83 46 84 47 85 51 86 54 87
REMARK SMILES IDX 48 88 49 89 52 90 50 91
REMARK H PARENT 11 5 81 18 15 25 74 44 42 55
REMARK Flexibility Score: inf
ROOT
ATOM      1  C   UNL A   1      36.793  20.337  24.609  1.00  0.00     0.117 C 
ENDROOT
BRANCH   1   2
ATOM      2  N   UNL A   1      35.992  20.711  25.762  1.00  0.00    -0.356 N 
ATOM      3  C   UNL A   1      34.804  21.375  25.827  1.00  0.00     0.222 C 
ATOM      4  O   UNL A   1      34.343  21.627  26.940  1.00  0.00    -0.275 OA
ATOM      5  H   UNL A   1      36.366  20.443  26.632  1.00  0.00     0.163 HD
BRANCH   3   6
ATOM      6  C   UNL A   1      34.051  21.744  24.566  1.00  0.00     0.129 C 
BRANCH   6   7
ATOM      7  C   UNL A   1      32.634  21.137  24.522  1.00  0.00     0.121 C 
BRANCH   7   8
ATOM      8  C   UNL A   1      32.638  19.612  24.492  1.00  0.00    -0.025 A 
ATOM      9  C   UNL A   1      32.929  16.813  24.394  1.00  0.00     0.118 A 
ATOM     10  C   UNL A   1      32.938  17.562  23.220  1.00  0.00     0.047 A 
ATOM     11  C   UNL A   1      32.717  17.451  25.615  1.00  0.00     0.047 A 
ATOM     12  C   UNL A   1      32.757  18.945  23.264  1.00  0.00     0.010 A 
ATOM     13  C   UNL A   1      32.560  18.840  25.662  1.00  0.00     0.010 A 
BRANCH   9  14
ATOM     14  O   UNL A   1      33.227  15.487  24.255  1.00  0.00    -0.497 OA
ATOM     15  C   UNL A   1      32.901  14.685  25.384  1.00  0.00     0.278 C 
ENDBRANCH   9  14
ENDBRANCH   7   8
BRANCH   7  16
ATOM     16  N   UNL A   1      31.840  21.572  25.664  1.00  0.00    -0.349 N 
ATOM     17  C   UNL A   1      31.007  22.665  25.600  1.00  0.00     0.217 C 
ATOM     18  H   UNL A   1      31.899  21.066  26.507  1.00  0.00     0.164 HD
ATOM     19  C   UNL A   1      30.258  22.945  26.876  1.00  0.00     0.114 C 
ATOM     20  O   UNL A   1      30.873  23.365  24.606  1.00  0.00    -0.275 OA
ENDBRANCH   7  16
ENDBRANCH   6   7
ENDBRANCH   3   6
ENDBRANCH   1   2
BRANCH   1  21
ATOM     21  C   UNL A   1      37.916  19.383  25.003  1.00  0.00     0.042 C 
BRANCH  21  22
ATOM     22  C   UNL A   1      39.057  20.038  25.768  1.00  0.00     0.118 C 
BRANCH  22  23
ATOM     23  N   UNL A   1      40.184  19.139  25.955  1.00  0.00    -0.352 N 
ATOM     24  C   UNL A   1      41.520  19.399  26.126  1.00  0.00     0.251 C 
ATOM     25  H   UNL A   1      39.948  18.184  25.959  1.00  0.00     0.163 HD
ATOM     26  O   UNL A   1      42.316  18.465  26.060  1.00  0.00    -0.269 OA
BRANCH  24  27
ATOM     27  C   UNL A   1      42.029  20.768  26.391  1.00  0.00     0.039 A 
ATOM     28  C   UNL A   1      42.251  21.148  27.720  1.00  0.00     0.014 A 
ATOM     29  C   UNL A   1      42.199  21.711  25.374  1.00  0.00     0.014 A 
ATOM     30  C   UNL A   1      42.652  22.453  28.024  1.00  0.00     0.010 A 
ATOM     31  C   UNL A   1      42.685  22.985  25.668  1.00  0.00     0.010 A 
ATOM     32  C   UNL A   1      42.881  23.382  26.999  1.00  0.00    -0.014 A 
BRANCH  32  33
ATOM     33  C   UNL A   1      43.241  24.793  27.303  1.00  0.00     0.031 A 
ATOM     34  C   UNL A   1      44.632  25.291  27.011  1.00  0.00     0.074 A 
ATOM     35  C   UNL A   1      42.337  25.618  27.867  1.00  0.00     0.049 A 
ATOM     36  N   UNL A   1      45.167  26.461  27.258  1.00  0.00    -0.248 NA
ATOM     37  C   UNL A   1      45.559  24.334  26.383  1.00  0.00     0.031 C 
ATOM     38  C   UNL A   1      40.969  25.253  28.231  1.00  0.00     0.029 A 
ATOM     39  N   UNL A   1      42.441  26.936  28.238  1.00  0.00    -0.354 N 
ATOM     40  C   UNL A   1      46.490  26.369  26.842  1.00  0.00     0.074 A 
ATOM     41  C   UNL A   1      46.694  25.016  26.377  1.00  0.00     0.031 C 
ATOM     42  C   UNL A   1      40.352  26.327  28.751  1.00  0.00     0.029 A 
ATOM     43  C   UNL A   1      41.289  27.445  28.786  1.00  0.00     0.049 A 
ATOM     44  H   UNL A   1      43.263  27.465  28.122  1.00  0.00     0.167 HD
ATOM     45  C   UNL A   1      47.443  27.332  26.822  1.00  0.00     0.037 A 
ATOM     46  C   UNL A   1      41.022  28.676  29.261  1.00  0.00     0.037 A 
ATOM     47  C   UNL A   1      47.230  28.690  27.245  1.00  0.00     0.049 A 
ATOM     48  C   UNL A   1      42.091  29.736  29.208  1.00  0.00     0.074 A 
ATOM     49  C   UNL A   1      48.117  29.752  27.224  1.00  0.00     0.029 A 
ATOM     50  N   UNL A   1      46.035  29.176  27.758  1.00  0.00    -0.354 N 
ATOM     51  N   UNL A   1      43.322  29.650  28.766  1.00  0.00    -0.248 NA
ATOM     52  C   UNL A   1      41.726  31.069  29.707  1.00  0.00     0.031 C 
ATOM     53  C   UNL A   1      47.468  30.874  27.752  1.00  0.00     0.029 A 
ATOM     54  C   UNL A   1      46.164  30.522  28.060  1.00  0.00     0.049 A 
ATOM     55  H   UNL A   1      45.218  28.644  27.887  1.00  0.00     0.167 HD
ATOM     56  C   UNL A   1      43.865  30.920  28.898  1.00  0.00     0.074 A 
ATOM     57  C   UNL A   1      42.827  31.763  29.453  1.00  0.00     0.031 C 
ATOM     58  C   UNL A   1      45.112  31.351  28.586  1.00  0.00     0.037 A 
BRANCH  45  59
ATOM     59  C   UNL A   1      48.805  26.949  26.318  1.00  0.00     0.064 A 
ATOM     60  C   UNL A   1      49.147  27.071  24.962  1.00  0.00     0.173 A 
ATOM     61  C   UNL A   1      49.787  26.478  27.202  1.00  0.00     0.173 A 
ATOM     62  F   UNL A   1      48.241  27.504  24.074  1.00  0.00    -0.203 F 
ATOM     63  C   UNL A   1      50.412  26.706  24.506  1.00  0.00     0.198 A 
ATOM     64  C   UNL A   1      51.061  26.144  26.747  1.00  0.00     0.198 A 
ATOM     65  F   UNL A   1      49.515  26.348  28.509  1.00  0.00    -0.203 F 
ATOM     66  F   UNL A   1      50.697  26.782  23.199  1.00  0.00    -0.200 F 
ATOM     67  C   UNL A   1      51.369  26.250  25.399  1.00  0.00     0.200 A 
ATOM     68  F   UNL A   1      51.989  25.715  27.613  1.00  0.00    -0.200 F 
ATOM     69  F   UNL A   1      52.586  25.903  24.959  1.00  0.00    -0.200 F 
ENDBRANCH  45  59
BRANCH  46  70
ATOM     70  C   UNL A   1      39.670  28.991  29.791  1.00  0.00     0.064 A 
ATOM     71  C   UNL A   1      38.666  29.485  28.947  1.00  0.00     0.173 A 
ATOM     72  C   UNL A   1      39.355  28.815  31.146  1.00  0.00     0.173 A 
ATOM     73  F   UNL A   1      38.926  29.690  27.647  1.00  0.00    -0.203 F 
ATOM     74  C   UNL A   1      37.405  29.813  29.441  1.00  0.00     0.198 A 
ATOM     75  C   UNL A   1      38.086  29.118  31.635  1.00  0.00     0.198 A 
ATOM     76  F   UNL A   1      40.280  28.342  31.994  1.00  0.00    -0.203 F 
ATOM     77  F   UNL A   1      36.479  30.328  28.620  1.00  0.00    -0.200 F 
ATOM     78  C   UNL A   1      37.115  29.625  30.784  1.00  0.00     0.200 A 
ATOM     79  F   UNL A   1      37.804  28.924  32.930  1.00  0.00    -0.200 F 
ATOM     80  F   UNL A   1      35.902  29.939  31.259  1.00  0.00    -0.200 F 
ENDBRANCH  46  70
BRANCH  58  81
ATOM     81  C   UNL A   1      45.405  32.810  28.780  1.00  0.00     0.064 A 
ATOM     82  C   UNL A   1      45.921  33.307  29.986  1.00  0.00     0.173 A 
ATOM     83  C   UNL A   1      45.200  33.716  27.728  1.00  0.00     0.173 A 
ATOM     84  F   UNL A   1      46.122  32.483  31.024  1.00  0.00    -0.203 F 
ATOM     85  C   UNL A   1      46.196  34.664  30.140  1.00  0.00     0.198 A 
ATOM     86  C   UNL A   1      45.502  35.067  27.877  1.00  0.00     0.198 A 
ATOM     87  F   UNL A   1      44.715  33.289  26.553  1.00  0.00    -0.203 F 
ATOM     88  F   UNL A   1      46.643  35.125  31.316  1.00  0.00    -0.200 F 
ATOM     89  C   UNL A   1      45.991  35.540  29.083  1.00  0.00     0.200 A 
ATOM     90  F   UNL A   1      45.316  35.910  26.852  1.00  0.00    -0.200 F 
ATOM     91  F   UNL A   1      46.260  36.845  29.234  1.00  0.00    -0.200 F 
ENDBRANCH  58  81
ENDBRANCH  32  33
ENDBRANCH  24  27
ENDBRANCH  22  23
ENDBRANCH  21  22
ENDBRANCH   1  21
TORSDOF 14
ENDMDL
MODEL 2
REMARK VINA RESULT:     -11.8      6.076     10.435
REMARK SMILES COc1ccc([C@H](CC(=O)NCCCNC(=O)c2ccc(-c3c4nc(c(-c5c(F)c(F)c(F)c(F)c5F)c5ccc([nH]5)c(-c5c(F)c(F)c(F)c(F)c5F)c5nc(c(-c6c(F)c(F)c(F)c(F)c6F)c6ccc3[nH]6)C=C5)C=C4)cc2)NC(C)=O)cc1
REMARK SMILES IDX 12 1 11 2 9 3 10 4 8 6 7 7 6 8 3 9 4 10 86 11 5 12 85 13
REMARK SMILES IDX 2 14 1 15 81 16 82 17 83 19 84 20 13 21 14 22 15 23 16 24
REMARK SMILES IDX 17 26 18 27 19 28 80 29 20 30 79 31 21 32 22 33 23 34 73 35
REMARK SMILES IDX 24 36 78 37 72 38 74 39 25 40 77 41 71 42 70 43 26 45 58 46
REMARK SMILES IDX 38 47 57 48 39 49 42 50 56 51 75 52 40 53 41 54 55 56 76 57
REMARK SMILES IDX 43 58 27 59 28 60 36 61 29 62 30 63 34 64 37 65 31 66 32 67
REMARK SMILES IDX 35 68 33 69 59 70 60 71 68 72 61 73 62 74 66 75 69 76 63 77
REMARK SMILES IDX 64 78 67 79 65 80 44 81 45 82 53 83 46 84 47 85 51 86 54 87
REMARK SMILES IDX 48 88 49 89 52 90 50 91
REMARK H PARENT 11 5 81 18 15 25 74 44 42 55
REMARK Flexibility Score: inf
ROOT
ATOM      1  C   UNL A   1      31.370  30.866  26.156  1.00  0.00     0.117 C 
ENDROOT
BRANCH   1   2
ATOM      2  N   UNL A   1      32.604  30.261  26.624  1.00  0.00    -0.356 N 
ATOM      3  C   UNL A   1      32.831  29.022  27.145  1.00  0.00     0.222 C 
ATOM      4  O   UNL A   1      33.970  28.755  27.527  1.00  0.00    -0.275 OA
ATOM      5  H   UNL A   1      33.402  30.833  26.554  1.00  0.00     0.163 HD
BRANCH   3   6
ATOM      6  C   UNL A   1      31.725  27.990  27.203  1.00  0.00     0.129 C 
BRANCH   6   7
ATOM      7  C   UNL A   1      31.798  26.975  26.045  1.00  0.00     0.121 C 
BRANCH   7   8
ATOM      8  C   UNL A   1      31.314  27.548  24.717  1.00  0.00    -0.025 A 
ATOM      9  C   UNL A   1      30.318  28.829  22.416  1.00  0.00     0.118 A 
ATOM     10  C   UNL A   1      29.456  28.142  23.266  1.00  0.00     0.047 A 
ATOM     11  C   UNL A   1      31.687  28.831  22.678  1.00  0.00     0.047 A 
ATOM     12  C   UNL A   1      29.953  27.476  24.387  1.00  0.00     0.010 A 
ATOM     13  C   UNL A   1      32.183  28.184  23.815  1.00  0.00     0.010 A 
BRANCH   9  14
ATOM     14  O   UNL A   1      29.722  29.541  21.413  1.00  0.00    -0.497 OA
ATOM     15  C   UNL A   1      28.400  29.979  21.701  1.00  0.00     0.278 C 
ENDBRANCH   9  14
ENDBRANCH   7   8
BRANCH   7  16
ATOM     16  N   UNL A   1      33.157  26.480  25.864  1.00  0.00    -0.349 N 
ATOM     17  C   UNL A   1      33.422  25.158  25.587  1.00  0.00     0.217 C 
ATOM     18  H   UNL A   1      33.909  27.112  25.939  1.00  0.00     0.164 HD
ATOM     19  C   UNL A   1      34.885  24.846  25.418  1.00  0.00     0.114 C 
ATOM     20  O   UNL A   1      32.561  24.296  25.487  1.00  0.00    -0.275 OA
ENDBRANCH   7  16
ENDBRANCH   6   7
ENDBRANCH   3   6
ENDBRANCH   1   2
BRANCH   1  21
ATOM     21  C   UNL A   1      31.312  32.348  26.513  1.00  0.00     0.042 C 
BRANCH  21  22
ATOM     22  C   UNL A   1      32.538  32.864  27.253  1.00  0.00     0.118 C 
BRANCH  22  23
ATOM     23  N   UNL A   1      32.405  34.261  27.633  1.00  0.00    -0.352 N 
ATOM     24  C   UNL A   1      33.003  34.978  28.638  1.00  0.00     0.251 C 
ATOM     25  H   UNL A   1      31.782  34.779  27.075  1.00  0.00     0.163 HD
ATOM     26  O   UNL A   1      32.578  36.103  28.894  1.00  0.00    -0.269 OA
BRANCH  24  27
ATOM     27  C   UNL A   1      34.143  34.439  29.421  1.00  0.00     0.039 A 
ATOM     28  C   UNL A   1      35.428  34.533  28.871  1.00  0.00     0.014 A 
ATOM     29  C   UNL A   1      33.966  33.761  30.629  1.00  0.00     0.014 A 
ATOM     30  C   UNL A   1      36.523  33.967  29.533  1.00  0.00     0.010 A 
ATOM     31  C   UNL A   1      35.068  33.275  31.333  1.00  0.00     0.010 A 
ATOM     32  C   UNL A   1      36.353  33.339  30.775  1.00  0.00    -0.014 A 
BRANCH  32  33
ATOM     33  C   UNL A   1      37.490  32.670  31.463  1.00  0.00     0.031 A 
ATOM     34  C   UNL A   1      38.217  31.539  30.783  1.00  0.00     0.074 A 
ATOM     35  C   UNL A   1      37.852  33.050  32.704  1.00  0.00     0.049 A 
ATOM     36  N   UNL A   1      39.189  30.784  31.232  1.00  0.00    -0.248 NA
ATOM     37  C   UNL A   1      37.772  31.191  29.423  1.00  0.00     0.031 C 
ATOM     38  C   UNL A   1      37.210  34.105  33.487  1.00  0.00     0.029 A 
ATOM     39  N   UNL A   1      38.847  32.582  33.527  1.00  0.00    -0.354 N 
ATOM     40  C   UNL A   1      39.448  29.861  30.225  1.00  0.00     0.074 A 
ATOM     41  C   UNL A   1      38.499  30.115  29.165  1.00  0.00     0.031 C 
ATOM     42  C   UNL A   1      37.842  34.222  34.666  1.00  0.00     0.029 A 
ATOM     43  C   UNL A   1      38.911  33.231  34.735  1.00  0.00     0.049 A 
ATOM     44  H   UNL A   1      39.456  31.852  33.273  1.00  0.00     0.167 HD
ATOM     45  C   UNL A   1      40.407  28.906  30.175  1.00  0.00     0.037 A 
ATOM     46  C   UNL A   1      39.741  33.045  35.779  1.00  0.00     0.037 A 
ATOM     47  C   UNL A   1      41.379  28.680  31.211  1.00  0.00     0.049 A 
ATOM     48  C   UNL A   1      40.814  31.992  35.691  1.00  0.00     0.074 A 
ATOM     49  C   UNL A   1      42.419  27.768  31.238  1.00  0.00     0.029 A 
ATOM     50  N   UNL A   1      41.434  29.386  32.405  1.00  0.00    -0.354 N 
ATOM     51  N   UNL A   1      41.081  31.161  34.714  1.00  0.00    -0.248 NA
ATOM     52  C   UNL A   1      41.712  31.864  36.848  1.00  0.00     0.031 C 
ATOM     53  C   UNL A   1      43.086  27.901  32.462  1.00  0.00     0.029 A 
ATOM     54  C   UNL A   1      42.489  28.926  33.176  1.00  0.00     0.049 A 
ATOM     55  H   UNL A   1      40.816  30.107  32.665  1.00  0.00     0.167 HD
ATOM     56  C   UNL A   1      42.194  30.439  35.120  1.00  0.00     0.074 A 
ATOM     57  C   UNL A   1      42.561  30.936  36.429  1.00  0.00     0.031 C 
ATOM     58  C   UNL A   1      42.855  29.451  34.466  1.00  0.00     0.037 A 
BRANCH  45  59
ATOM     59  C   UNL A   1      40.456  28.036  28.951  1.00  0.00     0.064 A 
ATOM     60  C   UNL A   1      41.236  28.381  27.836  1.00  0.00     0.173 A 
ATOM     61  C   UNL A   1      39.738  26.832  28.902  1.00  0.00     0.173 A 
ATOM     62  F   UNL A   1      41.931  29.528  27.827  1.00  0.00    -0.203 F 
ATOM     63  C   UNL A   1      41.267  27.569  26.705  1.00  0.00     0.198 A 
ATOM     64  C   UNL A   1      39.797  26.008  27.781  1.00  0.00     0.198 A 
ATOM     65  F   UNL A   1      38.982  26.451  29.943  1.00  0.00    -0.203 F 
ATOM     66  F   UNL A   1      41.976  27.948  25.632  1.00  0.00    -0.200 F 
ATOM     67  C   UNL A   1      40.554  26.381  26.681  1.00  0.00     0.200 A 
ATOM     68  F   UNL A   1      39.118  24.853  27.764  1.00  0.00    -0.200 F 
ATOM     69  F   UNL A   1      40.590  25.599  25.593  1.00  0.00    -0.200 F 
ENDBRANCH  45  59
BRANCH  46  70
ATOM     70  C   UNL A   1      39.621  33.904  36.986  1.00  0.00     0.064 A 
ATOM     71  C   UNL A   1      38.870  33.484  38.093  1.00  0.00     0.173 A 
ATOM     72  C   UNL A   1      40.242  35.158  37.057  1.00  0.00     0.173 A 
ATOM     73  F   UNL A   1      38.240  32.301  38.065  1.00  0.00    -0.203 F 
ATOM     74  C   UNL A   1      38.726  34.297  39.216  1.00  0.00     0.198 A 
ATOM     75  C   UNL A   1      40.120  35.959  38.190  1.00  0.00     0.198 A 
ATOM     76  F   UNL A   1      40.975  35.604  36.026  1.00  0.00    -0.203 F 
ATOM     77  F   UNL A   1      37.963  33.891  40.240  1.00  0.00    -0.200 F 
ATOM     78  C   UNL A   1      39.355  35.531  39.265  1.00  0.00     0.200 A 
ATOM     79  F   UNL A   1      40.739  37.146  38.241  1.00  0.00    -0.200 F 
ATOM     80  F   UNL A   1      39.217  36.312  40.346  1.00  0.00    -0.200 F 
ENDBRANCH  46  70
BRANCH  58  81
ATOM     81  C   UNL A   1      44.078  28.886  35.127  1.00  0.00     0.064 A 
ATOM     82  C   UNL A   1      44.009  27.784  35.991  1.00  0.00     0.173 A 
ATOM     83  C   UNL A   1      45.342  29.436  34.861  1.00  0.00     0.173 A 
ATOM     84  F   UNL A   1      42.823  27.232  36.287  1.00  0.00    -0.203 F 
ATOM     85  C   UNL A   1      45.158  27.269  36.585  1.00  0.00     0.198 A 
ATOM     86  C   UNL A   1      46.491  28.901  35.435  1.00  0.00     0.198 A 
ATOM     87  F   UNL A   1      45.462  30.487  34.036  1.00  0.00    -0.203 F 
ATOM     88  F   UNL A   1      45.064  26.245  37.445  1.00  0.00    -0.200 F 
ATOM     89  C   UNL A   1      46.398  27.825  36.302  1.00  0.00     0.200 A 
ATOM     90  F   UNL A   1      47.689  29.431  35.151  1.00  0.00    -0.200 F 
ATOM     91  F   UNL A   1      47.502  27.324  36.873  1.00  0.00    -0.200 F 
ENDBRANCH  58  81
ENDBRANCH  32  33
ENDBRANCH  24  27
ENDBRANCH  22  23
ENDBRANCH  21  22
ENDBRANCH   1  21
TORSDOF 14
ENDMDL
MODEL 3
REMARK VINA RESULT:     -11.7      5.757     11.103
REMARK SMILES COc1ccc([C@H](CC(=O)NCCCNC(=O)c2ccc(-c3c4nc(c(-c5c(F)c(F)c(F)c(F)c5F)c5ccc([nH]5)c(-c5c(F)c(F)c(F)c(F)c5F)c5nc(c(-c6c(F)c(F)c(F)c(F)c6F)c6ccc3[nH]6)C=C5)C=C4)cc2)NC(C)=O)cc1
REMARK SMILES IDX 12 1 11 2 9 3 10 4 8 6 7 7 6 8 3 9 4 10 86 11 5 12 85 13
REMARK SMILES IDX 2 14 1 15 81 16 82 17 83 19 84 20 13 21 14 22 15 23 16 24
REMARK SMILES IDX 17 26 18 27 19 28 80 29 20 30 79 31 21 32 22 33 23 34 73 35
REMARK SMILES IDX 24 36 78 37 72 38 74 39 25 40 77 41 71 42 70 43 26 45 58 46
REMARK SMILES IDX 38 47 57 48 39 49 42 50 56 51 75 52 40 53 41 54 55 56 76 57
REMARK SMILES IDX 43 58 27 59 28 60 36 61 29 62 30 63 34 64 37 65 31 66 32 67
REMARK SMILES IDX 35 68 33 69 59 70 60 71 68 72 61 73 62 74 66 75 69 76 63 77
REMARK SMILES IDX 64 78 67 79 65 80 44 81 45 82 53 83 46 84 47 85 51 86 54 87
REMARK SMILES IDX 48 88 49 89 52 90 50 91
REMARK H PARENT 11 5 81 18 15 25 74 44 42 55
REMARK Flexibility Score: inf
ROOT
ATOM      1  C   UNL A   1      32.189  28.136  27.590  1.00  0.00     0.117 C 
ENDROOT
BRANCH   1   2
ATOM      2  N   UNL A   1      31.208  27.106  27.296  1.00  0.00    -0.356 N 
ATOM      3  C   UNL A   1      30.807  26.592  26.099  1.00  0.00     0.222 C 
ATOM      4  O   UNL A   1      29.906  25.753  26.103  1.00  0.00    -0.275 OA
ATOM      5  H   UNL A   1      30.763  26.719  28.084  1.00  0.00     0.163 HD
BRANCH   3   6
ATOM      6  C   UNL A   1      31.487  27.004  24.810  1.00  0.00     0.129 C 
BRANCH   6   7
ATOM      7  C   UNL A   1      30.530  26.986  23.602  1.00  0.00     0.121 C 
BRANCH   7   8
ATOM      8  C   UNL A   1      29.672  28.242  23.500  1.00  0.00    -0.025 A 
ATOM      9  C   UNL A   1      28.217  30.613  23.060  1.00  0.00     0.118 A 
ATOM     10  C   UNL A   1      29.537  30.669  23.501  1.00  0.00     0.047 A 
ATOM     11  C   UNL A   1      27.600  29.374  22.893  1.00  0.00     0.047 A 
ATOM     12  C   UNL A   1      30.247  29.495  23.755  1.00  0.00     0.010 A 
ATOM     13  C   UNL A   1      28.319  28.196  23.124  1.00  0.00     0.010 A 
BRANCH   9  14
ATOM     14  O   UNL A   1      27.648  31.810  22.733  1.00  0.00    -0.497 OA
ATOM     15  C   UNL A   1      28.028  32.321  21.461  1.00  0.00     0.278 C 
ENDBRANCH   9  14
ENDBRANCH   7   8
BRANCH   7  16
ATOM     16  N   UNL A   1      31.264  26.829  22.352  1.00  0.00    -0.349 N 
ATOM     17  C   UNL A   1      31.825  25.628  21.981  1.00  0.00     0.217 C 
ATOM     18  H   UNL A   1      31.360  27.605  21.754  1.00  0.00     0.164 HD
ATOM     19  C   UNL A   1      32.527  25.662  20.649  1.00  0.00     0.114 C 
ATOM     20  O   UNL A   1      31.773  24.611  22.658  1.00  0.00    -0.275 OA
ENDBRANCH   7  16
ENDBRANCH   6   7
ENDBRANCH   3   6
ENDBRANCH   1   2
BRANCH   1  21
ATOM     21  C   UNL A   1      31.699  29.509  27.144  1.00  0.00     0.042 C 
BRANCH  21  22
ATOM     22  C   UNL A   1      32.702  30.296  26.313  1.00  0.00     0.118 C 
BRANCH  22  23
ATOM     23  N   UNL A   1      32.700  31.712  26.639  1.00  0.00    -0.352 N 
ATOM     24  C   UNL A   1      33.504  32.441  27.478  1.00  0.00     0.251 C 
ATOM     25  H   UNL A   1      32.004  32.236  26.181  1.00  0.00     0.163 HD
ATOM     26  O   UNL A   1      33.180  33.595  27.751  1.00  0.00    -0.269 OA
BRANCH  24  27
ATOM     27  C   UNL A   1      34.749  31.880  28.061  1.00  0.00     0.039 A 
ATOM     28  C   UNL A   1      34.745  30.542  28.472  1.00  0.00     0.014 A 
ATOM     29  C   UNL A   1      35.881  32.664  28.298  1.00  0.00     0.014 A 
ATOM     30  C   UNL A   1      35.867  29.993  29.101  1.00  0.00     0.010 A 
ATOM     31  C   UNL A   1      37.031  32.094  28.844  1.00  0.00     0.010 A 
ATOM     32  C   UNL A   1      37.025  30.762  29.286  1.00  0.00    -0.014 A 
BRANCH  32  33
ATOM     33  C   UNL A   1      38.203  30.221  30.013  1.00  0.00     0.031 A 
ATOM     34  C   UNL A   1      38.454  30.628  31.442  1.00  0.00     0.074 A 
ATOM     35  C   UNL A   1      39.065  29.393  29.391  1.00  0.00     0.049 A 
ATOM     36  N   UNL A   1      39.453  30.321  32.233  1.00  0.00    -0.248 NA
ATOM     37  C   UNL A   1      37.461  31.524  32.058  1.00  0.00     0.031 C 
ATOM     38  C   UNL A   1      38.958  28.950  28.001  1.00  0.00     0.029 A 
ATOM     39  N   UNL A   1      40.208  28.784  29.848  1.00  0.00    -0.354 N 
ATOM     40  C   UNL A   1      39.221  31.007  33.420  1.00  0.00     0.074 A 
ATOM     41  C   UNL A   1      38.018  31.785  33.230  1.00  0.00     0.031 C 
ATOM     42  C   UNL A   1      39.978  28.120  27.726  1.00  0.00     0.029 A 
ATOM     43  C   UNL A   1      40.827  27.999  28.907  1.00  0.00     0.049 A 
ATOM     44  H   UNL A   1      40.549  28.900  30.764  1.00  0.00     0.167 HD
ATOM     45  C   UNL A   1      39.930  30.970  34.573  1.00  0.00     0.037 A 
ATOM     46  C   UNL A   1      41.952  27.264  28.991  1.00  0.00     0.037 A 
ATOM     47  C   UNL A   1      41.103  30.163  34.777  1.00  0.00     0.049 A 
ATOM     48  C   UNL A   1      42.710  27.221  30.291  1.00  0.00     0.074 A 
ATOM     49  C   UNL A   1      41.868  30.021  35.922  1.00  0.00     0.029 A 
ATOM     50  N   UNL A   1      41.676  29.350  33.809  1.00  0.00    -0.354 N 
ATOM     51  N   UNL A   1      42.453  27.833  31.421  1.00  0.00    -0.248 NA
ATOM     52  C   UNL A   1      43.909  26.372  30.331  1.00  0.00     0.031 C 
ATOM     53  C   UNL A   1      42.922  29.145  35.638  1.00  0.00     0.029 A 
ATOM     54  C   UNL A   1      42.787  28.706  34.331  1.00  0.00     0.049 A 
ATOM     55  H   UNL A   1      41.343  29.245  32.889  1.00  0.00     0.167 HD
ATOM     56  C   UNL A   1      43.431  27.416  32.313  1.00  0.00     0.074 A 
ATOM     57  C   UNL A   1      44.283  26.491  31.597  1.00  0.00     0.031 C 
ATOM     58  C   UNL A   1      43.607  27.768  33.611  1.00  0.00     0.037 A 
BRANCH  45  59
ATOM     59  C   UNL A   1      39.448  31.825  35.711  1.00  0.00     0.064 A 
ATOM     60  C   UNL A   1      38.486  31.361  36.621  1.00  0.00     0.173 A 
ATOM     61  C   UNL A   1      39.972  33.111  35.909  1.00  0.00     0.173 A 
ATOM     62  F   UNL A   1      37.944  30.144  36.469  1.00  0.00    -0.203 F 
ATOM     63  C   UNL A   1      38.042  32.166  37.667  1.00  0.00     0.198 A 
ATOM     64  C   UNL A   1      39.548  33.901  36.975  1.00  0.00     0.198 A 
ATOM     65  F   UNL A   1      40.899  33.601  35.072  1.00  0.00    -0.203 F 
ATOM     66  F   UNL A   1      37.083  31.721  38.491  1.00  0.00    -0.200 F 
ATOM     67  C   UNL A   1      38.578  33.432  37.847  1.00  0.00     0.200 A 
ATOM     68  F   UNL A   1      40.077  35.119  37.156  1.00  0.00    -0.200 F 
ATOM     69  F   UNL A   1      38.153  34.203  38.857  1.00  0.00    -0.200 F 
ENDBRANCH  45  59
BRANCH  46  70
ATOM     70  C   UNL A   1      42.410  26.471  27.821  1.00  0.00     0.064 A 
ATOM     71  C   UNL A   1      41.891  25.193  27.573  1.00  0.00     0.173 A 
ATOM     72  C   UNL A   1      43.378  26.965  26.935  1.00  0.00     0.173 A 
ATOM     73  F   UNL A   1      40.978  24.668  28.405  1.00  0.00    -0.203 F 
ATOM     74  C   UNL A   1      42.338  24.429  26.497  1.00  0.00     0.198 A 
ATOM     75  C   UNL A   1      43.806  26.211  25.844  1.00  0.00     0.198 A 
ATOM     76  F   UNL A   1      43.903  28.184  27.126  1.00  0.00    -0.203 F 
ATOM     77  F   UNL A   1      41.859  23.191  26.312  1.00  0.00    -0.200 F 
ATOM     78  C   UNL A   1      43.292  24.941  25.631  1.00  0.00     0.200 A 
ATOM     79  F   UNL A   1      44.718  26.713  25.001  1.00  0.00    -0.200 F 
ATOM     80  F   UNL A   1      43.721  24.207  24.595  1.00  0.00    -0.200 F 
ENDBRANCH  46  70
BRANCH  58  81
ATOM     81  C   UNL A   1      44.727  27.104  34.358  1.00  0.00     0.064 A 
ATOM     82  C   UNL A   1      46.005  27.676  34.437  1.00  0.00     0.173 A 
ATOM     83  C   UNL A   1      44.503  25.895  35.035  1.00  0.00     0.173 A 
ATOM     84  F   UNL A   1      46.271  28.823  33.795  1.00  0.00    -0.203 F 
ATOM     85  C   UNL A   1      47.026  27.047  35.145  1.00  0.00     0.198 A 
ATOM     86  C   UNL A   1      45.519  25.285  35.765  1.00  0.00     0.198 A 
ATOM     87  F   UNL A   1      43.296  25.312  34.997  1.00  0.00    -0.203 F 
ATOM     88  F   UNL A   1      48.253  27.587  35.168  1.00  0.00    -0.200 F 
ATOM     89  C   UNL A   1      46.780  25.856  35.812  1.00  0.00     0.200 A 
ATOM     90  F   UNL A   1      45.277  24.141  36.420  1.00  0.00    -0.200 F 
ATOM     91  F   UNL A   1      47.764  25.256  36.496  1.00  0.00    -0.200 F 
ENDBRANCH  58  81
ENDBRANCH  32  33
ENDBRANCH  24  27
ENDBRANCH  22  23
ENDBRANCH  21  22
ENDBRANCH   1  21
TORSDOF 14
ENDMDL
