MODEL 1
REMARK VINA RESULT:     -12.4      0.000      0.000
REMARK SMILES C[C@H](SCc1nc2ccccc2c(=O)[nH]1)C(=O)NCCCNC(=O)c1ccc(-c2c3nc(c(-c4c(F)c(F)c(F)c(F)c4F)c4ccc([nH]4)c(-c4c(F)c(F)c(F)c(F)c4F)c4nc(c(-c5c(F)c(F)c(F)c(F)c5F)c5ccc2[nH]5)C=C4)C=C3)cc1
REMARK SMILES IDX 19 1 18 2 16 3 17 4 2 6 1 7 3 8 4 9 5 10 6 11 15 12 7 13
REMARK SMILES IDX 13 14 8 16 12 17 14 18 9 19 11 20 10 21 20 22 21 23 22 24
REMARK SMILES IDX 23 25 24 27 25 28 26 29 87 30 27 31 86 32 28 33 29 34 30 35
REMARK SMILES IDX 80 36 31 37 85 38 79 39 81 40 32 41 84 42 78 43 77 44 33 46
REMARK SMILES IDX 65 47 45 48 64 49 46 50 49 51 63 52 82 53 47 54 48 55 62 57
REMARK SMILES IDX 83 58 50 59 34 60 35 61 43 62 36 63 37 64 41 65 44 66 38 67
REMARK SMILES IDX 39 68 42 69 40 70 66 71 67 72 75 73 68 74 69 75 73 76 76 77
REMARK SMILES IDX 70 78 71 79 74 80 72 81 51 82 52 83 60 84 53 85 54 86 58 87
REMARK SMILES IDX 61 88 55 89 56 90 59 91 57 92
REMARK H PARENT 18 5 15 15 22 26 81 45 49 56
REMARK Flexibility Score: inf
ROOT
ATOM      1  C   UNL A   1      36.358  20.570  25.013  1.00  0.00     0.117 C 
ENDROOT
BRANCH   1   2
ATOM      2  N   UNL A   1      35.083  19.879  25.010  1.00  0.00    -0.355 N 
ATOM      3  C   UNL A   1      33.841  20.265  25.385  1.00  0.00     0.232 C 
ATOM      4  O   UNL A   1      32.985  19.373  25.382  1.00  0.00    -0.274 OA
ATOM      5  H   UNL A   1      35.128  18.956  24.671  1.00  0.00     0.163 HD
BRANCH   3   6
ATOM      6  C   UNL A   1      33.480  21.669  25.845  1.00  0.00     0.133 C 
ATOM      7  C   UNL A   1      33.795  21.877  27.326  1.00  0.00     0.030 C 
BRANCH   6   8
ATOM      8  S   UNL A   1      31.770  22.188  25.452  1.00  0.00    -0.141 SA
BRANCH   8   9
ATOM      9  C   UNL A   1      31.829  22.563  23.673  1.00  0.00     0.145 C 
BRANCH   9  10
ATOM     10  C   UNL A   1      32.392  23.921  23.332  1.00  0.00     0.119 A 
ATOM     11  N   UNL A   1      32.607  24.804  24.254  1.00  0.00    -0.234 NA
ATOM     12  N   UNL A   1      32.571  24.179  21.997  1.00  0.00    -0.309 N 
ATOM     13  C   UNL A   1      33.069  26.070  23.853  1.00  0.00     0.078 A 
ATOM     14  C   UNL A   1      32.964  25.391  21.500  1.00  0.00     0.258 A 
ATOM     15  H   UNL A   1      32.407  23.448  21.358  1.00  0.00     0.171 HD
ATOM     16  C   UNL A   1      33.335  27.033  24.826  1.00  0.00     0.029 A 
ATOM     17  C   UNL A   1      33.268  26.411  22.511  1.00  0.00     0.065 A 
ATOM     18  O   UNL A   1      33.038  25.615  20.301  1.00  0.00    -0.269 OA
ATOM     19  C   UNL A   1      33.809  28.297  24.462  1.00  0.00     0.002 A 
ATOM     20  C   UNL A   1      33.745  27.668  22.133  1.00  0.00     0.016 A 
ATOM     21  C   UNL A   1      34.020  28.612  23.119  1.00  0.00     0.001 A 
ENDBRANCH   9  10
ENDBRANCH   8   9
ENDBRANCH   6   8
ENDBRANCH   3   6
ENDBRANCH   1   2
BRANCH   1  22
ATOM     22  C   UNL A   1      37.549  19.613  25.014  1.00  0.00     0.042 C 
BRANCH  22  23
ATOM     23  C   UNL A   1      38.877  20.251  25.406  1.00  0.00     0.118 C 
BRANCH  23  24
ATOM     24  N   UNL A   1      39.872  19.254  25.763  1.00  0.00    -0.352 N 
ATOM     25  C   UNL A   1      41.191  19.424  26.102  1.00  0.00     0.251 C 
ATOM     26  H   UNL A   1      39.553  18.323  25.763  1.00  0.00     0.163 HD
ATOM     27  O   UNL A   1      41.949  18.460  26.095  1.00  0.00    -0.269 OA
BRANCH  25  28
ATOM     28  C   UNL A   1      41.706  20.765  26.459  1.00  0.00     0.039 A 
ATOM     29  C   UNL A   1      41.959  21.681  25.435  1.00  0.00     0.014 A 
ATOM     30  C   UNL A   1      41.974  21.111  27.786  1.00  0.00     0.014 A 
ATOM     31  C   UNL A   1      42.433  22.956  25.749  1.00  0.00     0.010 A 
ATOM     32  C   UNL A   1      42.364  22.411  28.104  1.00  0.00     0.010 A 
ATOM     33  C   UNL A   1      42.609  23.345  27.089  1.00  0.00    -0.014 A 
BRANCH  33  34
ATOM     34  C   UNL A   1      43.040  24.728  27.424  1.00  0.00     0.031 A 
ATOM     35  C   UNL A   1      44.452  25.180  27.162  1.00  0.00     0.074 A 
ATOM     36  C   UNL A   1      42.159  25.573  27.994  1.00  0.00     0.049 A 
ATOM     37  N   UNL A   1      44.997  26.352  27.373  1.00  0.00    -0.248 NA
ATOM     38  C   UNL A   1      45.380  24.180  26.615  1.00  0.00     0.031 C 
ATOM     39  C   UNL A   1      40.780  25.237  28.354  1.00  0.00     0.029 A 
ATOM     40  N   UNL A   1      42.287  26.888  28.367  1.00  0.00    -0.354 N 
ATOM     41  C   UNL A   1      46.326  26.227  26.989  1.00  0.00     0.074 A 
ATOM     42  C   UNL A   1      46.523  24.849  26.594  1.00  0.00     0.031 C 
ATOM     43  C   UNL A   1      40.179  26.327  28.856  1.00  0.00     0.029 A 
ATOM     44  C   UNL A   1      41.138  27.425  28.893  1.00  0.00     0.049 A 
ATOM     45  H   UNL A   1      43.124  27.397  28.267  1.00  0.00     0.167 HD
ATOM     46  C   UNL A   1      47.289  27.180  26.945  1.00  0.00     0.037 A 
ATOM     47  C   UNL A   1      40.883  28.666  29.350  1.00  0.00     0.037 A 
ATOM     48  C   UNL A   1      47.087  28.554  27.331  1.00  0.00     0.049 A 
ATOM     49  C   UNL A   1      41.972  29.704  29.294  1.00  0.00     0.074 A 
ATOM     50  C   UNL A   1      47.983  29.608  27.273  1.00  0.00     0.029 A 
ATOM     51  N   UNL A   1      45.907  29.064  27.854  1.00  0.00    -0.354 N 
ATOM     52  N   UNL A   1      43.202  29.593  28.853  1.00  0.00    -0.248 NA
ATOM     53  C   UNL A   1      41.629  31.045  29.785  1.00  0.00     0.031 C 
ATOM     54  C   UNL A   1      47.365  30.739  27.818  1.00  0.00     0.029 A 
ATOM     55  C   UNL A   1      46.060  30.410  28.149  1.00  0.00     0.049 A 
ATOM     56  H   UNL A   1      45.083  28.545  27.996  1.00  0.00     0.167 HD
ATOM     57  C   UNL A   1      43.769  30.854  28.985  1.00  0.00     0.074 A 
ATOM     58  C   UNL A   1      42.740  31.717  29.525  1.00  0.00     0.031 C 
ATOM     59  C   UNL A   1      45.028  31.259  28.687  1.00  0.00     0.037 A 
BRANCH  46  60
ATOM     60  C   UNL A   1      48.653  26.772  26.462  1.00  0.00     0.064 A 
ATOM     61  C   UNL A   1      49.056  26.971  25.131  1.00  0.00     0.173 A 
ATOM     62  C   UNL A   1      49.585  26.209  27.347  1.00  0.00     0.173 A 
ATOM     63  F   UNL A   1      48.204  27.497  24.239  1.00  0.00    -0.203 F 
ATOM     64  C   UNL A   1      50.327  26.596  24.701  1.00  0.00     0.198 A 
ATOM     65  C   UNL A   1      50.867  25.867  26.921  1.00  0.00     0.198 A 
ATOM     66  F   UNL A   1      49.258  26.001  28.631  1.00  0.00    -0.203 F 
ATOM     67  F   UNL A   1      50.669  26.748  23.414  1.00  0.00    -0.200 F 
ATOM     68  C   UNL A   1      51.234  26.053  25.598  1.00  0.00     0.200 A 
ATOM     69  F   UNL A   1      51.747  25.357  27.794  1.00  0.00    -0.200 F 
ATOM     70  F   UNL A   1      52.459  25.701  25.185  1.00  0.00    -0.200 F 
ENDBRANCH  46  60
BRANCH  47  71
ATOM     71  C   UNL A   1      39.534  29.004  29.875  1.00  0.00     0.064 A 
ATOM     72  C   UNL A   1      38.555  29.568  29.044  1.00  0.00     0.173 A 
ATOM     73  C   UNL A   1      39.196  28.779  31.218  1.00  0.00     0.173 A 
ATOM     74  F   UNL A   1      38.834  29.820  27.757  1.00  0.00    -0.203 F 
ATOM     75  C   UNL A   1      37.303  29.920  29.543  1.00  0.00     0.198 A 
ATOM     76  C   UNL A   1      37.932  29.099  31.706  1.00  0.00     0.198 A 
ATOM     77  F   UNL A   1      40.092  28.233  32.054  1.00  0.00    -0.203 F 
ATOM     78  F   UNL A   1      36.406  30.509  28.740  1.00  0.00    -0.200 F 
ATOM     79  C   UNL A   1      36.990  29.680  30.872  1.00  0.00     0.200 A 
ATOM     80  F   UNL A   1      37.628  28.848  32.987  1.00  0.00    -0.200 F 
ATOM     81  F   UNL A   1      35.783  30.014  31.350  1.00  0.00    -0.200 F 
ENDBRANCH  47  71
BRANCH  59  82
ATOM     82  C   UNL A   1      45.348  32.714  28.901  1.00  0.00     0.064 A 
ATOM     83  C   UNL A   1      45.904  33.184  30.100  1.00  0.00     0.173 A 
ATOM     84  C   UNL A   1      45.094  33.651  27.886  1.00  0.00     0.173 A 
ATOM     85  F   UNL A   1      46.154  32.334  31.107  1.00  0.00    -0.203 F 
ATOM     86  C   UNL A   1      46.150  34.541  30.293  1.00  0.00     0.198 A 
ATOM     87  C   UNL A   1      45.379  35.001  28.067  1.00  0.00     0.198 A 
ATOM     88  F   UNL A   1      44.573  33.256  26.714  1.00  0.00    -0.203 F 
ATOM     89  F   UNL A   1      46.612  34.974  31.474  1.00  0.00    -0.200 F 
ATOM     90  C   UNL A   1      45.891  35.447  29.276  1.00  0.00     0.200 A 
ATOM     91  F   UNL A   1      45.146  35.872  27.077  1.00  0.00    -0.200 F 
ATOM     92  F   UNL A   1      46.127  36.753  29.464  1.00  0.00    -0.200 F 
ENDBRANCH  59  82
ENDBRANCH  33  34
ENDBRANCH  25  28
ENDBRANCH  23  24
ENDBRANCH  22  23
ENDBRANCH   1  22
TORSDOF 13
ENDMDL
MODEL 2
REMARK VINA RESULT:     -12.3      4.883     10.101
REMARK SMILES C[C@H](SCc1nc2ccccc2c(=O)[nH]1)C(=O)NCCCNC(=O)c1ccc(-c2c3nc(c(-c4c(F)c(F)c(F)c(F)c4F)c4ccc([nH]4)c(-c4c(F)c(F)c(F)c(F)c4F)c4nc(c(-c5c(F)c(F)c(F)c(F)c5F)c5ccc2[nH]5)C=C4)C=C3)cc1
REMARK SMILES IDX 19 1 18 2 16 3 17 4 2 6 1 7 3 8 4 9 5 10 6 11 15 12 7 13
REMARK SMILES IDX 13 14 8 16 12 17 14 18 9 19 11 20 10 21 20 22 21 23 22 24
REMARK SMILES IDX 23 25 24 27 25 28 26 29 87 30 27 31 86 32 28 33 29 34 30 35
REMARK SMILES IDX 80 36 31 37 85 38 79 39 81 40 32 41 84 42 78 43 77 44 33 46
REMARK SMILES IDX 65 47 45 48 64 49 46 50 49 51 63 52 82 53 47 54 48 55 62 57
REMARK SMILES IDX 83 58 50 59 34 60 35 61 43 62 36 63 37 64 41 65 44 66 38 67
REMARK SMILES IDX 39 68 42 69 40 70 66 71 67 72 75 73 68 74 69 75 73 76 76 77
REMARK SMILES IDX 70 78 71 79 74 80 72 81 51 82 52 83 60 84 53 85 54 86 58 87
REMARK SMILES IDX 61 88 55 89 56 90 59 91 57 92
REMARK H PARENT 18 5 15 15 22 26 81 45 49 56
REMARK Flexibility Score: inf
ROOT
ATOM      1  C   UNL A   1      33.453  27.766  24.704  1.00  0.00     0.117 C 
ENDROOT
BRANCH   1   2
ATOM      2  N   UNL A   1      33.536  27.368  23.312  1.00  0.00    -0.355 N 
ATOM      3  C   UNL A   1      33.440  26.161  22.706  1.00  0.00     0.232 C 
ATOM      4  O   UNL A   1      33.697  26.153  21.497  1.00  0.00    -0.274 OA
ATOM      5  H   UNL A   1      33.690  28.115  22.691  1.00  0.00     0.163 HD
BRANCH   3   6
ATOM      6  C   UNL A   1      33.102  24.864  23.424  1.00  0.00     0.133 C 
ATOM      7  C   UNL A   1      34.164  23.793  23.187  1.00  0.00     0.030 C 
BRANCH   6   8
ATOM      8  S   UNL A   1      31.423  24.217  23.087  1.00  0.00    -0.141 SA
BRANCH   8   9
ATOM      9  C   UNL A   1      30.379  25.059  24.317  1.00  0.00     0.145 C 
BRANCH   9  10
ATOM     10  C   UNL A   1      29.644  26.271  23.799  1.00  0.00     0.119 A 
ATOM     11  N   UNL A   1      30.280  27.242  23.225  1.00  0.00    -0.234 NA
ATOM     12  N   UNL A   1      28.297  26.310  24.053  1.00  0.00    -0.309 N 
ATOM     13  C   UNL A   1      29.537  28.368  22.829  1.00  0.00     0.078 A 
ATOM     14  C   UNL A   1      27.495  27.379  23.757  1.00  0.00     0.258 A 
ATOM     15  H   UNL A   1      27.882  25.522  24.474  1.00  0.00     0.171 HD
ATOM     16  C   UNL A   1      30.191  29.417  22.185  1.00  0.00     0.029 A 
ATOM     17  C   UNL A   1      28.163  28.485  23.060  1.00  0.00     0.065 A 
ATOM     18  O   UNL A   1      26.314  27.417  24.068  1.00  0.00    -0.269 OA
ATOM     19  C   UNL A   1      29.479  30.545  21.765  1.00  0.00     0.002 A 
ATOM     20  C   UNL A   1      27.438  29.603  22.643  1.00  0.00     0.016 A 
ATOM     21  C   UNL A   1      28.104  30.635  21.987  1.00  0.00     0.001 A 
ENDBRANCH   9  10
ENDBRANCH   8   9
ENDBRANCH   6   8
ENDBRANCH   3   6
ENDBRANCH   1   2
BRANCH   1  22
ATOM     22  C   UNL A   1      33.115  29.245  24.877  1.00  0.00     0.042 C 
BRANCH  22  23
ATOM     23  C   UNL A   1      32.643  29.632  26.275  1.00  0.00     0.118 C 
BRANCH  23  24
ATOM     24  N   UNL A   1      32.548  31.072  26.435  1.00  0.00    -0.352 N 
ATOM     25  C   UNL A   1      33.265  31.905  27.258  1.00  0.00     0.251 C 
ATOM     26  H   UNL A   1      31.872  31.515  25.872  1.00  0.00     0.163 HD
ATOM     27  O   UNL A   1      32.860  33.043  27.471  1.00  0.00    -0.269 OA
BRANCH  25  28
ATOM     28  C   UNL A   1      34.512  31.433  27.900  1.00  0.00     0.039 A 
ATOM     29  C   UNL A   1      35.583  32.321  28.019  1.00  0.00     0.014 A 
ATOM     30  C   UNL A   1      34.644  30.117  28.351  1.00  0.00     0.014 A 
ATOM     31  C   UNL A   1      36.765  31.903  28.633  1.00  0.00     0.010 A 
ATOM     32  C   UNL A   1      35.791  29.727  29.041  1.00  0.00     0.010 A 
ATOM     33  C   UNL A   1      36.869  30.611  29.179  1.00  0.00    -0.014 A 
BRANCH  33  34
ATOM     34  C   UNL A   1      38.100  30.193  29.900  1.00  0.00     0.031 A 
ATOM     35  C   UNL A   1      38.373  30.672  31.302  1.00  0.00     0.074 A 
ATOM     36  C   UNL A   1      38.992  29.399  29.277  1.00  0.00     0.049 A 
ATOM     37  N   UNL A   1      39.383  30.394  32.088  1.00  0.00    -0.248 NA
ATOM     38  C   UNL A   1      37.398  31.601  31.889  1.00  0.00     0.031 C 
ATOM     39  C   UNL A   1      38.873  28.918  27.899  1.00  0.00     0.029 A 
ATOM     40  N   UNL A   1      40.171  28.851  29.718  1.00  0.00    -0.354 N 
ATOM     41  C   UNL A   1      39.166  31.115  33.254  1.00  0.00     0.074 A 
ATOM     42  C   UNL A   1      37.963  31.894  33.050  1.00  0.00     0.031 C 
ATOM     43  C   UNL A   1      39.913  28.115  27.622  1.00  0.00     0.029 A 
ATOM     44  C   UNL A   1      40.792  28.057  28.785  1.00  0.00     0.049 A 
ATOM     45  H   UNL A   1      40.537  29.013  30.617  1.00  0.00     0.167 HD
ATOM     46  C   UNL A   1      39.888  31.110  34.402  1.00  0.00     0.037 A 
ATOM     47  C   UNL A   1      41.940  27.357  28.859  1.00  0.00     0.037 A 
ATOM     48  C   UNL A   1      41.080  30.327  34.605  1.00  0.00     0.049 A 
ATOM     49  C   UNL A   1      42.724  27.372  30.143  1.00  0.00     0.074 A 
ATOM     50  C   UNL A   1      41.853  30.211  35.747  1.00  0.00     0.029 A 
ATOM     51  N   UNL A   1      41.677  29.529  33.639  1.00  0.00    -0.354 N 
ATOM     52  N   UNL A   1      42.464  27.995  31.267  1.00  0.00    -0.248 NA
ATOM     53  C   UNL A   1      43.955  26.572  30.172  1.00  0.00     0.031 C 
ATOM     54  C   UNL A   1      42.950  29.393  35.453  1.00  0.00     0.029 A 
ATOM     55  C   UNL A   1      42.823  28.940  34.150  1.00  0.00     0.049 A 
ATOM     56  H   UNL A   1      41.336  29.401  32.724  1.00  0.00     0.167 HD
ATOM     57  C   UNL A   1      43.480  27.640  32.145  1.00  0.00     0.074 A 
ATOM     58  C   UNL A   1      44.346  26.727  31.428  1.00  0.00     0.031 C 
ATOM     59  C   UNL A   1      43.678  28.033  33.427  1.00  0.00     0.037 A 
BRANCH  46  60
ATOM     60  C   UNL A   1      39.409  31.980  35.531  1.00  0.00     0.064 A 
ATOM     61  C   UNL A   1      38.520  31.501  36.507  1.00  0.00     0.173 A 
ATOM     62  C   UNL A   1      39.874  33.297  35.664  1.00  0.00     0.173 A 
ATOM     63  F   UNL A   1      38.035  30.253  36.426  1.00  0.00    -0.203 F 
ATOM     64  C   UNL A   1      38.092  32.316  37.553  1.00  0.00     0.198 A 
ATOM     65  C   UNL A   1      39.471  34.098  36.731  1.00  0.00     0.198 A 
ATOM     66  F   UNL A   1      40.729  33.806  34.765  1.00  0.00    -0.203 F 
ATOM     67  F   UNL A   1      37.203  31.853  38.441  1.00  0.00    -0.200 F 
ATOM     68  C   UNL A   1      38.575  33.611  37.669  1.00  0.00     0.200 A 
ATOM     69  F   UNL A   1      39.952  35.344  36.849  1.00  0.00    -0.200 F 
ATOM     70  F   UNL A   1      38.171  34.390  38.680  1.00  0.00    -0.200 F 
ENDBRANCH  46  60
BRANCH  47  71
ATOM     71  C   UNL A   1      42.402  26.560  27.692  1.00  0.00     0.064 A 
ATOM     72  C   UNL A   1      41.924  25.260  27.469  1.00  0.00     0.173 A 
ATOM     73  C   UNL A   1      43.335  27.075  26.780  1.00  0.00     0.173 A 
ATOM     74  F   UNL A   1      41.044  24.715  28.321  1.00  0.00    -0.203 F 
ATOM     75  C   UNL A   1      42.385  24.497  26.397  1.00  0.00     0.198 A 
ATOM     76  C   UNL A   1      43.768  26.324  25.690  1.00  0.00     0.198 A 
ATOM     77  F   UNL A   1      43.818  28.316  26.942  1.00  0.00    -0.203 F 
ATOM     78  F   UNL A   1      41.953  23.239  26.241  1.00  0.00    -0.200 F 
ATOM     79  C   UNL A   1      43.301  25.031  25.506  1.00  0.00     0.200 A 
ATOM     80  F   UNL A   1      44.640  26.852  24.820  1.00  0.00    -0.200 F 
ATOM     81  F   UNL A   1      43.740  24.300  24.472  1.00  0.00    -0.200 F 
ENDBRANCH  47  71
BRANCH  59  82
ATOM     82  C   UNL A   1      44.857  27.442  34.150  1.00  0.00     0.064 A 
ATOM     83  C   UNL A   1      46.116  28.063  34.150  1.00  0.00     0.173 A 
ATOM     84  C   UNL A   1      44.723  26.236  34.855  1.00  0.00     0.173 A 
ATOM     85  F   UNL A   1      46.302  29.211  33.481  1.00  0.00    -0.203 F 
ATOM     86  C   UNL A   1      47.205  27.476  34.789  1.00  0.00     0.198 A 
ATOM     87  C   UNL A   1      45.805  25.672  35.526  1.00  0.00     0.198 A 
ATOM     88  F   UNL A   1      43.541  25.604  34.898  1.00  0.00    -0.203 F 
ATOM     89  F   UNL A   1      48.413  28.051  34.713  1.00  0.00    -0.200 F 
ATOM     90  C   UNL A   1      47.048  26.284  35.480  1.00  0.00     0.200 A 
ATOM     91  F   UNL A   1      45.646  24.530  36.208  1.00  0.00    -0.200 F 
ATOM     92  F   UNL A   1      48.098  25.719  36.091  1.00  0.00    -0.200 F 
ENDBRANCH  59  82
ENDBRANCH  33  34
ENDBRANCH  25  28
ENDBRANCH  23  24
ENDBRANCH  22  23
ENDBRANCH   1  22
TORSDOF 13
ENDMDL
MODEL 3
REMARK VINA RESULT:     -12.2      5.196     10.901
REMARK SMILES C[C@H](SCc1nc2ccccc2c(=O)[nH]1)C(=O)NCCCNC(=O)c1ccc(-c2c3nc(c(-c4c(F)c(F)c(F)c(F)c4F)c4ccc([nH]4)c(-c4c(F)c(F)c(F)c(F)c4F)c4nc(c(-c5c(F)c(F)c(F)c(F)c5F)c5ccc2[nH]5)C=C4)C=C3)cc1
REMARK SMILES IDX 19 1 18 2 16 3 17 4 2 6 1 7 3 8 4 9 5 10 6 11 15 12 7 13
REMARK SMILES IDX 13 14 8 16 12 17 14 18 9 19 11 20 10 21 20 22 21 23 22 24
REMARK SMILES IDX 23 25 24 27 25 28 26 29 87 30 27 31 86 32 28 33 29 34 30 35
REMARK SMILES IDX 80 36 31 37 85 38 79 39 81 40 32 41 84 42 78 43 77 44 33 46
REMARK SMILES IDX 65 47 45 48 64 49 46 50 49 51 63 52 82 53 47 54 48 55 62 57
REMARK SMILES IDX 83 58 50 59 34 60 35 61 43 62 36 63 37 64 41 65 44 66 38 67
REMARK SMILES IDX 39 68 42 69 40 70 66 71 67 72 75 73 68 74 69 75 73 76 76 77
REMARK SMILES IDX 70 78 71 79 74 80 72 81 51 82 52 83 60 84 53 85 54 86 58 87
REMARK SMILES IDX 61 88 55 89 56 90 59 91 57 92
REMARK H PARENT 18 5 15 15 22 26 81 45 49 56
REMARK Flexibility Score: inf
ROOT
ATOM      1  C   UNL A   1      31.410  30.310  25.839  1.00  0.00     0.117 C 
ENDROOT
BRANCH   1   2
ATOM      2  N   UNL A   1      31.192  30.082  24.423  1.00  0.00    -0.355 N 
ATOM      3  C   UNL A   1      31.210  28.955  23.673  1.00  0.00     0.232 C 
ATOM      4  O   UNL A   1      31.116  29.129  22.453  1.00  0.00    -0.274 OA
ATOM      5  H   UNL A   1      30.994  30.899  23.912  1.00  0.00     0.163 HD
BRANCH   3   6
ATOM      6  C   UNL A   1      31.389  27.553  24.233  1.00  0.00     0.133 C 
ATOM      7  C   UNL A   1      32.578  26.837  23.596  1.00  0.00     0.030 C 
BRANCH   6   8
ATOM      8  S   UNL A   1      29.885  26.511  24.186  1.00  0.00    -0.141 SA
BRANCH   8   9
ATOM      9  C   UNL A   1      29.944  25.593  25.756  1.00  0.00     0.145 C 
BRANCH   9  10
ATOM     10  C   UNL A   1      30.865  24.398  25.755  1.00  0.00     0.119 A 
ATOM     11  N   UNL A   1      31.066  23.711  24.676  1.00  0.00    -0.234 NA
ATOM     12  N   UNL A   1      31.394  24.046  26.971  1.00  0.00    -0.309 N 
ATOM     13  C   UNL A   1      31.884  22.571  24.767  1.00  0.00     0.078 A 
ATOM     14  C   UNL A   1      32.156  22.929  27.177  1.00  0.00     0.258 A 
ATOM     15  H   UNL A   1      31.215  24.633  27.741  1.00  0.00     0.171 HD
ATOM     16  C   UNL A   1      32.137  21.826  23.616  1.00  0.00     0.029 A 
ATOM     17  C   UNL A   1      32.451  22.144  25.972  1.00  0.00     0.065 A 
ATOM     18  O   UNL A   1      32.547  22.598  28.286  1.00  0.00    -0.269 OA
ATOM     19  C   UNL A   1      32.958  20.695  23.670  1.00  0.00     0.002 A 
ATOM     20  C   UNL A   1      33.276  21.019  26.040  1.00  0.00     0.016 A 
ATOM     21  C   UNL A   1      33.532  20.296  24.878  1.00  0.00     0.001 A 
ENDBRANCH   9  10
ENDBRANCH   8   9
ENDBRANCH   6   8
ENDBRANCH   3   6
ENDBRANCH   1   2
BRANCH   1  22
ATOM     22  C   UNL A   1      31.377  31.791  26.210  1.00  0.00     0.042 C 
BRANCH  22  23
ATOM     23  C   UNL A   1      32.450  32.223  27.203  1.00  0.00     0.118 C 
BRANCH  23  24
ATOM     24  N   UNL A   1      32.400  33.650  27.470  1.00  0.00    -0.352 N 
ATOM     25  C   UNL A   1      33.100  34.388  28.391  1.00  0.00     0.251 C 
ATOM     26  H   UNL A   1      31.773  34.161  26.908  1.00  0.00     0.163 HD
ATOM     27  O   UNL A   1      32.727  35.523  28.670  1.00  0.00    -0.269 OA
BRANCH  25  28
ATOM     28  C   UNL A   1      34.291  33.818  29.059  1.00  0.00     0.039 A 
ATOM     29  C   UNL A   1      34.106  32.851  30.050  1.00  0.00     0.014 A 
ATOM     30  C   UNL A   1      35.581  34.254  28.743  1.00  0.00     0.014 A 
ATOM     31  C   UNL A   1      35.215  32.289  30.685  1.00  0.00     0.010 A 
ATOM     32  C   UNL A   1      36.689  33.631  29.315  1.00  0.00     0.010 A 
ATOM     33  C   UNL A   1      36.518  32.649  30.301  1.00  0.00    -0.014 A 
BRANCH  33  34
ATOM     34  C   UNL A   1      37.698  31.994  30.925  1.00  0.00     0.031 A 
ATOM     35  C   UNL A   1      38.146  32.371  32.312  1.00  0.00     0.074 A 
ATOM     36  C   UNL A   1      38.388  31.073  30.224  1.00  0.00     0.049 A 
ATOM     37  N   UNL A   1      39.139  31.891  33.019  1.00  0.00    -0.248 NA
ATOM     38  C   UNL A   1      37.396  33.442  32.985  1.00  0.00     0.031 C 
ATOM     39  C   UNL A   1      38.093  30.665  28.849  1.00  0.00     0.029 A 
ATOM     40  N   UNL A   1      39.475  30.309  30.569  1.00  0.00    -0.354 N 
ATOM     41  C   UNL A   1      39.134  32.603  34.212  1.00  0.00     0.074 A 
ATOM     42  C   UNL A   1      38.081  33.591  34.109  1.00  0.00     0.031 C 
ATOM     43  C   UNL A   1      38.949  29.698  28.484  1.00  0.00     0.029 A 
ATOM     44  C   UNL A   1      39.878  29.446  29.580  1.00  0.00     0.049 A 
ATOM     45  H   UNL A   1      39.923  30.374  31.444  1.00  0.00     0.167 HD
ATOM     46  C   UNL A   1      39.917  32.432  35.305  1.00  0.00     0.037 A 
ATOM     47  C   UNL A   1      40.883  28.549  29.559  1.00  0.00     0.037 A 
ATOM     48  C   UNL A   1      40.958  31.441  35.407  1.00  0.00     0.049 A 
ATOM     49  C   UNL A   1      41.740  28.383  30.784  1.00  0.00     0.074 A 
ATOM     50  C   UNL A   1      41.772  31.152  36.489  1.00  0.00     0.029 A 
ATOM     51  N   UNL A   1      41.335  30.580  34.386  1.00  0.00    -0.354 N 
ATOM     52  N   UNL A   1      41.672  29.007  31.935  1.00  0.00    -0.248 NA
ATOM     53  C   UNL A   1      42.805  27.374  30.710  1.00  0.00     0.031 C 
ATOM     54  C   UNL A   1      42.680  30.161  36.103  1.00  0.00     0.029 A 
ATOM     55  C   UNL A   1      42.387  29.779  34.803  1.00  0.00     0.049 A 
ATOM     56  H   UNL A   1      40.917  30.545  33.495  1.00  0.00     0.167 HD
ATOM     57  C   UNL A   1      42.663  28.447  32.732  1.00  0.00     0.074 A 
ATOM     58  C   UNL A   1      43.299  27.416  31.938  1.00  0.00     0.031 C 
ATOM     59  C   UNL A   1      43.013  28.757  34.004  1.00  0.00     0.037 A 
BRANCH  46  60
ATOM     60  C   UNL A   1      39.680  33.338  36.482  1.00  0.00     0.064 A 
ATOM     61  C   UNL A   1      40.299  34.594  36.585  1.00  0.00     0.173 A 
ATOM     62  C   UNL A   1      38.792  32.963  37.502  1.00  0.00     0.173 A 
ATOM     63  F   UNL A   1      41.164  35.000  35.643  1.00  0.00    -0.203 F 
ATOM     64  C   UNL A   1      40.061  35.426  37.677  1.00  0.00     0.198 A 
ATOM     65  C   UNL A   1      38.530  33.812  38.575  1.00  0.00     0.198 A 
ATOM     66  F   UNL A   1      38.168  31.777  37.453  1.00  0.00    -0.203 F 
ATOM     67  F   UNL A   1      40.704  36.596  37.778  1.00  0.00    -0.200 F 
ATOM     68  C   UNL A   1      39.170  35.038  38.666  1.00  0.00     0.200 A 
ATOM     69  F   UNL A   1      37.656  33.442  39.522  1.00  0.00    -0.200 F 
ATOM     70  F   UNL A   1      38.935  35.842  39.711  1.00  0.00    -0.200 F 
ENDBRANCH  46  60
BRANCH  47  71
ATOM     71  C   UNL A   1      41.114  27.720  28.347  1.00  0.00     0.064 A 
ATOM     72  C   UNL A   1      40.493  26.471  28.196  1.00  0.00     0.173 A 
ATOM     73  C   UNL A   1      41.966  28.151  27.319  1.00  0.00     0.173 A 
ATOM     74  F   UNL A   1      39.684  26.005  29.157  1.00  0.00    -0.203 F 
ATOM     75  C   UNL A   1      40.739  25.676  27.078  1.00  0.00     0.198 A 
ATOM     76  C   UNL A   1      42.182  27.370  26.187  1.00  0.00     0.198 A 
ATOM     77  F   UNL A   1      42.579  29.342  27.409  1.00  0.00    -0.203 F 
ATOM     78  F   UNL A   1      40.176  24.463  26.986  1.00  0.00    -0.200 F 
ATOM     79  C   UNL A   1      41.578  26.127  26.072  1.00  0.00     0.200 A 
ATOM     80  F   UNL A   1      42.980  27.820  25.208  1.00  0.00    -0.200 F 
ATOM     81  F   UNL A   1      41.810  25.364  24.995  1.00  0.00    -0.200 F 
ENDBRANCH  47  71
BRANCH  59  82
ATOM     82  C   UNL A   1      44.112  27.942  34.630  1.00  0.00     0.064 A 
ATOM     83  C   UNL A   1      45.457  28.337  34.571  1.00  0.00     0.173 A 
ATOM     84  C   UNL A   1      43.811  26.745  35.301  1.00  0.00     0.173 A 
ATOM     85  F   UNL A   1      45.801  29.465  33.932  1.00  0.00    -0.203 F 
ATOM     86  C   UNL A   1      46.462  27.545  35.119  1.00  0.00     0.198 A 
ATOM     87  C   UNL A   1      44.814  25.975  35.882  1.00  0.00     0.198 A 
ATOM     88  F   UNL A   1      42.541  26.324  35.397  1.00  0.00    -0.203 F 
ATOM     89  F   UNL A   1      47.745  27.907  34.986  1.00  0.00    -0.200 F 
ATOM     90  C   UNL A   1      46.140  26.367  35.777  1.00  0.00     0.200 A 
ATOM     91  F   UNL A   1      44.499  24.848  36.533  1.00  0.00    -0.200 F 
ATOM     92  F   UNL A   1      47.109  25.604  36.301  1.00  0.00    -0.200 F 
ENDBRANCH  59  82
ENDBRANCH  33  34
ENDBRANCH  25  28
ENDBRANCH  23  24
ENDBRANCH  22  23
ENDBRANCH   1  22
TORSDOF 13
ENDMDL
