MODEL 1
REMARK VINA RESULT:     -12.8      0.000      0.000
REMARK SMILES O=C(NCCCNC(=O)c1ccc(S(=O)(=O)Cc2ncccn2)c(F)c1)c1ccc(-c2c3nc(c(-c4c(F)c(F)c(F)c(F)c4F)c4ccc([nH]4)c(-c4c(F)c(F)c(F)c(F)c4F)c4nc(c(-c5c(F)c(F)c(F)c(F)c5F)c5ccc2[nH]5)C=C4)C=C3)cc1
REMARK SMILES IDX 5 1 4 2 3 3 1 4 2 5 27 7 28 8 89 9 29 10 88 11 30 12 31 13
REMARK SMILES IDX 32 14 82 15 33 16 87 17 81 18 83 19 34 20 86 21 80 22 79 23
REMARK SMILES IDX 35 25 67 26 47 27 66 28 48 29 51 30 65 31 84 32 49 33 50 34
REMARK SMILES IDX 64 36 85 37 52 38 36 39 37 40 45 41 38 42 39 43 43 44 46 45
REMARK SMILES IDX 40 46 41 47 44 48 42 49 68 50 69 51 77 52 70 53 71 54 75 55
REMARK SMILES IDX 78 56 72 57 73 58 76 59 74 60 53 61 54 62 62 63 55 64 56 65
REMARK SMILES IDX 60 66 63 67 57 68 58 69 61 70 59 71 6 72 7 73 8 74 9 76
REMARK SMILES IDX 10 77 11 78 26 79 12 80 24 81 13 82 25 83 14 84 15 85 16 86
REMARK SMILES IDX 17 87 18 88 19 89 23 90 20 91 22 92 21 93
REMARK H PARENT 3 6 83 24 51 35 7 75
REMARK Flexibility Score: inf
ROOT
ATOM      1  C   UNL A   1      31.403  31.807  26.552  1.00  0.00     0.042 C 
ENDROOT
BRANCH   1   2
ATOM      2  C   UNL A   1      32.706  32.505  26.928  1.00  0.00     0.118 C 
BRANCH   2   3
ATOM      3  N   UNL A   1      32.489  33.864  27.403  1.00  0.00    -0.352 N 
ATOM      4  O   UNL A   1      32.558  35.610  28.815  1.00  0.00    -0.269 OA
ATOM      5  C   UNL A   1      33.040  34.536  28.465  1.00  0.00     0.251 C 
ATOM      6  H   UNL A   1      31.843  34.388  26.875  1.00  0.00     0.163 HD
BRANCH   5   7
ATOM      7  C   UNL A   1      34.206  33.987  29.190  1.00  0.00     0.039 A 
ATOM      8  C   UNL A   1      34.044  33.034  30.199  1.00  0.00     0.014 A 
ATOM      9  C   UNL A   1      35.492  34.367  28.792  1.00  0.00     0.014 A 
ATOM     10  C   UNL A   1      35.154  32.544  30.878  1.00  0.00     0.010 A 
ATOM     11  C   UNL A   1      36.612  33.816  29.422  1.00  0.00     0.010 A 
ATOM     12  C   UNL A   1      36.450  32.906  30.476  1.00  0.00    -0.014 A 
BRANCH  12  13
ATOM     13  C   UNL A   1      37.613  32.224  31.093  1.00  0.00     0.031 A 
ATOM     14  C   UNL A   1      38.075  32.565  32.478  1.00  0.00     0.074 A 
ATOM     15  C   UNL A   1      38.243  31.269  30.379  1.00  0.00     0.049 A 
ATOM     16  N   UNL A   1      39.066  32.049  33.161  1.00  0.00    -0.248 NA
ATOM     17  C   UNL A   1      37.339  33.619  33.192  1.00  0.00     0.031 C 
ATOM     18  C   UNL A   1      37.889  30.874  29.014  1.00  0.00     0.029 A 
ATOM     19  N   UNL A   1      39.293  30.449  30.699  1.00  0.00    -0.354 N 
ATOM     20  C   UNL A   1      39.082  32.719  34.375  1.00  0.00     0.074 A 
ATOM     21  C   UNL A   1      38.013  33.694  34.335  1.00  0.00     0.031 C 
ATOM     22  C   UNL A   1      38.678  29.861  28.629  1.00  0.00     0.029 A 
ATOM     23  C   UNL A   1      39.632  29.575  29.695  1.00  0.00     0.049 A 
ATOM     24  H   UNL A   1      39.761  30.483  31.565  1.00  0.00     0.167 HD
ATOM     25  C   UNL A   1      39.912  32.526  35.427  1.00  0.00     0.037 A 
ATOM     26  C   UNL A   1      40.613  28.656  29.629  1.00  0.00     0.037 A 
ATOM     27  C   UNL A   1      40.955  31.534  35.469  1.00  0.00     0.049 A 
ATOM     28  C   UNL A   1      41.528  28.483  30.804  1.00  0.00     0.074 A 
ATOM     29  C   UNL A   1      41.801  31.222  36.518  1.00  0.00     0.029 A 
ATOM     30  N   UNL A   1      41.296  30.698  34.416  1.00  0.00    -0.354 N 
ATOM     31  N   UNL A   1      41.505  29.096  31.962  1.00  0.00    -0.248 NA
ATOM     32  C   UNL A   1      42.614  27.503  30.663  1.00  0.00     0.031 C 
ATOM     33  C   UNL A   1      42.683  30.227  36.087  1.00  0.00     0.029 A 
ATOM     34  C   UNL A   1      42.361  29.892  34.782  1.00  0.00     0.049 A 
ATOM     35  H   UNL A   1      40.847  30.680  33.540  1.00  0.00     0.167 HD
ATOM     36  C   UNL A   1      42.570  28.584  32.686  1.00  0.00     0.074 A 
ATOM     37  C   UNL A   1      43.204  27.586  31.848  1.00  0.00     0.031 C 
ATOM     38  C   UNL A   1      42.989  28.917  33.930  1.00  0.00     0.037 A 
BRANCH  25  39
ATOM     39  C   UNL A   1      39.742  33.393  36.638  1.00  0.00     0.064 A 
ATOM     40  C   UNL A   1      38.835  33.030  37.646  1.00  0.00     0.173 A 
ATOM     41  C   UNL A   1      40.376  34.638  36.739  1.00  0.00     0.173 A 
ATOM     42  F   UNL A   1      38.197  31.851  37.587  1.00  0.00    -0.203 F 
ATOM     43  C   UNL A   1      38.552  33.894  38.699  1.00  0.00     0.198 A 
ATOM     44  C   UNL A   1      40.105  35.493  37.804  1.00  0.00     0.198 A 
ATOM     45  F   UNL A   1      41.254  35.027  35.802  1.00  0.00    -0.203 F 
ATOM     46  F   UNL A   1      37.654  33.545  39.630  1.00  0.00    -0.200 F 
ATOM     47  C   UNL A   1      39.185  35.126  38.775  1.00  0.00     0.200 A 
ATOM     48  F   UNL A   1      40.723  36.680  37.883  1.00  0.00    -0.200 F 
ATOM     49  F   UNL A   1      38.904  35.963  39.784  1.00  0.00    -0.200 F 
ENDBRANCH  25  39
BRANCH  26  50
ATOM     50  C   UNL A   1      40.778  27.851  28.394  1.00  0.00     0.064 A 
ATOM     51  C   UNL A   1      40.175  26.590  28.264  1.00  0.00     0.173 A 
ATOM     52  C   UNL A   1      41.569  28.309  27.333  1.00  0.00     0.173 A 
ATOM     53  F   UNL A   1      39.411  26.106  29.256  1.00  0.00    -0.203 F 
ATOM     54  C   UNL A   1      40.378  25.808  27.131  1.00  0.00     0.198 A 
ATOM     55  C   UNL A   1      41.749  27.536  26.187  1.00  0.00     0.198 A 
ATOM     56  F   UNL A   1      42.150  29.515  27.403  1.00  0.00    -0.203 F 
ATOM     57  F   UNL A   1      39.821  24.592  27.050  1.00  0.00    -0.200 F 
ATOM     58  C   UNL A   1      41.162  26.284  26.091  1.00  0.00     0.200 A 
ATOM     59  F   UNL A   1      42.489  28.007  25.174  1.00  0.00    -0.200 F 
ATOM     60  F   UNL A   1      41.348  25.536  24.995  1.00  0.00    -0.200 F 
ENDBRANCH  26  50
BRANCH  38  61
ATOM     61  C   UNL A   1      44.200  28.212  34.458  1.00  0.00     0.064 A 
ATOM     62  C   UNL A   1      44.076  27.009  35.167  1.00  0.00     0.173 A 
ATOM     63  C   UNL A   1      45.479  28.770  34.316  1.00  0.00     0.173 A 
ATOM     64  F   UNL A   1      42.872  26.442  35.332  1.00  0.00    -0.203 F 
ATOM     65  C   UNL A   1      45.190  26.396  35.732  1.00  0.00     0.198 A 
ATOM     66  C   UNL A   1      46.593  28.142  34.863  1.00  0.00     0.198 A 
ATOM     67  F   UNL A   1      45.646  29.911  33.631  1.00  0.00    -0.203 F 
ATOM     68  F   UNL A   1      45.047  25.263  36.431  1.00  0.00    -0.200 F 
ATOM     69  C   UNL A   1      46.448  26.962  35.577  1.00  0.00     0.200 A 
ATOM     70  F   UNL A   1      47.811  28.678  34.695  1.00  0.00    -0.200 F 
ATOM     71  F   UNL A   1      47.522  26.366  36.115  1.00  0.00    -0.200 F 
ENDBRANCH  38  61
ENDBRANCH  12  13
ENDBRANCH   5   7
ENDBRANCH   2   3
ENDBRANCH   1   2
BRANCH   1  72
ATOM     72  C   UNL A   1      31.571  30.324  26.240  1.00  0.00     0.118 C 
BRANCH  72  73
ATOM     73  N   UNL A   1      32.261  30.111  24.976  1.00  0.00    -0.352 N 
ATOM     74  C   UNL A   1      32.691  28.929  24.427  1.00  0.00     0.251 C 
ATOM     75  H   UNL A   1      32.443  30.920  24.445  1.00  0.00     0.163 HD
ATOM     76  O   UNL A   1      33.417  28.908  23.441  1.00  0.00    -0.269 OA
BRANCH  74  77
ATOM     77  C   UNL A   1      32.273  27.669  25.058  1.00  0.00     0.042 A 
ATOM     78  C   UNL A   1      33.216  26.891  25.741  1.00  0.00     0.015 A 
ATOM     79  C   UNL A   1      30.949  27.250  24.928  1.00  0.00     0.054 A 
ATOM     80  C   UNL A   1      32.836  25.656  26.263  1.00  0.00     0.024 A 
ATOM     81  C   UNL A   1      30.586  26.006  25.431  1.00  0.00     0.142 A 
ATOM     82  C   UNL A   1      31.517  25.215  26.096  1.00  0.00     0.103 A 
ATOM     83  F   UNL A   1      29.335  25.575  25.226  1.00  0.00    -0.206 F 
BRANCH  82  84
ATOM     84  S   UNL A   1      31.077  23.594  26.642  1.00  0.00     0.188 S 
ATOM     85  O   UNL A   1      32.195  23.164  27.467  1.00  0.00    -0.223 OA
ATOM     86  O   UNL A   1      29.762  23.705  27.252  1.00  0.00    -0.223 OA
BRANCH  84  87
ATOM     87  C   UNL A   1      30.976  22.497  25.266  1.00  0.00     0.219 C 
BRANCH  87  88
ATOM     88  C   UNL A   1      32.234  21.707  25.172  1.00  0.00     0.143 A 
ATOM     89  N   UNL A   1      33.357  22.339  24.789  1.00  0.00    -0.240 NA
ATOM     90  N   UNL A   1      32.152  20.377  25.373  1.00  0.00    -0.240 NA
ATOM     91  C   UNL A   1      34.458  21.580  24.625  1.00  0.00     0.115 A 
ATOM     92  C   UNL A   1      33.278  19.661  25.184  1.00  0.00     0.115 A 
ATOM     93  C   UNL A   1      34.473  20.219  24.807  1.00  0.00     0.040 A 
ENDBRANCH  87  88
ENDBRANCH  84  87
ENDBRANCH  82  84
ENDBRANCH  74  77
ENDBRANCH  72  73
ENDBRANCH   1  72
TORSDOF 13
ENDMDL
MODEL 2
REMARK VINA RESULT:     -12.7      0.472      7.403
REMARK SMILES O=C(NCCCNC(=O)c1ccc(S(=O)(=O)Cc2ncccn2)c(F)c1)c1ccc(-c2c3nc(c(-c4c(F)c(F)c(F)c(F)c4F)c4ccc([nH]4)c(-c4c(F)c(F)c(F)c(F)c4F)c4nc(c(-c5c(F)c(F)c(F)c(F)c5F)c5ccc2[nH]5)C=C4)C=C3)cc1
REMARK SMILES IDX 5 1 4 2 3 3 1 4 2 5 27 7 28 8 89 9 29 10 88 11 30 12 31 13
REMARK SMILES IDX 32 14 82 15 33 16 87 17 81 18 83 19 34 20 86 21 80 22 79 23
REMARK SMILES IDX 35 25 67 26 47 27 66 28 48 29 51 30 65 31 84 32 49 33 50 34
REMARK SMILES IDX 64 36 85 37 52 38 36 39 37 40 45 41 38 42 39 43 43 44 46 45
REMARK SMILES IDX 40 46 41 47 44 48 42 49 68 50 69 51 77 52 70 53 71 54 75 55
REMARK SMILES IDX 78 56 72 57 73 58 76 59 74 60 53 61 54 62 62 63 55 64 56 65
REMARK SMILES IDX 60 66 63 67 57 68 58 69 61 70 59 71 6 72 7 73 8 74 9 76
REMARK SMILES IDX 10 77 11 78 26 79 12 80 24 81 13 82 25 83 14 84 15 85 16 86
REMARK SMILES IDX 17 87 18 88 19 89 23 90 20 91 22 92 21 93
REMARK H PARENT 3 6 83 24 51 35 7 75
REMARK Flexibility Score: inf
ROOT
ATOM      1  C   UNL A   1      31.439  31.934  26.540  1.00  0.00     0.042 C 
ENDROOT
BRANCH   1   2
ATOM      2  C   UNL A   1      32.697  32.505  27.185  1.00  0.00     0.118 C 
BRANCH   2   3
ATOM      3  N   UNL A   1      32.539  33.903  27.561  1.00  0.00    -0.352 N 
ATOM      4  O   UNL A   1      32.690  35.742  28.843  1.00  0.00    -0.269 OA
ATOM      5  C   UNL A   1      33.125  34.627  28.569  1.00  0.00     0.251 C 
ATOM      6  H   UNL A   1      31.911  34.414  26.999  1.00  0.00     0.163 HD
BRANCH   5   7
ATOM      7  C   UNL A   1      34.273  34.083  29.328  1.00  0.00     0.039 A 
ATOM      8  C   UNL A   1      34.081  33.179  30.376  1.00  0.00     0.014 A 
ATOM      9  C   UNL A   1      35.570  34.416  28.924  1.00  0.00     0.014 A 
ATOM     10  C   UNL A   1      35.175  32.694  31.085  1.00  0.00     0.010 A 
ATOM     11  C   UNL A   1      36.672  33.867  29.586  1.00  0.00     0.010 A 
ATOM     12  C   UNL A   1      36.481  33.008  30.678  1.00  0.00    -0.014 A 
BRANCH  12  13
ATOM     13  C   UNL A   1      37.624  32.328  31.334  1.00  0.00     0.031 A 
ATOM     14  C   UNL A   1      38.383  31.233  30.646  1.00  0.00     0.074 A 
ATOM     15  C   UNL A   1      37.979  32.733  32.570  1.00  0.00     0.049 A 
ATOM     16  N   UNL A   1      39.413  30.552  31.082  1.00  0.00    -0.248 NA
ATOM     17  C   UNL A   1      37.934  30.847  29.300  1.00  0.00     0.031 C 
ATOM     18  C   UNL A   1      37.295  33.775  33.340  1.00  0.00     0.029 A 
ATOM     19  N   UNL A   1      39.004  32.335  33.390  1.00  0.00    -0.354 N 
ATOM     20  C   UNL A   1      39.727  29.652  30.075  1.00  0.00     0.074 A 
ATOM     21  C   UNL A   1      38.771  29.857  29.009  1.00  0.00     0.031 C 
ATOM     22  C   UNL A   1      37.942  33.964  34.499  1.00  0.00     0.029 A 
ATOM     23  C   UNL A   1      39.050  33.017  34.581  1.00  0.00     0.049 A 
ATOM     24  H   UNL A   1      39.646  31.629  33.148  1.00  0.00     0.167 HD
ATOM     25  C   UNL A   1      40.732  28.745  30.048  1.00  0.00     0.037 A 
ATOM     26  C   UNL A   1      39.877  32.885  35.633  1.00  0.00     0.037 A 
ATOM     27  C   UNL A   1      41.697  28.567  31.101  1.00  0.00     0.049 A 
ATOM     28  C   UNL A   1      40.966  31.856  35.579  1.00  0.00     0.074 A 
ATOM     29  C   UNL A   1      42.790  27.718  31.131  1.00  0.00     0.029 A 
ATOM     30  N   UNL A   1      41.683  29.245  32.311  1.00  0.00    -0.354 N 
ATOM     31  N   UNL A   1      41.277  31.039  34.602  1.00  0.00    -0.248 NA
ATOM     32  C   UNL A   1      41.811  31.716  36.773  1.00  0.00     0.031 C 
ATOM     33  C   UNL A   1      43.413  27.851  32.375  1.00  0.00     0.029 A 
ATOM     34  C   UNL A   1      42.731  28.811  33.106  1.00  0.00     0.049 A 
ATOM     35  H   UNL A   1      41.028  29.934  32.565  1.00  0.00     0.167 HD
ATOM     36  C   UNL A   1      42.346  30.287  35.061  1.00  0.00     0.074 A 
ATOM     37  C   UNL A   1      42.652  30.763  36.395  1.00  0.00     0.031 C 
ATOM     38  C   UNL A   1      43.009  29.285  34.435  1.00  0.00     0.037 A 
BRANCH  25  39
ATOM     39  C   UNL A   1      40.863  27.863  28.842  1.00  0.00     0.064 A 
ATOM     40  C   UNL A   1      41.695  28.239  27.777  1.00  0.00     0.173 A 
ATOM     41  C   UNL A   1      40.072  26.717  28.687  1.00  0.00     0.173 A 
ATOM     42  F   UNL A   1      42.466  29.334  27.877  1.00  0.00    -0.203 F 
ATOM     43  C   UNL A   1      41.713  27.513  26.590  1.00  0.00     0.198 A 
ATOM     44  C   UNL A   1      40.104  25.982  27.505  1.00  0.00     0.198 A 
ATOM     45  F   UNL A   1      39.264  26.315  29.680  1.00  0.00    -0.203 F 
ATOM     46  F   UNL A   1      42.486  27.912  25.571  1.00  0.00    -0.200 F 
ATOM     47  C   UNL A   1      40.915  26.386  26.455  1.00  0.00     0.200 A 
ATOM     48  F   UNL A   1      39.341  24.888  27.377  1.00  0.00    -0.200 F 
ATOM     49  F   UNL A   1      40.923  25.694  25.307  1.00  0.00    -0.200 F 
ENDBRANCH  25  39
BRANCH  26  50
ATOM     50  C   UNL A   1      39.685  33.746  36.827  1.00  0.00     0.064 A 
ATOM     51  C   UNL A   1      38.882  33.327  37.900  1.00  0.00     0.173 A 
ATOM     52  C   UNL A   1      40.270  35.015  36.906  1.00  0.00     0.173 A 
ATOM     53  F   UNL A   1      38.296  32.121  37.869  1.00  0.00    -0.203 F 
ATOM     54  C   UNL A   1      38.653  34.157  38.994  1.00  0.00     0.198 A 
ATOM     55  C   UNL A   1      40.062  35.834  38.014  1.00  0.00     0.198 A 
ATOM     56  F   UNL A   1      41.061  35.450  35.914  1.00  0.00    -0.203 F 
ATOM     57  F   UNL A   1      37.851  33.748  39.986  1.00  0.00    -0.200 F 
ATOM     58  C   UNL A   1      39.247  35.408  39.052  1.00  0.00     0.200 A 
ATOM     59  F   UNL A   1      40.655  37.034  38.078  1.00  0.00    -0.200 F 
ATOM     60  F   UNL A   1      39.036  36.203  40.110  1.00  0.00    -0.200 F 
ENDBRANCH  26  50
BRANCH  38  61
ATOM     61  C   UNL A   1      44.120  28.622  35.189  1.00  0.00     0.064 A 
ATOM     62  C   UNL A   1      45.437  29.093  35.086  1.00  0.00     0.173 A 
ATOM     63  C   UNL A   1      43.885  27.475  35.962  1.00  0.00     0.173 A 
ATOM     64  F   UNL A   1      45.709  30.184  34.355  1.00  0.00    -0.203 F 
ATOM     65  C   UNL A   1      46.484  28.429  35.717  1.00  0.00     0.198 A 
ATOM     66  C   UNL A   1      44.932  26.827  36.609  1.00  0.00     0.198 A 
ATOM     67  F   UNL A   1      42.639  26.999  36.101  1.00  0.00    -0.203 F 
ATOM     68  F   UNL A   1      47.739  28.878  35.582  1.00  0.00    -0.200 F 
ATOM     69  C   UNL A   1      46.230  27.298  36.479  1.00  0.00     0.200 A 
ATOM     70  F   UNL A   1      44.683  25.747  37.363  1.00  0.00    -0.200 F 
ATOM     71  F   UNL A   1      47.239  26.663  37.093  1.00  0.00    -0.200 F 
ENDBRANCH  38  61
ENDBRANCH  12  13
ENDBRANCH   5   7
ENDBRANCH   2   3
ENDBRANCH   1   2
BRANCH   1  72
ATOM     72  C   UNL A   1      31.544  30.450  26.204  1.00  0.00     0.118 C 
BRANCH  72  73
ATOM     73  N   UNL A   1      32.274  30.226  24.964  1.00  0.00    -0.352 N 
ATOM     74  C   UNL A   1      32.713  29.038  24.434  1.00  0.00     0.251 C 
ATOM     75  H   UNL A   1      32.480  31.031  24.436  1.00  0.00     0.163 HD
ATOM     76  O   UNL A   1      33.471  29.006  23.473  1.00  0.00    -0.269 OA
BRANCH  74  77
ATOM     77  C   UNL A   1      32.264  27.784  25.056  1.00  0.00     0.042 A 
ATOM     78  C   UNL A   1      33.161  27.032  25.824  1.00  0.00     0.015 A 
ATOM     79  C   UNL A   1      30.959  27.344  24.835  1.00  0.00     0.054 A 
ATOM     80  C   UNL A   1      32.758  25.802  26.340  1.00  0.00     0.024 A 
ATOM     81  C   UNL A   1      30.574  26.105  25.333  1.00  0.00     0.142 A 
ATOM     82  C   UNL A   1      31.461  25.339  26.082  1.00  0.00     0.103 A 
ATOM     83  F   UNL A   1      29.348  25.653  25.041  1.00  0.00    -0.206 F 
BRANCH  82  84
ATOM     84  S   UNL A   1      31.002  23.723  26.624  1.00  0.00     0.188 S 
ATOM     85  O   UNL A   1      32.115  23.277  27.447  1.00  0.00    -0.223 OA
ATOM     86  O   UNL A   1      29.689  23.849  27.236  1.00  0.00    -0.223 OA
BRANCH  84  87
ATOM     87  C   UNL A   1      30.885  22.630  25.247  1.00  0.00     0.219 C 
BRANCH  87  88
ATOM     88  C   UNL A   1      32.127  21.814  25.158  1.00  0.00     0.143 A 
ATOM     89  N   UNL A   1      33.252  22.410  24.726  1.00  0.00    -0.240 NA
ATOM     90  N   UNL A   1      32.026  20.495  25.414  1.00  0.00    -0.240 NA
ATOM     91  C   UNL A   1      34.335  21.625  24.569  1.00  0.00     0.115 A 
ATOM     92  C   UNL A   1      33.135  19.751  25.229  1.00  0.00     0.115 A 
ATOM     93  C   UNL A   1      34.332  20.273  24.805  1.00  0.00     0.040 A 
ENDBRANCH  87  88
ENDBRANCH  84  87
ENDBRANCH  82  84
ENDBRANCH  74  77
ENDBRANCH  72  73
ENDBRANCH   1  72
TORSDOF 13
ENDMDL
MODEL 3
REMARK VINA RESULT:     -12.7      5.330      9.753
REMARK SMILES O=C(NCCCNC(=O)c1ccc(S(=O)(=O)Cc2ncccn2)c(F)c1)c1ccc(-c2c3nc(c(-c4c(F)c(F)c(F)c(F)c4F)c4ccc([nH]4)c(-c4c(F)c(F)c(F)c(F)c4F)c4nc(c(-c5c(F)c(F)c(F)c(F)c5F)c5ccc2[nH]5)C=C4)C=C3)cc1
REMARK SMILES IDX 5 1 4 2 3 3 1 4 2 5 27 7 28 8 89 9 29 10 88 11 30 12 31 13
REMARK SMILES IDX 32 14 82 15 33 16 87 17 81 18 83 19 34 20 86 21 80 22 79 23
REMARK SMILES IDX 35 25 67 26 47 27 66 28 48 29 51 30 65 31 84 32 49 33 50 34
REMARK SMILES IDX 64 36 85 37 52 38 36 39 37 40 45 41 38 42 39 43 43 44 46 45
REMARK SMILES IDX 40 46 41 47 44 48 42 49 68 50 69 51 77 52 70 53 71 54 75 55
REMARK SMILES IDX 78 56 72 57 73 58 76 59 74 60 53 61 54 62 62 63 55 64 56 65
REMARK SMILES IDX 60 66 63 67 57 68 58 69 61 70 59 71 6 72 7 73 8 74 9 76
REMARK SMILES IDX 10 77 11 78 26 79 12 80 24 81 13 82 25 83 14 84 15 85 16 86
REMARK SMILES IDX 17 87 18 88 19 89 23 90 20 91 22 92 21 93
REMARK H PARENT 3 6 83 24 51 35 7 75
REMARK Flexibility Score: inf
ROOT
ATOM      1  C   UNL A   1      37.985  19.703  24.936  1.00  0.00     0.042 C 
ENDROOT
BRANCH   1   2
ATOM      2  C   UNL A   1      39.081  20.188  25.878  1.00  0.00     0.118 C 
BRANCH   2   3
ATOM      3  N   UNL A   1      40.160  19.220  26.016  1.00  0.00    -0.352 N 
ATOM      4  O   UNL A   1      42.267  18.441  26.020  1.00  0.00    -0.269 OA
ATOM      5  C   UNL A   1      41.515  19.406  26.127  1.00  0.00     0.251 C 
ATOM      6  H   UNL A   1      39.870  18.279  26.035  1.00  0.00     0.163 HD
BRANCH   5   7
ATOM      7  C   UNL A   1      42.081  20.750  26.376  1.00  0.00     0.039 A 
ATOM      8  C   UNL A   1      42.337  21.630  25.322  1.00  0.00     0.014 A 
ATOM      9  C   UNL A   1      42.277  21.168  27.696  1.00  0.00     0.014 A 
ATOM     10  C   UNL A   1      42.885  22.883  25.579  1.00  0.00     0.010 A 
ATOM     11  C   UNL A   1      42.753  22.456  27.959  1.00  0.00     0.010 A 
ATOM     12  C   UNL A   1      43.069  23.320  26.901  1.00  0.00    -0.014 A 
BRANCH  12  13
ATOM     13  C   UNL A   1      43.476  24.724  27.146  1.00  0.00     0.031 A 
ATOM     14  C   UNL A   1      42.519  25.729  27.715  1.00  0.00     0.074 A 
ATOM     15  C   UNL A   1      44.745  25.078  26.858  1.00  0.00     0.049 A 
ATOM     16  N   UNL A   1      42.728  26.989  27.999  1.00  0.00    -0.248 NA
ATOM     17  C   UNL A   1      41.152  25.268  28.001  1.00  0.00     0.031 C 
ATOM     18  C   UNL A   1      45.753  24.185  26.280  1.00  0.00     0.029 A 
ATOM     19  N   UNL A   1      45.410  26.265  27.022  1.00  0.00    -0.354 N 
ATOM     20  C   UNL A   1      41.523  27.475  28.484  1.00  0.00     0.074 A 
ATOM     21  C   UNL A   1      40.576  26.381  28.441  1.00  0.00     0.031 C 
ATOM     22  C   UNL A   1      46.917  24.842  26.178  1.00  0.00     0.029 A 
ATOM     23  C   UNL A   1      46.724  26.217  26.625  1.00  0.00     0.049 A 
ATOM     24  H   UNL A   1      44.987  27.075  27.389  1.00  0.00     0.167 HD
ATOM     25  C   UNL A   1      41.243  28.722  28.930  1.00  0.00     0.037 A 
ATOM     26  C   UNL A   1      47.667  27.176  26.605  1.00  0.00     0.037 A 
ATOM     27  C   UNL A   1      42.198  29.797  28.996  1.00  0.00     0.049 A 
ATOM     28  C   UNL A   1      47.317  28.552  27.086  1.00  0.00     0.074 A 
ATOM     29  C   UNL A   1      42.020  31.075  29.496  1.00  0.00     0.029 A 
ATOM     30  N   UNL A   1      43.507  29.723  28.543  1.00  0.00    -0.354 N 
ATOM     31  N   UNL A   1      46.184  28.986  27.581  1.00  0.00    -0.248 NA
ATOM     32  C   UNL A   1      48.366  29.576  26.997  1.00  0.00     0.031 C 
ATOM     33  C   UNL A   1      43.208  31.788  29.308  1.00  0.00     0.029 A 
ATOM     34  C   UNL A   1      44.138  30.942  28.726  1.00  0.00     0.049 A 
ATOM     35  H   UNL A   1      43.925  28.922  28.152  1.00  0.00     0.167 HD
ATOM     36  C   UNL A   1      46.379  30.330  27.857  1.00  0.00     0.074 A 
ATOM     37  C   UNL A   1      47.750  30.636  27.502  1.00  0.00     0.031 C 
ATOM     38  C   UNL A   1      45.497  31.231  28.352  1.00  0.00     0.037 A 
BRANCH  25  39
ATOM     39  C   UNL A   1      39.848  29.015  29.396  1.00  0.00     0.064 A 
ATOM     40  C   UNL A   1      39.475  28.751  30.723  1.00  0.00     0.173 A 
ATOM     41  C   UNL A   1      38.853  29.434  28.503  1.00  0.00     0.173 A 
ATOM     42  F   UNL A   1      40.392  28.340  31.613  1.00  0.00    -0.203 F 
ATOM     43  C   UNL A   1      38.151  28.873  31.133  1.00  0.00     0.198 A 
ATOM     44  C   UNL A   1      37.531  29.572  28.920  1.00  0.00     0.198 A 
ATOM     45  F   UNL A   1      39.162  29.703  27.226  1.00  0.00    -0.203 F 
ATOM     46  F   UNL A   1      37.809  28.578  32.394  1.00  0.00    -0.200 F 
ATOM     47  C   UNL A   1      37.180  29.281  30.230  1.00  0.00     0.200 A 
ATOM     48  F   UNL A   1      36.595  29.976  28.050  1.00  0.00    -0.200 F 
ATOM     49  F   UNL A   1      35.903  29.387  30.621  1.00  0.00    -0.200 F 
ENDBRANCH  25  39
BRANCH  26  50
ATOM     50  C   UNL A   1      49.023  26.858  26.091  1.00  0.00     0.064 A 
ATOM     51  C   UNL A   1      49.356  27.069  24.744  1.00  0.00     0.173 A 
ATOM     52  C   UNL A   1      50.001  26.305  26.927  1.00  0.00     0.173 A 
ATOM     53  F   UNL A   1      48.451  27.592  23.903  1.00  0.00    -0.203 F 
ATOM     54  C   UNL A   1      50.608  26.716  24.248  1.00  0.00     0.198 A 
ATOM     55  C   UNL A   1      51.263  25.977  26.436  1.00  0.00     0.198 A 
ATOM     56  F   UNL A   1      49.735  26.102  28.226  1.00  0.00    -0.203 F 
ATOM     57  F   UNL A   1      50.886  26.893  22.950  1.00  0.00    -0.200 F 
ATOM     58  C   UNL A   1      51.561  26.174  25.096  1.00  0.00     0.200 A 
ATOM     59  F   UNL A   1      52.191  25.474  27.261  1.00  0.00    -0.200 F 
ATOM     60  F   UNL A   1      52.771  25.844  24.621  1.00  0.00    -0.200 F 
ENDBRANCH  26  50
BRANCH  38  61
ATOM     61  C   UNL A   1      45.978  32.639  28.524  1.00  0.00     0.064 A 
ATOM     62  C   UNL A   1      46.601  33.043  29.714  1.00  0.00     0.173 A 
ATOM     63  C   UNL A   1      45.759  33.604  27.530  1.00  0.00     0.173 A 
ATOM     64  F   UNL A   1      46.826  32.155  30.693  1.00  0.00    -0.203 F 
ATOM     65  C   UNL A   1      46.972  34.369  29.910  1.00  0.00     0.198 A 
ATOM     66  C   UNL A   1      46.152  34.924  27.722  1.00  0.00     0.198 A 
ATOM     67  F   UNL A   1      45.181  33.258  26.370  1.00  0.00    -0.203 F 
ATOM     68  F   UNL A   1      47.539  34.740  31.066  1.00  0.00    -0.200 F 
ATOM     69  C   UNL A   1      46.750  35.307  28.913  1.00  0.00     0.200 A 
ATOM     70  F   UNL A   1      45.956  35.826  26.750  1.00  0.00    -0.200 F 
ATOM     71  F   UNL A   1      47.115  36.584  29.100  1.00  0.00    -0.200 F 
ENDBRANCH  38  61
ENDBRANCH  12  13
ENDBRANCH   5   7
ENDBRANCH   2   3
ENDBRANCH   1   2
BRANCH   1  72
ATOM     72  C   UNL A   1      36.883  20.731  24.699  1.00  0.00     0.118 C 
BRANCH  72  73
ATOM     73  N   UNL A   1      35.880  20.703  25.754  1.00  0.00    -0.352 N 
ATOM     74  C   UNL A   1      34.808  21.541  25.934  1.00  0.00     0.251 C 
ATOM     75  H   UNL A   1      35.983  19.991  26.425  1.00  0.00     0.163 HD
ATOM     76  O   UNL A   1      34.143  21.518  26.963  1.00  0.00    -0.269 OA
BRANCH  74  77
ATOM     77  C   UNL A   1      34.472  22.491  24.864  1.00  0.00     0.042 A 
ATOM     78  C   UNL A   1      34.871  23.829  24.976  1.00  0.00     0.015 A 
ATOM     79  C   UNL A   1      33.723  22.051  23.773  1.00  0.00     0.054 A 
ATOM     80  C   UNL A   1      34.477  24.745  24.003  1.00  0.00     0.024 A 
ATOM     81  C   UNL A   1      33.314  22.977  22.821  1.00  0.00     0.142 A 
ATOM     82  C   UNL A   1      33.689  24.312  22.929  1.00  0.00     0.103 A 
ATOM     83  F   UNL A   1      32.524  22.560  21.824  1.00  0.00    -0.206 F 
BRANCH  82  84
ATOM     84  S   UNL A   1      33.082  25.501  21.773  1.00  0.00     0.188 S 
ATOM     85  O   UNL A   1      33.776  26.734  22.110  1.00  0.00    -0.223 OA
ATOM     86  O   UNL A   1      33.278  24.931  20.450  1.00  0.00    -0.223 OA
BRANCH  84  87
ATOM     87  C   UNL A   1      31.359  25.771  22.027  1.00  0.00     0.219 C 
BRANCH  87  88
ATOM     88  C   UNL A   1      31.161  27.075  22.719  1.00  0.00     0.143 A 
ATOM     89  N   UNL A   1      31.410  27.142  24.038  1.00  0.00    -0.240 NA
ATOM     90  N   UNL A   1      30.639  28.089  22.001  1.00  0.00    -0.240 NA
ATOM     91  C   UNL A   1      31.135  28.309  24.652  1.00  0.00     0.115 A 
ATOM     92  C   UNL A   1      30.369  29.230  22.664  1.00  0.00     0.115 A 
ATOM     93  C   UNL A   1      30.602  29.397  24.006  1.00  0.00     0.040 A 
ENDBRANCH  87  88
ENDBRANCH  84  87
ENDBRANCH  82  84
ENDBRANCH  74  77
ENDBRANCH  72  73
ENDBRANCH   1  72
TORSDOF 13
ENDMDL
