MODEL 1
REMARK VINA RESULT:     -14.8      0.000      0.000
REMARK SMILES Cc1ccc(C(=O)NC2CC2)cc1NC(=O)[C@@H]1[C@@H](C(=O)NCCCNC(=O)c2ccc(-c3c4nc(c(-c5c(F)c(F)c(F)c(F)c5F)c5ccc([nH]5)c(-c5c(F)c(F)c(F)c(F)c5F)c5nc(c(-c6c(F)c(F)c(F)c(F)c6F)c6ccc3[nH]6)C=C5)C=C4)cc2)[C@H]2C=C[C@@H]1C2
REMARK SMILES IDX 22 1 21 2 19 3 20 4 18 6 17 7 94 8 91 9 93 10 95 11 92 12
REMARK SMILES IDX 15 13 14 14 16 16 13 17 1 18 2 19 3 20 4 21 12 22 5 23 6 24
REMARK SMILES IDX 7 25 8 26 9 28 10 29 11 30 23 31 24 32 25 33 26 34 27 36
REMARK SMILES IDX 28 37 29 38 90 39 30 40 89 41 31 42 32 43 33 44 83 45 34 46
REMARK SMILES IDX 88 47 82 48 84 49 35 50 87 51 81 52 80 53 36 55 68 56 48 57
REMARK SMILES IDX 67 58 49 59 52 60 66 61 85 62 50 63 51 64 65 66 86 67 53 68
REMARK SMILES IDX 37 69 38 70 46 71 39 72 40 73 44 74 47 75 41 76 42 77 45 78
REMARK SMILES IDX 43 79 69 80 70 81 78 82 71 83 72 84 76 85 79 86 73 87 74 88
REMARK SMILES IDX 77 89 75 90 54 91 55 92 63 93 56 94 57 95 61 96 64 97 58 98
REMARK SMILES IDX 59 99 62 100 60 101
REMARK H PARENT 21 5 14 15 8 27 25 35 84 54 52 65
REMARK Flexibility Score: inf
ROOT
ATOM      1  C   UNL A   1      31.871  29.305  26.022  1.00  0.00     0.117 C 
ENDROOT
BRANCH   1   2
ATOM      2  N   UNL A   1      32.845  28.229  25.942  1.00  0.00    -0.356 N 
ATOM      3  C   UNL A   1      32.767  26.928  25.574  1.00  0.00     0.224 C 
ATOM      4  O   UNL A   1      33.824  26.291  25.673  1.00  0.00    -0.275 OA
ATOM      5  H   UNL A   1      33.751  28.504  26.214  1.00  0.00     0.163 HD
BRANCH   3   6
ATOM      6  C   UNL A   1      31.493  26.199  25.154  1.00  0.00     0.098 C 
ATOM      7  C   UNL A   1      31.776  24.642  25.150  1.00  0.00     0.099 C 
ATOM      8  C   UNL A   1      31.112  24.172  23.830  1.00  0.00     0.025 C 
ATOM      9  C   UNL A   1      30.878  26.399  23.753  1.00  0.00     0.025 C 
ATOM     10  C   UNL A   1      31.972  24.664  22.692  1.00  0.00    -0.027 C 
ATOM     11  C   UNL A   1      29.960  25.169  23.682  1.00  0.00     0.017 C 
ATOM     12  C   UNL A   1      31.847  25.996  22.656  1.00  0.00    -0.027 C 
BRANCH   7  13
ATOM     13  C   UNL A   1      31.245  23.852  26.335  1.00  0.00     0.228 C 
ATOM     14  N   UNL A   1      31.609  22.538  26.530  1.00  0.00    -0.326 N 
ATOM     15  H   UNL A   1      31.153  22.109  27.288  1.00  0.00     0.169 HD
ATOM     16  O   UNL A   1      30.402  24.332  27.097  1.00  0.00    -0.274 OA
BRANCH  14  17
ATOM     17  C   UNL A   1      32.513  21.685  25.850  1.00  0.00     0.044 A 
ATOM     18  C   UNL A   1      34.528  22.965  26.833  1.00  0.00     0.046 C 
ATOM     19  C   UNL A   1      33.898  21.842  26.053  1.00  0.00    -0.027 A 
ATOM     20  C   UNL A   1      34.777  20.911  25.472  1.00  0.00     0.006 A 
ATOM     21  C   UNL A   1      34.299  19.847  24.707  1.00  0.00     0.014 A 
ATOM     22  C   UNL A   1      32.075  20.689  24.958  1.00  0.00     0.040 A 
ATOM     23  C   UNL A   1      32.934  19.722  24.425  1.00  0.00     0.041 A 
BRANCH  23  24
ATOM     24  C   UNL A   1      32.526  18.565  23.559  1.00  0.00     0.251 C 
ATOM     25  O   UNL A   1      32.227  18.785  22.382  1.00  0.00    -0.269 OA
ATOM     26  N   UNL A   1      32.492  17.248  23.970  1.00  0.00    -0.349 N 
ATOM     27  H   UNL A   1      32.214  16.614  23.270  1.00  0.00     0.164 HD
BRANCH  26  28
ATOM     28  C   UNL A   1      32.787  16.645  25.218  1.00  0.00     0.082 C 
ATOM     29  C   UNL A   1      32.709  15.150  25.359  1.00  0.00     0.027 C 
ATOM     30  C   UNL A   1      34.036  15.840  25.448  1.00  0.00     0.027 C 
ENDBRANCH  26  28
ENDBRANCH  23  24
ENDBRANCH  14  17
ENDBRANCH   7  13
ENDBRANCH   3   6
ENDBRANCH   1   2
BRANCH   1  31
ATOM     31  C   UNL A   1      32.342  30.442  26.917  1.00  0.00     0.042 C 
BRANCH  31  32
ATOM     32  C   UNL A   1      33.821  30.322  27.254  1.00  0.00     0.118 C 
BRANCH  32  33
ATOM     33  N   UNL A   1      34.273  31.248  28.291  1.00  0.00    -0.352 N 
ATOM     34  C   UNL A   1      35.372  31.157  29.137  1.00  0.00     0.251 C 
ATOM     35  H   UNL A   1      33.719  32.053  28.407  1.00  0.00     0.163 HD
ATOM     36  O   UNL A   1      35.587  32.006  29.972  1.00  0.00    -0.269 OA
BRANCH  34  37
ATOM     37  C   UNL A   1      36.347  30.059  28.910  1.00  0.00     0.039 A 
ATOM     38  C   UNL A   1      36.776  29.321  30.019  1.00  0.00     0.014 A 
ATOM     39  C   UNL A   1      36.984  29.925  27.681  1.00  0.00     0.014 A 
ATOM     40  C   UNL A   1      37.993  28.648  29.952  1.00  0.00     0.010 A 
ATOM     41  C   UNL A   1      38.238  29.354  27.646  1.00  0.00     0.010 A 
ATOM     42  C   UNL A   1      38.770  28.772  28.798  1.00  0.00    -0.014 A 
BRANCH  42  43
ATOM     43  C   UNL A   1      40.185  28.425  28.756  1.00  0.00     0.031 A 
ATOM     44  C   UNL A   1      40.619  27.087  28.308  1.00  0.00     0.074 A 
ATOM     45  C   UNL A   1      41.113  29.352  29.084  1.00  0.00     0.049 A 
ATOM     46  N   UNL A   1      41.685  26.500  28.740  1.00  0.00    -0.248 NA
ATOM     47  C   UNL A   1      39.865  26.288  27.347  1.00  0.00     0.031 C 
ATOM     48  C   UNL A   1      42.559  29.255  28.899  1.00  0.00     0.029 A 
ATOM     49  N   UNL A   1      40.936  30.526  29.839  1.00  0.00    -0.354 N 
ATOM     50  C   UNL A   1      41.895  25.398  27.948  1.00  0.00     0.074 A 
ATOM     51  C   UNL A   1      40.706  25.271  27.135  1.00  0.00     0.031 C 
ATOM     52  C   UNL A   1      43.161  30.104  29.746  1.00  0.00     0.029 A 
ATOM     53  C   UNL A   1      42.127  30.682  30.586  1.00  0.00     0.049 A 
ATOM     54  H   UNL A   1      40.149  31.117  29.845  1.00  0.00     0.167 HD
ATOM     55  C   UNL A   1      43.106  24.775  27.952  1.00  0.00     0.037 A 
ATOM     56  C   UNL A   1      42.125  30.671  31.949  1.00  0.00     0.037 A 
ATOM     57  C   UNL A   1      44.047  25.422  28.855  1.00  0.00     0.049 A 
ATOM     58  C   UNL A   1      42.968  29.574  32.555  1.00  0.00     0.074 A 
ATOM     59  C   UNL A   1      45.028  26.377  28.644  1.00  0.00     0.029 A 
ATOM     60  N   UNL A   1      43.828  25.378  30.227  1.00  0.00    -0.354 N 
ATOM     61  N   UNL A   1      43.386  28.534  31.891  1.00  0.00    -0.248 NA
ATOM     62  C   UNL A   1      43.364  29.534  33.961  1.00  0.00     0.031 C 
ATOM     63  C   UNL A   1      45.364  26.948  29.893  1.00  0.00     0.029 A 
ATOM     64  C   UNL A   1      44.604  26.325  30.867  1.00  0.00     0.049 A 
ATOM     65  H   UNL A   1      43.209  24.760  30.678  1.00  0.00     0.167 HD
ATOM     66  C   UNL A   1      44.053  27.689  32.737  1.00  0.00     0.074 A 
ATOM     67  C   UNL A   1      44.031  28.368  34.018  1.00  0.00     0.031 C 
ATOM     68  C   UNL A   1      44.552  26.491  32.309  1.00  0.00     0.037 A 
BRANCH  55  69
ATOM     69  C   UNL A   1      43.484  23.777  26.893  1.00  0.00     0.064 A 
ATOM     70  C   UNL A   1      43.084  22.427  26.975  1.00  0.00     0.173 A 
ATOM     71  C   UNL A   1      44.299  24.099  25.792  1.00  0.00     0.173 A 
ATOM     72  F   UNL A   1      42.250  22.002  27.931  1.00  0.00    -0.203 F 
ATOM     73  C   UNL A   1      43.553  21.458  26.086  1.00  0.00     0.198 A 
ATOM     74  C   UNL A   1      44.808  23.121  24.934  1.00  0.00     0.198 A 
ATOM     75  F   UNL A   1      44.619  25.376  25.529  1.00  0.00    -0.203 F 
ATOM     76  F   UNL A   1      43.153  20.185  26.221  1.00  0.00    -0.200 F 
ATOM     77  C   UNL A   1      44.443  21.798  25.089  1.00  0.00     0.200 A 
ATOM     78  F   UNL A   1      45.669  23.467  23.967  1.00  0.00    -0.200 F 
ATOM     79  F   UNL A   1      44.939  20.856  24.274  1.00  0.00    -0.200 F 
ENDBRANCH  55  69
BRANCH  56  80
ATOM     80  C   UNL A   1      40.874  31.215  32.535  1.00  0.00     0.064 A 
ATOM     81  C   UNL A   1      40.652  32.604  32.451  1.00  0.00     0.173 A 
ATOM     82  C   UNL A   1      39.770  30.399  32.805  1.00  0.00     0.173 A 
ATOM     83  F   UNL A   1      41.678  33.431  32.192  1.00  0.00    -0.203 F 
ATOM     84  C   UNL A   1      39.368  33.137  32.507  1.00  0.00     0.198 A 
ATOM     85  C   UNL A   1      38.484  30.941  32.876  1.00  0.00     0.198 A 
ATOM     86  F   UNL A   1      39.913  29.068  32.879  1.00  0.00    -0.203 F 
ATOM     87  F   UNL A   1      39.179  34.449  32.299  1.00  0.00    -0.200 F 
ATOM     88  C   UNL A   1      38.280  32.301  32.691  1.00  0.00     0.200 A 
ATOM     89  F   UNL A   1      37.428  30.129  33.033  1.00  0.00    -0.200 F 
ATOM     90  F   UNL A   1      37.038  32.799  32.648  1.00  0.00    -0.200 F 
ENDBRANCH  56  80
BRANCH  68  91
ATOM     91  C   UNL A   1      45.121  25.405  33.183  1.00  0.00     0.064 A 
ATOM     92  C   UNL A   1      46.490  25.107  33.266  1.00  0.00     0.173 A 
ATOM     93  C   UNL A   1      44.286  24.720  34.099  1.00  0.00     0.173 A 
ATOM     94  F   UNL A   1      47.391  25.765  32.522  1.00  0.00    -0.203 F 
ATOM     95  C   UNL A   1      46.983  24.158  34.165  1.00  0.00     0.198 A 
ATOM     96  C   UNL A   1      44.788  23.815  35.032  1.00  0.00     0.198 A 
ATOM     97  F   UNL A   1      42.962  24.931  34.131  1.00  0.00    -0.203 F 
ATOM     98  F   UNL A   1      48.294  23.882  34.184  1.00  0.00    -0.200 F 
ATOM     99  C   UNL A   1      46.136  23.523  35.055  1.00  0.00     0.200 A 
ATOM    100  F   UNL A   1      43.961  23.245  35.919  1.00  0.00    -0.200 F 
ATOM    101  F   UNL A   1      46.621  22.648  35.947  1.00  0.00    -0.200 F 
ENDBRANCH  68  91
ENDBRANCH  42  43
ENDBRANCH  34  37
ENDBRANCH  32  33
ENDBRANCH  31  32
ENDBRANCH   1  31
TORSDOF 14
ENDMDL
MODEL 2
REMARK VINA RESULT:     -14.7      1.922      2.606
REMARK SMILES Cc1ccc(C(=O)NC2CC2)cc1NC(=O)[C@@H]1[C@@H](C(=O)NCCCNC(=O)c2ccc(-c3c4nc(c(-c5c(F)c(F)c(F)c(F)c5F)c5ccc([nH]5)c(-c5c(F)c(F)c(F)c(F)c5F)c5nc(c(-c6c(F)c(F)c(F)c(F)c6F)c6ccc3[nH]6)C=C5)C=C4)cc2)[C@H]2C=C[C@@H]1C2
REMARK SMILES IDX 22 1 21 2 19 3 20 4 18 6 17 7 94 8 91 9 93 10 95 11 92 12
REMARK SMILES IDX 15 13 14 14 16 16 13 17 1 18 2 19 3 20 4 21 12 22 5 23 6 24
REMARK SMILES IDX 7 25 8 26 9 28 10 29 11 30 23 31 24 32 25 33 26 34 27 36
REMARK SMILES IDX 28 37 29 38 90 39 30 40 89 41 31 42 32 43 33 44 83 45 34 46
REMARK SMILES IDX 88 47 82 48 84 49 35 50 87 51 81 52 80 53 36 55 68 56 48 57
REMARK SMILES IDX 67 58 49 59 52 60 66 61 85 62 50 63 51 64 65 66 86 67 53 68
REMARK SMILES IDX 37 69 38 70 46 71 39 72 40 73 44 74 47 75 41 76 42 77 45 78
REMARK SMILES IDX 43 79 69 80 70 81 78 82 71 83 72 84 76 85 79 86 73 87 74 88
REMARK SMILES IDX 77 89 75 90 54 91 55 92 63 93 56 94 57 95 61 96 64 97 58 98
REMARK SMILES IDX 59 99 62 100 60 101
REMARK H PARENT 21 5 14 15 8 27 25 35 84 54 52 65
REMARK Flexibility Score: inf
ROOT
ATOM      1  C   UNL A   1      34.030  28.994  26.850  1.00  0.00     0.117 C 
ENDROOT
BRANCH   1   2
ATOM      2  N   UNL A   1      34.063  29.155  25.407  1.00  0.00    -0.356 N 
ATOM      3  C   UNL A   1      33.127  29.039  24.435  1.00  0.00     0.224 C 
ATOM      4  O   UNL A   1      33.541  29.217  23.283  1.00  0.00    -0.275 OA
ATOM      5  H   UNL A   1      34.953  29.400  25.063  1.00  0.00     0.163 HD
BRANCH   3   6
ATOM      6  C   UNL A   1      31.673  28.622  24.649  1.00  0.00     0.098 C 
ATOM      7  C   UNL A   1      31.626  27.064  24.925  1.00  0.00     0.099 C 
ATOM      8  C   UNL A   1      30.434  26.594  24.052  1.00  0.00     0.025 C 
ATOM      9  C   UNL A   1      30.624  28.763  23.527  1.00  0.00     0.025 C 
ATOM     10  C   UNL A   1      30.875  26.658  22.612  1.00  0.00    -0.027 C 
ATOM     11  C   UNL A   1      29.528  27.828  24.061  1.00  0.00     0.017 C 
ATOM     12  C   UNL A   1      31.006  27.954  22.301  1.00  0.00    -0.027 C 
BRANCH   7  13
ATOM     13  C   UNL A   1      31.442  26.636  26.371  1.00  0.00     0.228 C 
ATOM     14  N   UNL A   1      31.591  25.318  26.742  1.00  0.00    -0.326 N 
ATOM     15  H   UNL A   1      31.383  25.146  27.689  1.00  0.00     0.169 HD
ATOM     16  O   UNL A   1      31.061  27.433  27.231  1.00  0.00    -0.274 OA
BRANCH  14  17
ATOM     17  C   UNL A   1      31.987  24.161  26.027  1.00  0.00     0.044 A 
ATOM     18  C   UNL A   1      29.976  22.840  26.963  1.00  0.00     0.046 C 
ATOM     19  C   UNL A   1      31.179  23.008  26.073  1.00  0.00    -0.027 A 
ATOM     20  C   UNL A   1      31.517  21.911  25.261  1.00  0.00     0.006 A 
ATOM     21  C   UNL A   1      32.629  21.951  24.420  1.00  0.00     0.014 A 
ATOM     22  C   UNL A   1      33.178  24.115  25.278  1.00  0.00     0.040 A 
ATOM     23  C   UNL A   1      33.491  23.054  24.421  1.00  0.00     0.041 A 
BRANCH  23  24
ATOM     24  C   UNL A   1      34.681  22.983  23.509  1.00  0.00     0.251 C 
ATOM     25  O   UNL A   1      34.528  23.270  22.318  1.00  0.00    -0.269 OA
ATOM     26  N   UNL A   1      35.959  22.651  23.906  1.00  0.00    -0.349 N 
ATOM     27  H   UNL A   1      36.624  22.665  23.180  1.00  0.00     0.164 HD
BRANCH  26  28
ATOM     28  C   UNL A   1      36.487  22.294  25.171  1.00  0.00     0.082 C 
ATOM     29  C   UNL A   1      37.976  22.286  25.381  1.00  0.00     0.027 C 
ATOM     30  C   UNL A   1      37.127  23.298  26.089  1.00  0.00     0.027 C 
ENDBRANCH  26  28
ENDBRANCH  23  24
ENDBRANCH  14  17
ENDBRANCH   7  13
ENDBRANCH   3   6
ENDBRANCH   1   2
BRANCH   1  31
ATOM     31  C   UNL A   1      33.620  30.275  27.563  1.00  0.00     0.042 C 
BRANCH  31  32
ATOM     32  C   UNL A   1      34.722  31.323  27.525  1.00  0.00     0.118 C 
BRANCH  32  33
ATOM     33  N   UNL A   1      35.127  31.811  28.842  1.00  0.00    -0.352 N 
ATOM     34  C   UNL A   1      36.022  31.257  29.750  1.00  0.00     0.251 C 
ATOM     35  H   UNL A   1      34.706  32.653  29.127  1.00  0.00     0.163 HD
ATOM     36  O   UNL A   1      36.222  31.779  30.823  1.00  0.00    -0.269 OA
BRANCH  34  37
ATOM     37  C   UNL A   1      36.822  30.080  29.323  1.00  0.00     0.039 A 
ATOM     38  C   UNL A   1      37.122  29.106  30.282  1.00  0.00     0.014 A 
ATOM     39  C   UNL A   1      37.445  30.065  28.080  1.00  0.00     0.014 A 
ATOM     40  C   UNL A   1      38.224  28.278  30.082  1.00  0.00     0.010 A 
ATOM     41  C   UNL A   1      38.598  29.326  27.928  1.00  0.00     0.010 A 
ATOM     42  C   UNL A   1      39.023  28.480  28.955  1.00  0.00    -0.014 A 
BRANCH  42  43
ATOM     43  C   UNL A   1      40.370  27.937  28.832  1.00  0.00     0.031 A 
ATOM     44  C   UNL A   1      40.579  26.514  28.495  1.00  0.00     0.074 A 
ATOM     45  C   UNL A   1      41.439  28.751  28.981  1.00  0.00     0.049 A 
ATOM     46  N   UNL A   1      41.596  25.827  28.896  1.00  0.00    -0.248 NA
ATOM     47  C   UNL A   1      39.637  25.742  27.690  1.00  0.00     0.031 C 
ATOM     48  C   UNL A   1      42.835  28.435  28.688  1.00  0.00     0.029 A 
ATOM     49  N   UNL A   1      41.491  30.004  29.618  1.00  0.00    -0.354 N 
ATOM     50  C   UNL A   1      41.582  24.637  28.211  1.00  0.00     0.074 A 
ATOM     51  C   UNL A   1      40.314  24.602  27.519  1.00  0.00     0.031 C 
ATOM     52  C   UNL A   1      43.622  29.267  29.386  1.00  0.00     0.029 A 
ATOM     53  C   UNL A   1      42.759  30.061  30.243  1.00  0.00     0.049 A 
ATOM     54  H   UNL A   1      40.792  30.697  29.627  1.00  0.00     0.167 HD
ATOM     55  C   UNL A   1      42.696  23.854  28.182  1.00  0.00     0.037 A 
ATOM     56  C   UNL A   1      42.887  30.179  31.595  1.00  0.00     0.037 A 
ATOM     57  C   UNL A   1      43.796  24.445  28.929  1.00  0.00     0.049 A 
ATOM     58  C   UNL A   1      43.634  29.037  32.243  1.00  0.00     0.074 A 
ATOM     59  C   UNL A   1      44.869  25.229  28.536  1.00  0.00     0.029 A 
ATOM     60  N   UNL A   1      43.708  24.561  30.311  1.00  0.00    -0.354 N 
ATOM     61  N   UNL A   1      43.846  27.890  31.660  1.00  0.00    -0.248 NA
ATOM     62  C   UNL A   1      44.157  29.074  33.606  1.00  0.00     0.031 C 
ATOM     63  C   UNL A   1      45.397  25.862  29.685  1.00  0.00     0.029 A 
ATOM     64  C   UNL A   1      44.660  25.446  30.780  1.00  0.00     0.049 A 
ATOM     65  H   UNL A   1      43.060  24.081  30.875  1.00  0.00     0.167 HD
ATOM     66  C   UNL A   1      44.476  27.044  32.533  1.00  0.00     0.074 A 
ATOM     67  C   UNL A   1      44.668  27.837  33.732  1.00  0.00     0.031 C 
ATOM     68  C   UNL A   1      44.770  25.753  32.195  1.00  0.00     0.037 A 
BRANCH  55  69
ATOM     69  C   UNL A   1      42.835  22.717  27.206  1.00  0.00     0.064 A 
ATOM     70  C   UNL A   1      42.115  21.516  27.366  1.00  0.00     0.173 A 
ATOM     71  C   UNL A   1      43.723  22.748  26.116  1.00  0.00     0.173 A 
ATOM     72  F   UNL A   1      41.185  21.379  28.320  1.00  0.00    -0.203 F 
ATOM     73  C   UNL A   1      42.346  20.397  26.564  1.00  0.00     0.198 A 
ATOM     74  C   UNL A   1      43.991  21.614  25.344  1.00  0.00     0.198 A 
ATOM     75  F   UNL A   1      44.352  23.884  25.777  1.00  0.00    -0.203 F 
ATOM     76  F   UNL A   1      41.644  19.274  26.771  1.00  0.00    -0.200 F 
ATOM     77  C   UNL A   1      43.310  20.434  25.577  1.00  0.00     0.200 A 
ATOM     78  F   UNL A   1      44.927  21.666  24.387  1.00  0.00    -0.200 F 
ATOM     79  F   UNL A   1      43.573  19.342  24.847  1.00  0.00    -0.200 F 
ENDBRANCH  55  69
BRANCH  56  80
ATOM     80  C   UNL A   1      41.781  30.946  32.222  1.00  0.00     0.064 A 
ATOM     81  C   UNL A   1      41.817  32.351  32.135  1.00  0.00     0.173 A 
ATOM     82  C   UNL A   1      40.556  30.348  32.537  1.00  0.00     0.173 A 
ATOM     83  F   UNL A   1      42.968  32.974  31.833  1.00  0.00    -0.203 F 
ATOM     84  C   UNL A   1      40.657  33.113  32.234  1.00  0.00     0.198 A 
ATOM     85  C   UNL A   1      39.396  31.119  32.651  1.00  0.00     0.198 A 
ATOM     86  F   UNL A   1      40.453  29.014  32.617  1.00  0.00    -0.203 F 
ATOM     87  F   UNL A   1      40.707  34.437  32.023  1.00  0.00    -0.200 F 
ATOM     88  C   UNL A   1      39.441  32.493  32.463  1.00  0.00     0.200 A 
ATOM     89  F   UNL A   1      38.215  30.517  32.852  1.00  0.00    -0.200 F 
ATOM     90  F   UNL A   1      38.311  33.213  32.462  1.00  0.00    -0.200 F 
ENDBRANCH  56  80
BRANCH  68  91
ATOM     91  C   UNL A   1      45.273  24.685  33.129  1.00  0.00     0.064 A 
ATOM     92  C   UNL A   1      44.517  23.566  33.514  1.00  0.00     0.173 A 
ATOM     93  C   UNL A   1      46.626  24.686  33.547  1.00  0.00     0.173 A 
ATOM     94  F   UNL A   1      43.255  23.402  33.094  1.00  0.00    -0.203 F 
ATOM     95  C   UNL A   1      45.060  22.548  34.302  1.00  0.00     0.198 A 
ATOM     96  C   UNL A   1      47.179  23.642  34.285  1.00  0.00     0.198 A 
ATOM     97  F   UNL A   1      47.456  25.690  33.226  1.00  0.00    -0.203 F 
ATOM     98  F   UNL A   1      44.290  21.517  34.675  1.00  0.00    -0.200 F 
ATOM     99  C   UNL A   1      46.392  22.579  34.676  1.00  0.00     0.200 A 
ATOM    100  F   UNL A   1      48.482  23.664  34.597  1.00  0.00    -0.200 F 
ATOM    101  F   UNL A   1      46.920  21.577  35.392  1.00  0.00    -0.200 F 
ENDBRANCH  68  91
ENDBRANCH  42  43
ENDBRANCH  34  37
ENDBRANCH  32  33
ENDBRANCH  31  32
ENDBRANCH   1  31
TORSDOF 14
ENDMDL
MODEL 3
REMARK VINA RESULT:     -14.5      3.369     10.042
REMARK SMILES Cc1ccc(C(=O)NC2CC2)cc1NC(=O)[C@@H]1[C@@H](C(=O)NCCCNC(=O)c2ccc(-c3c4nc(c(-c5c(F)c(F)c(F)c(F)c5F)c5ccc([nH]5)c(-c5c(F)c(F)c(F)c(F)c5F)c5nc(c(-c6c(F)c(F)c(F)c(F)c6F)c6ccc3[nH]6)C=C5)C=C4)cc2)[C@H]2C=C[C@@H]1C2
REMARK SMILES IDX 22 1 21 2 19 3 20 4 18 6 17 7 94 8 91 9 93 10 95 11 92 12
REMARK SMILES IDX 15 13 14 14 16 16 13 17 1 18 2 19 3 20 4 21 12 22 5 23 6 24
REMARK SMILES IDX 7 25 8 26 9 28 10 29 11 30 23 31 24 32 25 33 26 34 27 36
REMARK SMILES IDX 28 37 29 38 90 39 30 40 89 41 31 42 32 43 33 44 83 45 34 46
REMARK SMILES IDX 88 47 82 48 84 49 35 50 87 51 81 52 80 53 36 55 68 56 48 57
REMARK SMILES IDX 67 58 49 59 52 60 66 61 85 62 50 63 51 64 65 66 86 67 53 68
REMARK SMILES IDX 37 69 38 70 46 71 39 72 40 73 44 74 47 75 41 76 42 77 45 78
REMARK SMILES IDX 43 79 69 80 70 81 78 82 71 83 72 84 76 85 79 86 73 87 74 88
REMARK SMILES IDX 77 89 75 90 54 91 55 92 63 93 56 94 57 95 61 96 64 97 58 98
REMARK SMILES IDX 59 99 62 100 60 101
REMARK H PARENT 21 5 14 15 8 27 25 35 84 54 52 65
REMARK Flexibility Score: inf
ROOT
ATOM      1  C   UNL A   1      37.363  21.350  25.062  1.00  0.00     0.117 C 
ENDROOT
BRANCH   1   2
ATOM      2  N   UNL A   1      36.263  21.402  26.010  1.00  0.00    -0.356 N 
ATOM      3  C   UNL A   1      34.917  21.451  25.873  1.00  0.00     0.224 C 
ATOM      4  O   UNL A   1      34.283  21.527  26.933  1.00  0.00    -0.275 OA
ATOM      5  H   UNL A   1      36.559  21.401  26.950  1.00  0.00     0.163 HD
BRANCH   3   6
ATOM      6  C   UNL A   1      34.162  21.517  24.547  1.00  0.00     0.098 C 
ATOM      7  C   UNL A   1      33.700  23.011  24.299  1.00  0.00     0.099 C 
ATOM      8  C   UNL A   1      32.239  22.845  23.808  1.00  0.00     0.025 C 
ATOM      9  C   UNL A   1      32.838  20.753  24.338  1.00  0.00     0.025 C 
ATOM     10  C   UNL A   1      31.406  22.439  24.999  1.00  0.00    -0.027 C 
ATOM     11  C   UNL A   1      32.293  21.487  23.104  1.00  0.00     0.017 C 
ATOM     12  C   UNL A   1      31.776  21.195  25.327  1.00  0.00    -0.027 C 
BRANCH   7  13
ATOM     13  C   UNL A   1      34.518  23.818  23.304  1.00  0.00     0.228 C 
ATOM     14  N   UNL A   1      34.106  25.068  22.899  1.00  0.00    -0.326 N 
ATOM     15  H   UNL A   1      34.676  25.468  22.204  1.00  0.00     0.169 HD
ATOM     16  O   UNL A   1      35.516  23.340  22.759  1.00  0.00    -0.274 OA
BRANCH  14  17
ATOM     17  C   UNL A   1      33.021  25.891  23.289  1.00  0.00     0.044 A 
ATOM     18  C   UNL A   1      32.138  25.954  20.864  1.00  0.00     0.046 C 
ATOM     19  C   UNL A   1      32.047  26.250  22.338  1.00  0.00    -0.027 A 
ATOM     20  C   UNL A   1      30.912  26.961  22.765  1.00  0.00     0.006 A 
ATOM     21  C   UNL A   1      30.742  27.311  24.105  1.00  0.00     0.014 A 
ATOM     22  C   UNL A   1      32.889  26.382  24.602  1.00  0.00     0.040 A 
ATOM     23  C   UNL A   1      31.737  27.037  25.050  1.00  0.00     0.041 A 
BRANCH  23  24
ATOM     24  C   UNL A   1      31.474  27.489  26.458  1.00  0.00     0.251 C 
ATOM     25  O   UNL A   1      30.973  26.687  27.251  1.00  0.00    -0.269 OA
ATOM     26  N   UNL A   1      31.785  28.738  26.955  1.00  0.00    -0.349 N 
ATOM     27  H   UNL A   1      31.557  28.863  27.905  1.00  0.00     0.164 HD
BRANCH  26  28
ATOM     28  C   UNL A   1      32.376  29.872  26.345  1.00  0.00     0.082 C 
ATOM     29  C   UNL A   1      31.778  31.233  26.568  1.00  0.00     0.027 C 
ATOM     30  C   UNL A   1      33.128  30.909  27.131  1.00  0.00     0.027 C 
ENDBRANCH  26  28
ENDBRANCH  23  24
ENDBRANCH  14  17
ENDBRANCH   7  13
ENDBRANCH   3   6
ENDBRANCH   1   2
BRANCH   1  31
ATOM     31  C   UNL A   1      38.719  21.404  25.751  1.00  0.00     0.042 C 
BRANCH  31  32
ATOM     32  C   UNL A   1      39.107  22.827  26.127  1.00  0.00     0.118 C 
BRANCH  32  33
ATOM     33  N   UNL A   1      40.548  23.036  26.262  1.00  0.00    -0.352 N 
ATOM     34  C   UNL A   1      41.246  24.202  26.554  1.00  0.00     0.251 C 
ATOM     35  H   UNL A   1      41.103  22.235  26.129  1.00  0.00     0.163 HD
ATOM     36  O   UNL A   1      42.455  24.207  26.598  1.00  0.00    -0.269 OA
BRANCH  34  37
ATOM     37  C   UNL A   1      40.472  25.411  26.933  1.00  0.00     0.039 A 
ATOM     38  C   UNL A   1      40.768  26.613  26.282  1.00  0.00     0.014 A 
ATOM     39  C   UNL A   1      39.649  25.398  28.055  1.00  0.00     0.014 A 
ATOM     40  C   UNL A   1      40.447  27.816  26.904  1.00  0.00     0.010 A 
ATOM     41  C   UNL A   1      39.429  26.582  28.726  1.00  0.00     0.010 A 
ATOM     42  C   UNL A   1      39.884  27.785  28.182  1.00  0.00    -0.014 A 
BRANCH  42  43
ATOM     43  C   UNL A   1      39.846  28.949  29.059  1.00  0.00     0.031 A 
ATOM     44  C   UNL A   1      38.796  29.975  28.902  1.00  0.00     0.074 A 
ATOM     45  C   UNL A   1      40.751  29.066  30.057  1.00  0.00     0.049 A 
ATOM     46  N   UNL A   1      38.970  31.223  29.185  1.00  0.00    -0.248 NA
ATOM     47  C   UNL A   1      37.464  29.677  28.385  1.00  0.00     0.031 C 
ATOM     48  C   UNL A   1      40.737  30.038  31.148  1.00  0.00     0.029 A 
ATOM     49  N   UNL A   1      41.996  28.423  30.178  1.00  0.00    -0.354 N 
ATOM     50  C   UNL A   1      37.738  31.828  29.141  1.00  0.00     0.074 A 
ATOM     51  C   UNL A   1      36.841  30.843  28.581  1.00  0.00     0.031 C 
ATOM     52  C   UNL A   1      41.982  30.163  31.631  1.00  0.00     0.029 A 
ATOM     53  C   UNL A   1      42.856  29.369  30.785  1.00  0.00     0.049 A 
ATOM     54  H   UNL A   1      42.222  27.507  29.900  1.00  0.00     0.167 HD
ATOM     55  C   UNL A   1      37.559  33.054  29.708  1.00  0.00     0.037 A 
ATOM     56  C   UNL A   1      43.971  29.831  30.154  1.00  0.00     0.037 A 
ATOM     57  C   UNL A   1      38.785  33.558  30.310  1.00  0.00     0.049 A 
ATOM     58  C   UNL A   1      43.978  31.326  29.936  1.00  0.00     0.074 A 
ATOM     59  C   UNL A   1      39.267  33.512  31.608  1.00  0.00     0.029 A 
ATOM     60  N   UNL A   1      39.861  33.901  29.500  1.00  0.00    -0.354 N 
ATOM     61  N   UNL A   1      42.913  32.072  30.017  1.00  0.00    -0.248 NA
ATOM     62  C   UNL A   1      45.166  32.090  29.562  1.00  0.00     0.031 C 
ATOM     63  C   UNL A   1      40.656  33.778  31.571  1.00  0.00     0.029 A 
ATOM     64  C   UNL A   1      41.014  34.009  30.255  1.00  0.00     0.049 A 
ATOM     65  H   UNL A   1      39.810  34.046  28.528  1.00  0.00     0.167 HD
ATOM     66  C   UNL A   1      43.233  33.363  29.689  1.00  0.00     0.074 A 
ATOM     67  C   UNL A   1      44.659  33.328  29.431  1.00  0.00     0.031 C 
ATOM     68  C   UNL A   1      42.286  34.347  29.641  1.00  0.00     0.037 A 
BRANCH  55  69
ATOM     69  C   UNL A   1      36.187  33.612  29.962  1.00  0.00     0.064 A 
ATOM     70  C   UNL A   1      35.352  34.028  28.904  1.00  0.00     0.173 A 
ATOM     71  C   UNL A   1      35.668  33.812  31.254  1.00  0.00     0.173 A 
ATOM     72  F   UNL A   1      35.693  33.831  27.625  1.00  0.00    -0.203 F 
ATOM     73  C   UNL A   1      34.143  34.690  29.127  1.00  0.00     0.198 A 
ATOM     74  C   UNL A   1      34.483  34.519  31.478  1.00  0.00     0.198 A 
ATOM     75  F   UNL A   1      36.305  33.324  32.330  1.00  0.00    -0.203 F 
ATOM     76  F   UNL A   1      33.397  35.079  28.083  1.00  0.00    -0.200 F 
ATOM     77  C   UNL A   1      33.726  34.968  30.413  1.00  0.00     0.200 A 
ATOM     78  F   UNL A   1      34.089  34.778  32.732  1.00  0.00    -0.200 F 
ATOM     79  F   UNL A   1      32.596  35.656  30.624  1.00  0.00    -0.200 F 
ENDBRANCH  55  69
BRANCH  56  80
ATOM     80  C   UNL A   1      44.588  28.829  29.248  1.00  0.00     0.064 A 
ATOM     81  C   UNL A   1      45.400  27.830  29.820  1.00  0.00     0.173 A 
ATOM     82  C   UNL A   1      44.102  28.606  27.956  1.00  0.00     0.173 A 
ATOM     83  F   UNL A   1      45.890  27.995  31.060  1.00  0.00    -0.203 F 
ATOM     84  C   UNL A   1      45.610  26.612  29.180  1.00  0.00     0.198 A 
ATOM     85  C   UNL A   1      44.329  27.388  27.310  1.00  0.00     0.198 A 
ATOM     86  F   UNL A   1      43.309  29.511  27.363  1.00  0.00    -0.203 F 
ATOM     87  F   UNL A   1      46.284  25.636  29.806  1.00  0.00    -0.200 F 
ATOM     88  C   UNL A   1      45.049  26.381  27.936  1.00  0.00     0.200 A 
ATOM     89  F   UNL A   1      43.768  27.154  26.114  1.00  0.00    -0.200 F 
ATOM     90  F   UNL A   1      45.169  25.177  27.362  1.00  0.00    -0.200 F 
ENDBRANCH  56  80
BRANCH  68  91
ATOM     91  C   UNL A   1      42.482  35.740  29.106  1.00  0.00     0.064 A 
ATOM     92  C   UNL A   1      41.910  36.204  27.910  1.00  0.00     0.173 A 
ATOM     93  C   UNL A   1      43.145  36.716  29.889  1.00  0.00     0.173 A 
ATOM     94  F   UNL A   1      41.170  35.399  27.135  1.00  0.00    -0.203 F 
ATOM     95  C   UNL A   1      42.035  37.535  27.503  1.00  0.00     0.198 A 
ATOM     96  C   UNL A   1      43.220  38.053  29.506  1.00  0.00     0.198 A 
ATOM     97  F   UNL A   1      43.716  36.401  31.061  1.00  0.00    -0.203 F 
ATOM     98  F   UNL A   1      41.503  37.924  26.336  1.00  0.00    -0.200 F 
ATOM     99  C   UNL A   1      42.678  38.461  28.306  1.00  0.00     0.200 A 
ATOM    100  F   UNL A   1      43.803  38.946  30.318  1.00  0.00    -0.200 F 
ATOM    101  F   UNL A   1      42.754  39.745  27.932  1.00  0.00    -0.200 F 
ENDBRANCH  68  91
ENDBRANCH  42  43
ENDBRANCH  34  37
ENDBRANCH  32  33
ENDBRANCH  31  32
ENDBRANCH   1  31
TORSDOF 14
ENDMDL
