MODEL 1
REMARK VINA RESULT:     -10.2      0.000      0.000
REMARK SMILES CCOCCS(=O)(=O)NCC(=O)NCCCNC(=O)c1ccc(-c2c3nc(c(-c4c(F)c(F)c(F)c(F)c4F)c4ccc([nH]4)c(-c4c(F)c(F)c(F)c(F)c4F)c4nc(c(-c5c(F)c(F)c(F)c(F)c5F)c5ccc2[nH]5)C=C4)C=C3)cc1
REMARK SMILES IDX 11 1 12 2 13 3 10 5 9 6 6 8 7 9 8 10 5 11 4 12 3 13 2 14
REMARK SMILES IDX 1 15 14 16 15 17 16 18 17 19 18 20 19 22 20 23 21 24 82 25
REMARK SMILES IDX 22 26 81 27 23 28 24 29 25 30 75 31 26 32 80 33 74 34 76 35
REMARK SMILES IDX 27 36 79 37 73 38 72 39 28 41 60 42 40 43 59 44 41 45 44 46
REMARK SMILES IDX 58 47 77 48 42 49 43 50 57 52 78 53 45 54 29 55 30 56 38 57
REMARK SMILES IDX 31 58 32 59 36 60 39 61 33 62 34 63 37 64 35 65 61 66 62 67
REMARK SMILES IDX 70 68 63 69 64 70 68 71 71 72 65 73 66 74 69 75 67 76 46 77
REMARK SMILES IDX 47 78 55 79 48 80 49 81 53 82 56 83 50 84 51 85 54 86 52 87
REMARK H PARENT 13 4 9 7 17 21 76 40 44 51
REMARK Flexibility Score: inf
ROOT
ATOM      1  C   UNL A   1      33.794  29.113  26.742  1.00  0.00     0.235 C 
ATOM      2  O   UNL A   1      34.849  29.029  27.392  1.00  0.00    -0.274 OA
ATOM      3  N   UNL A   1      33.069  30.225  27.000  1.00  0.00    -0.355 N 
ATOM      4  H   UNL A   1      33.492  30.859  27.623  1.00  0.00     0.163 HD
ENDROOT
BRANCH   1   5
ATOM      5  C   UNL A   1      33.557  28.116  25.633  1.00  0.00     0.198 C 
BRANCH   5   6
ATOM      6  N   UNL A   1      32.476  27.303  25.061  1.00  0.00    -0.206 NA
ATOM      7  H   UNL A   1      31.895  27.972  24.558  1.00  0.00     0.141 HD
BRANCH   6   8
ATOM      8  S   UNL A   1      31.400  26.320  25.831  1.00  0.00     0.214 S 
ATOM      9  O   UNL A   1      30.949  26.944  27.051  1.00  0.00    -0.212 OA
ATOM     10  O   UNL A   1      32.066  25.039  25.889  1.00  0.00    -0.212 OA
BRANCH   8  11
ATOM     11  C   UNL A   1      30.034  26.124  24.680  1.00  0.00     0.182 C 
BRANCH  11  12
ATOM     12  C   UNL A   1      29.778  27.162  23.596  1.00  0.00     0.177 C 
BRANCH  12  13
ATOM     13  O   UNL A   1      30.157  28.495  23.934  1.00  0.00    -0.381 OA
BRANCH  13  14
ATOM     14  C   UNL A   1      29.817  29.544  23.035  1.00  0.00     0.156 C 
ATOM     15  C   UNL A   1      28.482  29.376  22.328  1.00  0.00     0.035 C 
ENDBRANCH  13  14
ENDBRANCH  12  13
ENDBRANCH  11  12
ENDBRANCH   8  11
ENDBRANCH   6   8
ENDBRANCH   5   6
ENDBRANCH   1   5
BRANCH   3  16
ATOM     16  C   UNL A   1      31.782  30.630  26.511  1.00  0.00     0.117 C 
BRANCH  16  17
ATOM     17  C   UNL A   1      31.524  32.112  26.706  1.00  0.00     0.042 C 
BRANCH  17  18
ATOM     18  C   UNL A   1      32.688  32.812  27.369  1.00  0.00     0.118 C 
BRANCH  18  19
ATOM     19  N   UNL A   1      32.405  34.212  27.659  1.00  0.00    -0.352 N 
ATOM     20  C   UNL A   1      32.960  35.046  28.603  1.00  0.00     0.251 C 
ATOM     21  H   UNL A   1      31.711  34.623  27.094  1.00  0.00     0.163 HD
ATOM     22  O   UNL A   1      32.456  36.143  28.821  1.00  0.00    -0.269 OA
BRANCH  20  23
ATOM     23  C   UNL A   1      34.136  34.602  29.387  1.00  0.00     0.039 A 
ATOM     24  C   UNL A   1      33.949  34.098  30.676  1.00  0.00     0.014 A 
ATOM     25  C   UNL A   1      35.419  34.647  28.841  1.00  0.00     0.014 A 
ATOM     26  C   UNL A   1      35.033  33.549  31.367  1.00  0.00     0.010 A 
ATOM     27  C   UNL A   1      36.459  33.971  29.465  1.00  0.00     0.010 A 
ATOM     28  C   UNL A   1      36.285  33.424  30.743  1.00  0.00    -0.014 A 
BRANCH  28  29
ATOM     29  C   UNL A   1      37.427  32.743  31.408  1.00  0.00     0.031 A 
ATOM     30  C   UNL A   1      38.110  31.583  30.729  1.00  0.00     0.074 A 
ATOM     31  C   UNL A   1      37.802  33.116  32.649  1.00  0.00     0.049 A 
ATOM     32  N   UNL A   1      39.068  30.808  31.176  1.00  0.00    -0.248 NA
ATOM     33  C   UNL A   1      37.631  31.217  29.385  1.00  0.00     0.031 C 
ATOM     34  C   UNL A   1      37.175  34.177  33.442  1.00  0.00     0.029 A 
ATOM     35  N   UNL A   1      38.797  32.641  33.467  1.00  0.00    -0.354 N 
ATOM     36  C   UNL A   1      39.281  29.860  30.183  1.00  0.00     0.074 A 
ATOM     37  C   UNL A   1      38.315  30.111  29.139  1.00  0.00     0.031 C 
ATOM     38  C   UNL A   1      37.822  34.295  34.612  1.00  0.00     0.029 A 
ATOM     39  C   UNL A   1      38.877  33.290  34.677  1.00  0.00     0.049 A 
ATOM     40  H   UNL A   1      39.398  31.904  33.211  1.00  0.00     0.167 HD
ATOM     41  C   UNL A   1      40.221  28.887  30.131  1.00  0.00     0.037 A 
ATOM     42  C   UNL A   1      39.702  33.090  35.722  1.00  0.00     0.037 A 
ATOM     43  C   UNL A   1      41.212  28.671  31.150  1.00  0.00     0.049 A 
ATOM     44  C   UNL A   1      40.742  32.005  35.631  1.00  0.00     0.074 A 
ATOM     45  C   UNL A   1      42.261  27.769  31.153  1.00  0.00     0.029 A 
ATOM     46  N   UNL A   1      41.276  29.368  32.348  1.00  0.00    -0.354 N 
ATOM     47  N   UNL A   1      40.993  31.176  34.645  1.00  0.00    -0.248 NA
ATOM     48  C   UNL A   1      41.620  31.830  36.797  1.00  0.00     0.031 C 
ATOM     49  C   UNL A   1      42.926  27.880  32.378  1.00  0.00     0.029 A 
ATOM     50  C   UNL A   1      42.330  28.893  33.111  1.00  0.00     0.049 A 
ATOM     51  H   UNL A   1      40.664  30.091  32.616  1.00  0.00     0.167 HD
ATOM     52  C   UNL A   1      42.069  30.405  35.060  1.00  0.00     0.074 A 
ATOM     53  C   UNL A   1      42.442  30.879  36.376  1.00  0.00     0.031 C 
ATOM     54  C   UNL A   1      42.691  29.387  34.414  1.00  0.00     0.037 A 
BRANCH  41  55
ATOM     55  C   UNL A   1      40.239  27.989  28.928  1.00  0.00     0.064 A 
ATOM     56  C   UNL A   1      40.975  28.314  27.777  1.00  0.00     0.173 A 
ATOM     57  C   UNL A   1      39.568  26.757  28.951  1.00  0.00     0.173 A 
ATOM     58  F   UNL A   1      41.625  29.484  27.698  1.00  0.00    -0.203 F 
ATOM     59  C   UNL A   1      41.022  27.446  26.689  1.00  0.00     0.198 A 
ATOM     60  C   UNL A   1      39.643  25.879  27.873  1.00  0.00     0.198 A 
ATOM     61  F   UNL A   1      38.852  26.396  30.027  1.00  0.00    -0.203 F 
ATOM     62  F   UNL A   1      41.698  27.796  25.585  1.00  0.00    -0.200 F 
ATOM     63  C   UNL A   1      40.366  26.226  26.742  1.00  0.00     0.200 A 
ATOM     64  F   UNL A   1      39.020  24.694  27.932  1.00  0.00    -0.200 F 
ATOM     65  F   UNL A   1      40.428  25.385  25.700  1.00  0.00    -0.200 F 
ENDBRANCH  41  55
BRANCH  42  66
ATOM     66  C   UNL A   1      39.593  33.934  36.944  1.00  0.00     0.064 A 
ATOM     67  C   UNL A   1      38.829  33.517  38.043  1.00  0.00     0.173 A 
ATOM     68  C   UNL A   1      40.214  35.189  37.025  1.00  0.00     0.173 A 
ATOM     69  F   UNL A   1      38.197  32.334  38.009  1.00  0.00    -0.203 F 
ATOM     70  C   UNL A   1      38.660  34.336  39.158  1.00  0.00     0.198 A 
ATOM     71  C   UNL A   1      40.074  35.992  38.155  1.00  0.00     0.198 A 
ATOM     72  F   UNL A   1      40.960  35.636  36.004  1.00  0.00    -0.203 F 
ATOM     73  F   UNL A   1      37.870  33.938  40.164  1.00  0.00    -0.200 F 
ATOM     74  C   UNL A   1      39.286  35.571  39.215  1.00  0.00     0.200 A 
ATOM     75  F   UNL A   1      40.693  37.179  38.212  1.00  0.00    -0.200 F 
ATOM     76  F   UNL A   1      39.119  36.360  40.285  1.00  0.00    -0.200 F 
ENDBRANCH  42  66
BRANCH  54  77
ATOM     77  C   UNL A   1      43.859  28.745  35.105  1.00  0.00     0.064 A 
ATOM     78  C   UNL A   1      43.697  27.630  35.940  1.00  0.00     0.173 A 
ATOM     79  C   UNL A   1      45.159  29.227  34.895  1.00  0.00     0.173 A 
ATOM     80  F   UNL A   1      42.472  27.139  36.182  1.00  0.00    -0.203 F 
ATOM     81  C   UNL A   1      44.793  27.040  36.564  1.00  0.00     0.198 A 
ATOM     82  C   UNL A   1      46.257  28.613  35.493  1.00  0.00     0.198 A 
ATOM     83  F   UNL A   1      45.369  30.285  34.098  1.00  0.00    -0.203 F 
ATOM     84  F   UNL A   1      44.610  26.009  37.400  1.00  0.00    -0.200 F 
ATOM     85  C   UNL A   1      46.071  27.526  36.334  1.00  0.00     0.200 A 
ATOM     86  F   UNL A   1      47.492  29.073  35.254  1.00  0.00    -0.200 F 
ATOM     87  F   UNL A   1      47.125  26.951  36.928  1.00  0.00    -0.200 F 
ENDBRANCH  54  77
ENDBRANCH  28  29
ENDBRANCH  20  23
ENDBRANCH  18  19
ENDBRANCH  17  18
ENDBRANCH  16  17
ENDBRANCH   3  16
TORSDOF 16
ENDMDL
MODEL 2
REMARK VINA RESULT:     -10.1      6.546     11.819
REMARK SMILES CCOCCS(=O)(=O)NCC(=O)NCCCNC(=O)c1ccc(-c2c3nc(c(-c4c(F)c(F)c(F)c(F)c4F)c4ccc([nH]4)c(-c4c(F)c(F)c(F)c(F)c4F)c4nc(c(-c5c(F)c(F)c(F)c(F)c5F)c5ccc2[nH]5)C=C4)C=C3)cc1
REMARK SMILES IDX 11 1 12 2 13 3 10 5 9 6 6 8 7 9 8 10 5 11 4 12 3 13 2 14
REMARK SMILES IDX 1 15 14 16 15 17 16 18 17 19 18 20 19 22 20 23 21 24 82 25
REMARK SMILES IDX 22 26 81 27 23 28 24 29 25 30 75 31 26 32 80 33 74 34 76 35
REMARK SMILES IDX 27 36 79 37 73 38 72 39 28 41 60 42 40 43 59 44 41 45 44 46
REMARK SMILES IDX 58 47 77 48 42 49 43 50 57 52 78 53 45 54 29 55 30 56 38 57
REMARK SMILES IDX 31 58 32 59 36 60 39 61 33 62 34 63 37 64 35 65 61 66 62 67
REMARK SMILES IDX 70 68 63 69 64 70 68 71 71 72 65 73 66 74 69 75 67 76 46 77
REMARK SMILES IDX 47 78 55 79 48 80 49 81 53 82 56 83 50 84 51 85 54 86 52 87
REMARK H PARENT 13 4 9 7 17 21 76 40 44 51
REMARK Flexibility Score: inf
ROOT
ATOM      1  C   UNL A   1      37.360  23.240  25.639  1.00  0.00     0.235 C 
ATOM      2  O   UNL A   1      38.143  24.183  25.839  1.00  0.00    -0.274 OA
ATOM      3  N   UNL A   1      37.939  22.141  25.103  1.00  0.00    -0.355 N 
ATOM      4  H   UNL A   1      38.916  22.200  24.993  1.00  0.00     0.163 HD
ENDROOT
BRANCH   1   5
ATOM      5  C   UNL A   1      35.958  23.346  26.189  1.00  0.00     0.198 C 
BRANCH   5   6
ATOM      6  N   UNL A   1      35.022  22.599  27.040  1.00  0.00    -0.206 NA
ATOM      7  H   UNL A   1      35.420  21.662  27.091  1.00  0.00     0.141 HD
BRANCH   6   8
ATOM      8  S   UNL A   1      33.407  22.349  26.832  1.00  0.00     0.214 S 
ATOM      9  O   UNL A   1      32.895  23.247  25.825  1.00  0.00    -0.212 OA
ATOM     10  O   UNL A   1      32.864  22.395  28.170  1.00  0.00    -0.212 OA
BRANCH   8  11
ATOM     11  C   UNL A   1      33.260  20.643  26.289  1.00  0.00     0.182 C 
BRANCH  11  12
ATOM     12  C   UNL A   1      33.796  20.212  24.931  1.00  0.00     0.177 C 
BRANCH  12  13
ATOM     13  O   UNL A   1      33.279  18.975  24.442  1.00  0.00    -0.381 OA
BRANCH  13  14
ATOM     14  C   UNL A   1      32.686  18.075  25.372  1.00  0.00     0.156 C 
ATOM     15  C   UNL A   1      33.430  16.764  25.559  1.00  0.00     0.035 C 
ENDBRANCH  13  14
ENDBRANCH  12  13
ENDBRANCH  11  12
ENDBRANCH   8  11
ENDBRANCH   6   8
ENDBRANCH   5   6
ENDBRANCH   1   5
BRANCH   3  16
ATOM     16  C   UNL A   1      37.358  20.903  24.668  1.00  0.00     0.117 C 
BRANCH  16  17
ATOM     17  C   UNL A   1      38.238  19.707  24.975  1.00  0.00     0.042 C 
BRANCH  17  18
ATOM     18  C   UNL A   1      39.450  20.085  25.796  1.00  0.00     0.118 C 
BRANCH  18  19
ATOM     19  N   UNL A   1      40.413  18.996  25.903  1.00  0.00    -0.352 N 
ATOM     20  C   UNL A   1      41.775  19.040  26.096  1.00  0.00     0.251 C 
ATOM     21  H   UNL A   1      40.031  18.091  25.825  1.00  0.00     0.163 HD
ATOM     22  O   UNL A   1      42.444  18.019  25.970  1.00  0.00    -0.269 OA
BRANCH  20  23
ATOM     23  C   UNL A   1      42.440  20.326  26.411  1.00  0.00     0.039 A 
ATOM     24  C   UNL A   1      43.126  21.007  25.402  1.00  0.00     0.014 A 
ATOM     25  C   UNL A   1      42.359  20.881  27.688  1.00  0.00     0.014 A 
ATOM     26  C   UNL A   1      43.634  22.284  25.653  1.00  0.00     0.010 A 
ATOM     27  C   UNL A   1      42.733  22.202  27.891  1.00  0.00     0.010 A 
ATOM     28  C   UNL A   1      43.388  22.918  26.882  1.00  0.00    -0.014 A 
BRANCH  28  29
ATOM     29  C   UNL A   1      43.817  24.318  27.140  1.00  0.00     0.031 A 
ATOM     30  C   UNL A   1      42.813  25.339  27.612  1.00  0.00     0.074 A 
ATOM     31  C   UNL A   1      45.087  24.691  26.880  1.00  0.00     0.049 A 
ATOM     32  N   UNL A   1      42.969  26.623  27.816  1.00  0.00    -0.248 NA
ATOM     33  C   UNL A   1      41.439  24.865  27.852  1.00  0.00     0.031 C 
ATOM     34  C   UNL A   1      46.137  23.816  26.352  1.00  0.00     0.029 A 
ATOM     35  N   UNL A   1      45.713  25.905  27.018  1.00  0.00    -0.354 N 
ATOM     36  C   UNL A   1      41.717  27.104  28.180  1.00  0.00     0.074 A 
ATOM     37  C   UNL A   1      40.797  25.993  28.108  1.00  0.00     0.031 C 
ATOM     38  C   UNL A   1      47.281  24.511  26.247  1.00  0.00     0.029 A 
ATOM     39  C   UNL A   1      47.038  25.891  26.650  1.00  0.00     0.049 A 
ATOM     40  H   UNL A   1      45.255  26.712  27.348  1.00  0.00     0.167 HD
ATOM     41  C   UNL A   1      41.372  28.353  28.571  1.00  0.00     0.037 A 
ATOM     42  C   UNL A   1      47.950  26.882  26.633  1.00  0.00     0.037 A 
ATOM     43  C   UNL A   1      42.300  29.444  28.689  1.00  0.00     0.049 A 
ATOM     44  C   UNL A   1      47.537  28.259  27.082  1.00  0.00     0.074 A 
ATOM     45  C   UNL A   1      42.069  30.725  29.158  1.00  0.00     0.029 A 
ATOM     46  N   UNL A   1      43.640  29.382  28.333  1.00  0.00    -0.354 N 
ATOM     47  N   UNL A   1      46.371  28.676  27.513  1.00  0.00    -0.248 NA
ATOM     48  C   UNL A   1      48.571  29.304  27.048  1.00  0.00     0.031 C 
ATOM     49  C   UNL A   1      43.255  31.455  29.034  1.00  0.00     0.029 A 
ATOM     50  C   UNL A   1      44.240  30.612  28.545  1.00  0.00     0.049 A 
ATOM     51  H   UNL A   1      44.096  28.583  27.983  1.00  0.00     0.167 HD
ATOM     52  C   UNL A   1      46.537  30.018  27.826  1.00  0.00     0.074 A 
ATOM     53  C   UNL A   1      47.923  30.340  27.559  1.00  0.00     0.031 C 
ATOM     54  C   UNL A   1      45.624  30.909  28.285  1.00  0.00     0.037 A 
BRANCH  41  55
ATOM     55  C   UNL A   1      39.934  28.609  28.921  1.00  0.00     0.064 A 
ATOM     56  C   UNL A   1      39.439  28.385  30.215  1.00  0.00     0.173 A 
ATOM     57  C   UNL A   1      39.058  29.150  27.968  1.00  0.00     0.173 A 
ATOM     58  F   UNL A   1      40.231  27.858  31.160  1.00  0.00    -0.203 F 
ATOM     59  C   UNL A   1      38.115  28.675  30.535  1.00  0.00     0.198 A 
ATOM     60  C   UNL A   1      37.743  29.468  28.301  1.00  0.00     0.198 A 
ATOM     61  F   UNL A   1      39.481  29.387  26.717  1.00  0.00    -0.203 F 
ATOM     62  F   UNL A   1      37.653  28.415  31.766  1.00  0.00    -0.200 F 
ATOM     63  C   UNL A   1      37.272  29.227  29.582  1.00  0.00     0.200 A 
ATOM     64  F   UNL A   1      36.935  30.015  27.382  1.00  0.00    -0.200 F 
ATOM     65  F   UNL A   1      36.004  29.523  29.898  1.00  0.00    -0.200 F 
ENDBRANCH  41  55
BRANCH  42  66
ATOM     66  C   UNL A   1      49.345  26.617  26.186  1.00  0.00     0.064 A 
ATOM     67  C   UNL A   1      50.308  26.125  27.079  1.00  0.00     0.173 A 
ATOM     68  C   UNL A   1      49.757  26.887  24.872  1.00  0.00     0.173 A 
ATOM     69  F   UNL A   1      49.971  25.870  28.352  1.00  0.00    -0.203 F 
ATOM     70  C   UNL A   1      51.634  25.949  26.687  1.00  0.00     0.198 A 
ATOM     71  C   UNL A   1      51.075  26.676  24.471  1.00  0.00     0.198 A 
ATOM     72  F   UNL A   1      48.877  27.354  23.975  1.00  0.00    -0.203 F 
ATOM     73  F   UNL A   1      52.545  25.541  27.580  1.00  0.00    -0.200 F 
ATOM     74  C   UNL A   1      52.016  26.220  25.382  1.00  0.00     0.200 A 
ATOM     75  F   UNL A   1      51.436  26.925  23.205  1.00  0.00    -0.200 F 
ATOM     76  F   UNL A   1      53.291  26.055  25.007  1.00  0.00    -0.200 F 
ENDBRANCH  42  66
BRANCH  54  77
ATOM     77  C   UNL A   1      46.103  32.304  28.562  1.00  0.00     0.064 A 
ATOM     78  C   UNL A   1      46.045  33.310  27.585  1.00  0.00     0.173 A 
ATOM     79  C   UNL A   1      46.585  32.649  29.833  1.00  0.00     0.173 A 
ATOM     80  F   UNL A   1      45.603  33.028  26.350  1.00  0.00    -0.203 F 
ATOM     81  C   UNL A   1      46.483  34.602  27.863  1.00  0.00     0.198 A 
ATOM     82  C   UNL A   1      46.989  33.950  30.118  1.00  0.00     0.198 A 
ATOM     83  F   UNL A   1      46.652  31.727  30.805  1.00  0.00    -0.203 F 
ATOM     84  F   UNL A   1      46.470  35.533  26.900  1.00  0.00    -0.200 F 
ATOM     85  C   UNL A   1      46.946  34.923  29.130  1.00  0.00     0.200 A 
ATOM     86  F   UNL A   1      47.419  34.262  31.348  1.00  0.00    -0.200 F 
ATOM     87  F   UNL A   1      47.359  36.168  29.399  1.00  0.00    -0.200 F 
ENDBRANCH  54  77
ENDBRANCH  28  29
ENDBRANCH  20  23
ENDBRANCH  18  19
ENDBRANCH  17  18
ENDBRANCH  16  17
ENDBRANCH   3  16
TORSDOF 16
ENDMDL
MODEL 3
REMARK VINA RESULT:     -10.1      0.696      1.846
REMARK SMILES CCOCCS(=O)(=O)NCC(=O)NCCCNC(=O)c1ccc(-c2c3nc(c(-c4c(F)c(F)c(F)c(F)c4F)c4ccc([nH]4)c(-c4c(F)c(F)c(F)c(F)c4F)c4nc(c(-c5c(F)c(F)c(F)c(F)c5F)c5ccc2[nH]5)C=C4)C=C3)cc1
REMARK SMILES IDX 11 1 12 2 13 3 10 5 9 6 6 8 7 9 8 10 5 11 4 12 3 13 2 14
REMARK SMILES IDX 1 15 14 16 15 17 16 18 17 19 18 20 19 22 20 23 21 24 82 25
REMARK SMILES IDX 22 26 81 27 23 28 24 29 25 30 75 31 26 32 80 33 74 34 76 35
REMARK SMILES IDX 27 36 79 37 73 38 72 39 28 41 60 42 40 43 59 44 41 45 44 46
REMARK SMILES IDX 58 47 77 48 42 49 43 50 57 52 78 53 45 54 29 55 30 56 38 57
REMARK SMILES IDX 31 58 32 59 36 60 39 61 33 62 34 63 37 64 35 65 61 66 62 67
REMARK SMILES IDX 70 68 63 69 64 70 68 71 71 72 65 73 66 74 69 75 67 76 46 77
REMARK SMILES IDX 47 78 55 79 48 80 49 81 53 82 56 83 50 84 51 85 54 86 52 87
REMARK H PARENT 13 4 9 7 17 21 76 40 44 51
REMARK Flexibility Score: inf
ROOT
ATOM      1  C   UNL A   1      33.914  29.006  26.764  1.00  0.00     0.235 C 
ATOM      2  O   UNL A   1      35.093  29.023  27.152  1.00  0.00    -0.274 OA
ATOM      3  N   UNL A   1      33.244  30.164  26.966  1.00  0.00    -0.355 N 
ATOM      4  H   UNL A   1      33.787  30.896  27.338  1.00  0.00     0.163 HD
ENDROOT
BRANCH   1   5
ATOM      5  C   UNL A   1      33.445  27.820  25.955  1.00  0.00     0.198 C 
BRANCH   5   6
ATOM      6  N   UNL A   1      32.960  27.497  24.607  1.00  0.00    -0.206 NA
ATOM      7  H   UNL A   1      33.413  28.183  24.004  1.00  0.00     0.141 HD
BRANCH   6   8
ATOM      8  S   UNL A   1      31.410  27.423  24.053  1.00  0.00     0.214 S 
ATOM      9  O   UNL A   1      30.541  26.916  25.087  1.00  0.00    -0.212 OA
ATOM     10  O   UNL A   1      31.513  26.715  22.798  1.00  0.00    -0.212 OA
BRANCH   8  11
ATOM     11  C   UNL A   1      30.976  29.117  23.640  1.00  0.00     0.182 C 
BRANCH  11  12
ATOM     12  C   UNL A   1      29.970  29.413  22.536  1.00  0.00     0.177 C 
BRANCH  12  13
ATOM     13  O   UNL A   1      28.788  28.614  22.565  1.00  0.00    -0.381 OA
BRANCH  13  14
ATOM     14  C   UNL A   1      27.567  29.228  22.961  1.00  0.00     0.156 C 
ATOM     15  C   UNL A   1      27.660  30.718  23.244  1.00  0.00     0.035 C 
ENDBRANCH  13  14
ENDBRANCH  12  13
ENDBRANCH  11  12
ENDBRANCH   8  11
ENDBRANCH   6   8
ENDBRANCH   5   6
ENDBRANCH   1   5
BRANCH   3  16
ATOM     16  C   UNL A   1      31.870  30.497  26.724  1.00  0.00     0.117 C 
BRANCH  16  17
ATOM     17  C   UNL A   1      31.606  31.988  26.821  1.00  0.00     0.042 C 
BRANCH  17  18
ATOM     18  C   UNL A   1      32.801  32.746  27.351  1.00  0.00     0.118 C 
BRANCH  18  19
ATOM     19  N   UNL A   1      32.492  34.141  27.641  1.00  0.00    -0.352 N 
ATOM     20  C   UNL A   1      33.017  34.979  28.598  1.00  0.00     0.251 C 
ATOM     21  H   UNL A   1      31.803  34.545  27.064  1.00  0.00     0.163 HD
ATOM     22  O   UNL A   1      32.494  36.069  28.811  1.00  0.00    -0.269 OA
BRANCH  20  23
ATOM     23  C   UNL A   1      34.184  34.550  29.403  1.00  0.00     0.039 A 
ATOM     24  C   UNL A   1      33.981  34.051  30.692  1.00  0.00     0.014 A 
ATOM     25  C   UNL A   1      35.475  34.601  28.877  1.00  0.00     0.014 A 
ATOM     26  C   UNL A   1      35.058  33.515  31.403  1.00  0.00     0.010 A 
ATOM     27  C   UNL A   1      36.511  33.937  29.521  1.00  0.00     0.010 A 
ATOM     28  C   UNL A   1      36.320  33.397  30.799  1.00  0.00    -0.014 A 
BRANCH  28  29
ATOM     29  C   UNL A   1      37.458  32.728  31.486  1.00  0.00     0.031 A 
ATOM     30  C   UNL A   1      38.156  31.565  30.828  1.00  0.00     0.074 A 
ATOM     31  C   UNL A   1      37.814  33.115  32.728  1.00  0.00     0.049 A 
ATOM     32  N   UNL A   1      39.112  30.800  31.295  1.00  0.00    -0.248 NA
ATOM     33  C   UNL A   1      37.697  31.183  29.481  1.00  0.00     0.031 C 
ATOM     34  C   UNL A   1      37.171  34.180  33.502  1.00  0.00     0.029 A 
ATOM     35  N   UNL A   1      38.801  32.654  33.563  1.00  0.00    -0.354 N 
ATOM     36  C   UNL A   1      39.343  29.843  30.314  1.00  0.00     0.074 A 
ATOM     37  C   UNL A   1      38.390  30.079  29.255  1.00  0.00     0.031 C 
ATOM     38  C   UNL A   1      37.802  34.314  34.679  1.00  0.00     0.029 A 
ATOM     39  C   UNL A   1      38.861  33.315  34.768  1.00  0.00     0.049 A 
ATOM     40  H   UNL A   1      39.409  31.918  33.324  1.00  0.00     0.167 HD
ATOM     41  C   UNL A   1      40.289  28.875  30.285  1.00  0.00     0.037 A 
ATOM     42  C   UNL A   1      39.673  33.130  35.826  1.00  0.00     0.037 A 
ATOM     43  C   UNL A   1      41.267  28.674  31.319  1.00  0.00     0.049 A 
ATOM     44  C   UNL A   1      40.720  32.050  35.759  1.00  0.00     0.074 A 
ATOM     45  C   UNL A   1      42.321  27.778  31.345  1.00  0.00     0.029 A 
ATOM     46  N   UNL A   1      41.312  29.383  32.510  1.00  0.00    -0.354 N 
ATOM     47  N   UNL A   1      40.988  31.213  34.785  1.00  0.00    -0.248 NA
ATOM     48  C   UNL A   1      41.584  31.891  36.939  1.00  0.00     0.031 C 
ATOM     49  C   UNL A   1      42.970  27.905  32.577  1.00  0.00     0.029 A 
ATOM     50  C   UNL A   1      42.358  28.922  33.292  1.00  0.00     0.049 A 
ATOM     51  H   UNL A   1      40.693  30.106  32.763  1.00  0.00     0.167 HD
ATOM     52  C   UNL A   1      42.064  30.451  35.222  1.00  0.00     0.074 A 
ATOM     53  C   UNL A   1      42.416  30.941  36.538  1.00  0.00     0.031 C 
ATOM     54  C   UNL A   1      42.699  29.431  34.594  1.00  0.00     0.037 A 
BRANCH  41  55
ATOM     55  C   UNL A   1      40.328  27.965  29.091  1.00  0.00     0.064 A 
ATOM     56  C   UNL A   1      39.591  26.771  29.049  1.00  0.00     0.173 A 
ATOM     57  C   UNL A   1      41.057  28.326  27.947  1.00  0.00     0.173 A 
ATOM     58  F   UNL A   1      38.886  26.374  30.119  1.00  0.00    -0.203 F 
ATOM     59  C   UNL A   1      39.598  25.964  27.914  1.00  0.00     0.198 A 
ATOM     60  C   UNL A   1      41.037  27.531  26.804  1.00  0.00     0.198 A 
ATOM     61  F   UNL A   1      41.776  29.459  27.932  1.00  0.00    -0.203 F 
ATOM     62  F   UNL A   1      38.919  24.808  27.913  1.00  0.00    -0.200 F 
ATOM     63  C   UNL A   1      40.312  26.350  26.789  1.00  0.00     0.200 A 
ATOM     64  F   UNL A   1      41.715  27.914  25.713  1.00  0.00    -0.200 F 
ATOM     65  F   UNL A   1      40.302  25.581  25.692  1.00  0.00    -0.200 F 
ENDBRANCH  41  55
BRANCH  42  66
ATOM     66  C   UNL A   1      39.543  33.986  37.038  1.00  0.00     0.064 A 
ATOM     67  C   UNL A   1      38.785  33.566  38.140  1.00  0.00     0.173 A 
ATOM     68  C   UNL A   1      40.139  35.254  37.106  1.00  0.00     0.173 A 
ATOM     69  F   UNL A   1      38.177  32.370  38.117  1.00  0.00    -0.203 F 
ATOM     70  C   UNL A   1      38.596  34.393  39.245  1.00  0.00     0.198 A 
ATOM     71  C   UNL A   1      39.979  36.067  38.227  1.00  0.00     0.198 A 
ATOM     72  F   UNL A   1      40.879  35.704  36.083  1.00  0.00    -0.203 F 
ATOM     73  F   UNL A   1      37.811  33.991  40.253  1.00  0.00    -0.200 F 
ATOM     74  C   UNL A   1      39.197  35.642  39.289  1.00  0.00     0.200 A 
ATOM     75  F   UNL A   1      40.574  37.266  38.272  1.00  0.00    -0.200 F 
ATOM     76  F   UNL A   1      39.011  36.439  40.350  1.00  0.00    -0.200 F 
ENDBRANCH  42  66
BRANCH  54  77
ATOM     77  C   UNL A   1      43.861  28.803  35.307  1.00  0.00     0.064 A 
ATOM     78  C   UNL A   1      45.175  29.255  35.115  1.00  0.00     0.173 A 
ATOM     79  C   UNL A   1      43.651  27.764  36.226  1.00  0.00     0.173 A 
ATOM     80  F   UNL A   1      45.430  30.238  34.239  1.00  0.00    -0.203 F 
ATOM     81  C   UNL A   1      46.239  28.669  35.794  1.00  0.00     0.198 A 
ATOM     82  C   UNL A   1      44.713  27.203  36.929  1.00  0.00     0.198 A 
ATOM     83  F   UNL A   1      42.413  27.300  36.453  1.00  0.00    -0.203 F 
ATOM     84  F   UNL A   1      47.492  29.079  35.555  1.00  0.00    -0.200 F 
ATOM     85  C   UNL A   1      46.007  27.649  36.706  1.00  0.00     0.200 A 
ATOM     86  F   UNL A   1      44.484  26.231  37.822  1.00  0.00    -0.200 F 
ATOM     87  F   UNL A   1      47.031  27.091  37.364  1.00  0.00    -0.200 F 
ENDBRANCH  54  77
ENDBRANCH  28  29
ENDBRANCH  20  23
ENDBRANCH  18  19
ENDBRANCH  17  18
ENDBRANCH  16  17
ENDBRANCH   3  16
TORSDOF 16
ENDMDL
