MODEL 1
REMARK VINA RESULT:     -13.0      0.000      0.000
REMARK SMILES COc1ccc(S(=O)(=O)Nc2c(C)cccc2C(=O)NCCCNC(=O)c2ccc(-c3c4nc(c(-c5c(F)c(F)c(F)c(F)c5F)c5ccc([nH]5)c(-c5c(F)c(F)c(F)c(F)c5F)c5nc(c(-c6c(F)c(F)c(F)c(F)c6F)c6ccc3[nH]6)C=C5)C=C4)cc2)cc1
REMARK SMILES IDX 21 1 20 2 18 3 19 4 17 6 11 7 12 8 13 9 14 10 16 11 15 12
REMARK SMILES IDX 10 13 7 15 8 16 9 17 6 18 3 19 4 20 91 21 5 22 90 23 2 24
REMARK SMILES IDX 1 25 22 26 23 27 24 28 25 29 26 31 27 32 28 33 89 34 29 35
REMARK SMILES IDX 88 36 30 37 31 38 32 39 82 40 33 41 87 42 81 43 83 44 34 45
REMARK SMILES IDX 86 46 80 47 79 48 35 50 67 51 47 52 66 53 48 54 51 55 65 56
REMARK SMILES IDX 84 57 49 58 50 59 64 61 85 62 52 63 36 64 37 65 45 66 38 67
REMARK SMILES IDX 39 68 43 69 46 70 40 71 41 72 44 73 42 74 68 75 69 76 77 77
REMARK SMILES IDX 70 78 71 79 75 80 78 81 72 82 73 83 76 84 74 85 53 86 54 87
REMARK SMILES IDX 62 88 55 89 56 90 60 91 63 92 57 93 58 94 61 95 59 96
REMARK H PARENT 20 5 10 14 24 30 83 49 51 60
REMARK Flexibility Score: inf
ROOT
ATOM      1  C   UNL A   1      32.271  27.823  27.231  1.00  0.00     0.118 C 
ENDROOT
BRANCH   1   2
ATOM      2  N   UNL A   1      31.293  26.798  26.916  1.00  0.00    -0.352 N 
ATOM      3  C   UNL A   1      30.768  26.448  25.707  1.00  0.00     0.253 C 
ATOM      4  O   UNL A   1      29.917  25.563  25.657  1.00  0.00    -0.269 OA
ATOM      5  H   UNL A   1      30.963  26.281  27.687  1.00  0.00     0.163 HD
BRANCH   3   6
ATOM      6  C   UNL A   1      31.125  27.187  24.482  1.00  0.00     0.064 A 
ATOM      7  C   UNL A   1      32.369  27.149  23.825  1.00  0.00     0.064 A 
ATOM      8  C   UNL A   1      32.617  28.115  22.816  1.00  0.00    -0.026 A 
ATOM      9  C   UNL A   1      33.970  28.329  22.183  1.00  0.00     0.046 C 
ATOM     10  C   UNL A   1      31.562  28.913  22.337  1.00  0.00     0.005 A 
ATOM     11  C   UNL A   1      30.085  27.993  23.982  1.00  0.00     0.016 A 
ATOM     12  C   UNL A   1      30.295  28.831  22.894  1.00  0.00     0.001 A 
BRANCH   7  13
ATOM     13  N   UNL A   1      33.449  26.255  24.144  1.00  0.00    -0.279 N 
ATOM     14  H   UNL A   1      34.120  26.579  24.789  1.00  0.00     0.180 HD
BRANCH  13  15
ATOM     15  S   UNL A   1      33.677  24.703  23.519  1.00  0.00     0.261 S 
ATOM     16  O   UNL A   1      33.872  24.864  22.088  1.00  0.00    -0.201 OA
ATOM     17  O   UNL A   1      32.541  23.961  24.021  1.00  0.00    -0.201 OA
BRANCH  15  18
ATOM     18  C   UNL A   1      35.113  23.921  24.184  1.00  0.00     0.088 A 
ATOM     19  C   UNL A   1      37.373  22.752  25.341  1.00  0.00     0.118 A 
ATOM     20  C   UNL A   1      36.631  23.695  26.051  1.00  0.00     0.048 A 
ATOM     21  C   UNL A   1      36.980  22.398  24.047  1.00  0.00     0.048 A 
ATOM     22  C   UNL A   1      35.502  24.278  25.480  1.00  0.00     0.026 A 
ATOM     23  C   UNL A   1      35.867  23.005  23.452  1.00  0.00     0.026 A 
BRANCH  19  24
ATOM     24  O   UNL A   1      38.453  22.257  26.017  1.00  0.00    -0.497 OA
ATOM     25  C   UNL A   1      38.959  21.005  25.578  1.00  0.00     0.278 C 
ENDBRANCH  19  24
ENDBRANCH  15  18
ENDBRANCH  13  15
ENDBRANCH   7  13
ENDBRANCH   3   6
ENDBRANCH   1   2
BRANCH   1  26
ATOM     26  C   UNL A   1      31.693  29.221  27.240  1.00  0.00     0.042 C 
BRANCH  26  27
ATOM     27  C   UNL A   1      32.504  30.242  26.453  1.00  0.00     0.118 C 
BRANCH  27  28
ATOM     28  N   UNL A   1      32.488  31.605  26.976  1.00  0.00    -0.352 N 
ATOM     29  C   UNL A   1      33.486  32.352  27.567  1.00  0.00     0.251 C 
ATOM     30  H   UNL A   1      31.622  32.067  26.893  1.00  0.00     0.163 HD
ATOM     31  O   UNL A   1      33.283  33.507  27.928  1.00  0.00    -0.269 OA
BRANCH  29  32
ATOM     32  C   UNL A   1      34.794  31.728  27.861  1.00  0.00     0.039 A 
ATOM     33  C   UNL A   1      35.898  32.555  28.076  1.00  0.00     0.014 A 
ATOM     34  C   UNL A   1      34.915  30.353  28.033  1.00  0.00     0.014 A 
ATOM     35  C   UNL A   1      37.069  32.018  28.615  1.00  0.00     0.010 A 
ATOM     36  C   UNL A   1      36.013  29.851  28.718  1.00  0.00     0.010 A 
ATOM     37  C   UNL A   1      37.103  30.677  29.027  1.00  0.00    -0.014 A 
BRANCH  37  38
ATOM     38  C   UNL A   1      38.252  30.116  29.791  1.00  0.00     0.031 A 
ATOM     39  C   UNL A   1      38.494  30.552  31.212  1.00  0.00     0.074 A 
ATOM     40  C   UNL A   1      39.135  29.301  29.181  1.00  0.00     0.049 A 
ATOM     41  N   UNL A   1      39.512  30.302  31.996  1.00  0.00    -0.248 NA
ATOM     42  C   UNL A   1      37.481  31.436  31.815  1.00  0.00     0.031 C 
ATOM     43  C   UNL A   1      39.067  28.858  27.786  1.00  0.00     0.029 A 
ATOM     44  N   UNL A   1      40.277  28.701  29.657  1.00  0.00    -0.354 N 
ATOM     45  C   UNL A   1      39.280  31.029  33.157  1.00  0.00     0.074 A 
ATOM     46  C   UNL A   1      38.067  31.786  32.948  1.00  0.00     0.031 C 
ATOM     47  C   UNL A   1      40.089  28.023  27.534  1.00  0.00     0.029 A 
ATOM     48  C   UNL A   1      40.913  27.908  28.731  1.00  0.00     0.049 A 
ATOM     49  H   UNL A   1      40.608  28.827  30.575  1.00  0.00     0.167 HD
ATOM     50  C   UNL A   1      39.991  31.038  34.309  1.00  0.00     0.037 A 
ATOM     51  C   UNL A   1      42.036  27.172  28.836  1.00  0.00     0.037 A 
ATOM     52  C   UNL A   1      41.159  30.231  34.540  1.00  0.00     0.049 A 
ATOM     53  C   UNL A   1      42.783  27.160  30.142  1.00  0.00     0.074 A 
ATOM     54  C   UNL A   1      41.906  30.105  35.697  1.00  0.00     0.029 A 
ATOM     55  N   UNL A   1      41.740  29.400  33.593  1.00  0.00    -0.354 N 
ATOM     56  N   UNL A   1      42.518  27.803  31.253  1.00  0.00    -0.248 NA
ATOM     57  C   UNL A   1      43.985  26.318  30.208  1.00  0.00     0.031 C 
ATOM     58  C   UNL A   1      42.958  29.219  35.442  1.00  0.00     0.029 A 
ATOM     59  C   UNL A   1      42.842  28.763  34.139  1.00  0.00     0.049 A 
ATOM     60  H   UNL A   1      41.417  29.281  32.671  1.00  0.00     0.167 HD
ATOM     61  C   UNL A   1      43.499  27.420  32.159  1.00  0.00     0.074 A 
ATOM     62  C   UNL A   1      44.358  26.479  31.470  1.00  0.00     0.031 C 
ATOM     63  C   UNL A   1      43.673  27.816  33.442  1.00  0.00     0.037 A 
BRANCH  50  64
ATOM     64  C   UNL A   1      39.505  31.931  35.413  1.00  0.00     0.064 A 
ATOM     65  C   UNL A   1      38.591  31.479  36.378  1.00  0.00     0.173 A 
ATOM     66  C   UNL A   1      39.965  33.252  35.517  1.00  0.00     0.173 A 
ATOM     67  F   UNL A   1      38.108  30.229  36.317  1.00  0.00    -0.203 F 
ATOM     68  C   UNL A   1      38.123  32.327  37.377  1.00  0.00     0.198 A 
ATOM     69  C   UNL A   1      39.521  34.088  36.539  1.00  0.00     0.198 A 
ATOM     70  F   UNL A   1      40.844  33.736  34.626  1.00  0.00    -0.203 F 
ATOM     71  F   UNL A   1      37.200  31.891  38.246  1.00  0.00    -0.200 F 
ATOM     72  C   UNL A   1      38.594  33.628  37.461  1.00  0.00     0.200 A 
ATOM     73  F   UNL A   1      39.987  35.342  36.628  1.00  0.00    -0.200 F 
ATOM     74  F   UNL A   1      38.145  34.444  38.426  1.00  0.00    -0.200 F 
ENDBRANCH  50  64
BRANCH  51  75
ATOM     75  C   UNL A   1      42.499  26.347  27.689  1.00  0.00     0.064 A 
ATOM     76  C   UNL A   1      43.463  26.839  26.798  1.00  0.00     0.173 A 
ATOM     77  C   UNL A   1      41.989  25.062  27.453  1.00  0.00     0.173 A 
ATOM     78  F   UNL A   1      43.966  28.071  26.971  1.00  0.00    -0.203 F 
ATOM     79  C   UNL A   1      43.883  26.089  25.703  1.00  0.00     0.198 A 
ATOM     80  C   UNL A   1      42.430  24.301  26.371  1.00  0.00     0.198 A 
ATOM     81  F   UNL A   1      41.069  24.541  28.278  1.00  0.00    -0.203 F 
ATOM     82  F   UNL A   1      44.771  26.603  24.841  1.00  0.00    -0.200 F 
ATOM     83  C   UNL A   1      43.370  24.818  25.492  1.00  0.00     0.200 A 
ATOM     84  F   UNL A   1      41.942  23.068  26.179  1.00  0.00    -0.200 F 
ATOM     85  F   UNL A   1      43.775  24.095  24.439  1.00  0.00    -0.200 F 
ENDBRANCH  51  75
BRANCH  63  86
ATOM     86  C   UNL A   1      44.810  27.198  34.203  1.00  0.00     0.064 A 
ATOM     87  C   UNL A   1      44.663  25.983  34.886  1.00  0.00     0.173 A 
ATOM     88  C   UNL A   1      46.073  27.809  34.207  1.00  0.00     0.173 A 
ATOM     89  F   UNL A   1      43.470  25.369  34.923  1.00  0.00    -0.203 F 
ATOM     90  C   UNL A   1      45.734  25.413  35.568  1.00  0.00     0.198 A 
ATOM     91  C   UNL A   1      47.150  27.222  34.864  1.00  0.00     0.198 A 
ATOM     92  F   UNL A   1      46.266  28.969  33.561  1.00  0.00    -0.203 F 
ATOM     93  F   UNL A   1      45.561  24.274  36.252  1.00  0.00    -0.200 F 
ATOM     94  C   UNL A   1      46.978  26.028  35.549  1.00  0.00     0.200 A 
ATOM     95  F   UNL A   1      48.353  27.810  34.835  1.00  0.00    -0.200 F 
ATOM     96  F   UNL A   1      48.010  25.473  36.199  1.00  0.00    -0.200 F 
ENDBRANCH  63  86
ENDBRANCH  37  38
ENDBRANCH  29  32
ENDBRANCH  27  28
ENDBRANCH  26  27
ENDBRANCH   1  26
TORSDOF 14
ENDMDL
MODEL 2
REMARK VINA RESULT:     -13.0      1.416      3.935
REMARK SMILES COc1ccc(S(=O)(=O)Nc2c(C)cccc2C(=O)NCCCNC(=O)c2ccc(-c3c4nc(c(-c5c(F)c(F)c(F)c(F)c5F)c5ccc([nH]5)c(-c5c(F)c(F)c(F)c(F)c5F)c5nc(c(-c6c(F)c(F)c(F)c(F)c6F)c6ccc3[nH]6)C=C5)C=C4)cc2)cc1
REMARK SMILES IDX 21 1 20 2 18 3 19 4 17 6 11 7 12 8 13 9 14 10 16 11 15 12
REMARK SMILES IDX 10 13 7 15 8 16 9 17 6 18 3 19 4 20 91 21 5 22 90 23 2 24
REMARK SMILES IDX 1 25 22 26 23 27 24 28 25 29 26 31 27 32 28 33 89 34 29 35
REMARK SMILES IDX 88 36 30 37 31 38 32 39 82 40 33 41 87 42 81 43 83 44 34 45
REMARK SMILES IDX 86 46 80 47 79 48 35 50 67 51 47 52 66 53 48 54 51 55 65 56
REMARK SMILES IDX 84 57 49 58 50 59 64 61 85 62 52 63 36 64 37 65 45 66 38 67
REMARK SMILES IDX 39 68 43 69 46 70 40 71 41 72 44 73 42 74 68 75 69 76 77 77
REMARK SMILES IDX 70 78 71 79 75 80 78 81 72 82 73 83 76 84 74 85 53 86 54 87
REMARK SMILES IDX 62 88 55 89 56 90 60 91 63 92 57 93 58 94 61 95 59 96
REMARK H PARENT 20 5 10 14 24 30 83 49 51 60
REMARK Flexibility Score: inf
ROOT
ATOM      1  C   UNL A   1      32.373  27.475  26.396  1.00  0.00     0.118 C 
ENDROOT
BRANCH   1   2
ATOM      2  N   UNL A   1      31.415  26.443  26.747  1.00  0.00    -0.352 N 
ATOM      3  C   UNL A   1      31.452  25.105  26.486  1.00  0.00     0.253 C 
ATOM      4  O   UNL A   1      30.515  24.397  26.846  1.00  0.00    -0.269 OA
ATOM      5  H   UNL A   1      30.625  26.754  27.247  1.00  0.00     0.163 HD
BRANCH   3   6
ATOM      6  C   UNL A   1      32.545  24.518  25.687  1.00  0.00     0.064 A 
ATOM      7  C   UNL A   1      32.573  24.396  24.286  1.00  0.00     0.064 A 
ATOM      8  C   UNL A   1      33.580  23.579  23.710  1.00  0.00    -0.026 A 
ATOM      9  C   UNL A   1      33.602  23.187  22.253  1.00  0.00     0.046 C 
ATOM     10  C   UNL A   1      34.644  23.116  24.505  1.00  0.00     0.005 A 
ATOM     11  C   UNL A   1      33.623  24.047  26.461  1.00  0.00     0.016 A 
ATOM     12  C   UNL A   1      34.683  23.375  25.867  1.00  0.00     0.001 A 
BRANCH   7  13
ATOM     13  N   UNL A   1      31.614  24.973  23.383  1.00  0.00    -0.279 N 
ATOM     14  H   UNL A   1      30.782  24.467  23.234  1.00  0.00     0.180 HD
BRANCH  13  15
ATOM     15  S   UNL A   1      31.777  26.435  22.554  1.00  0.00     0.261 S 
ATOM     16  O   UNL A   1      31.857  26.097  21.143  1.00  0.00    -0.201 OA
ATOM     17  O   UNL A   1      32.892  27.079  23.213  1.00  0.00    -0.201 OA
BRANCH  15  18
ATOM     18  C   UNL A   1      30.385  27.493  22.788  1.00  0.00     0.088 A 
ATOM     19  C   UNL A   1      28.246  29.264  23.108  1.00  0.00     0.118 A 
ATOM     20  C   UNL A   1      29.427  29.694  22.504  1.00  0.00     0.048 A 
ATOM     21  C   UNL A   1      28.141  27.943  23.554  1.00  0.00     0.048 A 
ATOM     22  C   UNL A   1      30.494  28.815  22.339  1.00  0.00     0.026 A 
ATOM     23  C   UNL A   1      29.222  27.062  23.423  1.00  0.00     0.026 A 
BRANCH  19  24
ATOM     24  O   UNL A   1      27.278  30.225  23.205  1.00  0.00    -0.497 OA
ATOM     25  C   UNL A   1      27.726  31.565  23.355  1.00  0.00     0.278 C 
ENDBRANCH  19  24
ENDBRANCH  15  18
ENDBRANCH  13  15
ENDBRANCH   7  13
ENDBRANCH   3   6
ENDBRANCH   1   2
BRANCH   1  26
ATOM     26  C   UNL A   1      31.754  28.850  26.270  1.00  0.00     0.042 C 
BRANCH  26  27
ATOM     27  C   UNL A   1      32.743  29.956  25.926  1.00  0.00     0.118 C 
BRANCH  27  28
ATOM     28  N   UNL A   1      32.565  31.213  26.647  1.00  0.00    -0.352 N 
ATOM     29  C   UNL A   1      33.440  31.925  27.441  1.00  0.00     0.251 C 
ATOM     30  H   UNL A   1      31.674  31.620  26.550  1.00  0.00     0.163 HD
ATOM     31  O   UNL A   1      33.108  32.990  27.952  1.00  0.00    -0.269 OA
BRANCH  29  32
ATOM     32  C   UNL A   1      34.767  31.357  27.765  1.00  0.00     0.039 A 
ATOM     33  C   UNL A   1      35.830  32.230  28.001  1.00  0.00     0.014 A 
ATOM     34  C   UNL A   1      34.941  29.988  27.944  1.00  0.00     0.014 A 
ATOM     35  C   UNL A   1      37.010  31.743  28.566  1.00  0.00     0.010 A 
ATOM     36  C   UNL A   1      36.044  29.534  28.653  1.00  0.00     0.010 A 
ATOM     37  C   UNL A   1      37.092  30.405  28.983  1.00  0.00    -0.014 A 
BRANCH  37  38
ATOM     38  C   UNL A   1      38.246  29.895  29.774  1.00  0.00     0.031 A 
ATOM     39  C   UNL A   1      38.455  30.366  31.189  1.00  0.00     0.074 A 
ATOM     40  C   UNL A   1      39.162  29.095  29.192  1.00  0.00     0.049 A 
ATOM     41  N   UNL A   1      39.469  30.161  31.990  1.00  0.00    -0.248 NA
ATOM     42  C   UNL A   1      37.409  31.230  31.760  1.00  0.00     0.031 C 
ATOM     43  C   UNL A   1      39.126  28.623  27.805  1.00  0.00     0.029 A 
ATOM     44  N   UNL A   1      40.314  28.539  29.695  1.00  0.00    -0.354 N 
ATOM     45  C   UNL A   1      39.200  30.904  33.134  1.00  0.00     0.074 A 
ATOM     46  C   UNL A   1      37.967  31.619  32.894  1.00  0.00     0.031 C 
ATOM     47  C   UNL A   1      40.176  27.814  27.583  1.00  0.00     0.029 A 
ATOM     48  C   UNL A   1      40.987  27.748  28.793  1.00  0.00     0.049 A 
ATOM     49  H   UNL A   1      40.629  28.693  30.614  1.00  0.00     0.167 HD
ATOM     50  C   UNL A   1      39.894  30.956  34.295  1.00  0.00     0.037 A 
ATOM     51  C   UNL A   1      42.129  27.048  28.928  1.00  0.00     0.037 A 
ATOM     52  C   UNL A   1      41.083  30.190  34.557  1.00  0.00     0.049 A 
ATOM     53  C   UNL A   1      42.859  27.085  30.243  1.00  0.00     0.074 A 
ATOM     54  C   UNL A   1      41.817  30.109  35.727  1.00  0.00     0.029 A 
ATOM     55  N   UNL A   1      41.701  29.359  33.635  1.00  0.00    -0.354 N 
ATOM     56  N   UNL A   1      42.559  27.740  31.338  1.00  0.00    -0.248 NA
ATOM     57  C   UNL A   1      44.084  26.280  30.342  1.00  0.00     0.031 C 
ATOM     58  C   UNL A   1      42.898  29.251  35.503  1.00  0.00     0.029 A 
ATOM     59  C   UNL A   1      42.814  28.766  34.208  1.00  0.00     0.049 A 
ATOM     60  H   UNL A   1      41.395  29.212  32.712  1.00  0.00     0.167 HD
ATOM     61  C   UNL A   1      43.538  27.405  32.263  1.00  0.00     0.074 A 
ATOM     62  C   UNL A   1      44.434  26.477  31.605  1.00  0.00     0.031 C 
ATOM     63  C   UNL A   1      43.683  27.831  33.541  1.00  0.00     0.037 A 
BRANCH  50  64
ATOM     64  C   UNL A   1      39.367  31.857  35.375  1.00  0.00     0.064 A 
ATOM     65  C   UNL A   1      38.546  31.368  36.403  1.00  0.00     0.173 A 
ATOM     66  C   UNL A   1      39.693  33.220  35.389  1.00  0.00     0.173 A 
ATOM     67  F   UNL A   1      38.192  30.075  36.429  1.00  0.00    -0.203 F 
ATOM     68  C   UNL A   1      38.036  32.219  37.380  1.00  0.00     0.198 A 
ATOM     69  C   UNL A   1      39.209  34.063  36.388  1.00  0.00     0.198 A 
ATOM     70  F   UNL A   1      40.479  33.740  34.434  1.00  0.00    -0.203 F 
ATOM     71  F   UNL A   1      37.201  31.742  38.313  1.00  0.00    -0.200 F 
ATOM     72  C   UNL A   1      38.374  33.564  37.375  1.00  0.00     0.200 A 
ATOM     73  F   UNL A   1      39.547  35.360  36.390  1.00  0.00    -0.200 F 
ATOM     74  F   UNL A   1      37.885  34.382  38.318  1.00  0.00    -0.200 F 
ENDBRANCH  50  64
BRANCH  51  75
ATOM     75  C   UNL A   1      42.632  26.215  27.804  1.00  0.00     0.064 A 
ATOM     76  C   UNL A   1      42.156  24.909  27.614  1.00  0.00     0.173 A 
ATOM     77  C   UNL A   1      43.597  26.694  26.906  1.00  0.00     0.173 A 
ATOM     78  F   UNL A   1      41.248  24.399  28.459  1.00  0.00    -0.203 F 
ATOM     79  C   UNL A   1      42.642  24.107  26.583  1.00  0.00     0.198 A 
ATOM     80  C   UNL A   1      44.062  25.900  25.858  1.00  0.00     0.198 A 
ATOM     81  F   UNL A   1      44.081  27.938  27.039  1.00  0.00    -0.203 F 
ATOM     82  F   UNL A   1      42.204  22.848  26.454  1.00  0.00    -0.200 F 
ATOM     83  C   UNL A   1      43.590  24.605  25.703  1.00  0.00     0.200 A 
ATOM     84  F   UNL A   1      44.969  26.389  25.002  1.00  0.00    -0.200 F 
ATOM     85  F   UNL A   1      44.057  23.834  24.711  1.00  0.00    -0.200 F 
ENDBRANCH  51  75
BRANCH  63  86
ATOM     86  C   UNL A   1      44.827  27.263  34.329  1.00  0.00     0.064 A 
ATOM     87  C   UNL A   1      46.055  27.931  34.427  1.00  0.00     0.173 A 
ATOM     88  C   UNL A   1      44.674  26.057  35.029  1.00  0.00     0.173 A 
ATOM     89  F   UNL A   1      46.254  29.080  33.762  1.00  0.00    -0.203 F 
ATOM     90  C   UNL A   1      47.098  27.400  35.180  1.00  0.00     0.198 A 
ATOM     91  C   UNL A   1      45.709  25.544  35.805  1.00  0.00     0.198 A 
ATOM     92  F   UNL A   1      43.515  25.383  34.972  1.00  0.00    -0.203 F 
ATOM     93  F   UNL A   1      48.279  28.033  35.226  1.00  0.00    -0.200 F 
ATOM     94  C   UNL A   1      46.922  26.213  35.875  1.00  0.00     0.200 A 
ATOM     95  F   UNL A   1      45.533  24.403  36.485  1.00  0.00    -0.200 F 
ATOM     96  F   UNL A   1      47.924  25.708  36.606  1.00  0.00    -0.200 F 
ENDBRANCH  63  86
ENDBRANCH  37  38
ENDBRANCH  29  32
ENDBRANCH  27  28
ENDBRANCH  26  27
ENDBRANCH   1  26
TORSDOF 14
ENDMDL
MODEL 3
REMARK VINA RESULT:     -13.0      1.272      8.018
REMARK SMILES COc1ccc(S(=O)(=O)Nc2c(C)cccc2C(=O)NCCCNC(=O)c2ccc(-c3c4nc(c(-c5c(F)c(F)c(F)c(F)c5F)c5ccc([nH]5)c(-c5c(F)c(F)c(F)c(F)c5F)c5nc(c(-c6c(F)c(F)c(F)c(F)c6F)c6ccc3[nH]6)C=C5)C=C4)cc2)cc1
REMARK SMILES IDX 21 1 20 2 18 3 19 4 17 6 11 7 12 8 13 9 14 10 16 11 15 12
REMARK SMILES IDX 10 13 7 15 8 16 9 17 6 18 3 19 4 20 91 21 5 22 90 23 2 24
REMARK SMILES IDX 1 25 22 26 23 27 24 28 25 29 26 31 27 32 28 33 89 34 29 35
REMARK SMILES IDX 88 36 30 37 31 38 32 39 82 40 33 41 87 42 81 43 83 44 34 45
REMARK SMILES IDX 86 46 80 47 79 48 35 50 67 51 47 52 66 53 48 54 51 55 65 56
REMARK SMILES IDX 84 57 49 58 50 59 64 61 85 62 52 63 36 64 37 65 45 66 38 67
REMARK SMILES IDX 39 68 43 69 46 70 40 71 41 72 44 73 42 74 68 75 69 76 77 77
REMARK SMILES IDX 70 78 71 79 75 80 78 81 72 82 73 83 76 84 74 85 53 86 54 87
REMARK SMILES IDX 62 88 55 89 56 90 60 91 63 92 57 93 58 94 61 95 59 96
REMARK H PARENT 20 5 10 14 24 30 83 49 51 60
REMARK Flexibility Score: inf
ROOT
ATOM      1  C   UNL A   1      32.199  27.020  26.594  1.00  0.00     0.118 C 
ENDROOT
BRANCH   1   2
ATOM      2  N   UNL A   1      31.208  25.962  26.528  1.00  0.00    -0.352 N 
ATOM      3  C   UNL A   1      31.379  24.634  26.265  1.00  0.00     0.253 C 
ATOM      4  O   UNL A   1      30.395  23.900  26.224  1.00  0.00    -0.269 OA
ATOM      5  H   UNL A   1      30.280  26.243  26.699  1.00  0.00     0.163 HD
BRANCH   3   6
ATOM      6  C   UNL A   1      32.709  24.093  25.925  1.00  0.00     0.064 A 
ATOM      7  C   UNL A   1      33.291  24.069  24.645  1.00  0.00     0.064 A 
ATOM      8  C   UNL A   1      34.457  23.283  24.459  1.00  0.00    -0.026 A 
ATOM      9  C   UNL A   1      35.060  22.994  23.106  1.00  0.00     0.046 C 
ATOM     10  C   UNL A   1      35.128  22.753  25.576  1.00  0.00     0.005 A 
ATOM     11  C   UNL A   1      33.401  23.557  27.028  1.00  0.00     0.016 A 
ATOM     12  C   UNL A   1      34.620  22.915  26.857  1.00  0.00     0.001 A 
BRANCH   7  13
ATOM     13  N   UNL A   1      32.756  24.720  23.478  1.00  0.00    -0.279 N 
ATOM     14  H   UNL A   1      32.095  24.215  22.951  1.00  0.00     0.180 HD
BRANCH  13  15
ATOM     15  S   UNL A   1      33.155  26.265  22.927  1.00  0.00     0.261 S 
ATOM     16  O   UNL A   1      33.640  26.100  21.567  1.00  0.00    -0.201 OA
ATOM     17  O   UNL A   1      34.031  26.780  23.956  1.00  0.00    -0.201 OA
BRANCH  15  18
ATOM     18  C   UNL A   1      31.755  27.339  22.884  1.00  0.00     0.088 A 
ATOM     19  C   UNL A   1      29.465  28.941  22.847  1.00  0.00     0.118 A 
ATOM     20  C   UNL A   1      29.369  27.590  23.178  1.00  0.00     0.048 A 
ATOM     21  C   UNL A   1      30.713  29.487  22.530  1.00  0.00     0.048 A 
ATOM     22  C   UNL A   1      30.508  26.788  23.202  1.00  0.00     0.026 A 
ATOM     23  C   UNL A   1      31.857  28.680  22.518  1.00  0.00     0.026 A 
BRANCH  19  24
ATOM     24  O   UNL A   1      28.275  29.613  22.865  1.00  0.00    -0.497 OA
ATOM     25  C   UNL A   1      27.985  30.424  21.734  1.00  0.00     0.278 C 
ENDBRANCH  19  24
ENDBRANCH  15  18
ENDBRANCH  13  15
ENDBRANCH   7  13
ENDBRANCH   3   6
ENDBRANCH   1   2
BRANCH   1  26
ATOM     26  C   UNL A   1      31.597  28.407  26.581  1.00  0.00     0.042 C 
BRANCH  26  27
ATOM     27  C   UNL A   1      32.537  29.498  26.083  1.00  0.00     0.118 C 
BRANCH  27  28
ATOM     28  N   UNL A   1      32.292  30.837  26.610  1.00  0.00    -0.352 N 
ATOM     29  C   UNL A   1      33.134  31.713  27.263  1.00  0.00     0.251 C 
ATOM     30  H   UNL A   1      31.375  31.169  26.478  1.00  0.00     0.163 HD
ATOM     31  O   UNL A   1      32.744  32.821  27.616  1.00  0.00    -0.269 OA
BRANCH  29  32
ATOM     32  C   UNL A   1      34.500  31.282  27.633  1.00  0.00     0.039 A 
ATOM     33  C   UNL A   1      35.490  32.254  27.789  1.00  0.00     0.014 A 
ATOM     34  C   UNL A   1      34.781  29.952  27.929  1.00  0.00     0.014 A 
ATOM     35  C   UNL A   1      36.702  31.913  28.392  1.00  0.00     0.010 A 
ATOM     36  C   UNL A   1      35.913  29.649  28.672  1.00  0.00     0.010 A 
ATOM     37  C   UNL A   1      36.888  30.627  28.923  1.00  0.00    -0.014 A 
BRANCH  37  38
ATOM     38  C   UNL A   1      38.075  30.279  29.752  1.00  0.00     0.031 A 
ATOM     39  C   UNL A   1      39.121  29.341  29.211  1.00  0.00     0.074 A 
ATOM     40  C   UNL A   1      38.161  30.718  31.024  1.00  0.00     0.049 A 
ATOM     41  N   UNL A   1      40.144  28.798  29.821  1.00  0.00    -0.248 NA
ATOM     42  C   UNL A   1      38.964  28.911  27.812  1.00  0.00     0.031 C 
ATOM     43  C   UNL A   1      37.181  31.569  31.704  1.00  0.00     0.029 A 
ATOM     44  N   UNL A   1      39.123  30.501  31.983  1.00  0.00    -0.354 N 
ATOM     45  C   UNL A   1      40.719  27.937  28.895  1.00  0.00     0.074 A 
ATOM     46  C   UNL A   1      39.891  27.973  27.710  1.00  0.00     0.031 C 
ATOM     47  C   UNL A   1      37.612  31.840  32.946  1.00  0.00     0.029 A 
ATOM     48  C   UNL A   1      38.873  31.144  33.173  1.00  0.00     0.049 A 
ATOM     49  H   UNL A   1      39.915  29.937  31.832  1.00  0.00     0.167 HD
ATOM     50  C   UNL A   1      41.856  27.209  29.003  1.00  0.00     0.037 A 
ATOM     51  C   UNL A   1      39.582  31.168  34.317  1.00  0.00     0.037 A 
ATOM     52  C   UNL A   1      42.716  27.227  30.156  1.00  0.00     0.049 A 
ATOM     53  C   UNL A   1      40.867  30.389  34.398  1.00  0.00     0.074 A 
ATOM     54  C   UNL A   1      43.930  26.591  30.337  1.00  0.00     0.029 A 
ATOM     55  N   UNL A   1      42.454  27.935  31.320  1.00  0.00    -0.354 N 
ATOM     56  N   UNL A   1      41.433  29.629  33.493  1.00  0.00    -0.248 NA
ATOM     57  C   UNL A   1      41.613  30.474  35.661  1.00  0.00     0.031 C 
ATOM     58  C   UNL A   1      44.390  26.889  31.624  1.00  0.00     0.029 A 
ATOM     59  C   UNL A   1      43.483  27.744  32.228  1.00  0.00     0.049 A 
ATOM     60  H   UNL A   1      41.657  28.490  31.478  1.00  0.00     0.167 HD
ATOM     61  C   UNL A   1      42.613  29.171  34.062  1.00  0.00     0.074 A 
ATOM     62  C   UNL A   1      42.689  29.749  35.388  1.00  0.00     0.031 C 
ATOM     63  C   UNL A   1      43.548  28.344  33.536  1.00  0.00     0.037 A 
BRANCH  50  64
ATOM     64  C   UNL A   1      42.242  26.353  27.832  1.00  0.00     0.064 A 
ATOM     65  C   UNL A   1      41.711  25.066  27.654  1.00  0.00     0.173 A 
ATOM     66  C   UNL A   1      43.146  26.827  26.869  1.00  0.00     0.173 A 
ATOM     67  F   UNL A   1      40.853  24.559  28.553  1.00  0.00    -0.203 F 
ATOM     68  C   UNL A   1      42.101  24.270  26.582  1.00  0.00     0.198 A 
ATOM     69  C   UNL A   1      43.508  26.040  25.778  1.00  0.00     0.198 A 
ATOM     70  F   UNL A   1      43.680  28.052  26.985  1.00  0.00    -0.203 F 
ATOM     71  F   UNL A   1      41.630  23.020  26.471  1.00  0.00    -0.200 F 
ATOM     72  C   UNL A   1      42.994  24.760  25.641  1.00  0.00     0.200 A 
ATOM     73  F   UNL A   1      44.361  26.520  24.862  1.00  0.00    -0.200 F 
ATOM     74  F   UNL A   1      43.368  23.993  24.607  1.00  0.00    -0.200 F 
ENDBRANCH  50  64
BRANCH  51  75
ATOM     75  C   UNL A   1      39.121  31.993  35.465  1.00  0.00     0.064 A 
ATOM     76  C   UNL A   1      39.478  33.346  35.560  1.00  0.00     0.173 A 
ATOM     77  C   UNL A   1      38.328  31.455  36.488  1.00  0.00     0.173 A 
ATOM     78  F   UNL A   1      40.252  33.902  34.616  1.00  0.00    -0.203 F 
ATOM     79  C   UNL A   1      39.079  34.123  36.645  1.00  0.00     0.198 A 
ATOM     80  C   UNL A   1      37.906  32.240  37.560  1.00  0.00     0.198 A 
ATOM     81  F   UNL A   1      37.955  30.167  36.442  1.00  0.00    -0.203 F 
ATOM     82  F   UNL A   1      39.473  35.401  36.734  1.00  0.00    -0.200 F 
ATOM     83  C   UNL A   1      38.289  33.571  37.642  1.00  0.00     0.200 A 
ATOM     84  F   UNL A   1      37.132  31.707  38.515  1.00  0.00    -0.200 F 
ATOM     85  F   UNL A   1      37.903  34.318  38.685  1.00  0.00    -0.200 F 
ENDBRANCH  51  75
BRANCH  63  86
ATOM     86  C   UNL A   1      44.756  28.049  34.376  1.00  0.00     0.064 A 
ATOM     87  C   UNL A   1      45.866  28.906  34.392  1.00  0.00     0.173 A 
ATOM     88  C   UNL A   1      44.781  26.920  35.208  1.00  0.00     0.173 A 
ATOM     89  F   UNL A   1      45.894  29.990  33.602  1.00  0.00    -0.203 F 
ATOM     90  C   UNL A   1      46.969  28.629  35.194  1.00  0.00     0.198 A 
ATOM     91  C   UNL A   1      45.873  26.662  36.031  1.00  0.00     0.198 A 
ATOM     92  F   UNL A   1      43.740  26.074  35.233  1.00  0.00    -0.203 F 
ATOM     93  F   UNL A   1      48.038  29.437  35.162  1.00  0.00    -0.200 F 
ATOM     94  C   UNL A   1      46.969  27.513  36.018  1.00  0.00     0.200 A 
ATOM     95  F   UNL A   1      45.866  25.591  36.835  1.00  0.00    -0.200 F 
ATOM     96  F   UNL A   1      48.028  27.253  36.796  1.00  0.00    -0.200 F 
ENDBRANCH  63  86
ENDBRANCH  37  38
ENDBRANCH  29  32
ENDBRANCH  27  28
ENDBRANCH  26  27
ENDBRANCH   1  26
TORSDOF 14
ENDMDL
