MODEL 1
REMARK VINA RESULT:     -11.6      0.000      0.000
REMARK SMILES CCc1n[nH]c(C(=O)N(C)[C@H]2COC[C@H]2C(=O)NCCCNC(=O)c2ccc(-c3c4nc(c(-c5c(F)c(F)c(F)c(F)c5F)c5ccc([nH]5)c(-c5c(F)c(F)c(F)c(F)c5F)c5nc(c(-c6c(F)c(F)c(F)c(F)c6F)c6ccc3[nH]6)C=C5)C=C4)cc2)n1
REMARK SMILES IDX 19 1 18 2 16 3 17 4 15 6 11 7 12 8 13 9 14 10 9 11 10 12
REMARK SMILES IDX 7 13 8 14 6 15 3 16 4 17 88 18 5 19 2 21 1 22 20 23 21 24
REMARK SMILES IDX 22 25 23 26 24 28 25 29 26 30 87 31 27 32 86 33 28 34 29 35
REMARK SMILES IDX 30 36 80 37 31 38 85 39 79 40 81 41 32 42 84 43 78 44 77 45
REMARK SMILES IDX 33 47 65 48 45 49 64 50 46 51 49 52 63 53 82 54 47 55 48 56
REMARK SMILES IDX 62 58 83 59 50 60 34 61 35 62 43 63 36 64 37 65 41 66 44 67
REMARK SMILES IDX 38 68 39 69 42 70 40 71 66 72 67 73 75 74 68 75 69 76 73 77
REMARK SMILES IDX 76 78 70 79 71 80 74 81 72 82 51 83 52 84 60 85 53 86 54 87
REMARK SMILES IDX 58 88 61 89 55 90 56 91 59 92 57 93
REMARK H PARENT 18 5 5 20 22 27 81 46 49 57
REMARK Flexibility Score: inf
ROOT
ATOM      1  C   UNL A   1      33.618  26.207  25.719  1.00  0.00     0.117 C 
ENDROOT
BRANCH   1   2
ATOM      2  N   UNL A   1      32.169  26.125  25.617  1.00  0.00    -0.356 N 
ATOM      3  C   UNL A   1      31.290  25.905  24.613  1.00  0.00     0.227 C 
ATOM      4  O   UNL A   1      30.098  25.966  24.946  1.00  0.00    -0.275 OA
ATOM      5  H   UNL A   1      31.723  26.265  26.483  1.00  0.00     0.163 HD
BRANCH   3   6
ATOM      6  C   UNL A   1      31.622  25.578  23.172  1.00  0.00     0.129 C 
ATOM      7  C   UNL A   1      31.830  26.692  22.154  1.00  0.00     0.125 C 
ATOM      8  C   UNL A   1      32.371  25.881  20.972  1.00  0.00     0.186 C 
ATOM      9  O   UNL A   1      33.153  24.806  21.527  1.00  0.00    -0.378 OA
ATOM     10  C   UNL A   1      32.703  24.565  22.874  1.00  0.00     0.176 C 
BRANCH   7  11
ATOM     11  N   UNL A   1      32.691  27.814  22.577  1.00  0.00    -0.333 N 
ATOM     12  C   UNL A   1      34.099  27.837  22.169  1.00  0.00     0.147 C 
BRANCH  11  13
ATOM     13  C   UNL A   1      32.070  28.884  23.261  1.00  0.00     0.291 C 
ATOM     14  O   UNL A   1      32.632  29.440  24.204  1.00  0.00    -0.265 OA
BRANCH  13  15
ATOM     15  C   UNL A   1      30.785  29.378  22.805  1.00  0.00     0.214 A 
ATOM     16  C   UNL A   1      28.729  29.643  22.418  1.00  0.00     0.151 A 
ATOM     17  N   UNL A   1      29.296  30.112  21.301  1.00  0.00    -0.158 NA
ATOM     18  N   UNL A   1      29.607  29.222  23.373  1.00  0.00    -0.207 NA
ATOM     19  N   UNL A   1      30.604  29.992  21.597  1.00  0.00    -0.255 N 
ATOM     20  H   UNL A   1      31.335  30.307  21.019  1.00  0.00     0.192 HD
BRANCH  16  21
ATOM     21  C   UNL A   1      27.270  29.473  22.597  1.00  0.00     0.076 C 
ATOM     22  C   UNL A   1      26.928  28.310  23.508  1.00  0.00     0.012 C 
ENDBRANCH  16  21
ENDBRANCH  13  15
ENDBRANCH  11  13
ENDBRANCH   7  11
ENDBRANCH   3   6
ENDBRANCH   1   2
BRANCH   1  23
ATOM     23  C   UNL A   1      34.088  27.573  26.217  1.00  0.00     0.042 C 
BRANCH  23  24
ATOM     24  C   UNL A   1      33.280  28.189  27.354  1.00  0.00     0.118 C 
BRANCH  24  25
ATOM     25  N   UNL A   1      33.359  29.638  27.372  1.00  0.00    -0.352 N 
ATOM     26  C   UNL A   1      34.351  30.494  27.787  1.00  0.00     0.251 C 
ATOM     27  H   UNL A   1      32.555  30.089  27.026  1.00  0.00     0.163 HD
ATOM     28  O   UNL A   1      34.079  31.692  27.870  1.00  0.00    -0.269 OA
BRANCH  26  29
ATOM     29  C   UNL A   1      35.725  30.045  28.147  1.00  0.00     0.039 A 
ATOM     30  C   UNL A   1      35.958  29.656  29.474  1.00  0.00     0.014 A 
ATOM     31  C   UNL A   1      36.808  30.105  27.268  1.00  0.00     0.014 A 
ATOM     32  C   UNL A   1      37.246  29.306  29.906  1.00  0.00     0.010 A 
ATOM     33  C   UNL A   1      38.079  29.683  27.678  1.00  0.00     0.010 A 
ATOM     34  C   UNL A   1      38.320  29.298  29.006  1.00  0.00    -0.014 A 
BRANCH  34  35
ATOM     35  C   UNL A   1      39.700  28.930  29.437  1.00  0.00     0.031 A 
ATOM     36  C   UNL A   1      40.538  29.902  30.223  1.00  0.00     0.074 A 
ATOM     37  C   UNL A   1      40.240  27.750  29.077  1.00  0.00     0.049 A 
ATOM     38  N   UNL A   1      41.789  29.799  30.601  1.00  0.00    -0.248 NA
ATOM     39  C   UNL A   1      39.888  31.154  30.637  1.00  0.00     0.031 C 
ATOM     40  C   UNL A   1      39.552  26.703  28.329  1.00  0.00     0.029 A 
ATOM     41  N   UNL A   1      41.506  27.245  29.260  1.00  0.00    -0.354 N 
ATOM     42  C   UNL A   1      42.074  30.968  31.293  1.00  0.00     0.074 A 
ATOM     43  C   UNL A   1      40.883  31.790  31.241  1.00  0.00     0.031 C 
ATOM     44  C   UNL A   1      40.412  25.710  28.060  1.00  0.00     0.029 A 
ATOM     45  C   UNL A   1      41.715  26.048  28.619  1.00  0.00     0.049 A 
ATOM     46  H   UNL A   1      42.194  27.698  29.798  1.00  0.00     0.167 HD
ATOM     47  C   UNL A   1      43.212  31.312  31.943  1.00  0.00     0.037 A 
ATOM     48  C   UNL A   1      42.830  25.306  28.479  1.00  0.00     0.037 A 
ATOM     49  C   UNL A   1      44.387  30.486  32.039  1.00  0.00     0.049 A 
ATOM     50  C   UNL A   1      44.094  25.728  29.165  1.00  0.00     0.074 A 
ATOM     51  C   UNL A   1      45.543  30.712  32.767  1.00  0.00     0.029 A 
ATOM     52  N   UNL A   1      44.558  29.279  31.382  1.00  0.00    -0.354 N 
ATOM     53  N   UNL A   1      44.323  26.798  29.882  1.00  0.00    -0.248 NA
ATOM     54  C   UNL A   1      45.246  24.824  29.046  1.00  0.00     0.031 C 
ATOM     55  C   UNL A   1      46.427  29.654  32.525  1.00  0.00     0.029 A 
ATOM     56  C   UNL A   1      45.810  28.759  31.667  1.00  0.00     0.049 A 
ATOM     57  H   UNL A   1      43.888  28.854  30.796  1.00  0.00     0.167 HD
ATOM     58  C   UNL A   1      45.628  26.681  30.334  1.00  0.00     0.074 A 
ATOM     59  C   UNL A   1      46.148  25.438  29.800  1.00  0.00     0.031 C 
ATOM     60  C   UNL A   1      46.322  27.522  31.136  1.00  0.00     0.037 A 
BRANCH  47  61
ATOM     61  C   UNL A   1      43.231  32.642  32.633  1.00  0.00     0.064 A 
ATOM     62  C   UNL A   1      43.707  33.791  31.986  1.00  0.00     0.173 A 
ATOM     63  C   UNL A   1      42.732  32.776  33.937  1.00  0.00     0.173 A 
ATOM     64  F   UNL A   1      44.203  33.709  30.743  1.00  0.00    -0.203 F 
ATOM     65  C   UNL A   1      43.705  35.025  32.629  1.00  0.00     0.198 A 
ATOM     66  C   UNL A   1      42.713  34.016  34.570  1.00  0.00     0.198 A 
ATOM     67  F   UNL A   1      42.260  31.706  34.595  1.00  0.00    -0.203 F 
ATOM     68  F   UNL A   1      44.196  36.105  32.006  1.00  0.00    -0.200 F 
ATOM     69  C   UNL A   1      43.203  35.138  33.917  1.00  0.00     0.200 A 
ATOM     70  F   UNL A   1      42.222  34.126  35.811  1.00  0.00    -0.200 F 
ATOM     71  F   UNL A   1      43.199  36.327  34.534  1.00  0.00    -0.200 F 
ENDBRANCH  47  61
BRANCH  48  72
ATOM     72  C   UNL A   1      42.782  24.068  27.664  1.00  0.00     0.064 A 
ATOM     73  C   UNL A   1      42.448  22.837  28.241  1.00  0.00     0.173 A 
ATOM     74  C   UNL A   1      43.047  24.101  26.288  1.00  0.00     0.173 A 
ATOM     75  F   UNL A   1      42.205  22.759  29.558  1.00  0.00    -0.203 F 
ATOM     76  C   UNL A   1      42.390  21.678  27.472  1.00  0.00     0.198 A 
ATOM     77  C   UNL A   1      42.973  22.944  25.517  1.00  0.00     0.198 A 
ATOM     78  F   UNL A   1      43.369  25.259  25.694  1.00  0.00    -0.203 F 
ATOM     79  F   UNL A   1      42.091  20.507  28.049  1.00  0.00    -0.200 F 
ATOM     80  C   UNL A   1      42.647  21.733  26.109  1.00  0.00     0.200 A 
ATOM     81  F   UNL A   1      43.215  23.002  24.199  1.00  0.00    -0.200 F 
ATOM     82  F   UNL A   1      42.585  20.619  25.368  1.00  0.00    -0.200 F 
ENDBRANCH  48  72
BRANCH  60  83
ATOM     83  C   UNL A   1      47.709  27.109  31.520  1.00  0.00     0.064 A 
ATOM     84  C   UNL A   1      48.827  27.542  30.796  1.00  0.00     0.173 A 
ATOM     85  C   UNL A   1      47.920  26.289  32.638  1.00  0.00     0.173 A 
ATOM     86  F   UNL A   1      48.671  28.310  29.707  1.00  0.00    -0.203 F 
ATOM     87  C   UNL A   1      50.111  27.155  31.170  1.00  0.00     0.198 A 
ATOM     88  C   UNL A   1      49.206  25.920  33.020  1.00  0.00     0.198 A 
ATOM     89  F   UNL A   1      46.879  25.850  33.361  1.00  0.00    -0.203 F 
ATOM     90  F   UNL A   1      51.167  27.550  30.442  1.00  0.00    -0.200 F 
ATOM     91  C   UNL A   1      50.300  26.349  32.283  1.00  0.00     0.200 A 
ATOM     92  F   UNL A   1      49.388  25.145  34.098  1.00  0.00    -0.200 F 
ATOM     93  F   UNL A   1      51.538  25.978  32.640  1.00  0.00    -0.200 F 
ENDBRANCH  60  83
ENDBRANCH  34  35
ENDBRANCH  26  29
ENDBRANCH  24  25
ENDBRANCH  23  24
ENDBRANCH   1  23
TORSDOF 14
ENDMDL
MODEL 2
REMARK VINA RESULT:     -11.5      3.327      8.271
REMARK SMILES CCc1n[nH]c(C(=O)N(C)[C@H]2COC[C@H]2C(=O)NCCCNC(=O)c2ccc(-c3c4nc(c(-c5c(F)c(F)c(F)c(F)c5F)c5ccc([nH]5)c(-c5c(F)c(F)c(F)c(F)c5F)c5nc(c(-c6c(F)c(F)c(F)c(F)c6F)c6ccc3[nH]6)C=C5)C=C4)cc2)n1
REMARK SMILES IDX 19 1 18 2 16 3 17 4 15 6 11 7 12 8 13 9 14 10 9 11 10 12
REMARK SMILES IDX 7 13 8 14 6 15 3 16 4 17 88 18 5 19 2 21 1 22 20 23 21 24
REMARK SMILES IDX 22 25 23 26 24 28 25 29 26 30 87 31 27 32 86 33 28 34 29 35
REMARK SMILES IDX 30 36 80 37 31 38 85 39 79 40 81 41 32 42 84 43 78 44 77 45
REMARK SMILES IDX 33 47 65 48 45 49 64 50 46 51 49 52 63 53 82 54 47 55 48 56
REMARK SMILES IDX 62 58 83 59 50 60 34 61 35 62 43 63 36 64 37 65 41 66 44 67
REMARK SMILES IDX 38 68 39 69 42 70 40 71 66 72 67 73 75 74 68 75 69 76 73 77
REMARK SMILES IDX 76 78 70 79 71 80 74 81 72 82 51 83 52 84 60 85 53 86 54 87
REMARK SMILES IDX 58 88 61 89 55 90 56 91 59 92 57 93
REMARK H PARENT 18 5 5 20 22 27 81 46 49 57
REMARK Flexibility Score: inf
ROOT
ATOM      1  C   UNL A   1      31.335  30.772  26.531  1.00  0.00     0.117 C 
ENDROOT
BRANCH   1   2
ATOM      2  N   UNL A   1      31.974  30.291  25.316  1.00  0.00    -0.356 N 
ATOM      3  C   UNL A   1      32.437  29.096  24.886  1.00  0.00     0.227 C 
ATOM      4  O   UNL A   1      32.974  29.120  23.769  1.00  0.00    -0.275 OA
ATOM      5  H   UNL A   1      32.100  31.005  24.650  1.00  0.00     0.163 HD
BRANCH   3   6
ATOM      6  C   UNL A   1      32.342  27.770  25.613  1.00  0.00     0.129 C 
ATOM      7  C   UNL A   1      31.134  26.863  25.410  1.00  0.00     0.125 C 
ATOM      8  C   UNL A   1      31.623  25.600  26.126  1.00  0.00     0.186 C 
ATOM      9  O   UNL A   1      33.045  25.519  25.908  1.00  0.00    -0.378 OA
ATOM     10  C   UNL A   1      33.535  26.843  25.618  1.00  0.00     0.176 C 
BRANCH   7  11
ATOM     11  N   UNL A   1      30.699  26.651  24.016  1.00  0.00    -0.333 N 
ATOM     12  C   UNL A   1      31.459  25.743  23.152  1.00  0.00     0.147 C 
BRANCH  11  13
ATOM     13  C   UNL A   1      29.483  27.253  23.620  1.00  0.00     0.291 C 
ATOM     14  O   UNL A   1      28.405  26.703  23.844  1.00  0.00    -0.265 OA
BRANCH  13  15
ATOM     15  C   UNL A   1      29.498  28.567  23.006  1.00  0.00     0.214 A 
ATOM     16  C   UNL A   1      28.964  30.441  22.199  1.00  0.00     0.151 A 
ATOM     17  N   UNL A   1      29.996  30.078  21.429  1.00  0.00    -0.158 NA
ATOM     18  N   UNL A   1      28.657  29.562  23.196  1.00  0.00    -0.207 NA
ATOM     19  N   UNL A   1      30.358  28.914  22.001  1.00  0.00    -0.255 N 
ATOM     20  H   UNL A   1      31.141  28.383  21.731  1.00  0.00     0.192 HD
BRANCH  16  21
ATOM     21  C   UNL A   1      28.128  31.637  21.953  1.00  0.00     0.076 C 
ATOM     22  C   UNL A   1      28.028  31.982  20.480  1.00  0.00     0.012 C 
ENDBRANCH  16  21
ENDBRANCH  13  15
ENDBRANCH  11  13
ENDBRANCH   7  11
ENDBRANCH   3   6
ENDBRANCH   1   2
BRANCH   1  23
ATOM     23  C   UNL A   1      31.252  32.297  26.577  1.00  0.00     0.042 C 
BRANCH  23  24
ATOM     24  C   UNL A   1      32.566  33.036  26.804  1.00  0.00     0.118 C 
BRANCH  24  25
ATOM     25  N   UNL A   1      32.405  34.222  27.626  1.00  0.00    -0.352 N 
ATOM     26  C   UNL A   1      33.051  34.640  28.763  1.00  0.00     0.251 C 
ATOM     27  H   UNL A   1      31.703  34.837  27.311  1.00  0.00     0.163 HD
ATOM     28  O   UNL A   1      32.582  35.603  29.372  1.00  0.00    -0.269 OA
BRANCH  26  29
ATOM     29  C   UNL A   1      34.278  33.985  29.299  1.00  0.00     0.039 A 
ATOM     30  C   UNL A   1      34.110  32.909  30.183  1.00  0.00     0.014 A 
ATOM     31  C   UNL A   1      35.568  34.459  29.061  1.00  0.00     0.014 A 
ATOM     32  C   UNL A   1      35.216  32.300  30.794  1.00  0.00     0.010 A 
ATOM     33  C   UNL A   1      36.678  33.805  29.611  1.00  0.00     0.010 A 
ATOM     34  C   UNL A   1      36.517  32.730  30.500  1.00  0.00    -0.014 A 
BRANCH  34  35
ATOM     35  C   UNL A   1      37.712  32.102  31.135  1.00  0.00     0.031 A 
ATOM     36  C   UNL A   1      38.463  31.006  30.428  1.00  0.00     0.074 A 
ATOM     37  C   UNL A   1      38.098  32.460  32.375  1.00  0.00     0.049 A 
ATOM     38  N   UNL A   1      39.463  30.276  30.860  1.00  0.00    -0.248 NA
ATOM     39  C   UNL A   1      38.037  30.687  29.057  1.00  0.00     0.031 C 
ATOM     40  C   UNL A   1      37.481  33.509  33.179  1.00  0.00     0.029 A 
ATOM     41  N   UNL A   1      39.082  31.955  33.192  1.00  0.00    -0.354 N 
ATOM     42  C   UNL A   1      39.781  29.415  29.819  1.00  0.00     0.074 A 
ATOM     43  C   UNL A   1      38.838  29.676  28.752  1.00  0.00     0.031 C 
ATOM     44  C   UNL A   1      38.051  33.533  34.392  1.00  0.00     0.029 A 
ATOM     45  C   UNL A   1      39.078  32.500  34.453  1.00  0.00     0.049 A 
ATOM     46  H   UNL A   1      39.726  31.271  32.901  1.00  0.00     0.167 HD
ATOM     47  C   UNL A   1      40.789  28.512  29.745  1.00  0.00     0.037 A 
ATOM     48  C   UNL A   1      39.804  32.199  35.546  1.00  0.00     0.037 A 
ATOM     49  C   UNL A   1      41.758  28.274  30.782  1.00  0.00     0.049 A 
ATOM     50  C   UNL A   1      40.882  31.162  35.459  1.00  0.00     0.074 A 
ATOM     51  C   UNL A   1      42.875  27.455  30.747  1.00  0.00     0.029 A 
ATOM     52  N   UNL A   1      41.724  28.849  32.041  1.00  0.00    -0.354 N 
ATOM     53  N   UNL A   1      41.222  30.412  34.441  1.00  0.00    -0.248 NA
ATOM     54  C   UNL A   1      41.697  30.950  36.663  1.00  0.00     0.031 C 
ATOM     55  C   UNL A   1      43.499  27.512  31.999  1.00  0.00     0.029 A 
ATOM     56  C   UNL A   1      42.785  28.385  32.802  1.00  0.00     0.049 A 
ATOM     57  H   UNL A   1      41.044  29.492  32.351  1.00  0.00     0.167 HD
ATOM     58  C   UNL A   1      42.313  29.669  34.865  1.00  0.00     0.074 A 
ATOM     59  C   UNL A   1      42.573  30.049  36.239  1.00  0.00     0.031 C 
ATOM     60  C   UNL A   1      43.042  28.767  34.166  1.00  0.00     0.037 A 
BRANCH  47  61
ATOM     61  C   UNL A   1      40.912  27.726  28.475  1.00  0.00     0.064 A 
ATOM     62  C   UNL A   1      41.704  28.181  27.411  1.00  0.00     0.173 A 
ATOM     63  C   UNL A   1      40.264  26.490  28.336  1.00  0.00     0.173 A 
ATOM     64  F   UNL A   1      42.334  29.362  27.496  1.00  0.00    -0.203 F 
ATOM     65  C   UNL A   1      41.826  27.435  26.242  1.00  0.00     0.198 A 
ATOM     66  C   UNL A   1      40.404  25.738  27.173  1.00  0.00     0.198 A 
ATOM     67  F   UNL A   1      39.499  26.012  29.329  1.00  0.00    -0.203 F 
ATOM     68  F   UNL A   1      42.561  27.904  25.224  1.00  0.00    -0.200 F 
ATOM     69  C   UNL A   1      41.181  26.213  26.126  1.00  0.00     0.200 A 
ATOM     70  F   UNL A   1      39.787  24.555  27.063  1.00  0.00    -0.200 F 
ATOM     71  F   UNL A   1      41.302  25.495  25.001  1.00  0.00    -0.200 F 
ENDBRANCH  47  61
BRANCH  48  72
ATOM     72  C   UNL A   1      39.538  32.918  36.816  1.00  0.00     0.064 A 
ATOM     73  C   UNL A   1      40.284  34.047  37.175  1.00  0.00     0.173 A 
ATOM     74  C   UNL A   1      38.518  32.498  37.680  1.00  0.00     0.173 A 
ATOM     75  F   UNL A   1      41.281  34.470  36.384  1.00  0.00    -0.203 F 
ATOM     76  C   UNL A   1      40.023  34.728  38.361  1.00  0.00     0.198 A 
ATOM     77  C   UNL A   1      38.248  33.190  38.859  1.00  0.00     0.198 A 
ATOM     78  F   UNL A   1      37.778  31.422  37.375  1.00  0.00    -0.203 F 
ATOM     79  F   UNL A   1      40.764  35.793  38.697  1.00  0.00    -0.200 F 
ATOM     80  C   UNL A   1      39.002  34.303  39.200  1.00  0.00     0.200 A 
ATOM     81  F   UNL A   1      37.257  32.780  39.664  1.00  0.00    -0.200 F 
ATOM     82  F   UNL A   1      38.749  34.962  40.338  1.00  0.00    -0.200 F 
ENDBRANCH  48  72
BRANCH  60  83
ATOM     83  C   UNL A   1      44.217  28.155  34.862  1.00  0.00     0.064 A 
ATOM     84  C   UNL A   1      45.470  28.783  34.871  1.00  0.00     0.173 A 
ATOM     85  C   UNL A   1      44.081  26.938  35.546  1.00  0.00     0.173 A 
ATOM     86  F   UNL A   1      45.652  29.937  34.212  1.00  0.00    -0.203 F 
ATOM     87  C   UNL A   1      46.552  28.204  35.529  1.00  0.00     0.198 A 
ATOM     88  C   UNL A   1      45.160  26.372  36.219  1.00  0.00     0.198 A 
ATOM     89  F   UNL A   1      42.901  26.301  35.565  1.00  0.00    -0.203 F 
ATOM     90  F   UNL A   1      47.752  28.801  35.495  1.00  0.00    -0.200 F 
ATOM     91  C   UNL A   1      46.395  27.003  36.205  1.00  0.00     0.200 A 
ATOM     92  F   UNL A   1      45.007  25.215  36.876  1.00  0.00    -0.200 F 
ATOM     93  F   UNL A   1      47.439  26.449  36.838  1.00  0.00    -0.200 F 
ENDBRANCH  60  83
ENDBRANCH  34  35
ENDBRANCH  26  29
ENDBRANCH  24  25
ENDBRANCH  23  24
ENDBRANCH   1  23
TORSDOF 14
ENDMDL
MODEL 3
REMARK VINA RESULT:     -11.4      3.200      4.820
REMARK SMILES CCc1n[nH]c(C(=O)N(C)[C@H]2COC[C@H]2C(=O)NCCCNC(=O)c2ccc(-c3c4nc(c(-c5c(F)c(F)c(F)c(F)c5F)c5ccc([nH]5)c(-c5c(F)c(F)c(F)c(F)c5F)c5nc(c(-c6c(F)c(F)c(F)c(F)c6F)c6ccc3[nH]6)C=C5)C=C4)cc2)n1
REMARK SMILES IDX 19 1 18 2 16 3 17 4 15 6 11 7 12 8 13 9 14 10 9 11 10 12
REMARK SMILES IDX 7 13 8 14 6 15 3 16 4 17 88 18 5 19 2 21 1 22 20 23 21 24
REMARK SMILES IDX 22 25 23 26 24 28 25 29 26 30 87 31 27 32 86 33 28 34 29 35
REMARK SMILES IDX 30 36 80 37 31 38 85 39 79 40 81 41 32 42 84 43 78 44 77 45
REMARK SMILES IDX 33 47 65 48 45 49 64 50 46 51 49 52 63 53 82 54 47 55 48 56
REMARK SMILES IDX 62 58 83 59 50 60 34 61 35 62 43 63 36 64 37 65 41 66 44 67
REMARK SMILES IDX 38 68 39 69 42 70 40 71 66 72 67 73 75 74 68 75 69 76 73 77
REMARK SMILES IDX 76 78 70 79 71 80 74 81 72 82 51 83 52 84 60 85 53 86 54 87
REMARK SMILES IDX 58 88 61 89 55 90 56 91 59 92 57 93
REMARK H PARENT 18 5 5 20 22 27 81 46 49 57
REMARK Flexibility Score: inf
ROOT
ATOM      1  C   UNL A   1      31.396  30.782  26.512  1.00  0.00     0.117 C 
ENDROOT
BRANCH   1   2
ATOM      2  N   UNL A   1      32.024  30.297  25.292  1.00  0.00    -0.356 N 
ATOM      3  C   UNL A   1      32.491  29.104  24.865  1.00  0.00     0.227 C 
ATOM      4  O   UNL A   1      33.014  29.124  23.741  1.00  0.00    -0.275 OA
ATOM      5  H   UNL A   1      32.135  31.008  24.620  1.00  0.00     0.163 HD
BRANCH   3   6
ATOM      6  C   UNL A   1      32.415  27.782  25.601  1.00  0.00     0.129 C 
ATOM      7  C   UNL A   1      31.211  26.865  25.422  1.00  0.00     0.125 C 
ATOM      8  C   UNL A   1      31.719  25.610  26.140  1.00  0.00     0.186 C 
ATOM      9  O   UNL A   1      33.138  25.538  25.902  1.00  0.00    -0.378 OA
ATOM     10  C   UNL A   1      33.615  26.863  25.596  1.00  0.00     0.176 C 
BRANCH   7  11
ATOM     11  N   UNL A   1      30.758  26.641  24.035  1.00  0.00    -0.333 N 
ATOM     12  C   UNL A   1      31.497  25.712  23.175  1.00  0.00     0.147 C 
BRANCH  11  13
ATOM     13  C   UNL A   1      29.545  27.254  23.645  1.00  0.00     0.291 C 
ATOM     14  O   UNL A   1      28.464  26.710  23.868  1.00  0.00    -0.265 OA
BRANCH  13  15
ATOM     15  C   UNL A   1      29.568  28.570  23.037  1.00  0.00     0.214 A 
ATOM     16  C   UNL A   1      29.050  30.463  22.265  1.00  0.00     0.151 A 
ATOM     17  N   UNL A   1      30.037  30.078  21.448  1.00  0.00    -0.158 NA
ATOM     18  N   UNL A   1      28.763  29.586  23.269  1.00  0.00    -0.207 NA
ATOM     19  N   UNL A   1      30.392  28.902  21.998  1.00  0.00    -0.255 N 
ATOM     20  H   UNL A   1      31.149  28.352  21.692  1.00  0.00     0.192 HD
BRANCH  16  21
ATOM     21  C   UNL A   1      28.236  31.682  22.062  1.00  0.00     0.076 C 
ATOM     22  C   UNL A   1      28.774  32.874  22.828  1.00  0.00     0.012 C 
ENDBRANCH  16  21
ENDBRANCH  13  15
ENDBRANCH  11  13
ENDBRANCH   7  11
ENDBRANCH   3   6
ENDBRANCH   1   2
BRANCH   1  23
ATOM     23  C   UNL A   1      31.382  32.308  26.590  1.00  0.00     0.042 C 
BRANCH  23  24
ATOM     24  C   UNL A   1      32.721  32.979  26.878  1.00  0.00     0.118 C 
BRANCH  24  25
ATOM     25  N   UNL A   1      32.572  34.233  27.594  1.00  0.00    -0.352 N 
ATOM     26  C   UNL A   1      33.130  34.689  28.764  1.00  0.00     0.251 C 
ATOM     27  H   UNL A   1      31.960  34.872  27.163  1.00  0.00     0.163 HD
ATOM     28  O   UNL A   1      32.681  35.728  29.250  1.00  0.00    -0.269 OA
BRANCH  26  29
ATOM     29  C   UNL A   1      34.237  33.988  29.474  1.00  0.00     0.039 A 
ATOM     30  C   UNL A   1      35.545  34.202  29.016  1.00  0.00     0.014 A 
ATOM     31  C   UNL A   1      34.028  33.048  30.484  1.00  0.00     0.014 A 
ATOM     32  C   UNL A   1      36.627  33.510  29.578  1.00  0.00     0.010 A 
ATOM     33  C   UNL A   1      35.115  32.413  31.098  1.00  0.00     0.010 A 
ATOM     34  C   UNL A   1      36.426  32.619  30.641  1.00  0.00    -0.014 A 
BRANCH  34  35
ATOM     35  C   UNL A   1      37.558  31.869  31.259  1.00  0.00     0.031 A 
ATOM     36  C   UNL A   1      38.092  32.269  32.608  1.00  0.00     0.074 A 
ATOM     37  C   UNL A   1      38.161  30.865  30.593  1.00  0.00     0.049 A 
ATOM     38  N   UNL A   1      39.128  31.800  33.261  1.00  0.00    -0.248 NA
ATOM     39  C   UNL A   1      37.368  33.335  33.318  1.00  0.00     0.031 C 
ATOM     40  C   UNL A   1      37.753  30.356  29.288  1.00  0.00     0.029 A 
ATOM     41  N   UNL A   1      39.270  30.115  30.907  1.00  0.00    -0.354 N 
ATOM     42  C   UNL A   1      39.180  32.512  34.451  1.00  0.00     0.074 A 
ATOM     43  C   UNL A   1      38.104  33.480  34.412  1.00  0.00     0.031 C 
ATOM     44  C   UNL A   1      38.629  29.426  28.880  1.00  0.00     0.029 A 
ATOM     45  C   UNL A   1      39.661  29.270  29.897  1.00  0.00     0.049 A 
ATOM     46  H   UNL A   1      39.737  30.178  31.770  1.00  0.00     0.167 HD
ATOM     47  C   UNL A   1      40.026  32.353  35.497  1.00  0.00     0.037 A 
ATOM     48  C   UNL A   1      40.735  28.466  29.786  1.00  0.00     0.037 A 
ATOM     49  C   UNL A   1      41.073  31.367  35.566  1.00  0.00     0.049 A 
ATOM     50  C   UNL A   1      41.689  28.339  30.936  1.00  0.00     0.074 A 
ATOM     51  C   UNL A   1      41.906  31.066  36.630  1.00  0.00     0.029 A 
ATOM     52  N   UNL A   1      41.434  30.526  34.526  1.00  0.00    -0.354 N 
ATOM     53  N   UNL A   1      41.678  28.962  32.087  1.00  0.00    -0.248 NA
ATOM     54  C   UNL A   1      42.787  27.375  30.782  1.00  0.00     0.031 C 
ATOM     55  C   UNL A   1      42.792  30.062  36.223  1.00  0.00     0.029 A 
ATOM     56  C   UNL A   1      42.493  29.721  34.915  1.00  0.00     0.049 A 
ATOM     57  H   UNL A   1      41.001  30.504  33.641  1.00  0.00     0.167 HD
ATOM     58  C   UNL A   1      42.739  28.441  32.811  1.00  0.00     0.074 A 
ATOM     59  C   UNL A   1      43.382  27.456  31.965  1.00  0.00     0.031 C 
ATOM     60  C   UNL A   1      43.128  28.742  34.072  1.00  0.00     0.037 A 
BRANCH  47  61
ATOM     61  C   UNL A   1      39.835  33.256  36.677  1.00  0.00     0.064 A 
ATOM     62  C   UNL A   1      38.907  32.953  37.683  1.00  0.00     0.173 A 
ATOM     63  C   UNL A   1      40.613  34.414  36.822  1.00  0.00     0.173 A 
ATOM     64  F   UNL A   1      38.134  31.862  37.582  1.00  0.00    -0.203 F 
ATOM     65  C   UNL A   1      38.749  33.790  38.784  1.00  0.00     0.198 A 
ATOM     66  C   UNL A   1      40.466  35.238  37.934  1.00  0.00     0.198 A 
ATOM     67  F   UNL A   1      41.518  34.743  35.887  1.00  0.00    -0.203 F 
ATOM     68  F   UNL A   1      37.832  33.500  39.718  1.00  0.00    -0.200 F 
ATOM     69  C   UNL A   1      39.531  34.928  38.911  1.00  0.00     0.200 A 
ATOM     70  F   UNL A   1      41.226  36.333  38.061  1.00  0.00    -0.200 F 
ATOM     71  F   UNL A   1      39.380  35.730  39.973  1.00  0.00    -0.200 F 
ENDBRANCH  47  61
BRANCH  48  72
ATOM     72  C   UNL A   1      40.945  27.700  28.534  1.00  0.00     0.064 A 
ATOM     73  C   UNL A   1      40.308  26.472  28.324  1.00  0.00     0.173 A 
ATOM     74  C   UNL A   1      41.771  28.199  27.516  1.00  0.00     0.173 A 
ATOM     75  F   UNL A   1      39.525  25.952  29.280  1.00  0.00    -0.203 F 
ATOM     76  C   UNL A   1      40.496  25.762  27.141  1.00  0.00     0.198 A 
ATOM     77  C   UNL A   1      41.945  27.495  26.327  1.00  0.00     0.198 A 
ATOM     78  F   UNL A   1      42.400  29.372  27.675  1.00  0.00    -0.203 F 
ATOM     79  F   UNL A   1      39.895  24.577  26.970  1.00  0.00    -0.200 F 
ATOM     80  C   UNL A   1      41.310  26.276  26.141  1.00  0.00     0.200 A 
ATOM     81  F   UNL A   1      42.727  27.997  25.361  1.00  0.00    -0.200 F 
ATOM     82  F   UNL A   1      41.485  25.594  25.001  1.00  0.00    -0.200 F 
ENDBRANCH  48  72
BRANCH  60  83
ATOM     83  C   UNL A   1      44.282  27.970  34.632  1.00  0.00     0.064 A 
ATOM     84  C   UNL A   1      44.096  26.737  35.269  1.00  0.00     0.173 A 
ATOM     85  C   UNL A   1      45.591  28.461  34.508  1.00  0.00     0.173 A 
ATOM     86  F   UNL A   1      42.861  26.238  35.429  1.00  0.00    -0.203 F 
ATOM     87  C   UNL A   1      45.181  26.028  35.778  1.00  0.00     0.198 A 
ATOM     88  C   UNL A   1      46.674  27.741  35.001  1.00  0.00     0.198 A 
ATOM     89  F   UNL A   1      45.817  29.639  33.905  1.00  0.00    -0.203 F 
ATOM     90  F   UNL A   1      44.979  24.866  36.417  1.00  0.00    -0.200 F 
ATOM     91  C   UNL A   1      46.467  26.527  35.640  1.00  0.00     0.200 A 
ATOM     92  F   UNL A   1      47.917  28.222  34.863  1.00  0.00    -0.200 F 
ATOM     93  F   UNL A   1      47.510  25.842  36.130  1.00  0.00    -0.200 F 
ENDBRANCH  60  83
ENDBRANCH  34  35
ENDBRANCH  26  29
ENDBRANCH  24  25
ENDBRANCH  23  24
ENDBRANCH   1  23
TORSDOF 14
ENDMDL
