MODEL 1
REMARK VINA RESULT:     -13.9      0.000      0.000
REMARK SMILES O=C(NCCCNC(=O)[C@H]1[C@@H](C(=O)NN2CCOCC2)[C@H]2C=C[C@@H]1CC2)c1ccc(-c2c3nc(c(-c4c(F)c(F)c(F)c(F)c4F)c4ccc([nH]4)c(-c4c(F)c(F)c(F)c(F)c4F)c4nc(c(-c5c(F)c(F)c(F)c(F)c5F)c5ccc2[nH]5)C=C4)C=C3)cc1
REMARK SMILES IDX 5 1 4 2 3 3 1 4 2 5 27 7 28 8 89 9 29 10 88 11 30 12 31 13
REMARK SMILES IDX 32 14 82 15 33 16 87 17 81 18 83 19 34 20 86 21 80 22 79 23
REMARK SMILES IDX 35 25 67 26 47 27 66 28 48 29 51 30 65 31 84 32 49 33 50 34
REMARK SMILES IDX 64 36 85 37 52 38 36 39 37 40 45 41 38 42 39 43 43 44 46 45
REMARK SMILES IDX 40 46 41 47 44 48 42 49 68 50 69 51 77 52 70 53 71 54 75 55
REMARK SMILES IDX 78 56 72 57 73 58 76 59 74 60 53 61 54 62 62 63 55 64 56 65
REMARK SMILES IDX 60 66 63 67 57 68 58 69 61 70 59 71 6 72 7 73 8 74 9 76
REMARK SMILES IDX 10 77 11 78 24 79 21 80 23 81 25 82 22 83 26 84 12 85 13 86
REMARK SMILES IDX 14 87 15 89 16 90 20 91 17 92 19 93 18 94
REMARK H PARENT 3 6 83 24 51 35 7 75 14 88
REMARK Flexibility Score: inf
ROOT
ATOM      1  C   UNL A   1      31.742  31.990  26.642  1.00  0.00     0.042 C 
ENDROOT
BRANCH   1   2
ATOM      2  C   UNL A   1      32.847  32.794  27.317  1.00  0.00     0.118 C 
BRANCH   2   3
ATOM      3  N   UNL A   1      32.438  34.140  27.685  1.00  0.00    -0.352 N 
ATOM      4  O   UNL A   1      32.504  36.051  28.897  1.00  0.00    -0.269 OA
ATOM      5  C   UNL A   1      33.009  34.971  28.624  1.00  0.00     0.251 C 
ATOM      6  H   UNL A   1      31.659  34.501  27.205  1.00  0.00     0.163 HD
BRANCH   5   7
ATOM      7  C   UNL A   1      34.219  34.509  29.336  1.00  0.00     0.039 A 
ATOM      8  C   UNL A   1      35.488  34.694  28.778  1.00  0.00     0.014 A 
ATOM      9  C   UNL A   1      34.065  33.821  30.540  1.00  0.00     0.014 A 
ATOM     10  C   UNL A   1      36.591  34.074  29.359  1.00  0.00     0.010 A 
ATOM     11  C   UNL A   1      35.182  33.253  31.154  1.00  0.00     0.010 A 
ATOM     12  C   UNL A   1      36.446  33.343  30.550  1.00  0.00    -0.014 A 
BRANCH  12  13
ATOM     13  C   UNL A   1      37.620  32.690  31.179  1.00  0.00     0.031 A 
ATOM     14  C   UNL A   1      38.332  31.560  30.490  1.00  0.00     0.074 A 
ATOM     15  C   UNL A   1      38.022  33.097  32.397  1.00  0.00     0.049 A 
ATOM     16  N   UNL A   1      39.299  30.797  30.932  1.00  0.00    -0.248 NA
ATOM     17  C   UNL A   1      37.890  31.240  29.123  1.00  0.00     0.031 C 
ATOM     18  C   UNL A   1      37.414  34.186  33.162  1.00  0.00     0.029 A 
ATOM     19  N   UNL A   1      39.022  32.631  33.212  1.00  0.00    -0.354 N 
ATOM     20  C   UNL A   1      39.563  29.889  29.915  1.00  0.00     0.074 A 
ATOM     21  C   UNL A   1      38.643  30.187  28.836  1.00  0.00     0.031 C 
ATOM     22  C   UNL A   1      38.053  34.306  34.334  1.00  0.00     0.029 A 
ATOM     23  C   UNL A   1      39.075  33.268  34.426  1.00  0.00     0.049 A 
ATOM     24  H   UNL A   1      39.642  31.912  32.950  1.00  0.00     0.167 HD
ATOM     25  C   UNL A   1      40.489  28.901  29.886  1.00  0.00     0.037 A 
ATOM     26  C   UNL A   1      39.835  33.021  35.509  1.00  0.00     0.037 A 
ATOM     27  C   UNL A   1      41.412  28.623  30.958  1.00  0.00     0.049 A 
ATOM     28  C   UNL A   1      40.835  31.902  35.466  1.00  0.00     0.074 A 
ATOM     29  C   UNL A   1      42.416  27.672  31.008  1.00  0.00     0.029 A 
ATOM     30  N   UNL A   1      41.437  29.294  32.173  1.00  0.00    -0.354 N 
ATOM     31  N   UNL A   1      41.094  31.065  34.492  1.00  0.00    -0.248 NA
ATOM     32  C   UNL A   1      41.646  31.692  36.673  1.00  0.00     0.031 C 
ATOM     33  C   UNL A   1      43.019  27.737  32.270  1.00  0.00     0.029 A 
ATOM     34  C   UNL A   1      42.423  28.762  32.988  1.00  0.00     0.049 A 
ATOM     35  H   UNL A   1      40.841  30.038  32.419  1.00  0.00     0.167 HD
ATOM     36  C   UNL A   1      42.111  30.243  34.955  1.00  0.00     0.074 A 
ATOM     37  C   UNL A   1      42.425  30.686  36.299  1.00  0.00     0.031 C 
ATOM     38  C   UNL A   1      42.730  29.219  34.320  1.00  0.00     0.037 A 
BRANCH  25  39
ATOM     39  C   UNL A   1      40.534  28.025  28.669  1.00  0.00     0.064 A 
ATOM     40  C   UNL A   1      41.284  28.369  27.534  1.00  0.00     0.173 A 
ATOM     41  C   UNL A   1      39.838  26.806  28.648  1.00  0.00     0.173 A 
ATOM     42  F   UNL A   1      41.958  29.529  27.498  1.00  0.00    -0.203 F 
ATOM     43  C   UNL A   1      41.310  27.543  26.413  1.00  0.00     0.198 A 
ATOM     44  C   UNL A   1      39.890  25.968  27.537  1.00  0.00     0.198 A 
ATOM     45  F   UNL A   1      39.113  26.423  29.709  1.00  0.00    -0.203 F 
ATOM     46  F   UNL A   1      41.993  27.917  25.323  1.00  0.00    -0.200 F 
ATOM     47  C   UNL A   1      40.618  26.341  26.417  1.00  0.00     0.200 A 
ATOM     48  F   UNL A   1      39.229  24.802  27.546  1.00  0.00    -0.200 F 
ATOM     49  F   UNL A   1      40.646  25.546  25.338  1.00  0.00    -0.200 F 
ENDBRANCH  25  39
BRANCH  26  50
ATOM     50  C   UNL A   1      39.656  33.858  36.720  1.00  0.00     0.064 A 
ATOM     51  C   UNL A   1      40.252  35.121  36.817  1.00  0.00     0.173 A 
ATOM     52  C   UNL A   1      38.834  33.437  37.775  1.00  0.00     0.173 A 
ATOM     53  F   UNL A   1      41.059  35.557  35.838  1.00  0.00    -0.203 F 
ATOM     54  C   UNL A   1      40.034  35.933  37.926  1.00  0.00     0.198 A 
ATOM     55  C   UNL A   1      38.595  34.261  38.873  1.00  0.00     0.198 A 
ATOM     56  F   UNL A   1      38.234  32.238  37.722  1.00  0.00    -0.203 F 
ATOM     57  F   UNL A   1      40.631  37.130  38.006  1.00  0.00    -0.200 F 
ATOM     58  C   UNL A   1      39.197  35.507  38.948  1.00  0.00     0.200 A 
ATOM     59  F   UNL A   1      37.773  33.852  39.848  1.00  0.00    -0.200 F 
ATOM     60  F   UNL A   1      38.970  36.299  40.006  1.00  0.00    -0.200 F 
ENDBRANCH  26  50
BRANCH  38  61
ATOM     61  C   UNL A   1      43.840  28.526  35.052  1.00  0.00     0.064 A 
ATOM     62  C   UNL A   1      45.167  28.971  34.968  1.00  0.00     0.173 A 
ATOM     63  C   UNL A   1      43.561  27.437  35.892  1.00  0.00     0.173 A 
ATOM     64  F   UNL A   1      45.486  29.997  34.165  1.00  0.00    -0.203 F 
ATOM     65  C   UNL A   1      46.177  28.342  35.692  1.00  0.00     0.198 A 
ATOM     66  C   UNL A   1      44.568  26.827  36.632  1.00  0.00     0.198 A 
ATOM     67  F   UNL A   1      42.305  26.978  36.007  1.00  0.00    -0.203 F 
ATOM     68  F   UNL A   1      47.444  28.763  35.574  1.00  0.00    -0.200 F 
ATOM     69  C   UNL A   1      45.877  27.278  36.529  1.00  0.00     0.200 A 
ATOM     70  F   UNL A   1      44.274  25.806  37.448  1.00  0.00    -0.200 F 
ATOM     71  F   UNL A   1      46.848  26.683  37.235  1.00  0.00    -0.200 F 
ENDBRANCH  38  61
ENDBRANCH  12  13
ENDBRANCH   5   7
ENDBRANCH   2   3
ENDBRANCH   1   2
BRANCH   1  72
ATOM     72  C   UNL A   1      31.789  30.497  26.937  1.00  0.00     0.117 C 
BRANCH  72  73
ATOM     73  N   UNL A   1      32.907  29.856  26.268  1.00  0.00    -0.356 N 
ATOM     74  C   UNL A   1      32.908  28.852  25.345  1.00  0.00     0.224 C 
ATOM     75  H   UNL A   1      33.797  30.195  26.520  1.00  0.00     0.163 HD
ATOM     76  O   UNL A   1      33.992  28.514  24.866  1.00  0.00    -0.275 OA
BRANCH  74  77
ATOM     77  C   UNL A   1      31.621  28.123  25.056  1.00  0.00     0.098 C 
ATOM     78  C   UNL A   1      30.629  28.559  23.929  1.00  0.00     0.100 C 
ATOM     79  C   UNL A   1      31.894  26.582  24.994  1.00  0.00     0.025 C 
ATOM     80  C   UNL A   1      29.960  27.219  23.403  1.00  0.00     0.025 C 
ATOM     81  C   UNL A   1      32.105  26.152  23.558  1.00  0.00    -0.027 C 
ATOM     82  C   UNL A   1      30.598  25.887  25.467  1.00  0.00     0.009 C 
ATOM     83  C   UNL A   1      31.080  26.436  22.742  1.00  0.00    -0.027 C 
ATOM     84  C   UNL A   1      29.427  26.375  24.588  1.00  0.00     0.009 C 
BRANCH  78  85
ATOM     85  C   UNL A   1      30.877  29.405  22.650  1.00  0.00     0.238 C 
ATOM     86  O   UNL A   1      31.967  29.263  22.062  1.00  0.00    -0.273 OA
ATOM     87  N   UNL A   1      30.039  30.244  21.992  1.00  0.00    -0.288 N 
ATOM     88  H   UNL A   1      30.433  30.719  21.224  1.00  0.00     0.185 HD
BRANCH  87  89
ATOM     89  N   UNL A   1      28.714  30.526  22.249  1.00  0.00    -0.217 NA
ATOM     90  C   UNL A   1      27.977  30.922  21.026  1.00  0.00     0.136 C 
ATOM     91  C   UNL A   1      28.555  31.575  23.285  1.00  0.00     0.136 C 
ATOM     92  C   UNL A   1      28.167  32.382  20.593  1.00  0.00     0.177 C 
ATOM     93  C   UNL A   1      28.756  33.007  22.778  1.00  0.00     0.177 C 
ATOM     94  O   UNL A   1      27.893  33.283  21.668  1.00  0.00    -0.379 OA
ENDBRANCH  87  89
ENDBRANCH  78  85
ENDBRANCH  74  77
ENDBRANCH  72  73
ENDBRANCH   1  72
TORSDOF 12
ENDMDL
MODEL 2
REMARK VINA RESULT:     -13.6      0.361      7.484
REMARK SMILES O=C(NCCCNC(=O)[C@H]1[C@@H](C(=O)NN2CCOCC2)[C@H]2C=C[C@@H]1CC2)c1ccc(-c2c3nc(c(-c4c(F)c(F)c(F)c(F)c4F)c4ccc([nH]4)c(-c4c(F)c(F)c(F)c(F)c4F)c4nc(c(-c5c(F)c(F)c(F)c(F)c5F)c5ccc2[nH]5)C=C4)C=C3)cc1
REMARK SMILES IDX 5 1 4 2 3 3 1 4 2 5 27 7 28 8 89 9 29 10 88 11 30 12 31 13
REMARK SMILES IDX 32 14 82 15 33 16 87 17 81 18 83 19 34 20 86 21 80 22 79 23
REMARK SMILES IDX 35 25 67 26 47 27 66 28 48 29 51 30 65 31 84 32 49 33 50 34
REMARK SMILES IDX 64 36 85 37 52 38 36 39 37 40 45 41 38 42 39 43 43 44 46 45
REMARK SMILES IDX 40 46 41 47 44 48 42 49 68 50 69 51 77 52 70 53 71 54 75 55
REMARK SMILES IDX 78 56 72 57 73 58 76 59 74 60 53 61 54 62 62 63 55 64 56 65
REMARK SMILES IDX 60 66 63 67 57 68 58 69 61 70 59 71 6 72 7 73 8 74 9 76
REMARK SMILES IDX 10 77 11 78 24 79 21 80 23 81 25 82 22 83 26 84 12 85 13 86
REMARK SMILES IDX 14 87 15 89 16 90 20 91 17 92 19 93 18 94
REMARK H PARENT 3 6 83 24 51 35 7 75 14 88
REMARK Flexibility Score: inf
ROOT
ATOM      1  C   UNL A   1      31.642  32.096  26.647  1.00  0.00     0.042 C 
ENDROOT
BRANCH   1   2
ATOM      2  C   UNL A   1      32.819  32.851  27.255  1.00  0.00     0.118 C 
BRANCH   2   3
ATOM      3  N   UNL A   1      32.491  34.214  27.644  1.00  0.00    -0.352 N 
ATOM      4  O   UNL A   1      32.632  36.079  28.918  1.00  0.00    -0.269 OA
ATOM      5  C   UNL A   1      33.070  34.972  28.637  1.00  0.00     0.251 C 
ATOM      6  H   UNL A   1      31.767  34.645  27.136  1.00  0.00     0.163 HD
BRANCH   5   7
ATOM      7  C   UNL A   1      34.202  34.402  29.396  1.00  0.00     0.039 A 
ATOM      8  C   UNL A   1      35.519  34.594  28.963  1.00  0.00     0.014 A 
ATOM      9  C   UNL A   1      33.929  33.607  30.509  1.00  0.00     0.014 A 
ATOM     10  C   UNL A   1      36.552  33.882  29.567  1.00  0.00     0.010 A 
ATOM     11  C   UNL A   1      34.974  32.943  31.152  1.00  0.00     0.010 A 
ATOM     12  C   UNL A   1      36.287  33.046  30.664  1.00  0.00    -0.014 A 
BRANCH  12  13
ATOM     13  C   UNL A   1      37.386  32.293  31.319  1.00  0.00     0.031 A 
ATOM     14  C   UNL A   1      37.866  32.674  32.691  1.00  0.00     0.074 A 
ATOM     15  C   UNL A   1      37.976  31.283  30.654  1.00  0.00     0.049 A 
ATOM     16  N   UNL A   1      38.882  32.209  33.372  1.00  0.00    -0.248 NA
ATOM     17  C   UNL A   1      37.107  33.725  33.386  1.00  0.00     0.031 C 
ATOM     18  C   UNL A   1      37.594  30.819  29.320  1.00  0.00     0.029 A 
ATOM     19  N   UNL A   1      39.032  30.480  31.000  1.00  0.00    -0.354 N 
ATOM     20  C   UNL A   1      38.905  32.927  34.560  1.00  0.00     0.074 A 
ATOM     21  C   UNL A   1      37.808  33.871  34.502  1.00  0.00     0.031 C 
ATOM     22  C   UNL A   1      38.402  29.812  28.960  1.00  0.00     0.029 A 
ATOM     23  C   UNL A   1      39.393  29.600  30.011  1.00  0.00     0.049 A 
ATOM     24  H   UNL A   1      39.485  30.529  31.872  1.00  0.00     0.167 HD
ATOM     25  C   UNL A   1      39.762  32.805  35.603  1.00  0.00     0.037 A 
ATOM     26  C   UNL A   1      40.428  28.743  29.939  1.00  0.00     0.037 A 
ATOM     27  C   UNL A   1      40.840  31.851  35.659  1.00  0.00     0.049 A 
ATOM     28  C   UNL A   1      41.383  28.646  31.093  1.00  0.00     0.074 A 
ATOM     29  C   UNL A   1      41.737  31.621  36.687  1.00  0.00     0.029 A 
ATOM     30  N   UNL A   1      41.172  30.973  34.636  1.00  0.00    -0.354 N 
ATOM     31  N   UNL A   1      41.382  29.311  32.222  1.00  0.00    -0.248 NA
ATOM     32  C   UNL A   1      42.483  27.682  30.964  1.00  0.00     0.031 C 
ATOM     33  C   UNL A   1      42.639  30.634  36.270  1.00  0.00     0.029 A 
ATOM     34  C   UNL A   1      42.273  30.215  35.001  1.00  0.00     0.049 A 
ATOM     35  H   UNL A   1      40.695  30.899  33.778  1.00  0.00     0.167 HD
ATOM     36  C   UNL A   1      42.463  28.833  32.948  1.00  0.00     0.074 A 
ATOM     37  C   UNL A   1      43.096  27.817  32.132  1.00  0.00     0.031 C 
ATOM     38  C   UNL A   1      42.887  29.201  34.181  1.00  0.00     0.037 A 
BRANCH  25  39
ATOM     39  C   UNL A   1      39.589  33.747  36.758  1.00  0.00     0.064 A 
ATOM     40  C   UNL A   1      38.810  33.414  37.877  1.00  0.00     0.173 A 
ATOM     41  C   UNL A   1      40.237  34.992  36.760  1.00  0.00     0.173 A 
ATOM     42  F   UNL A   1      38.160  32.241  37.920  1.00  0.00    -0.203 F 
ATOM     43  C   UNL A   1      38.661  34.304  38.938  1.00  0.00     0.198 A 
ATOM     44  C   UNL A   1      40.110  35.867  37.836  1.00  0.00     0.198 A 
ATOM     45  F   UNL A   1      41.002  35.358  35.720  1.00  0.00    -0.203 F 
ATOM     46  F   UNL A   1      37.871  33.984  39.972  1.00  0.00    -0.200 F 
ATOM     47  C   UNL A   1      39.315  35.526  38.919  1.00  0.00     0.200 A 
ATOM     48  F   UNL A   1      40.751  37.044  37.821  1.00  0.00    -0.200 F 
ATOM     49  F   UNL A   1      39.171  36.381  39.942  1.00  0.00    -0.200 F 
ENDBRANCH  25  39
BRANCH  26  50
ATOM     50  C   UNL A   1      40.601  27.923  28.716  1.00  0.00     0.064 A 
ATOM     51  C   UNL A   1      39.961  26.686  28.582  1.00  0.00     0.173 A 
ATOM     52  C   UNL A   1      41.358  28.393  27.632  1.00  0.00     0.173 A 
ATOM     53  F   UNL A   1      39.240  26.191  29.599  1.00  0.00    -0.203 F 
ATOM     54  C   UNL A   1      40.073  25.945  27.408  1.00  0.00     0.198 A 
ATOM     55  C   UNL A   1      41.448  27.663  26.449  1.00  0.00     0.198 A 
ATOM     56  F   UNL A   1      41.981  29.578  27.711  1.00  0.00    -0.203 F 
ATOM     57  F   UNL A   1      39.468  24.754  27.310  1.00  0.00    -0.200 F 
ATOM     58  C   UNL A   1      40.807  26.439  26.339  1.00  0.00     0.200 A 
ATOM     59  F   UNL A   1      42.144  28.152  25.414  1.00  0.00    -0.200 F 
ATOM     60  F   UNL A   1      40.896  25.735  25.202  1.00  0.00    -0.200 F 
ENDBRANCH  26  50
BRANCH  38  61
ATOM     61  C   UNL A   1      44.072  28.476  34.747  1.00  0.00     0.064 A 
ATOM     62  C   UNL A   1      43.930  27.273  35.451  1.00  0.00     0.173 A 
ATOM     63  C   UNL A   1      45.369  28.964  34.529  1.00  0.00     0.173 A 
ATOM     64  F   UNL A   1      42.708  26.775  35.699  1.00  0.00    -0.203 F 
ATOM     65  C   UNL A   1      45.045  26.590  35.928  1.00  0.00     0.198 A 
ATOM     66  C   UNL A   1      46.482  28.267  34.987  1.00  0.00     0.198 A 
ATOM     67  F   UNL A   1      45.555  30.110  33.857  1.00  0.00    -0.203 F 
ATOM     68  F   UNL A   1      44.887  25.457  36.628  1.00  0.00    -0.200 F 
ATOM     69  C   UNL A   1      46.320  27.081  35.689  1.00  0.00     0.200 A 
ATOM     70  F   UNL A   1      47.713  28.739  34.745  1.00  0.00    -0.200 F 
ATOM     71  F   UNL A   1      47.393  26.416  36.138  1.00  0.00    -0.200 F 
ENDBRANCH  38  61
ENDBRANCH  12  13
ENDBRANCH   5   7
ENDBRANCH   2   3
ENDBRANCH   1   2
BRANCH   1  72
ATOM     72  C   UNL A   1      31.673  30.594  26.891  1.00  0.00     0.117 C 
BRANCH  72  73
ATOM     73  N   UNL A   1      32.819  29.973  26.252  1.00  0.00    -0.356 N 
ATOM     74  C   UNL A   1      32.864  28.955  25.346  1.00  0.00     0.224 C 
ATOM     75  H   UNL A   1      33.695  30.342  26.511  1.00  0.00     0.163 HD
ATOM     76  O   UNL A   1      33.964  28.639  24.891  1.00  0.00    -0.275 OA
BRANCH  74  77
ATOM     77  C   UNL A   1      31.603  28.185  25.049  1.00  0.00     0.098 C 
ATOM     78  C   UNL A   1      30.616  28.576  23.901  1.00  0.00     0.100 C 
ATOM     79  C   UNL A   1      31.920  26.652  25.013  1.00  0.00     0.025 C 
ATOM     80  C   UNL A   1      29.993  27.210  23.385  1.00  0.00     0.025 C 
ATOM     81  C   UNL A   1      32.165  26.207  23.587  1.00  0.00    -0.027 C 
ATOM     82  C   UNL A   1      30.637  25.926  25.478  1.00  0.00     0.009 C 
ATOM     83  C   UNL A   1      31.144  26.450  22.752  1.00  0.00    -0.027 C 
ATOM     84  C   UNL A   1      29.466  26.368  24.575  1.00  0.00     0.009 C 
BRANCH  78  85
ATOM     85  C   UNL A   1      30.859  29.410  22.613  1.00  0.00     0.238 C 
ATOM     86  O   UNL A   1      31.949  29.268  22.026  1.00  0.00    -0.273 OA
ATOM     87  N   UNL A   1      30.017  30.239  21.948  1.00  0.00    -0.288 N 
ATOM     88  H   UNL A   1      30.407  30.709  21.175  1.00  0.00     0.185 HD
BRANCH  87  89
ATOM     89  N   UNL A   1      28.690  30.518  22.203  1.00  0.00    -0.217 NA
ATOM     90  C   UNL A   1      27.956  30.923  20.982  1.00  0.00     0.136 C 
ATOM     91  C   UNL A   1      28.528  31.558  23.247  1.00  0.00     0.136 C 
ATOM     92  C   UNL A   1      28.147  32.387  20.562  1.00  0.00     0.177 C 
ATOM     93  C   UNL A   1      28.729  32.994  22.753  1.00  0.00     0.177 C 
ATOM     94  O   UNL A   1      27.868  33.279  21.643  1.00  0.00    -0.379 OA
ENDBRANCH  87  89
ENDBRANCH  78  85
ENDBRANCH  74  77
ENDBRANCH  72  73
ENDBRANCH   1  72
TORSDOF 12
ENDMDL
MODEL 3
REMARK VINA RESULT:     -13.3      6.652     11.942
REMARK SMILES O=C(NCCCNC(=O)[C@H]1[C@@H](C(=O)NN2CCOCC2)[C@H]2C=C[C@@H]1CC2)c1ccc(-c2c3nc(c(-c4c(F)c(F)c(F)c(F)c4F)c4ccc([nH]4)c(-c4c(F)c(F)c(F)c(F)c4F)c4nc(c(-c5c(F)c(F)c(F)c(F)c5F)c5ccc2[nH]5)C=C4)C=C3)cc1
REMARK SMILES IDX 5 1 4 2 3 3 1 4 2 5 27 7 28 8 89 9 29 10 88 11 30 12 31 13
REMARK SMILES IDX 32 14 82 15 33 16 87 17 81 18 83 19 34 20 86 21 80 22 79 23
REMARK SMILES IDX 35 25 67 26 47 27 66 28 48 29 51 30 65 31 84 32 49 33 50 34
REMARK SMILES IDX 64 36 85 37 52 38 36 39 37 40 45 41 38 42 39 43 43 44 46 45
REMARK SMILES IDX 40 46 41 47 44 48 42 49 68 50 69 51 77 52 70 53 71 54 75 55
REMARK SMILES IDX 78 56 72 57 73 58 76 59 74 60 53 61 54 62 62 63 55 64 56 65
REMARK SMILES IDX 60 66 63 67 57 68 58 69 61 70 59 71 6 72 7 73 8 74 9 76
REMARK SMILES IDX 10 77 11 78 24 79 21 80 23 81 25 82 22 83 26 84 12 85 13 86
REMARK SMILES IDX 14 87 15 89 16 90 20 91 17 92 19 93 18 94
REMARK H PARENT 3 6 83 24 51 35 7 75 14 88
REMARK Flexibility Score: inf
ROOT
ATOM      1  C   UNL A   1      37.944  20.060  25.012  1.00  0.00     0.042 C 
ENDROOT
BRANCH   1   2
ATOM      2  C   UNL A   1      39.225  20.325  25.795  1.00  0.00     0.118 C 
BRANCH   2   3
ATOM      3  N   UNL A   1      40.150  19.203  25.784  1.00  0.00    -0.352 N 
ATOM      4  O   UNL A   1      42.183  18.212  25.882  1.00  0.00    -0.269 OA
ATOM      5  C   UNL A   1      41.508  19.224  26.012  1.00  0.00     0.251 C 
ATOM      6  H   UNL A   1      39.758  18.322  25.591  1.00  0.00     0.163 HD
BRANCH   5   7
ATOM      7  C   UNL A   1      42.148  20.508  26.366  1.00  0.00     0.039 A 
ATOM      8  C   UNL A   1      42.250  20.908  27.703  1.00  0.00     0.014 A 
ATOM      9  C   UNL A   1      42.580  21.347  25.338  1.00  0.00     0.014 A 
ATOM     10  C   UNL A   1      42.664  22.204  28.003  1.00  0.00     0.010 A 
ATOM     11  C   UNL A   1      43.054  22.623  25.646  1.00  0.00     0.010 A 
ATOM     12  C   UNL A   1      43.065  23.074  26.976  1.00  0.00    -0.014 A 
BRANCH  12  13
ATOM     13  C   UNL A   1      43.517  24.451  27.291  1.00  0.00     0.031 A 
ATOM     14  C   UNL A   1      42.559  25.466  27.846  1.00  0.00     0.074 A 
ATOM     15  C   UNL A   1      44.794  24.796  27.039  1.00  0.00     0.049 A 
ATOM     16  N   UNL A   1      42.743  26.742  28.075  1.00  0.00    -0.248 NA
ATOM     17  C   UNL A   1      41.210  24.985  28.181  1.00  0.00     0.031 C 
ATOM     18  C   UNL A   1      45.816  23.896  26.506  1.00  0.00     0.029 A 
ATOM     19  N   UNL A   1      45.441  25.996  27.179  1.00  0.00    -0.354 N 
ATOM     20  C   UNL A   1      41.530  27.223  28.551  1.00  0.00     0.074 A 
ATOM     21  C   UNL A   1      40.611  26.104  28.565  1.00  0.00     0.031 C 
ATOM     22  C   UNL A   1      46.964  24.574  26.364  1.00  0.00     0.029 A 
ATOM     23  C   UNL A   1      46.741  25.967  26.741  1.00  0.00     0.049 A 
ATOM     24  H   UNL A   1      45.016  26.799  27.558  1.00  0.00     0.167 HD
ATOM     25  C   UNL A   1      41.217  28.482  28.941  1.00  0.00     0.037 A 
ATOM     26  C   UNL A   1      47.644  26.957  26.621  1.00  0.00     0.037 A 
ATOM     27  C   UNL A   1      42.144  29.586  28.939  1.00  0.00     0.049 A 
ATOM     28  C   UNL A   1      47.266  28.351  27.031  1.00  0.00     0.074 A 
ATOM     29  C   UNL A   1      41.935  30.889  29.355  1.00  0.00     0.029 A 
ATOM     30  N   UNL A   1      43.456  29.515  28.491  1.00  0.00    -0.354 N 
ATOM     31  N   UNL A   1      46.126  28.790  27.503  1.00  0.00    -0.248 NA
ATOM     32  C   UNL A   1      48.299  29.386  26.892  1.00  0.00     0.031 C 
ATOM     33  C   UNL A   1      43.107  31.618  29.118  1.00  0.00     0.029 A 
ATOM     34  C   UNL A   1      44.061  30.757  28.600  1.00  0.00     0.049 A 
ATOM     35  H   UNL A   1      43.892  28.702  28.147  1.00  0.00     0.167 HD
ATOM     36  C   UNL A   1      46.307  30.146  27.738  1.00  0.00     0.074 A 
ATOM     37  C   UNL A   1      47.671  30.455  27.361  1.00  0.00     0.031 C 
ATOM     38  C   UNL A   1      45.423  31.048  28.228  1.00  0.00     0.037 A 
BRANCH  25  39
ATOM     39  C   UNL A   1      39.805  28.744  29.375  1.00  0.00     0.064 A 
ATOM     40  C   UNL A   1      38.816  29.162  28.471  1.00  0.00     0.173 A 
ATOM     41  C   UNL A   1      39.426  28.544  30.712  1.00  0.00     0.173 A 
ATOM     42  F   UNL A   1      39.128  29.378  27.184  1.00  0.00    -0.203 F 
ATOM     43  C   UNL A   1      37.511  29.401  28.895  1.00  0.00     0.198 A 
ATOM     44  C   UNL A   1      38.114  28.756  31.127  1.00  0.00     0.198 A 
ATOM     45  F   UNL A   1      40.329  28.137  31.616  1.00  0.00    -0.203 F 
ATOM     46  F   UNL A   1      36.596  29.848  28.024  1.00  0.00    -0.200 F 
ATOM     47  C   UNL A   1      37.160  29.193  30.220  1.00  0.00     0.200 A 
ATOM     48  F   UNL A   1      37.773  28.545  32.406  1.00  0.00    -0.200 F 
ATOM     49  F   UNL A   1      35.903  29.423  30.626  1.00  0.00    -0.200 F 
ENDBRANCH  25  39
BRANCH  26  50
ATOM     50  C   UNL A   1      48.988  26.644  26.076  1.00  0.00     0.064 A 
ATOM     51  C   UNL A   1      49.311  26.932  24.745  1.00  0.00     0.173 A 
ATOM     52  C   UNL A   1      49.993  26.109  26.896  1.00  0.00     0.173 A 
ATOM     53  F   UNL A   1      48.375  27.429  23.922  1.00  0.00    -0.203 F 
ATOM     54  C   UNL A   1      50.591  26.697  24.251  1.00  0.00     0.198 A 
ATOM     55  C   UNL A   1      51.281  25.898  26.408  1.00  0.00     0.198 A 
ATOM     56  F   UNL A   1      49.733  25.826  28.180  1.00  0.00    -0.203 F 
ATOM     57  F   UNL A   1      50.871  26.962  22.969  1.00  0.00    -0.200 F 
ATOM     58  C   UNL A   1      51.577  26.190  25.085  1.00  0.00     0.200 A 
ATOM     59  F   UNL A   1      52.234  25.425  27.221  1.00  0.00    -0.200 F 
ATOM     60  F   UNL A   1      52.815  25.984  24.615  1.00  0.00    -0.200 F 
ENDBRANCH  26  50
BRANCH  38  61
ATOM     61  C   UNL A   1      45.909  32.453  28.423  1.00  0.00     0.064 A 
ATOM     62  C   UNL A   1      46.546  32.852  29.606  1.00  0.00     0.173 A 
ATOM     63  C   UNL A   1      45.787  33.393  27.389  1.00  0.00     0.173 A 
ATOM     64  F   UNL A   1      46.672  31.993  30.629  1.00  0.00    -0.203 F 
ATOM     65  C   UNL A   1      47.033  34.149  29.751  1.00  0.00     0.198 A 
ATOM     66  C   UNL A   1      46.295  34.680  27.529  1.00  0.00     0.198 A 
ATOM     67  F   UNL A   1      45.187  33.056  26.237  1.00  0.00    -0.203 F 
ATOM     68  F   UNL A   1      47.611  34.521  30.902  1.00  0.00    -0.200 F 
ATOM     69  C   UNL A   1      46.915  35.059  28.710  1.00  0.00     0.200 A 
ATOM     70  F   UNL A   1      46.189  35.554  26.518  1.00  0.00    -0.200 F 
ATOM     71  F   UNL A   1      47.396  36.302  28.847  1.00  0.00    -0.200 F 
ENDBRANCH  38  61
ENDBRANCH  12  13
ENDBRANCH   5   7
ENDBRANCH   2   3
ENDBRANCH   1   2
BRANCH   1  72
ATOM     72  C   UNL A   1      37.419  21.268  24.249  1.00  0.00     0.117 C 
BRANCH  72  73
ATOM     73  N   UNL A   1      36.977  22.317  25.150  1.00  0.00    -0.356 N 
ATOM     74  C   UNL A   1      35.732  22.845  25.326  1.00  0.00     0.224 C 
ATOM     75  H   UNL A   1      37.681  22.706  25.720  1.00  0.00     0.163 HD
ATOM     76  O   UNL A   1      35.587  23.693  26.207  1.00  0.00    -0.275 OA
BRANCH  74  77
ATOM     77  C   UNL A   1      34.637  22.473  24.359  1.00  0.00     0.098 C 
ATOM     78  C   UNL A   1      33.838  21.132  24.452  1.00  0.00     0.100 C 
ATOM     79  C   UNL A   1      33.667  23.688  24.172  1.00  0.00     0.025 C 
ATOM     80  C   UNL A   1      32.381  21.461  23.916  1.00  0.00     0.025 C 
ATOM     81  C   UNL A   1      32.479  23.549  25.099  1.00  0.00    -0.027 C 
ATOM     82  C   UNL A   1      33.108  23.587  22.735  1.00  0.00     0.009 C 
ATOM     83  C   UNL A   1      31.779  22.417  24.932  1.00  0.00    -0.027 C 
ATOM     84  C   UNL A   1      32.454  22.200  22.556  1.00  0.00     0.009 C 
BRANCH  78  85
ATOM     85  C   UNL A   1      33.610  20.185  25.662  1.00  0.00     0.238 C 
ATOM     86  O   UNL A   1      33.583  20.692  26.800  1.00  0.00    -0.273 OA
ATOM     87  N   UNL A   1      33.340  18.855  25.681  1.00  0.00    -0.288 N 
ATOM     88  H   UNL A   1      33.285  18.448  26.576  1.00  0.00     0.185 HD
BRANCH  87  89
ATOM     89  N   UNL A   1      33.135  17.996  24.623  1.00  0.00    -0.217 NA
ATOM     90  C   UNL A   1      32.153  16.933  24.945  1.00  0.00     0.136 C 
ATOM     91  C   UNL A   1      34.397  17.378  24.149  1.00  0.00     0.136 C 
ATOM     92  C   UNL A   1      32.713  15.752  25.751  1.00  0.00     0.177 C 
ATOM     93  C   UNL A   1      34.890  16.204  25.001  1.00  0.00     0.177 C 
ATOM     94  O   UNL A   1      33.875  15.201  25.128  1.00  0.00    -0.379 OA
ENDBRANCH  87  89
ENDBRANCH  78  85
ENDBRANCH  74  77
ENDBRANCH  72  73
ENDBRANCH   1  72
TORSDOF 12
ENDMDL
