MODEL 1
REMARK VINA RESULT:     -12.0      0.000      0.000
REMARK SMILES C[NH2+]C[C@H](C)C(=O)N1CCc2cc(C(=O)NCCCNC(=O)c3ccc(-c4c5nc(c(-c6c(F)c(F)c(F)c(F)c6F)c6ccc([nH]6)c(-c6c(F)c(F)c(F)c(F)c6F)c6nc(c(-c7c(F)c(F)c(F)c(F)c7F)c7ccc4[nH]7)C=C6)C=C5)cc3)ccc21
REMARK SMILES IDX 17 1 16 2 14 3 15 4 13 6 8 7 9 8 88 9 10 10 11 11 87 12
REMARK SMILES IDX 12 13 86 14 6 15 7 16 4 17 5 18 3 19 2 20 1 21 18 24 19 25
REMARK SMILES IDX 20 26 21 27 22 29 23 30 24 31 85 32 25 33 84 34 26 35 27 36
REMARK SMILES IDX 28 37 78 38 29 39 83 40 77 41 79 42 30 43 82 44 76 45 75 46
REMARK SMILES IDX 31 48 63 49 43 50 62 51 44 52 47 53 61 54 80 55 45 56 46 57
REMARK SMILES IDX 60 59 81 60 48 61 32 62 33 63 41 64 34 65 35 66 39 67 42 68
REMARK SMILES IDX 36 69 37 70 40 71 38 72 64 73 65 74 73 75 66 76 67 77 71 78
REMARK SMILES IDX 74 79 68 80 69 81 72 82 70 83 49 84 50 85 58 86 51 87 52 88
REMARK SMILES IDX 56 89 59 90 53 91 54 92 57 93 55 94
REMARK H PARENT 16 5 2 22 2 23 20 28 79 47 47 58
REMARK Flexibility Score: inf
ROOT
ATOM      1  C   UNL A   1      31.981  27.096  24.223  1.00  0.00     0.118 C 
ENDROOT
BRANCH   1   2
ATOM      2  N   UNL A   1      32.497  26.954  22.870  1.00  0.00    -0.352 N 
ATOM      3  C   UNL A   1      33.053  25.880  22.217  1.00  0.00     0.251 C 
ATOM      4  O   UNL A   1      33.279  25.982  21.012  1.00  0.00    -0.269 OA
ATOM      5  H   UNL A   1      32.437  27.773  22.326  1.00  0.00     0.163 HD
BRANCH   3   6
ATOM      6  C   UNL A   1      33.346  24.595  22.904  1.00  0.00     0.040 A 
ATOM      7  N   UNL A   1      34.589  21.073  24.773  1.00  0.00    -0.311 N 
ATOM      8  C   UNL A   1      35.661  21.573  25.651  1.00  0.00     0.130 C 
ATOM      9  C   UNL A   1      34.015  22.171  24.124  1.00  0.00     0.047 A 
ATOM     10  C   UNL A   1      35.895  23.048  25.303  1.00  0.00     0.059 C 
ATOM     11  C   UNL A   1      34.796  23.309  24.323  1.00  0.00    -0.022 A 
ATOM     12  C   UNL A   1      32.805  22.285  23.479  1.00  0.00     0.027 A 
ATOM     13  C   UNL A   1      34.495  24.517  23.701  1.00  0.00     0.019 A 
ATOM     14  C   UNL A   1      32.473  23.500  22.868  1.00  0.00     0.016 A 
BRANCH   7  15
ATOM     15  C   UNL A   1      34.323  19.723  24.744  1.00  0.00     0.235 C 
ATOM     16  O   UNL A   1      35.264  18.923  24.626  1.00  0.00    -0.274 OA
BRANCH  15  17
ATOM     17  C   UNL A   1      32.900  19.173  24.522  1.00  0.00     0.131 C 
ATOM     18  C   UNL A   1      32.527  18.565  23.183  1.00  0.00     0.024 C 
BRANCH  17  19
ATOM     19  C   UNL A   1      32.529  18.206  25.666  1.00  0.00     0.273 C 
BRANCH  19  20
ATOM     20  N   UNL A   1      33.389  17.018  25.766  1.00  0.00    -0.348 N 
ATOM     21  C   UNL A   1      32.624  15.777  25.747  1.00  0.00     0.330 C 
ATOM     22  H   UNL A   1      34.037  17.017  24.978  1.00  0.00     0.346 HD
ATOM     23  H   UNL A   1      33.885  17.067  26.656  1.00  0.00     0.346 HD
ENDBRANCH  19  20
ENDBRANCH  17  19
ENDBRANCH  15  17
ENDBRANCH   7  15
ENDBRANCH   3   6
ENDBRANCH   1   2
BRANCH   1  24
ATOM     24  C   UNL A   1      33.047  27.603  25.193  1.00  0.00     0.042 C 
BRANCH  24  25
ATOM     25  C   UNL A   1      33.653  28.949  24.809  1.00  0.00     0.118 C 
BRANCH  25  26
ATOM     26  N   UNL A   1      32.937  30.066  25.403  1.00  0.00    -0.352 N 
ATOM     27  C   UNL A   1      33.160  30.739  26.577  1.00  0.00     0.251 C 
ATOM     28  H   UNL A   1      32.169  30.392  24.879  1.00  0.00     0.163 HD
ATOM     29  O   UNL A   1      32.309  31.531  26.983  1.00  0.00    -0.269 OA
BRANCH  27  30
ATOM     30  C   UNL A   1      34.391  30.525  27.375  1.00  0.00     0.039 A 
ATOM     31  C   UNL A   1      34.602  29.266  27.949  1.00  0.00     0.014 A 
ATOM     32  C   UNL A   1      35.301  31.557  27.623  1.00  0.00     0.014 A 
ATOM     33  C   UNL A   1      35.738  29.030  28.728  1.00  0.00     0.010 A 
ATOM     34  C   UNL A   1      36.468  31.303  28.346  1.00  0.00     0.010 A 
ATOM     35  C   UNL A   1      36.694  30.040  28.914  1.00  0.00    -0.014 A 
BRANCH  35  36
ATOM     36  C   UNL A   1      37.924  29.795  29.712  1.00  0.00     0.031 A 
ATOM     37  C   UNL A   1      39.001  28.888  29.185  1.00  0.00     0.074 A 
ATOM     38  C   UNL A   1      38.047  30.346  30.936  1.00  0.00     0.049 A 
ATOM     39  N   UNL A   1      40.115  28.504  29.759  1.00  0.00    -0.248 NA
ATOM     40  C   UNL A   1      38.792  28.319  27.845  1.00  0.00     0.031 C 
ATOM     41  C   UNL A   1      37.056  31.213  31.576  1.00  0.00     0.029 A 
ATOM     42  N   UNL A   1      39.054  30.251  31.864  1.00  0.00    -0.354 N 
ATOM     43  C   UNL A   1      40.722  27.632  28.864  1.00  0.00     0.074 A 
ATOM     44  C   UNL A   1      39.840  27.517  27.723  1.00  0.00     0.031 C 
ATOM     45  C   UNL A   1      37.513  31.587  32.782  1.00  0.00     0.029 A 
ATOM     46  C   UNL A   1      38.811  30.959  33.015  1.00  0.00     0.049 A 
ATOM     47  H   UNL A   1      39.873  29.726  31.717  1.00  0.00     0.167 HD
ATOM     48  C   UNL A   1      41.915  27.000  28.977  1.00  0.00     0.037 A 
ATOM     49  C   UNL A   1      39.548  31.083  34.136  1.00  0.00     0.037 A 
ATOM     50  C   UNL A   1      42.814  27.153  30.091  1.00  0.00     0.049 A 
ATOM     51  C   UNL A   1      40.874  30.377  34.227  1.00  0.00     0.074 A 
ATOM     52  C   UNL A   1      44.081  26.621  30.255  1.00  0.00     0.029 A 
ATOM     53  N   UNL A   1      42.540  27.895  31.229  1.00  0.00    -0.354 N 
ATOM     54  N   UNL A   1      41.470  29.616  33.342  1.00  0.00    -0.248 NA
ATOM     55  C   UNL A   1      41.633  30.552  35.474  1.00  0.00     0.031 C 
ATOM     56  C   UNL A   1      44.559  27.009  31.512  1.00  0.00     0.029 A 
ATOM     57  C   UNL A   1      43.606  27.816  32.111  1.00  0.00     0.049 A 
ATOM     58  H   UNL A   1      41.711  28.402  31.388  1.00  0.00     0.167 HD
ATOM     59  C   UNL A   1      42.683  29.250  33.909  1.00  0.00     0.074 A 
ATOM     60  C   UNL A   1      42.743  29.879  35.212  1.00  0.00     0.031 C 
ATOM     61  C   UNL A   1      43.659  28.464  33.395  1.00  0.00     0.037 A 
BRANCH  48  62
ATOM     62  C   UNL A   1      42.327  26.081  27.866  1.00  0.00     0.064 A 
ATOM     63  C   UNL A   1      41.851  24.764  27.786  1.00  0.00     0.173 A 
ATOM     64  C   UNL A   1      43.158  26.543  26.835  1.00  0.00     0.173 A 
ATOM     65  F   UNL A   1      41.060  24.273  28.752  1.00  0.00    -0.203 F 
ATOM     66  C   UNL A   1      42.210  23.936  26.725  1.00  0.00     0.198 A 
ATOM     67  C   UNL A   1      43.495  25.720  25.762  1.00  0.00     0.198 A 
ATOM     68  F   UNL A   1      43.635  27.796  26.860  1.00  0.00    -0.203 F 
ATOM     69  F   UNL A   1      41.772  22.670  26.688  1.00  0.00    -0.200 F 
ATOM     70  C   UNL A   1      43.024  24.417  25.711  1.00  0.00     0.200 A 
ATOM     71  F   UNL A   1      44.272  26.190  24.777  1.00  0.00    -0.200 F 
ATOM     72  F   UNL A   1      43.359  23.622  24.685  1.00  0.00    -0.200 F 
ENDBRANCH  48  62
BRANCH  49  73
ATOM     73  C   UNL A   1      39.067  31.932  35.255  1.00  0.00     0.064 A 
ATOM     74  C   UNL A   1      39.334  33.308  35.277  1.00  0.00     0.173 A 
ATOM     75  C   UNL A   1      38.353  31.388  36.332  1.00  0.00     0.173 A 
ATOM     76  F   UNL A   1      40.033  33.869  34.280  1.00  0.00    -0.203 F 
ATOM     77  C   UNL A   1      38.923  34.105  36.343  1.00  0.00     0.198 A 
ATOM     78  C   UNL A   1      37.918  32.191  37.385  1.00  0.00     0.198 A 
ATOM     79  F   UNL A   1      38.070  30.077  36.357  1.00  0.00    -0.203 F 
ATOM     80  F   UNL A   1      39.231  35.408  36.361  1.00  0.00    -0.200 F 
ATOM     81  C   UNL A   1      38.212  33.546  37.395  1.00  0.00     0.200 A 
ATOM     82  F   UNL A   1      37.222  31.649  38.394  1.00  0.00    -0.200 F 
ATOM     83  F   UNL A   1      37.817  34.312  38.421  1.00  0.00    -0.200 F 
ENDBRANCH  49  73
BRANCH  61  84
ATOM     84  C   UNL A   1      44.895  28.274  34.223  1.00  0.00     0.064 A 
ATOM     85  C   UNL A   1      45.983  29.155  34.133  1.00  0.00     0.173 A 
ATOM     86  C   UNL A   1      44.977  27.220  35.144  1.00  0.00     0.173 A 
ATOM     87  F   UNL A   1      45.959  30.168  33.253  1.00  0.00    -0.203 F 
ATOM     88  C   UNL A   1      47.116  28.973  34.920  1.00  0.00     0.198 A 
ATOM     89  C   UNL A   1      46.101  27.056  35.949  1.00  0.00     0.198 A 
ATOM     90  F   UNL A   1      43.959  26.353  35.271  1.00  0.00    -0.203 F 
ATOM     91  F   UNL A   1      48.162  29.801  34.787  1.00  0.00    -0.200 F 
ATOM     92  C   UNL A   1      47.171  27.930  35.832  1.00  0.00     0.200 A 
ATOM     93  F   UNL A   1      46.147  26.054  36.836  1.00  0.00    -0.200 F 
ATOM     94  F   UNL A   1      48.261  27.760  36.593  1.00  0.00    -0.200 F 
ENDBRANCH  61  84
ENDBRANCH  35  36
ENDBRANCH  27  30
ENDBRANCH  25  26
ENDBRANCH  24  25
ENDBRANCH   1  24
TORSDOF 14
ENDMDL
MODEL 2
REMARK VINA RESULT:     -12.0      4.411     10.080
REMARK SMILES C[NH2+]C[C@H](C)C(=O)N1CCc2cc(C(=O)NCCCNC(=O)c3ccc(-c4c5nc(c(-c6c(F)c(F)c(F)c(F)c6F)c6ccc([nH]6)c(-c6c(F)c(F)c(F)c(F)c6F)c6nc(c(-c7c(F)c(F)c(F)c(F)c7F)c7ccc4[nH]7)C=C6)C=C5)cc3)ccc21
REMARK SMILES IDX 17 1 16 2 14 3 15 4 13 6 8 7 9 8 88 9 10 10 11 11 87 12
REMARK SMILES IDX 12 13 86 14 6 15 7 16 4 17 5 18 3 19 2 20 1 21 18 24 19 25
REMARK SMILES IDX 20 26 21 27 22 29 23 30 24 31 85 32 25 33 84 34 26 35 27 36
REMARK SMILES IDX 28 37 78 38 29 39 83 40 77 41 79 42 30 43 82 44 76 45 75 46
REMARK SMILES IDX 31 48 63 49 43 50 62 51 44 52 47 53 61 54 80 55 45 56 46 57
REMARK SMILES IDX 60 59 81 60 48 61 32 62 33 63 41 64 34 65 35 66 39 67 42 68
REMARK SMILES IDX 36 69 37 70 40 71 38 72 64 73 65 74 73 75 66 76 67 77 71 78
REMARK SMILES IDX 74 79 68 80 69 81 72 82 70 83 49 84 50 85 58 86 51 87 52 88
REMARK SMILES IDX 56 89 59 90 53 91 54 92 57 93 55 94
REMARK H PARENT 16 5 2 22 2 23 20 28 79 47 47 58
REMARK Flexibility Score: inf
ROOT
ATOM      1  C   UNL A   1      36.752  20.497  24.635  1.00  0.00     0.118 C 
ENDROOT
BRANCH   1   2
ATOM      2  N   UNL A   1      35.454  20.091  25.150  1.00  0.00    -0.352 N 
ATOM      3  C   UNL A   1      34.227  20.710  25.111  1.00  0.00     0.251 C 
ATOM      4  O   UNL A   1      33.243  20.081  25.499  1.00  0.00    -0.269 OA
ATOM      5  H   UNL A   1      35.454  19.220  25.609  1.00  0.00     0.163 HD
BRANCH   3   6
ATOM      6  C   UNL A   1      34.046  22.085  24.577  1.00  0.00     0.040 A 
ATOM      7  N   UNL A   1      33.329  26.041  23.447  1.00  0.00    -0.311 N 
ATOM      8  C   UNL A   1      33.715  26.767  24.669  1.00  0.00     0.130 C 
ATOM      9  C   UNL A   1      33.588  24.682  23.651  1.00  0.00     0.047 A 
ATOM     10  C   UNL A   1      33.992  25.724  25.759  1.00  0.00     0.059 C 
ATOM     11  C   UNL A   1      33.877  24.444  24.994  1.00  0.00    -0.022 A 
ATOM     12  C   UNL A   1      33.717  23.658  22.741  1.00  0.00     0.027 A 
ATOM     13  C   UNL A   1      34.078  23.155  25.479  1.00  0.00     0.019 A 
ATOM     14  C   UNL A   1      33.944  22.358  23.207  1.00  0.00     0.016 A 
BRANCH   7  15
ATOM     15  C   UNL A   1      32.834  26.750  22.376  1.00  0.00     0.235 C 
ATOM     16  O   UNL A   1      33.616  27.142  21.496  1.00  0.00    -0.274 OA
BRANCH  15  17
ATOM     17  C   UNL A   1      31.418  27.360  22.381  1.00  0.00     0.131 C 
ATOM     18  C   UNL A   1      30.314  26.697  23.182  1.00  0.00     0.024 C 
BRANCH  17  19
ATOM     19  C   UNL A   1      31.497  28.862  22.727  1.00  0.00     0.273 C 
BRANCH  19  20
ATOM     20  N   UNL A   1      30.978  29.757  21.683  1.00  0.00    -0.348 N 
ATOM     21  C   UNL A   1      29.576  30.100  21.894  1.00  0.00     0.330 C 
ATOM     22  H   UNL A   1      31.529  30.615  21.684  1.00  0.00     0.346 HD
ATOM     23  H   UNL A   1      31.050  29.270  20.790  1.00  0.00     0.346 HD
ENDBRANCH  19  20
ENDBRANCH  17  19
ENDBRANCH  15  17
ENDBRANCH   7  15
ENDBRANCH   3   6
ENDBRANCH   1   2
BRANCH   1  24
ATOM     24  C   UNL A   1      37.850  19.496  24.994  1.00  0.00     0.042 C 
BRANCH  24  25
ATOM     25  C   UNL A   1      38.985  20.085  25.826  1.00  0.00     0.118 C 
BRANCH  25  26
ATOM     26  N   UNL A   1      40.113  19.175  25.944  1.00  0.00    -0.352 N 
ATOM     27  C   UNL A   1      41.446  19.435  26.133  1.00  0.00     0.251 C 
ATOM     28  H   UNL A   1      39.883  18.220  25.877  1.00  0.00     0.163 HD
ATOM     29  O   UNL A   1      42.257  18.518  26.008  1.00  0.00    -0.269 OA
BRANCH  27  30
ATOM     30  C   UNL A   1      41.934  20.794  26.470  1.00  0.00     0.039 A 
ATOM     31  C   UNL A   1      41.987  21.754  25.452  1.00  0.00     0.014 A 
ATOM     32  C   UNL A   1      42.402  21.117  27.746  1.00  0.00     0.014 A 
ATOM     33  C   UNL A   1      42.463  23.039  25.722  1.00  0.00     0.010 A 
ATOM     34  C   UNL A   1      42.815  22.420  28.032  1.00  0.00     0.010 A 
ATOM     35  C   UNL A   1      42.860  23.392  27.021  1.00  0.00    -0.014 A 
BRANCH  35  36
ATOM     36  C   UNL A   1      43.337  24.765  27.332  1.00  0.00     0.031 A 
ATOM     37  C   UNL A   1      42.405  25.768  27.955  1.00  0.00     0.074 A 
ATOM     38  C   UNL A   1      44.592  25.126  27.004  1.00  0.00     0.049 A 
ATOM     39  N   UNL A   1      42.618  27.029  28.242  1.00  0.00    -0.248 NA
ATOM     40  C   UNL A   1      41.048  25.302  28.278  1.00  0.00     0.031 C 
ATOM     41  C   UNL A   1      45.581  24.258  26.361  1.00  0.00     0.029 A 
ATOM     42  N   UNL A   1      45.250  26.321  27.157  1.00  0.00    -0.354 N 
ATOM     43  C   UNL A   1      41.419  27.509  28.754  1.00  0.00     0.074 A 
ATOM     44  C   UNL A   1      40.472  26.416  28.707  1.00  0.00     0.031 C 
ATOM     45  C   UNL A   1      46.724  24.942  26.194  1.00  0.00     0.029 A 
ATOM     46  C   UNL A   1      46.540  26.305  26.684  1.00  0.00     0.049 A 
ATOM     47  H   UNL A   1      44.837  27.114  27.567  1.00  0.00     0.167 HD
ATOM     48  C   UNL A   1      41.139  28.744  29.235  1.00  0.00     0.037 A 
ATOM     49  C   UNL A   1      47.467  27.281  26.645  1.00  0.00     0.037 A 
ATOM     50  C   UNL A   1      42.094  29.817  29.325  1.00  0.00     0.049 A 
ATOM     51  C   UNL A   1      47.130  28.640  27.196  1.00  0.00     0.074 A 
ATOM     52  C   UNL A   1      41.928  31.076  29.876  1.00  0.00     0.029 A 
ATOM     53  N   UNL A   1      43.397  29.755  28.854  1.00  0.00    -0.354 N 
ATOM     54  N   UNL A   1      46.015  29.058  27.746  1.00  0.00    -0.248 NA
ATOM     55  C   UNL A   1      48.183  29.663  27.126  1.00  0.00     0.031 C 
ATOM     56  C   UNL A   1      43.118  31.791  29.703  1.00  0.00     0.029 A 
ATOM     57  C   UNL A   1      44.038  30.962  29.081  1.00  0.00     0.049 A 
ATOM     58  H   UNL A   1      43.805  28.971  28.422  1.00  0.00     0.167 HD
ATOM     59  C   UNL A   1      46.244  30.376  28.115  1.00  0.00     0.074 A 
ATOM     60  C   UNL A   1      47.606  30.688  27.736  1.00  0.00     0.031 C 
ATOM     61  C   UNL A   1      45.400  31.250  28.716  1.00  0.00     0.037 A 
BRANCH  48  62
ATOM     62  C   UNL A   1      39.740  29.010  29.706  1.00  0.00     0.064 A 
ATOM     63  C   UNL A   1      39.363  28.811  31.042  1.00  0.00     0.173 A 
ATOM     64  C   UNL A   1      38.782  29.531  28.823  1.00  0.00     0.173 A 
ATOM     65  F   UNL A   1      40.241  28.306  31.922  1.00  0.00    -0.203 F 
ATOM     66  C   UNL A   1      38.071  29.101  31.472  1.00  0.00     0.198 A 
ATOM     67  C   UNL A   1      37.498  29.844  29.263  1.00  0.00     0.198 A 
ATOM     68  F   UNL A   1      39.094  29.747  27.537  1.00  0.00    -0.203 F 
ATOM     69  F   UNL A   1      37.722  28.869  32.745  1.00  0.00    -0.200 F 
ATOM     70  C   UNL A   1      37.143  29.625  30.585  1.00  0.00     0.200 A 
ATOM     71  F   UNL A   1      36.606  30.362  28.407  1.00  0.00    -0.200 F 
ATOM     72  F   UNL A   1      35.903  29.916  31.004  1.00  0.00    -0.200 F 
ENDBRANCH  48  62
BRANCH  49  73
ATOM     73  C   UNL A   1      48.816  27.007  26.089  1.00  0.00     0.064 A 
ATOM     74  C   UNL A   1      49.100  27.257  24.740  1.00  0.00     0.173 A 
ATOM     75  C   UNL A   1      49.841  26.473  26.885  1.00  0.00     0.173 A 
ATOM     76  F   UNL A   1      48.145  27.746  23.935  1.00  0.00    -0.203 F 
ATOM     77  C   UNL A   1      50.351  26.964  24.200  1.00  0.00     0.198 A 
ATOM     78  C   UNL A   1      51.099  26.206  26.351  1.00  0.00     0.198 A 
ATOM     79  F   UNL A   1      49.620  26.219  28.183  1.00  0.00    -0.203 F 
ATOM     80  F   UNL A   1      50.581  27.169  22.896  1.00  0.00    -0.200 F 
ATOM     81  C   UNL A   1      51.351  26.442  25.007  1.00  0.00     0.200 A 
ATOM     82  F   UNL A   1      52.066  25.712  27.136  1.00  0.00    -0.200 F 
ATOM     83  F   UNL A   1      52.553  26.159  24.488  1.00  0.00    -0.200 F 
ENDBRANCH  49  73
BRANCH  61  84
ATOM     84  C   UNL A   1      45.938  32.612  29.041  1.00  0.00     0.064 A 
ATOM     85  C   UNL A   1      45.759  33.700  28.174  1.00  0.00     0.173 A 
ATOM     86  C   UNL A   1      46.608  32.838  30.252  1.00  0.00     0.173 A 
ATOM     87  F   UNL A   1      45.140  33.528  26.996  1.00  0.00    -0.203 F 
ATOM     88  C   UNL A   1      46.251  34.960  28.499  1.00  0.00     0.198 A 
ATOM     89  C   UNL A   1      47.075  34.106  30.586  1.00  0.00     0.198 A 
ATOM     90  F   UNL A   1      46.799  31.830  31.117  1.00  0.00    -0.203 F 
ATOM     91  F   UNL A   1      46.107  35.976  27.637  1.00  0.00    -0.200 F 
ATOM     92  C   UNL A   1      46.901  35.164  29.707  1.00  0.00     0.200 A 
ATOM     93  F   UNL A   1      47.694  34.303  31.758  1.00  0.00    -0.200 F 
ATOM     94  F   UNL A   1      47.370  36.380  30.021  1.00  0.00    -0.200 F 
ENDBRANCH  61  84
ENDBRANCH  35  36
ENDBRANCH  27  30
ENDBRANCH  25  26
ENDBRANCH  24  25
ENDBRANCH   1  24
TORSDOF 14
ENDMDL
MODEL 3
REMARK VINA RESULT:     -12.0      2.766      7.693
REMARK SMILES C[NH2+]C[C@H](C)C(=O)N1CCc2cc(C(=O)NCCCNC(=O)c3ccc(-c4c5nc(c(-c6c(F)c(F)c(F)c(F)c6F)c6ccc([nH]6)c(-c6c(F)c(F)c(F)c(F)c6F)c6nc(c(-c7c(F)c(F)c(F)c(F)c7F)c7ccc4[nH]7)C=C6)C=C5)cc3)ccc21
REMARK SMILES IDX 17 1 16 2 14 3 15 4 13 6 8 7 9 8 88 9 10 10 11 11 87 12
REMARK SMILES IDX 12 13 86 14 6 15 7 16 4 17 5 18 3 19 2 20 1 21 18 24 19 25
REMARK SMILES IDX 20 26 21 27 22 29 23 30 24 31 85 32 25 33 84 34 26 35 27 36
REMARK SMILES IDX 28 37 78 38 29 39 83 40 77 41 79 42 30 43 82 44 76 45 75 46
REMARK SMILES IDX 31 48 63 49 43 50 62 51 44 52 47 53 61 54 80 55 45 56 46 57
REMARK SMILES IDX 60 59 81 60 48 61 32 62 33 63 41 64 34 65 35 66 39 67 42 68
REMARK SMILES IDX 36 69 37 70 40 71 38 72 64 73 65 74 73 75 66 76 67 77 71 78
REMARK SMILES IDX 74 79 68 80 69 81 72 82 70 83 49 84 50 85 58 86 51 87 52 88
REMARK SMILES IDX 56 89 59 90 53 91 54 92 57 93 55 94
REMARK H PARENT 16 5 2 22 2 23 20 28 79 47 47 58
REMARK Flexibility Score: inf
ROOT
ATOM      1  C   UNL A   1      32.990  26.858  24.477  1.00  0.00     0.118 C 
ENDROOT
BRANCH   1   2
ATOM      2  N   UNL A   1      33.196  26.650  23.052  1.00  0.00    -0.352 N 
ATOM      3  C   UNL A   1      33.231  25.502  22.297  1.00  0.00     0.251 C 
ATOM      4  O   UNL A   1      33.279  25.610  21.073  1.00  0.00    -0.269 OA
ATOM      5  H   UNL A   1      33.337  27.478  22.539  1.00  0.00     0.163 HD
BRANCH   3   6
ATOM      6  C   UNL A   1      33.168  24.148  22.905  1.00  0.00     0.040 A 
ATOM      7  N   UNL A   1      33.384  20.270  24.441  1.00  0.00    -0.311 N 
ATOM      8  C   UNL A   1      34.745  20.255  25.003  1.00  0.00     0.130 C 
ATOM      9  C   UNL A   1      33.135  21.554  23.946  1.00  0.00     0.047 A 
ATOM     10  C   UNL A   1      35.433  21.560  24.585  1.00  0.00     0.059 C 
ATOM     11  C   UNL A   1      34.315  22.296  23.919  1.00  0.00    -0.022 A 
ATOM     12  C   UNL A   1      31.943  22.167  23.635  1.00  0.00     0.027 A 
ATOM     13  C   UNL A   1      34.357  23.578  23.377  1.00  0.00     0.019 A 
ATOM     14  C   UNL A   1      31.962  23.465  23.112  1.00  0.00     0.016 A 
BRANCH   7  15
ATOM     15  C   UNL A   1      32.623  19.125  24.503  1.00  0.00     0.235 C 
ATOM     16  O   UNL A   1      32.154  18.767  25.595  1.00  0.00    -0.274 OA
BRANCH  15  17
ATOM     17  C   UNL A   1      32.597  18.096  23.355  1.00  0.00     0.131 C 
ATOM     18  C   UNL A   1      32.524  18.571  21.917  1.00  0.00     0.024 C 
BRANCH  17  19
ATOM     19  C   UNL A   1      33.760  17.094  23.525  1.00  0.00     0.273 C 
BRANCH  19  20
ATOM     20  N   UNL A   1      33.627  16.195  24.680  1.00  0.00    -0.348 N 
ATOM     21  C   UNL A   1      34.908  15.932  25.327  1.00  0.00     0.330 C 
ATOM     22  H   UNL A   1      32.999  16.625  25.358  1.00  0.00     0.346 HD
ATOM     23  H   UNL A   1      33.260  15.306  24.342  1.00  0.00     0.346 HD
ENDBRANCH  19  20
ENDBRANCH  17  19
ENDBRANCH  15  17
ENDBRANCH   7  15
ENDBRANCH   3   6
ENDBRANCH   1   2
BRANCH   1  24
ATOM     24  C   UNL A   1      33.913  27.939  25.039  1.00  0.00     0.042 C 
BRANCH  24  25
ATOM     25  C   UNL A   1      33.894  28.048  26.560  1.00  0.00     0.118 C 
BRANCH  25  26
ATOM     26  N   UNL A   1      33.668  29.411  27.014  1.00  0.00    -0.352 N 
ATOM     27  C   UNL A   1      34.453  30.232  27.782  1.00  0.00     0.251 C 
ATOM     28  H   UNL A   1      32.816  29.809  26.721  1.00  0.00     0.163 HD
ATOM     29  O   UNL A   1      33.978  31.284  28.210  1.00  0.00    -0.269 OA
BRANCH  27  30
ATOM     30  C   UNL A   1      35.852  29.877  28.122  1.00  0.00     0.039 A 
ATOM     31  C   UNL A   1      36.121  29.383  29.404  1.00  0.00     0.014 A 
ATOM     32  C   UNL A   1      36.906  30.086  27.229  1.00  0.00     0.014 A 
ATOM     33  C   UNL A   1      37.429  29.059  29.772  1.00  0.00     0.010 A 
ATOM     34  C   UNL A   1      38.203  29.700  27.574  1.00  0.00     0.010 A 
ATOM     35  C   UNL A   1      38.480  29.192  28.852  1.00  0.00    -0.014 A 
BRANCH  35  36
ATOM     36  C   UNL A   1      39.872  28.821  29.217  1.00  0.00     0.031 A 
ATOM     37  C   UNL A   1      40.717  29.758  30.035  1.00  0.00     0.074 A 
ATOM     38  C   UNL A   1      40.394  27.663  28.767  1.00  0.00     0.049 A 
ATOM     39  N   UNL A   1      41.970  29.638  30.401  1.00  0.00    -0.248 NA
ATOM     40  C   UNL A   1      40.080  31.005  30.484  1.00  0.00     0.031 C 
ATOM     41  C   UNL A   1      39.690  26.686  27.934  1.00  0.00     0.029 A 
ATOM     42  N   UNL A   1      41.642  27.116  28.938  1.00  0.00    -0.354 N 
ATOM     43  C   UNL A   1      42.275  30.801  31.097  1.00  0.00     0.074 A 
ATOM     44  C   UNL A   1      41.089  31.629  31.076  1.00  0.00     0.031 C 
ATOM     45  C   UNL A   1      40.508  25.651  27.685  1.00  0.00     0.029 A 
ATOM     46  C   UNL A   1      41.804  25.906  28.309  1.00  0.00     0.049 A 
ATOM     47  H   UNL A   1      42.351  27.550  29.463  1.00  0.00     0.167 HD
ATOM     48  C   UNL A   1      43.433  31.139  31.713  1.00  0.00     0.037 A 
ATOM     49  C   UNL A   1      42.878  25.097  28.238  1.00  0.00     0.037 A 
ATOM     50  C   UNL A   1      44.597  30.294  31.774  1.00  0.00     0.049 A 
ATOM     51  C   UNL A   1      44.148  25.494  28.941  1.00  0.00     0.074 A 
ATOM     52  C   UNL A   1      45.787  30.513  32.447  1.00  0.00     0.029 A 
ATOM     53  N   UNL A   1      44.715  29.067  31.141  1.00  0.00    -0.354 N 
ATOM     54  N   UNL A   1      44.398  26.562  29.659  1.00  0.00    -0.248 NA
ATOM     55  C   UNL A   1      45.285  24.569  28.828  1.00  0.00     0.031 C 
ATOM     56  C   UNL A   1      46.641  29.436  32.189  1.00  0.00     0.029 A 
ATOM     57  C   UNL A   1      45.967  28.527  31.389  1.00  0.00     0.049 A 
ATOM     58  H   UNL A   1      44.015  28.642  30.596  1.00  0.00     0.167 HD
ATOM     59  C   UNL A   1      45.704  26.422  30.108  1.00  0.00     0.074 A 
ATOM     60  C   UNL A   1      46.192  25.162  29.590  1.00  0.00     0.031 C 
ATOM     61  C   UNL A   1      46.432  27.263  30.882  1.00  0.00     0.037 A 
BRANCH  48  62
ATOM     62  C   UNL A   1      43.507  32.482  32.375  1.00  0.00     0.064 A 
ATOM     63  C   UNL A   1      43.921  33.626  31.677  1.00  0.00     0.173 A 
ATOM     64  C   UNL A   1      43.099  32.638  33.709  1.00  0.00     0.173 A 
ATOM     65  F   UNL A   1      44.329  33.527  30.402  1.00  0.00    -0.203 F 
ATOM     66  C   UNL A   1      43.944  34.874  32.295  1.00  0.00     0.198 A 
ATOM     67  C   UNL A   1      43.099  33.892  34.316  1.00  0.00     0.198 A 
ATOM     68  F   UNL A   1      42.687  31.578  34.419  1.00  0.00    -0.203 F 
ATOM     69  F   UNL A   1      44.377  35.946  31.619  1.00  0.00    -0.200 F 
ATOM     70  C   UNL A   1      43.526  35.006  33.611  1.00  0.00     0.200 A 
ATOM     71  F   UNL A   1      42.683  34.021  35.583  1.00  0.00    -0.200 F 
ATOM     72  F   UNL A   1      43.538  36.210  34.200  1.00  0.00    -0.200 F 
ENDBRANCH  48  62
BRANCH  49  73
ATOM     73  C   UNL A   1      42.797  23.813  27.496  1.00  0.00     0.064 A 
ATOM     74  C   UNL A   1      43.192  23.734  26.154  1.00  0.00     0.173 A 
ATOM     75  C   UNL A   1      42.308  22.647  28.104  1.00  0.00     0.173 A 
ATOM     76  F   UNL A   1      43.646  24.828  25.525  1.00  0.00    -0.203 F 
ATOM     77  C   UNL A   1      43.081  22.543  25.439  1.00  0.00     0.198 A 
ATOM     78  C   UNL A   1      42.222  21.450  27.395  1.00  0.00     0.198 A 
ATOM     79  F   UNL A   1      41.920  22.670  29.387  1.00  0.00    -0.203 F 
ATOM     80  F   UNL A   1      43.421  22.507  24.144  1.00  0.00    -0.200 F 
ATOM     81  C   UNL A   1      42.599  21.401  26.062  1.00  0.00     0.200 A 
ATOM     82  F   UNL A   1      41.767  20.346  28.003  1.00  0.00    -0.200 F 
ATOM     83  F   UNL A   1      42.491  20.256  25.374  1.00  0.00    -0.200 F 
ENDBRANCH  49  73
BRANCH  61  84
ATOM     84  C   UNL A   1      47.818  26.828  31.252  1.00  0.00     0.064 A 
ATOM     85  C   UNL A   1      48.937  27.218  30.502  1.00  0.00     0.173 A 
ATOM     86  C   UNL A   1      48.033  26.042  32.395  1.00  0.00     0.173 A 
ATOM     87  F   UNL A   1      48.780  27.955  29.392  1.00  0.00    -0.203 F 
ATOM     88  C   UNL A   1      50.219  26.819  30.870  1.00  0.00     0.198 A 
ATOM     89  C   UNL A   1      49.318  25.666  32.774  1.00  0.00     0.198 A 
ATOM     90  F   UNL A   1      46.995  25.647  33.148  1.00  0.00    -0.203 F 
ATOM     91  F   UNL A   1      51.269  27.166  30.115  1.00  0.00    -0.200 F 
ATOM     92  C   UNL A   1      50.409  26.050  32.009  1.00  0.00     0.200 A 
ATOM     93  F   UNL A   1      49.501  24.932  33.880  1.00  0.00    -0.200 F 
ATOM     94  F   UNL A   1      51.644  25.671  32.364  1.00  0.00    -0.200 F 
ENDBRANCH  61  84
ENDBRANCH  35  36
ENDBRANCH  27  30
ENDBRANCH  25  26
ENDBRANCH  24  25
ENDBRANCH   1  24
TORSDOF 14
ENDMDL
