MODEL 1
REMARK VINA RESULT:     -12.8      0.000      0.000
REMARK SMILES CC1(C)CN(C(=O)NC[C@H]2CC[C@@H](C(=O)NCCCNC(=O)c3ccc(-c4c5nc(c(-c6c(F)c(F)c(F)c(F)c6F)c6ccc([nH]6)c(-c6c(F)c(F)c(F)c(F)c6F)c6nc(c(-c7c(F)c(F)c(F)c(F)c7F)c7ccc4[nH]7)C=C6)C=C5)cc3)CC2)CCO1
REMARK SMILES IDX 17 1 16 2 14 3 15 4 13 6 10 7 11 8 87 9 12 10 86 11 9 12
REMARK SMILES IDX 8 13 6 14 7 15 5 17 1 18 2 19 3 20 4 21 90 22 89 23 88 24
REMARK SMILES IDX 18 25 19 26 20 27 21 28 22 30 23 31 24 32 85 33 25 34 84 35
REMARK SMILES IDX 26 36 27 37 28 38 78 39 29 40 83 41 77 42 79 43 30 44 82 45
REMARK SMILES IDX 76 46 75 47 31 49 63 50 43 51 62 52 44 53 47 54 61 55 80 56
REMARK SMILES IDX 45 57 46 58 60 60 81 61 48 62 32 63 33 64 41 65 34 66 35 67
REMARK SMILES IDX 39 68 42 69 36 70 37 71 40 72 38 73 64 74 65 75 73 76 66 77
REMARK SMILES IDX 67 78 71 79 74 80 68 81 69 82 72 83 70 84 49 85 50 86 58 87
REMARK SMILES IDX 51 88 52 89 56 90 59 91 53 92 54 93 57 94 55 95
REMARK H PARENT 16 5 8 16 20 29 79 48 47 59
REMARK Flexibility Score: inf
ROOT
ATOM      1  C   UNL A   1      31.407  30.872  26.529  1.00  0.00     0.117 C 
ENDROOT
BRANCH   1   2
ATOM      2  N   UNL A   1      32.216  30.345  25.448  1.00  0.00    -0.356 N 
ATOM      3  C   UNL A   1      32.125  29.201  24.721  1.00  0.00     0.223 C 
ATOM      4  O   UNL A   1      33.022  28.985  23.901  1.00  0.00    -0.275 OA
ATOM      5  H   UNL A   1      32.973  30.923  25.194  1.00  0.00     0.163 HD
BRANCH   3   6
ATOM      6  C   UNL A   1      30.957  28.229  24.858  1.00  0.00     0.078 C 
ATOM      7  C   UNL A   1      29.615  25.587  24.477  1.00  0.00     0.008 C 
ATOM      8  C   UNL A   1      30.197  26.009  25.837  1.00  0.00     0.006 C 
ATOM      9  C   UNL A   1      29.181  26.834  23.691  1.00  0.00     0.006 C 
ATOM     10  C   UNL A   1      31.337  27.022  25.722  1.00  0.00     0.014 C 
ATOM     11  C   UNL A   1      30.294  27.866  23.525  1.00  0.00     0.014 C 
BRANCH   7  12
ATOM     12  C   UNL A   1      30.590  24.705  23.667  1.00  0.00     0.121 C 
BRANCH  12  13
ATOM     13  N   UNL A   1      30.799  23.410  24.289  1.00  0.00    -0.338 N 
ATOM     14  C   UNL A   1      31.878  22.758  24.761  1.00  0.00     0.317 C 
ATOM     15  O   UNL A   1      31.704  21.559  25.002  1.00  0.00    -0.249 OA
ATOM     16  H   UNL A   1      29.967  22.895  24.389  1.00  0.00     0.165 HD
BRANCH  14  17
ATOM     17  N   UNL A   1      33.085  23.362  24.956  1.00  0.00    -0.320 N 
ATOM     18  C   UNL A   1      35.229  21.065  24.705  1.00  0.00     0.044 C 
ATOM     19  C   UNL A   1      35.410  22.567  24.436  1.00  0.00     0.080 C 
ATOM     20  C   UNL A   1      36.536  22.756  23.412  1.00  0.00     0.044 C 
ATOM     21  C   UNL A   1      34.110  23.226  23.904  1.00  0.00     0.156 C 
ATOM     22  O   UNL A   1      35.865  23.240  25.633  1.00  0.00    -0.372 OA
ATOM     23  C   UNL A   1      34.862  23.313  26.651  1.00  0.00     0.182 C 
ATOM     24  C   UNL A   1      33.606  24.031  26.146  1.00  0.00     0.150 C 
ENDBRANCH  14  17
ENDBRANCH  12  13
ENDBRANCH   7  12
ENDBRANCH   3   6
ENDBRANCH   1   2
BRANCH   1  25
ATOM     25  C   UNL A   1      31.414  32.397  26.551  1.00  0.00     0.042 C 
BRANCH  25  26
ATOM     26  C   UNL A   1      32.654  32.995  27.206  1.00  0.00     0.118 C 
BRANCH  26  27
ATOM     27  N   UNL A   1      32.438  34.358  27.668  1.00  0.00    -0.352 N 
ATOM     28  C   UNL A   1      33.024  35.048  28.700  1.00  0.00     0.251 C 
ATOM     29  H   UNL A   1      31.764  34.866  27.160  1.00  0.00     0.163 HD
ATOM     30  O   UNL A   1      32.560  36.130  29.045  1.00  0.00    -0.269 OA
BRANCH  28  31
ATOM     31  C   UNL A   1      34.194  34.489  29.410  1.00  0.00     0.039 A 
ATOM     32  C   UNL A   1      33.992  33.836  30.629  1.00  0.00     0.014 A 
ATOM     33  C   UNL A   1      35.488  34.632  28.902  1.00  0.00     0.014 A 
ATOM     34  C   UNL A   1      35.077  33.274  31.306  1.00  0.00     0.010 A 
ATOM     35  C   UNL A   1      36.557  34.004  29.535  1.00  0.00     0.010 A 
ATOM     36  C   UNL A   1      36.364  33.323  30.746  1.00  0.00    -0.014 A 
BRANCH  36  37
ATOM     37  C   UNL A   1      37.520  32.672  31.413  1.00  0.00     0.031 A 
ATOM     38  C   UNL A   1      38.224  31.521  30.752  1.00  0.00     0.074 A 
ATOM     39  C   UNL A   1      37.891  33.074  32.644  1.00  0.00     0.049 A 
ATOM     40  N   UNL A   1      39.198  30.772  31.208  1.00  0.00    -0.248 NA
ATOM     41  C   UNL A   1      37.754  31.140  29.411  1.00  0.00     0.031 C 
ATOM     42  C   UNL A   1      37.259  34.149  33.409  1.00  0.00     0.029 A 
ATOM     43  N   UNL A   1      38.883  32.616  33.474  1.00  0.00    -0.354 N 
ATOM     44  C   UNL A   1      39.442  29.827  30.221  1.00  0.00     0.074 A 
ATOM     45  C   UNL A   1      38.480  30.060  29.165  1.00  0.00     0.031 C 
ATOM     46  C   UNL A   1      37.890  34.282  34.586  1.00  0.00     0.029 A 
ATOM     47  C   UNL A   1      38.944  33.277  34.676  1.00  0.00     0.049 A 
ATOM     48  H   UNL A   1      39.494  31.883  33.231  1.00  0.00     0.167 HD
ATOM     49  C   UNL A   1      40.395  28.866  30.187  1.00  0.00     0.037 A 
ATOM     50  C   UNL A   1      39.753  33.087  35.736  1.00  0.00     0.037 A 
ATOM     51  C   UNL A   1      41.367  28.653  31.228  1.00  0.00     0.049 A 
ATOM     52  C   UNL A   1      40.801  32.009  35.677  1.00  0.00     0.074 A 
ATOM     53  C   UNL A   1      42.413  27.748  31.261  1.00  0.00     0.029 A 
ATOM     54  N   UNL A   1      41.408  29.355  32.424  1.00  0.00    -0.354 N 
ATOM     55  N   UNL A   1      41.065  31.165  34.710  1.00  0.00    -0.248 NA
ATOM     56  C   UNL A   1      41.667  31.863  36.855  1.00  0.00     0.031 C 
ATOM     57  C   UNL A   1      43.057  27.868  32.497  1.00  0.00     0.029 A 
ATOM     58  C   UNL A   1      42.447  28.887  33.212  1.00  0.00     0.049 A 
ATOM     59  H   UNL A   1      40.791  30.080  32.676  1.00  0.00     0.167 HD
ATOM     60  C   UNL A   1      42.144  30.408  35.148  1.00  0.00     0.074 A 
ATOM     61  C   UNL A   1      42.492  30.903  36.464  1.00  0.00     0.031 C 
ATOM     62  C   UNL A   1      42.787  29.394  34.518  1.00  0.00     0.037 A 
BRANCH  49  63
ATOM     63  C   UNL A   1      40.436  27.970  28.982  1.00  0.00     0.064 A 
ATOM     64  C   UNL A   1      41.212  28.284  27.856  1.00  0.00     0.173 A 
ATOM     65  C   UNL A   1      39.714  26.767  28.965  1.00  0.00     0.173 A 
ATOM     66  F   UNL A   1      41.912  29.428  27.816  1.00  0.00    -0.203 F 
ATOM     67  C   UNL A   1      41.237  27.445  26.744  1.00  0.00     0.198 A 
ATOM     68  C   UNL A   1      39.767  25.913  27.865  1.00  0.00     0.198 A 
ATOM     69  F   UNL A   1      38.961  26.413  30.017  1.00  0.00    -0.203 F 
ATOM     70  F   UNL A   1      41.942  27.793  25.659  1.00  0.00    -0.200 F 
ATOM     71  C   UNL A   1      40.520  26.257  26.752  1.00  0.00     0.200 A 
ATOM     72  F   UNL A   1      39.085  24.760  27.880  1.00  0.00    -0.200 F 
ATOM     73  F   UNL A   1      40.550  25.448  25.685  1.00  0.00    -0.200 F 
ENDBRANCH  49  63
BRANCH  50  74
ATOM     74  C   UNL A   1      39.617  33.954  36.935  1.00  0.00     0.064 A 
ATOM     75  C   UNL A   1      38.847  33.547  38.033  1.00  0.00     0.173 A 
ATOM     76  C   UNL A   1      40.253  35.202  37.011  1.00  0.00     0.173 A 
ATOM     77  F   UNL A   1      38.204  32.371  38.000  1.00  0.00    -0.203 F 
ATOM     78  C   UNL A   1      38.702  34.362  39.153  1.00  0.00     0.198 A 
ATOM     79  C   UNL A   1      40.131  36.005  38.144  1.00  0.00     0.198 A 
ATOM     80  F   UNL A   1      41.006  35.636  35.990  1.00  0.00    -0.203 F 
ATOM     81  F   UNL A   1      37.926  33.967  40.171  1.00  0.00    -0.200 F 
ATOM     82  C   UNL A   1      39.349  35.587  39.210  1.00  0.00     0.200 A 
ATOM     83  F   UNL A   1      40.770  37.180  38.202  1.00  0.00    -0.200 F 
ATOM     84  F   UNL A   1      39.215  36.369  40.291  1.00  0.00    -0.200 F 
ENDBRANCH  50  74
BRANCH  62  85
ATOM     85  C   UNL A   1      43.956  28.775  35.226  1.00  0.00     0.064 A 
ATOM     86  C   UNL A   1      43.803  27.666  36.072  1.00  0.00     0.173 A 
ATOM     87  C   UNL A   1      45.253  29.273  35.024  1.00  0.00     0.173 A 
ATOM     88  F   UNL A   1      42.583  27.163  36.311  1.00  0.00    -0.203 F 
ATOM     89  C   UNL A   1      44.902  27.095  36.709  1.00  0.00     0.198 A 
ATOM     90  C   UNL A   1      46.352  28.681  35.637  1.00  0.00     0.198 A 
ATOM     91  F   UNL A   1      45.453  30.327  34.218  1.00  0.00    -0.203 F 
ATOM     92  F   UNL A   1      44.727  26.068  37.551  1.00  0.00    -0.200 F 
ATOM     93  C   UNL A   1      46.176  27.597  36.485  1.00  0.00     0.200 A 
ATOM     94  F   UNL A   1      47.584  29.158  35.407  1.00  0.00    -0.200 F 
ATOM     95  F   UNL A   1      47.233  27.041  37.092  1.00  0.00    -0.200 F 
ENDBRANCH  62  85
ENDBRANCH  36  37
ENDBRANCH  28  31
ENDBRANCH  26  27
ENDBRANCH  25  26
ENDBRANCH   1  25
TORSDOF 13
ENDMDL
MODEL 2
REMARK VINA RESULT:     -12.8      0.068      1.585
REMARK SMILES CC1(C)CN(C(=O)NC[C@H]2CC[C@@H](C(=O)NCCCNC(=O)c3ccc(-c4c5nc(c(-c6c(F)c(F)c(F)c(F)c6F)c6ccc([nH]6)c(-c6c(F)c(F)c(F)c(F)c6F)c6nc(c(-c7c(F)c(F)c(F)c(F)c7F)c7ccc4[nH]7)C=C6)C=C5)cc3)CC2)CCO1
REMARK SMILES IDX 17 1 16 2 14 3 15 4 13 6 10 7 11 8 87 9 12 10 86 11 9 12
REMARK SMILES IDX 8 13 6 14 7 15 5 17 1 18 2 19 3 20 4 21 90 22 89 23 88 24
REMARK SMILES IDX 18 25 19 26 20 27 21 28 22 30 23 31 24 32 85 33 25 34 84 35
REMARK SMILES IDX 26 36 27 37 28 38 78 39 29 40 83 41 77 42 79 43 30 44 82 45
REMARK SMILES IDX 76 46 75 47 31 49 63 50 43 51 62 52 44 53 47 54 61 55 80 56
REMARK SMILES IDX 45 57 46 58 60 60 81 61 48 62 32 63 33 64 41 65 34 66 35 67
REMARK SMILES IDX 39 68 42 69 36 70 37 71 40 72 38 73 64 74 65 75 73 76 66 77
REMARK SMILES IDX 67 78 71 79 74 80 68 81 69 82 72 83 70 84 49 85 50 86 58 87
REMARK SMILES IDX 51 88 52 89 56 90 59 91 53 92 54 93 57 94 55 95
REMARK H PARENT 16 5 8 16 20 29 79 48 47 59
REMARK Flexibility Score: inf
ROOT
ATOM      1  C   UNL A   1      31.422  30.862  26.586  1.00  0.00     0.117 C 
ENDROOT
BRANCH   1   2
ATOM      2  N   UNL A   1      32.256  30.337  25.522  1.00  0.00    -0.356 N 
ATOM      3  C   UNL A   1      32.171  29.204  24.778  1.00  0.00     0.223 C 
ATOM      4  O   UNL A   1      33.089  28.985  23.983  1.00  0.00    -0.275 OA
ATOM      5  H   UNL A   1      33.029  30.907  25.300  1.00  0.00     0.163 HD
BRANCH   3   6
ATOM      6  C   UNL A   1      30.985  28.248  24.866  1.00  0.00     0.078 C 
ATOM      7  C   UNL A   1      29.614  25.634  24.400  1.00  0.00     0.008 C 
ATOM      8  C   UNL A   1      30.168  26.021  25.782  1.00  0.00     0.006 C 
ATOM      9  C   UNL A   1      29.219  26.903  23.629  1.00  0.00     0.006 C 
ATOM     10  C   UNL A   1      31.326  27.018  25.715  1.00  0.00     0.014 C 
ATOM     11  C   UNL A   1      30.351  27.921  23.511  1.00  0.00     0.014 C 
BRANCH   7  12
ATOM     12  C   UNL A   1      30.596  24.754  23.597  1.00  0.00     0.121 C 
BRANCH  12  13
ATOM     13  N   UNL A   1      30.799  23.458  24.218  1.00  0.00    -0.338 N 
ATOM     14  C   UNL A   1      31.875  22.804  24.696  1.00  0.00     0.317 C 
ATOM     15  O   UNL A   1      31.698  21.605  24.934  1.00  0.00    -0.249 OA
ATOM     16  H   UNL A   1      29.966  22.944  24.312  1.00  0.00     0.165 HD
BRANCH  14  17
ATOM     17  N   UNL A   1      33.081  23.406  24.899  1.00  0.00    -0.320 N 
ATOM     18  C   UNL A   1      35.222  21.102  24.683  1.00  0.00     0.044 C 
ATOM     19  C   UNL A   1      35.409  22.602  24.407  1.00  0.00     0.080 C 
ATOM     20  C   UNL A   1      36.546  22.783  23.393  1.00  0.00     0.044 C 
ATOM     21  C   UNL A   1      34.116  23.261  23.858  1.00  0.00     0.156 C 
ATOM     22  O   UNL A   1      35.853  23.281  25.605  1.00  0.00    -0.372 OA
ATOM     23  C   UNL A   1      34.841  23.362  26.612  1.00  0.00     0.182 C 
ATOM     24  C   UNL A   1      33.592  24.080  26.091  1.00  0.00     0.150 C 
ENDBRANCH  14  17
ENDBRANCH  12  13
ENDBRANCH   7  12
ENDBRANCH   3   6
ENDBRANCH   1   2
BRANCH   1  25
ATOM     25  C   UNL A   1      31.417  32.388  26.602  1.00  0.00     0.042 C 
BRANCH  25  26
ATOM     26  C   UNL A   1      32.668  32.998  27.222  1.00  0.00     0.118 C 
BRANCH  26  27
ATOM     27  N   UNL A   1      32.452  34.361  27.686  1.00  0.00    -0.352 N 
ATOM     28  C   UNL A   1      33.039  35.049  28.719  1.00  0.00     0.251 C 
ATOM     29  H   UNL A   1      31.777  34.868  27.180  1.00  0.00     0.163 HD
ATOM     30  O   UNL A   1      32.575  36.130  29.066  1.00  0.00    -0.269 OA
BRANCH  28  31
ATOM     31  C   UNL A   1      34.210  34.490  29.427  1.00  0.00     0.039 A 
ATOM     32  C   UNL A   1      34.010  33.835  30.646  1.00  0.00     0.014 A 
ATOM     33  C   UNL A   1      35.503  34.633  28.917  1.00  0.00     0.014 A 
ATOM     34  C   UNL A   1      35.095  33.273  31.320  1.00  0.00     0.010 A 
ATOM     35  C   UNL A   1      36.573  34.005  29.548  1.00  0.00     0.010 A 
ATOM     36  C   UNL A   1      36.381  33.323  30.759  1.00  0.00    -0.014 A 
BRANCH  36  37
ATOM     37  C   UNL A   1      37.539  32.672  31.424  1.00  0.00     0.031 A 
ATOM     38  C   UNL A   1      38.246  31.524  30.758  1.00  0.00     0.074 A 
ATOM     39  C   UNL A   1      37.908  33.069  32.657  1.00  0.00     0.049 A 
ATOM     40  N   UNL A   1      39.221  30.776  31.211  1.00  0.00    -0.248 NA
ATOM     41  C   UNL A   1      37.777  31.149  29.415  1.00  0.00     0.031 C 
ATOM     42  C   UNL A   1      37.273  34.139  33.426  1.00  0.00     0.029 A 
ATOM     43  N   UNL A   1      38.901  32.609  33.486  1.00  0.00    -0.354 N 
ATOM     44  C   UNL A   1      39.468  29.836  30.220  1.00  0.00     0.074 A 
ATOM     45  C   UNL A   1      38.506  30.072  29.165  1.00  0.00     0.031 C 
ATOM     46  C   UNL A   1      37.903  34.268  34.605  1.00  0.00     0.029 A 
ATOM     47  C   UNL A   1      38.960  33.265  34.691  1.00  0.00     0.049 A 
ATOM     48  H   UNL A   1      39.513  31.878  33.239  1.00  0.00     0.167 HD
ATOM     49  C   UNL A   1      40.423  28.877  30.183  1.00  0.00     0.037 A 
ATOM     50  C   UNL A   1      39.768  33.072  35.751  1.00  0.00     0.037 A 
ATOM     51  C   UNL A   1      41.395  28.662  31.224  1.00  0.00     0.049 A 
ATOM     52  C   UNL A   1      40.818  31.997  35.687  1.00  0.00     0.074 A 
ATOM     53  C   UNL A   1      42.442  27.759  31.254  1.00  0.00     0.029 A 
ATOM     54  N   UNL A   1      41.433  29.359  32.423  1.00  0.00    -0.354 N 
ATOM     55  N   UNL A   1      41.085  31.158  34.716  1.00  0.00    -0.248 NA
ATOM     56  C   UNL A   1      41.684  31.847  36.865  1.00  0.00     0.031 C 
ATOM     57  C   UNL A   1      43.086  27.875  32.490  1.00  0.00     0.029 A 
ATOM     58  C   UNL A   1      42.473  28.889  33.210  1.00  0.00     0.049 A 
ATOM     59  H   UNL A   1      40.814  30.081  32.678  1.00  0.00     0.167 HD
ATOM     60  C   UNL A   1      42.165  30.401  35.152  1.00  0.00     0.074 A 
ATOM     61  C   UNL A   1      42.512  30.891  36.470  1.00  0.00     0.031 C 
ATOM     62  C   UNL A   1      42.811  29.392  34.518  1.00  0.00     0.037 A 
BRANCH  49  63
ATOM     63  C   UNL A   1      40.467  27.987  28.974  1.00  0.00     0.064 A 
ATOM     64  C   UNL A   1      39.741  26.787  28.915  1.00  0.00     0.173 A 
ATOM     65  C   UNL A   1      41.220  28.352  27.848  1.00  0.00     0.173 A 
ATOM     66  F   UNL A   1      39.015  26.385  29.969  1.00  0.00    -0.203 F 
ATOM     67  C   UNL A   1      39.795  25.969  27.789  1.00  0.00     0.198 A 
ATOM     68  C   UNL A   1      41.245  27.549  26.710  1.00  0.00     0.198 A 
ATOM     69  F   UNL A   1      41.928  29.492  27.847  1.00  0.00    -0.203 F 
ATOM     70  F   UNL A   1      39.138  24.802  27.778  1.00  0.00    -0.200 F 
ATOM     71  C   UNL A   1      40.541  26.354  26.684  1.00  0.00     0.200 A 
ATOM     72  F   UNL A   1      41.956  27.929  25.639  1.00  0.00    -0.200 F 
ATOM     73  F   UNL A   1      40.587  25.571  25.599  1.00  0.00    -0.200 F 
ENDBRANCH  49  63
BRANCH  50  74
ATOM     74  C   UNL A   1      39.630  33.934  36.953  1.00  0.00     0.064 A 
ATOM     75  C   UNL A   1      38.855  33.522  38.047  1.00  0.00     0.173 A 
ATOM     76  C   UNL A   1      40.267  35.180  37.037  1.00  0.00     0.173 A 
ATOM     77  F   UNL A   1      38.211  32.347  38.006  1.00  0.00    -0.203 F 
ATOM     78  C   UNL A   1      38.708  34.333  39.170  1.00  0.00     0.198 A 
ATOM     79  C   UNL A   1      40.142  35.978  38.173  1.00  0.00     0.198 A 
ATOM     80  F   UNL A   1      41.024  35.618  36.020  1.00  0.00    -0.203 F 
ATOM     81  F   UNL A   1      37.928  33.934  40.184  1.00  0.00    -0.200 F 
ATOM     82  C   UNL A   1      39.357  35.556  39.235  1.00  0.00     0.200 A 
ATOM     83  F   UNL A   1      40.783  37.152  38.239  1.00  0.00    -0.200 F 
ATOM     84  F   UNL A   1      39.220  36.333  40.319  1.00  0.00    -0.200 F 
ENDBRANCH  50  74
BRANCH  62  85
ATOM     85  C   UNL A   1      43.981  28.771  35.224  1.00  0.00     0.064 A 
ATOM     86  C   UNL A   1      45.288  29.250  35.047  1.00  0.00     0.173 A 
ATOM     87  C   UNL A   1      43.786  27.709  36.121  1.00  0.00     0.173 A 
ATOM     88  F   UNL A   1      45.528  30.253  34.189  1.00  0.00    -0.203 F 
ATOM     89  C   UNL A   1      46.359  28.671  35.723  1.00  0.00     0.198 A 
ATOM     90  C   UNL A   1      44.855  27.154  36.818  1.00  0.00     0.198 A 
ATOM     91  F   UNL A   1      42.555  27.219  36.331  1.00  0.00    -0.203 F 
ATOM     92  F   UNL A   1      47.605  29.112  35.502  1.00  0.00    -0.200 F 
ATOM     93  C   UNL A   1      46.141  27.630  36.613  1.00  0.00     0.200 A 
ATOM     94  F   UNL A   1      44.640  26.158  37.689  1.00  0.00    -0.200 F 
ATOM     95  F   UNL A   1      47.173  27.081  37.268  1.00  0.00    -0.200 F 
ENDBRANCH  62  85
ENDBRANCH  36  37
ENDBRANCH  28  31
ENDBRANCH  26  27
ENDBRANCH  25  26
ENDBRANCH   1  25
TORSDOF 13
ENDMDL
MODEL 3
REMARK VINA RESULT:     -12.7      5.490     11.196
REMARK SMILES CC1(C)CN(C(=O)NC[C@H]2CC[C@@H](C(=O)NCCCNC(=O)c3ccc(-c4c5nc(c(-c6c(F)c(F)c(F)c(F)c6F)c6ccc([nH]6)c(-c6c(F)c(F)c(F)c(F)c6F)c6nc(c(-c7c(F)c(F)c(F)c(F)c7F)c7ccc4[nH]7)C=C6)C=C5)cc3)CC2)CCO1
REMARK SMILES IDX 17 1 16 2 14 3 15 4 13 6 10 7 11 8 87 9 12 10 86 11 9 12
REMARK SMILES IDX 8 13 6 14 7 15 5 17 1 18 2 19 3 20 4 21 90 22 89 23 88 24
REMARK SMILES IDX 18 25 19 26 20 27 21 28 22 30 23 31 24 32 85 33 25 34 84 35
REMARK SMILES IDX 26 36 27 37 28 38 78 39 29 40 83 41 77 42 79 43 30 44 82 45
REMARK SMILES IDX 76 46 75 47 31 49 63 50 43 51 62 52 44 53 47 54 61 55 80 56
REMARK SMILES IDX 45 57 46 58 60 60 81 61 48 62 32 63 33 64 41 65 34 66 35 67
REMARK SMILES IDX 39 68 42 69 36 70 37 71 40 72 38 73 64 74 65 75 73 76 66 77
REMARK SMILES IDX 67 78 71 79 74 80 68 81 69 82 72 83 70 84 49 85 50 86 58 87
REMARK SMILES IDX 51 88 52 89 56 90 59 91 53 92 54 93 57 94 55 95
REMARK H PARENT 16 5 8 16 20 29 79 48 47 59
REMARK Flexibility Score: inf
ROOT
ATOM      1  C   UNL A   1      37.318  20.742  24.659  1.00  0.00     0.117 C 
ENDROOT
BRANCH   1   2
ATOM      2  N   UNL A   1      36.290  20.924  25.664  1.00  0.00    -0.356 N 
ATOM      3  C   UNL A   1      34.987  21.298  25.573  1.00  0.00     0.223 C 
ATOM      4  O   UNL A   1      34.369  21.442  26.631  1.00  0.00    -0.275 OA
ATOM      5  H   UNL A   1      36.592  20.744  26.585  1.00  0.00     0.163 HD
BRANCH   3   6
ATOM      6  C   UNL A   1      34.280  21.497  24.235  1.00  0.00     0.078 C 
ATOM      7  C   UNL A   1      32.196  22.699  22.463  1.00  0.00     0.008 C 
ATOM      8  C   UNL A   1      33.656  23.185  22.439  1.00  0.00     0.006 C 
ATOM      9  C   UNL A   1      32.152  21.219  22.874  1.00  0.00     0.006 C 
ATOM     10  C   UNL A   1      34.396  22.948  23.757  1.00  0.00     0.014 C 
ATOM     11  C   UNL A   1      32.855  20.934  24.199  1.00  0.00     0.014 C 
BRANCH   7  12
ATOM     12  C   UNL A   1      31.298  23.575  23.362  1.00  0.00     0.121 C 
BRANCH  12  13
ATOM     13  N   UNL A   1      31.009  24.862  22.757  1.00  0.00    -0.338 N 
ATOM     14  C   UNL A   1      31.277  26.139  23.091  1.00  0.00     0.317 C 
ATOM     15  O   UNL A   1      30.655  26.992  22.449  1.00  0.00    -0.249 OA
ATOM     16  H   UNL A   1      30.508  24.785  21.914  1.00  0.00     0.165 HD
BRANCH  14  17
ATOM     17  N   UNL A   1      32.161  26.481  24.071  1.00  0.00    -0.320 N 
ATOM     18  C   UNL A   1      31.375  29.408  24.934  1.00  0.00     0.044 C 
ATOM     19  C   UNL A   1      32.079  28.329  25.769  1.00  0.00     0.080 C 
ATOM     20  C   UNL A   1      31.780  28.575  27.253  1.00  0.00     0.044 C 
ATOM     21  C   UNL A   1      31.623  26.898  25.379  1.00  0.00     0.156 C 
ATOM     22  O   UNL A   1      33.516  28.454  25.643  1.00  0.00    -0.372 OA
ATOM     23  C   UNL A   1      33.998  28.086  24.348  1.00  0.00     0.182 C 
ATOM     24  C   UNL A   1      33.611  26.647  23.995  1.00  0.00     0.150 C 
ENDBRANCH  14  17
ENDBRANCH  12  13
ENDBRANCH   7  12
ENDBRANCH   3   6
ENDBRANCH   1   2
BRANCH   1  25
ATOM     25  C   UNL A   1      38.247  19.582  25.001  1.00  0.00     0.042 C 
BRANCH  25  26
ATOM     26  C   UNL A   1      39.304  19.929  26.043  1.00  0.00     0.118 C 
BRANCH  26  27
ATOM     27  N   UNL A   1      40.407  18.980  26.057  1.00  0.00    -0.352 N 
ATOM     28  C   UNL A   1      41.761  19.195  26.126  1.00  0.00     0.251 C 
ATOM     29  H   UNL A   1      40.139  18.034  26.008  1.00  0.00     0.163 HD
ATOM     30  O   UNL A   1      42.532  18.262  25.930  1.00  0.00    -0.269 OA
BRANCH  28  31
ATOM     31  C   UNL A   1      42.295  20.543  26.415  1.00  0.00     0.039 A 
ATOM     32  C   UNL A   1      42.672  21.360  25.345  1.00  0.00     0.014 A 
ATOM     33  C   UNL A   1      42.458  20.994  27.727  1.00  0.00     0.014 A 
ATOM     34  C   UNL A   1      43.152  22.648  25.589  1.00  0.00     0.010 A 
ATOM     35  C   UNL A   1      42.861  22.305  27.967  1.00  0.00     0.010 A 
ATOM     36  C   UNL A   1      43.218  23.144  26.901  1.00  0.00    -0.014 A 
BRANCH  36  37
ATOM     37  C   UNL A   1      43.659  24.534  27.180  1.00  0.00     0.031 A 
ATOM     38  C   UNL A   1      42.675  25.554  27.680  1.00  0.00     0.074 A 
ATOM     39  C   UNL A   1      44.930  24.895  26.916  1.00  0.00     0.049 A 
ATOM     40  N   UNL A   1      42.848  26.833  27.903  1.00  0.00    -0.248 NA
ATOM     41  C   UNL A   1      41.306  25.081  27.937  1.00  0.00     0.031 C 
ATOM     42  C   UNL A   1      45.967  24.009  26.386  1.00  0.00     0.029 A 
ATOM     43  N   UNL A   1      45.563  26.105  27.047  1.00  0.00    -0.354 N 
ATOM     44  C   UNL A   1      41.611  27.317  28.308  1.00  0.00     0.074 A 
ATOM     45  C   UNL A   1      40.683  26.208  28.248  1.00  0.00     0.031 C 
ATOM     46  C   UNL A   1      47.111  24.700  26.256  1.00  0.00     0.029 A 
ATOM     47  C   UNL A   1      46.878  26.084  26.655  1.00  0.00     0.049 A 
ATOM     48  H   UNL A   1      45.115  26.913  27.389  1.00  0.00     0.167 HD
ATOM     49  C   UNL A   1      41.283  28.566  28.715  1.00  0.00     0.037 A 
ATOM     50  C   UNL A   1      47.792  27.073  26.612  1.00  0.00     0.037 A 
ATOM     51  C   UNL A   1      42.214  29.661  28.798  1.00  0.00     0.049 A 
ATOM     52  C   UNL A   1      47.402  28.453  27.064  1.00  0.00     0.074 A 
ATOM     53  C   UNL A   1      41.996  30.948  29.256  1.00  0.00     0.029 A 
ATOM     54  N   UNL A   1      43.544  29.595  28.408  1.00  0.00    -0.354 N 
ATOM     55  N   UNL A   1      46.246  28.883  27.508  1.00  0.00    -0.248 NA
ATOM     56  C   UNL A   1      48.447  29.486  27.014  1.00  0.00     0.031 C 
ATOM     57  C   UNL A   1      43.180  31.676  29.099  1.00  0.00     0.029 A 
ATOM     58  C   UNL A   1      44.153  30.827  28.594  1.00  0.00     0.049 A 
ATOM     59  H   UNL A   1      43.991  28.793  28.053  1.00  0.00     0.167 HD
ATOM     60  C   UNL A   1      46.430  30.224  27.817  1.00  0.00     0.074 A 
ATOM     61  C   UNL A   1      47.814  30.533  27.523  1.00  0.00     0.031 C 
ATOM     62  C   UNL A   1      45.534  31.118  28.302  1.00  0.00     0.037 A 
BRANCH  49  63
ATOM     63  C   UNL A   1      39.854  28.817  29.104  1.00  0.00     0.064 A 
ATOM     64  C   UNL A   1      39.408  28.645  30.424  1.00  0.00     0.173 A 
ATOM     65  C   UNL A   1      38.925  29.264  28.152  1.00  0.00     0.173 A 
ATOM     66  F   UNL A   1      40.253  28.209  31.370  1.00  0.00    -0.203 F 
ATOM     67  C   UNL A   1      38.079  28.879  30.769  1.00  0.00     0.198 A 
ATOM     68  C   UNL A   1      37.604  29.529  28.507  1.00  0.00     0.198 A 
ATOM     69  F   UNL A   1      39.298  29.452  26.877  1.00  0.00    -0.203 F 
ATOM     70  F   UNL A   1      37.665  28.655  32.023  1.00  0.00    -0.200 F 
ATOM     71  C   UNL A   1      37.180  29.326  29.812  1.00  0.00     0.200 A 
ATOM     72  F   UNL A   1      36.740  29.975  27.585  1.00  0.00    -0.200 F 
ATOM     73  F   UNL A   1      35.903  29.556  30.146  1.00  0.00    -0.200 F 
ENDBRANCH  49  63
BRANCH  50  74
ATOM     74  C   UNL A   1      49.173  26.784  26.145  1.00  0.00     0.064 A 
ATOM     75  C   UNL A   1      50.143  26.293  27.030  1.00  0.00     0.173 A 
ATOM     76  C   UNL A   1      49.551  26.988  24.811  1.00  0.00     0.173 A 
ATOM     77  F   UNL A   1      49.834  26.100  28.320  1.00  0.00    -0.203 F 
ATOM     78  C   UNL A   1      51.444  26.036  26.603  1.00  0.00     0.198 A 
ATOM     79  C   UNL A   1      50.845  26.703  24.377  1.00  0.00     0.198 A 
ATOM     80  F   UNL A   1      48.660  27.450  23.922  1.00  0.00    -0.203 F 
ATOM     81  F   UNL A   1      52.363  25.608  27.479  1.00  0.00    -0.200 F 
ATOM     82  C   UNL A   1      51.792  26.235  25.275  1.00  0.00     0.200 A 
ATOM     83  F   UNL A   1      51.173  26.882  23.091  1.00  0.00    -0.200 F 
ATOM     84  F   UNL A   1      53.042  25.982  24.863  1.00  0.00    -0.200 F 
ENDBRANCH  50  74
BRANCH  62  85
ATOM     85  C   UNL A   1      46.029  32.508  28.578  1.00  0.00     0.064 A 
ATOM     86  C   UNL A   1      46.596  32.857  29.813  1.00  0.00     0.173 A 
ATOM     87  C   UNL A   1      45.971  33.493  27.580  1.00  0.00     0.173 A 
ATOM     88  F   UNL A   1      46.660  31.957  30.805  1.00  0.00    -0.203 F 
ATOM     89  C   UNL A   1      47.063  34.149  30.046  1.00  0.00     0.198 A 
ATOM     90  C   UNL A   1      46.467  34.773  27.805  1.00  0.00     0.198 A 
ATOM     91  F   UNL A   1      45.445  33.207  26.379  1.00  0.00    -0.203 F 
ATOM     92  F   UNL A   1      47.556  34.474  31.248  1.00  0.00    -0.200 F 
ATOM     93  C   UNL A   1      47.006  35.102  29.040  1.00  0.00     0.200 A 
ATOM     94  F   UNL A   1      46.425  35.689  26.827  1.00  0.00    -0.200 F 
ATOM     95  F   UNL A   1      47.465  36.341  29.264  1.00  0.00    -0.200 F 
ENDBRANCH  62  85
ENDBRANCH  36  37
ENDBRANCH  28  31
ENDBRANCH  26  27
ENDBRANCH  25  26
ENDBRANCH   1  25
TORSDOF 13
ENDMDL
