MODEL 1
REMARK VINA RESULT:     -12.8      0.000      0.000
REMARK SMILES Cc1c(CC(=O)NCCCNC(=O)c2ccc(-c3c4nc(c(-c5c(F)c(F)c(F)c(F)c5F)c5ccc([nH]5)c(-c5c(F)c(F)c(F)c(F)c5F)c5nc(c(-c6c(F)c(F)c(F)c(F)c6F)c6ccc3[nH]6)C=C5)C=C4)cc2)cc(-c2ccc(S(C)(=O)=O)cc2)n1-c1ccccc1
REMARK SMILES IDX 8 1 7 2 5 3 6 4 4 6 3 7 1 8 2 9 89 10 77 11 78 12 90 13
REMARK SMILES IDX 91 14 95 15 92 16 94 17 93 18 79 19 80 20 88 21 81 22 87 23
REMARK SMILES IDX 82 24 83 25 84 26 85 27 86 28 9 29 10 30 11 31 12 32 13 34
REMARK SMILES IDX 14 35 15 36 76 37 16 38 75 39 17 40 18 41 19 42 69 43 20 44
REMARK SMILES IDX 74 45 68 46 70 47 21 48 73 49 67 50 66 51 22 53 54 54 34 55
REMARK SMILES IDX 53 56 35 57 38 58 52 59 71 60 36 61 37 62 51 64 72 65 39 66
REMARK SMILES IDX 23 67 24 68 32 69 25 70 26 71 30 72 33 73 27 74 28 75 31 76
REMARK SMILES IDX 29 77 55 78 56 79 64 80 57 81 58 82 62 83 65 84 59 85 60 86
REMARK SMILES IDX 63 87 61 88 40 89 41 90 49 91 42 92 43 93 47 94 50 95 44 96
REMARK SMILES IDX 45 97 48 98 46 99
REMARK H PARENT 7 5 11 33 70 52 38 63
REMARK Flexibility Score: inf
ROOT
ATOM      1  C   UNL A   1      31.092  28.731  23.532  1.00  0.00     0.117 C 
ENDROOT
BRANCH   1   2
ATOM      2  N   UNL A   1      30.017  27.749  23.347  1.00  0.00    -0.356 N 
ATOM      3  C   UNL A   1      29.546  26.723  24.134  1.00  0.00     0.224 C 
ATOM      4  O   UNL A   1      28.412  26.302  23.859  1.00  0.00    -0.275 OA
ATOM      5  H   UNL A   1      29.539  27.842  22.492  1.00  0.00     0.163 HD
BRANCH   3   6
ATOM      6  C   UNL A   1      30.293  26.098  25.315  1.00  0.00     0.137 C 
BRANCH   6   7
ATOM      7  C   UNL A   1      31.310  25.070  24.936  1.00  0.00    -0.017 A 
ATOM      8  C   UNL A   1      33.433  26.532  24.605  1.00  0.00     0.065 C 
ATOM      9  C   UNL A   1      32.671  25.248  24.721  1.00  0.00     0.024 A 
ATOM     10  N   UNL A   1      33.242  23.994  24.532  1.00  0.00    -0.314 N 
ATOM     11  C   UNL A   1      31.024  23.716  24.622  1.00  0.00     0.033 A 
ATOM     12  C   UNL A   1      32.218  23.050  24.427  1.00  0.00     0.053 A 
BRANCH  10  13
ATOM     13  C   UNL A   1      34.632  23.698  24.546  1.00  0.00     0.046 A 
ATOM     14  C   UNL A   1      35.288  23.325  23.369  1.00  0.00     0.026 A 
ATOM     15  C   UNL A   1      35.307  23.671  25.773  1.00  0.00     0.026 A 
ATOM     16  C   UNL A   1      36.624  22.926  23.422  1.00  0.00     0.002 A 
ATOM     17  C   UNL A   1      36.637  23.260  25.819  1.00  0.00     0.002 A 
ATOM     18  C   UNL A   1      37.294  22.887  24.646  1.00  0.00     0.000 A 
ENDBRANCH  10  13
BRANCH  12  19
ATOM     19  C   UNL A   1      32.415  21.600  24.338  1.00  0.00    -0.001 A 
ATOM     20  C   UNL A   1      32.844  20.887  25.468  1.00  0.00     0.011 A 
ATOM     21  C   UNL A   1      32.175  20.914  23.142  1.00  0.00     0.011 A 
ATOM     22  C   UNL A   1      33.097  19.520  25.392  1.00  0.00     0.021 A 
ATOM     23  C   UNL A   1      32.423  19.540  23.058  1.00  0.00     0.021 A 
ATOM     24  C   UNL A   1      32.907  18.859  24.177  1.00  0.00     0.067 A 
BRANCH  24  25
ATOM     25  S   UNL A   1      33.286  17.127  24.092  1.00  0.00     0.175 S 
ATOM     26  C   UNL A   1      34.919  17.023  24.784  1.00  0.00     0.163 C 
ATOM     27  O   UNL A   1      32.371  16.442  24.962  1.00  0.00    -0.224 OA
ATOM     28  O   UNL A   1      33.394  16.770  22.675  1.00  0.00    -0.224 OA
ENDBRANCH  24  25
ENDBRANCH  12  19
ENDBRANCH   6   7
ENDBRANCH   3   6
ENDBRANCH   1   2
BRANCH   1  29
ATOM     29  C   UNL A   1      31.040  29.714  24.783  1.00  0.00     0.042 C 
BRANCH  29  30
ATOM     30  C   UNL A   1      32.265  30.017  25.804  1.00  0.00     0.118 C 
BRANCH  30  31
ATOM     31  N   UNL A   1      32.293  31.428  26.433  1.00  0.00    -0.352 N 
ATOM     32  C   UNL A   1      32.893  32.318  27.375  1.00  0.00     0.251 C 
ATOM     33  H   UNL A   1      31.581  31.940  25.987  1.00  0.00     0.163 HD
ATOM     34  O   UNL A   1      32.317  33.422  27.380  1.00  0.00    -0.269 OA
BRANCH  32  35
ATOM     35  C   UNL A   1      34.103  32.272  28.372  1.00  0.00     0.039 A 
ATOM     36  C   UNL A   1      35.383  31.654  28.118  1.00  0.00     0.014 A 
ATOM     37  C   UNL A   1      34.061  32.634  29.677  1.00  0.00     0.014 A 
ATOM     38  C   UNL A   1      36.636  31.600  29.063  1.00  0.00     0.010 A 
ATOM     39  C   UNL A   1      35.275  32.485  30.560  1.00  0.00     0.010 A 
ATOM     40  C   UNL A   1      36.688  32.083  30.391  1.00  0.00    -0.014 A 
BRANCH  40  41
ATOM     41  C   UNL A   1      38.064  33.097  31.071  1.00  0.00     0.031 A 
ATOM     42  C   UNL A   1      37.641  33.018  32.499  1.00  0.00     0.074 A 
ATOM     43  C   UNL A   1      39.464  33.643  30.963  1.00  0.00     0.049 A 
ATOM     44  N   UNL A   1      37.168  31.842  32.816  1.00  0.00    -0.248 NA
ATOM     45  C   UNL A   1      38.202  33.676  33.654  1.00  0.00     0.031 C 
ATOM     46  C   UNL A   1      40.419  33.776  29.801  1.00  0.00     0.029 A 
ATOM     47  N   UNL A   1      40.483  34.111  31.992  1.00  0.00    -0.354 N 
ATOM     48  C   UNL A   1      38.235  31.354  33.464  1.00  0.00     0.074 A 
ATOM     49  C   UNL A   1      38.527  32.549  34.316  1.00  0.00     0.031 C 
ATOM     50  C   UNL A   1      41.672  34.277  30.122  1.00  0.00     0.029 A 
ATOM     51  C   UNL A   1      41.857  34.532  31.564  1.00  0.00     0.049 A 
ATOM     52  H   UNL A   1      40.238  34.139  32.945  1.00  0.00     0.167 HD
ATOM     53  C   UNL A   1      39.091  30.368  32.983  1.00  0.00     0.037 A 
ATOM     54  C   UNL A   1      43.024  34.896  32.348  1.00  0.00     0.037 A 
ATOM     55  C   UNL A   1      39.965  29.961  34.013  1.00  0.00     0.049 A 
ATOM     56  C   UNL A   1      43.112  33.617  33.063  1.00  0.00     0.074 A 
ATOM     57  C   UNL A   1      40.059  30.214  35.359  1.00  0.00     0.029 A 
ATOM     58  N   UNL A   1      41.139  29.333  33.699  1.00  0.00    -0.354 N 
ATOM     59  N   UNL A   1      43.872  32.634  32.663  1.00  0.00    -0.248 NA
ATOM     60  C   UNL A   1      42.627  33.597  34.441  1.00  0.00     0.031 C 
ATOM     61  C   UNL A   1      41.407  30.639  35.403  1.00  0.00     0.029 A 
ATOM     62  C   UNL A   1      42.064  30.169  34.249  1.00  0.00     0.049 A 
ATOM     63  H   UNL A   1      41.279  28.494  33.202  1.00  0.00     0.167 HD
ATOM     64  C   UNL A   1      43.701  31.743  33.685  1.00  0.00     0.074 A 
ATOM     65  C   UNL A   1      43.315  32.522  34.828  1.00  0.00     0.031 C 
ATOM     66  C   UNL A   1      43.190  30.524  33.418  1.00  0.00     0.037 A 
BRANCH  53  67
ATOM     67  C   UNL A   1      39.241  29.583  31.567  1.00  0.00     0.064 A 
ATOM     68  C   UNL A   1      39.596  30.067  30.256  1.00  0.00     0.173 A 
ATOM     69  C   UNL A   1      38.937  28.213  31.542  1.00  0.00     0.173 A 
ATOM     70  F   UNL A   1      39.988  31.310  30.042  1.00  0.00    -0.203 F 
ATOM     71  C   UNL A   1      39.435  29.339  29.060  1.00  0.00     0.198 A 
ATOM     72  C   UNL A   1      38.886  27.450  30.358  1.00  0.00     0.198 A 
ATOM     73  F   UNL A   1      38.697  27.570  32.690  1.00  0.00    -0.203 F 
ATOM     74  F   UNL A   1      39.579  29.946  27.869  1.00  0.00    -0.200 F 
ATOM     75  C   UNL A   1      39.071  28.021  29.115  1.00  0.00     0.200 A 
ATOM     76  F   UNL A   1      38.641  26.137  30.443  1.00  0.00    -0.200 F 
ATOM     77  F   UNL A   1      38.907  27.308  27.992  1.00  0.00    -0.200 F 
ENDBRANCH  53  67
BRANCH  54  78
ATOM     78  C   UNL A   1      44.606  35.488  32.769  1.00  0.00     0.064 A 
ATOM     79  C   UNL A   1      45.826  35.368  32.080  1.00  0.00     0.173 A 
ATOM     80  C   UNL A   1      44.848  36.355  33.949  1.00  0.00     0.173 A 
ATOM     81  F   UNL A   1      45.906  34.598  30.991  1.00  0.00    -0.203 F 
ATOM     82  C   UNL A   1      47.060  36.042  32.492  1.00  0.00     0.198 A 
ATOM     83  C   UNL A   1      46.034  37.015  34.345  1.00  0.00     0.198 A 
ATOM     84  F   UNL A   1      43.929  36.648  34.860  1.00  0.00    -0.203 F 
ATOM     85  F   UNL A   1      48.186  35.867  31.785  1.00  0.00    -0.200 F 
ATOM     86  C   UNL A   1      47.152  36.877  33.598  1.00  0.00     0.200 A 
ATOM     87  F   UNL A   1      46.039  37.778  35.454  1.00  0.00    -0.200 F 
ATOM     88  F   UNL A   1      48.278  37.520  33.949  1.00  0.00    -0.200 F 
ENDBRANCH  54  78
BRANCH  66  89
ATOM     89  C   UNL A   1      43.499  30.079  32.008  1.00  0.00     0.064 A 
ATOM     90  C   UNL A   1      44.638  29.309  31.759  1.00  0.00     0.173 A 
ATOM     91  C   UNL A   1      42.844  30.605  30.880  1.00  0.00     0.173 A 
ATOM     92  F   UNL A   1      45.358  28.844  32.790  1.00  0.00    -0.203 F 
ATOM     93  C   UNL A   1      45.075  29.048  30.458  1.00  0.00     0.198 A 
ATOM     94  C   UNL A   1      43.259  30.327  29.574  1.00  0.00     0.198 A 
ATOM     95  F   UNL A   1      41.831  31.457  31.055  1.00  0.00    -0.203 F 
ATOM     96  F   UNL A   1      46.186  28.325  30.263  1.00  0.00    -0.200 F 
ATOM     97  C   UNL A   1      44.381  29.546  29.366  1.00  0.00     0.200 A 
ATOM     98  F   UNL A   1      42.586  30.825  28.526  1.00  0.00    -0.200 F 
ATOM     99  F   UNL A   1      44.802  29.287  28.119  1.00  0.00    -0.200 F 
ENDBRANCH  66  89
ENDBRANCH  40  41
ENDBRANCH  32  35
ENDBRANCH  30  31
ENDBRANCH  29  30
ENDBRANCH   1  29
TORSDOF 14
ENDMDL
MODEL 2
REMARK VINA RESULT:     -12.7      4.461      8.704
REMARK SMILES Cc1c(CC(=O)NCCCNC(=O)c2ccc(-c3c4nc(c(-c5c(F)c(F)c(F)c(F)c5F)c5ccc([nH]5)c(-c5c(F)c(F)c(F)c(F)c5F)c5nc(c(-c6c(F)c(F)c(F)c(F)c6F)c6ccc3[nH]6)C=C5)C=C4)cc2)cc(-c2ccc(S(C)(=O)=O)cc2)n1-c1ccccc1
REMARK SMILES IDX 8 1 7 2 5 3 6 4 4 6 3 7 1 8 2 9 89 10 77 11 78 12 90 13
REMARK SMILES IDX 91 14 95 15 92 16 94 17 93 18 79 19 80 20 88 21 81 22 87 23
REMARK SMILES IDX 82 24 83 25 84 26 85 27 86 28 9 29 10 30 11 31 12 32 13 34
REMARK SMILES IDX 14 35 15 36 76 37 16 38 75 39 17 40 18 41 19 42 69 43 20 44
REMARK SMILES IDX 74 45 68 46 70 47 21 48 73 49 67 50 66 51 22 53 54 54 34 55
REMARK SMILES IDX 53 56 35 57 38 58 52 59 71 60 36 61 37 62 51 64 72 65 39 66
REMARK SMILES IDX 23 67 24 68 32 69 25 70 26 71 30 72 33 73 27 74 28 75 31 76
REMARK SMILES IDX 29 77 55 78 56 79 64 80 57 81 58 82 62 83 65 84 59 85 60 86
REMARK SMILES IDX 63 87 61 88 40 89 41 90 49 91 42 92 43 93 47 94 50 95 44 96
REMARK SMILES IDX 45 97 48 98 46 99
REMARK H PARENT 7 5 11 33 70 52 38 63
REMARK Flexibility Score: inf
ROOT
ATOM      1  C   UNL A   1      44.928  20.177  25.381  1.00  0.00     0.117 C 
ENDROOT
BRANCH   1   2
ATOM      2  N   UNL A   1      44.076  18.982  25.423  1.00  0.00    -0.356 N 
ATOM      3  C   UNL A   1      42.986  18.641  26.190  1.00  0.00     0.224 C 
ATOM      4  O   UNL A   1      42.279  17.722  25.751  1.00  0.00    -0.275 OA
ATOM      5  H   UNL A   1      44.338  18.288  24.776  1.00  0.00     0.163 HD
BRANCH   3   6
ATOM      6  C   UNL A   1      42.576  19.320  27.499  1.00  0.00     0.137 C 
BRANCH   6   7
ATOM      7  C   UNL A   1      41.709  20.525  27.331  1.00  0.00    -0.017 A 
ATOM      8  C   UNL A   1      43.111  22.350  28.539  1.00  0.00     0.065 C 
ATOM      9  C   UNL A   1      41.982  21.837  27.698  1.00  0.00     0.024 A 
ATOM     10  N   UNL A   1      40.953  22.640  27.218  1.00  0.00    -0.314 N 
ATOM     11  C   UNL A   1      40.376  20.511  26.846  1.00  0.00     0.033 A 
ATOM     12  C   UNL A   1      39.937  21.816  26.729  1.00  0.00     0.053 A 
BRANCH  10  13
ATOM     13  C   UNL A   1      40.966  24.059  27.140  1.00  0.00     0.046 A 
ATOM     14  C   UNL A   1      40.514  24.832  28.214  1.00  0.00     0.026 A 
ATOM     15  C   UNL A   1      41.328  24.667  25.931  1.00  0.00     0.026 A 
ATOM     16  C   UNL A   1      40.426  26.217  28.075  1.00  0.00     0.002 A 
ATOM     17  C   UNL A   1      41.225  26.050  25.797  1.00  0.00     0.002 A 
ATOM     18  C   UNL A   1      40.774  26.824  26.868  1.00  0.00     0.000 A 
ENDBRANCH  10  13
BRANCH  12  19
ATOM     19  C   UNL A   1      38.734  22.283  26.035  1.00  0.00    -0.001 A 
ATOM     20  C   UNL A   1      38.147  23.502  26.406  1.00  0.00     0.011 A 
ATOM     21  C   UNL A   1      38.163  21.531  25.001  1.00  0.00     0.011 A 
ATOM     22  C   UNL A   1      36.969  23.937  25.805  1.00  0.00     0.021 A 
ATOM     23  C   UNL A   1      36.982  21.962  24.389  1.00  0.00     0.021 A 
ATOM     24  C   UNL A   1      36.380  23.149  24.813  1.00  0.00     0.067 A 
BRANCH  24  25
ATOM     25  S   UNL A   1      34.852  23.699  24.098  1.00  0.00     0.175 S 
ATOM     26  C   UNL A   1      33.633  22.664  24.872  1.00  0.00     0.163 C 
ATOM     27  O   UNL A   1      34.641  25.056  24.522  1.00  0.00    -0.224 OA
ATOM     28  O   UNL A   1      34.880  23.345  22.677  1.00  0.00    -0.224 OA
ENDBRANCH  24  25
ENDBRANCH  12  19
ENDBRANCH   6   7
ENDBRANCH   3   6
ENDBRANCH   1   2
BRANCH   1  29
ATOM     29  C   UNL A   1      44.629  21.307  24.301  1.00  0.00     0.042 C 
BRANCH  29  30
ATOM     30  C   UNL A   1      43.896  22.727  24.590  1.00  0.00     0.118 C 
BRANCH  30  31
ATOM     31  N   UNL A   1      44.812  23.971  24.621  1.00  0.00    -0.352 N 
ATOM     32  C   UNL A   1      45.191  25.175  25.289  1.00  0.00     0.251 C 
ATOM     33  H   UNL A   1      45.389  23.905  23.827  1.00  0.00     0.163 HD
ATOM     34  O   UNL A   1      46.075  25.781  24.656  1.00  0.00    -0.269 OA
BRANCH  32  35
ATOM     35  C   UNL A   1      44.805  25.905  26.623  1.00  0.00     0.039 A 
ATOM     36  C   UNL A   1      45.043  27.297  26.923  1.00  0.00     0.014 A 
ATOM     37  C   UNL A   1      44.370  25.299  27.754  1.00  0.00     0.014 A 
ATOM     38  C   UNL A   1      44.656  28.086  28.224  1.00  0.00     0.010 A 
ATOM     39  C   UNL A   1      44.090  26.098  29.001  1.00  0.00     0.010 A 
ATOM     40  C   UNL A   1      44.076  27.526  29.386  1.00  0.00    -0.014 A 
BRANCH  40  41
ATOM     41  C   UNL A   1      42.657  28.265  30.293  1.00  0.00     0.031 A 
ATOM     42  C   UNL A   1      43.062  27.795  31.650  1.00  0.00     0.074 A 
ATOM     43  C   UNL A   1      41.562  29.295  30.395  1.00  0.00     0.049 A 
ATOM     44  N   UNL A   1      44.354  27.851  31.833  1.00  0.00    -0.248 NA
ATOM     45  C   UNL A   1      42.359  27.915  32.903  1.00  0.00     0.031 C 
ATOM     46  C   UNL A   1      40.912  30.195  29.371  1.00  0.00     0.029 A 
ATOM     47  N   UNL A   1      40.822  29.918  31.569  1.00  0.00    -0.354 N 
ATOM     48  C   UNL A   1      44.413  28.964  32.577  1.00  0.00     0.074 A 
ATOM     49  C   UNL A   1      43.308  28.636  33.530  1.00  0.00     0.031 C 
ATOM     50  C   UNL A   1      39.966  31.075  29.876  1.00  0.00     0.029 A 
ATOM     51  C   UNL A   1      39.815  31.006  31.343  1.00  0.00     0.049 A 
ATOM     52  H   UNL A   1      41.004  29.603  32.485  1.00  0.00     0.167 HD
ATOM     53  C   UNL A   1      44.886  30.200  32.148  1.00  0.00     0.037 A 
ATOM     54  C   UNL A   1      39.080  31.828  32.287  1.00  0.00     0.037 A 
ATOM     55  C   UNL A   1      44.995  31.072  33.252  1.00  0.00     0.049 A 
ATOM     56  C   UNL A   1      40.271  32.399  32.928  1.00  0.00     0.074 A 
ATOM     57  C   UNL A   1      44.874  30.930  34.612  1.00  0.00     0.029 A 
ATOM     58  N   UNL A   1      45.029  32.424  33.049  1.00  0.00    -0.354 N 
ATOM     59  N   UNL A   1      40.791  33.540  32.567  1.00  0.00    -0.248 NA
ATOM     60  C   UNL A   1      40.645  31.852  34.231  1.00  0.00     0.031 C 
ATOM     61  C   UNL A   1      43.927  31.952  34.850  1.00  0.00     0.029 A 
ATOM     62  C   UNL A   1      43.946  32.846  33.761  1.00  0.00     0.049 A 
ATOM     63  H   UNL A   1      45.670  32.955  32.524  1.00  0.00     0.167 HD
ATOM     64  C   UNL A   1      41.776  33.683  33.503  1.00  0.00     0.074 A 
ATOM     65  C   UNL A   1      41.363  32.901  34.634  1.00  0.00     0.031 C 
ATOM     66  C   UNL A   1      43.060  33.775  33.101  1.00  0.00     0.037 A 
BRANCH  53  67
ATOM     67  C   UNL A   1      45.375  30.796  30.716  1.00  0.00     0.064 A 
ATOM     68  C   UNL A   1      44.639  31.053  29.503  1.00  0.00     0.173 A 
ATOM     69  C   UNL A   1      46.739  31.080  30.556  1.00  0.00     0.173 A 
ATOM     70  F   UNL A   1      43.325  30.925  29.431  1.00  0.00    -0.203 F 
ATOM     71  C   UNL A   1      45.224  31.322  28.249  1.00  0.00     0.198 A 
ATOM     72  C   UNL A   1      47.315  31.462  29.328  1.00  0.00     0.198 A 
ATOM     73  F   UNL A   1      47.556  31.010  31.613  1.00  0.00    -0.203 F 
ATOM     74  F   UNL A   1      44.473  31.325  27.134  1.00  0.00    -0.200 F 
ATOM     75  C   UNL A   1      46.575  31.521  28.164  1.00  0.00     0.200 A 
ATOM     76  F   UNL A   1      48.618  31.764  29.288  1.00  0.00    -0.200 F 
ATOM     77  F   UNL A   1      47.157  31.774  26.983  1.00  0.00    -0.200 F 
ENDBRANCH  53  67
BRANCH  54  78
ATOM     78  C   UNL A   1      37.925  32.956  32.938  1.00  0.00     0.064 A 
ATOM     79  C   UNL A   1      37.186  33.963  32.292  1.00  0.00     0.173 A 
ATOM     80  C   UNL A   1      37.466  32.907  34.349  1.00  0.00     0.173 A 
ATOM     81  F   UNL A   1      37.431  34.255  31.011  1.00  0.00    -0.203 F 
ATOM     82  C   UNL A   1      36.140  34.751  32.950  1.00  0.00     0.198 A 
ATOM     83  C   UNL A   1      36.450  33.657  34.984  1.00  0.00     0.198 A 
ATOM     84  F   UNL A   1      37.978  32.105  35.272  1.00  0.00    -0.203 F 
ATOM     85  F   UNL A   1      35.489  35.703  32.265  1.00  0.00    -0.200 F 
ATOM     86  C   UNL A   1      35.761  34.578  34.275  1.00  0.00     0.200 A 
ATOM     87  F   UNL A   1      36.174  33.446  36.285  1.00  0.00    -0.200 F 
ATOM     88  F   UNL A   1      34.776  35.279  34.860  1.00  0.00    -0.200 F 
ENDBRANCH  54  78
BRANCH  66  89
ATOM     89  C   UNL A   1      43.176  34.366  31.715  1.00  0.00     0.064 A 
ATOM     90  C   UNL A   1      43.362  35.743  31.564  1.00  0.00     0.173 A 
ATOM     91  C   UNL A   1      42.856  33.649  30.549  1.00  0.00     0.173 A 
ATOM     92  F   UNL A   1      43.589  36.500  32.647  1.00  0.00    -0.203 F 
ATOM     93  C   UNL A   1      43.271  36.360  30.314  1.00  0.00     0.198 A 
ATOM     94  C   UNL A   1      42.789  34.255  29.291  1.00  0.00     0.198 A 
ATOM     95  F   UNL A   1      42.535  32.357  30.648  1.00  0.00    -0.203 F 
ATOM     96  F   UNL A   1      43.431  37.687  30.216  1.00  0.00    -0.200 F 
ATOM     97  C   UNL A   1      42.996  35.617  29.176  1.00  0.00     0.200 A 
ATOM     98  F   UNL A   1      42.510  33.526  28.199  1.00  0.00    -0.200 F 
ATOM     99  F   UNL A   1      42.915  36.215  27.979  1.00  0.00    -0.200 F 
ENDBRANCH  66  89
ENDBRANCH  40  41
ENDBRANCH  32  35
ENDBRANCH  30  31
ENDBRANCH  29  30
ENDBRANCH   1  29
TORSDOF 14
ENDMDL
MODEL 3
REMARK VINA RESULT:     -12.6      2.717      5.899
REMARK SMILES Cc1c(CC(=O)NCCCNC(=O)c2ccc(-c3c4nc(c(-c5c(F)c(F)c(F)c(F)c5F)c5ccc([nH]5)c(-c5c(F)c(F)c(F)c(F)c5F)c5nc(c(-c6c(F)c(F)c(F)c(F)c6F)c6ccc3[nH]6)C=C5)C=C4)cc2)cc(-c2ccc(S(C)(=O)=O)cc2)n1-c1ccccc1
REMARK SMILES IDX 8 1 7 2 5 3 6 4 4 6 3 7 1 8 2 9 89 10 77 11 78 12 90 13
REMARK SMILES IDX 91 14 95 15 92 16 94 17 93 18 79 19 80 20 88 21 81 22 87 23
REMARK SMILES IDX 82 24 83 25 84 26 85 27 86 28 9 29 10 30 11 31 12 32 13 34
REMARK SMILES IDX 14 35 15 36 76 37 16 38 75 39 17 40 18 41 19 42 69 43 20 44
REMARK SMILES IDX 74 45 68 46 70 47 21 48 73 49 67 50 66 51 22 53 54 54 34 55
REMARK SMILES IDX 53 56 35 57 38 58 52 59 71 60 36 61 37 62 51 64 72 65 39 66
REMARK SMILES IDX 23 67 24 68 32 69 25 70 26 71 30 72 33 73 27 74 28 75 31 76
REMARK SMILES IDX 29 77 55 78 56 79 64 80 57 81 58 82 62 83 65 84 59 85 60 86
REMARK SMILES IDX 63 87 61 88 40 89 41 90 49 91 42 92 43 93 47 94 50 95 44 96
REMARK SMILES IDX 45 97 48 98 46 99
REMARK H PARENT 7 5 11 33 70 52 38 63
REMARK Flexibility Score: inf
ROOT
ATOM      1  C   UNL A   1      30.822  30.091  24.561  1.00  0.00     0.117 C 
ENDROOT
BRANCH   1   2
ATOM      2  N   UNL A   1      30.945  29.335  23.309  1.00  0.00    -0.356 N 
ATOM      3  C   UNL A   1      30.648  28.034  22.972  1.00  0.00     0.224 C 
ATOM      4  O   UNL A   1      30.536  27.798  21.760  1.00  0.00    -0.275 OA
ATOM      5  H   UNL A   1      31.313  29.862  22.564  1.00  0.00     0.163 HD
BRANCH   3   6
ATOM      6  C   UNL A   1      30.423  26.891  23.965  1.00  0.00     0.137 C 
BRANCH   6   7
ATOM      7  C   UNL A   1      31.398  25.764  23.849  1.00  0.00    -0.017 A 
ATOM      8  C   UNL A   1      33.659  27.041  23.736  1.00  0.00     0.065 C 
ATOM      9  C   UNL A   1      32.786  25.829  23.842  1.00  0.00     0.024 A 
ATOM     10  N   UNL A   1      33.276  24.527  23.862  1.00  0.00    -0.314 N 
ATOM     11  C   UNL A   1      31.055  24.408  23.615  1.00  0.00     0.033 A 
ATOM     12  C   UNL A   1      32.207  23.647  23.678  1.00  0.00     0.053 A 
BRANCH  10  13
ATOM     13  C   UNL A   1      34.618  24.142  24.126  1.00  0.00     0.046 A 
ATOM     14  C   UNL A   1      35.370  23.480  23.151  1.00  0.00     0.026 A 
ATOM     15  C   UNL A   1      35.135  24.330  25.415  1.00  0.00     0.026 A 
ATOM     16  C   UNL A   1      36.644  23.008  23.468  1.00  0.00     0.002 A 
ATOM     17  C   UNL A   1      36.403  23.844  25.726  1.00  0.00     0.002 A 
ATOM     18  C   UNL A   1      37.156  23.183  24.754  1.00  0.00     0.000 A 
ENDBRANCH  10  13
BRANCH  12  19
ATOM     19  C   UNL A   1      32.295  22.186  23.752  1.00  0.00    -0.001 A 
ATOM     20  C   UNL A   1      32.588  21.570  24.978  1.00  0.00     0.011 A 
ATOM     21  C   UNL A   1      32.087  21.394  22.617  1.00  0.00     0.011 A 
ATOM     22  C   UNL A   1      32.738  20.188  25.062  1.00  0.00     0.021 A 
ATOM     23  C   UNL A   1      32.233  20.005  22.693  1.00  0.00     0.021 A 
ATOM     24  C   UNL A   1      32.582  19.415  23.910  1.00  0.00     0.067 A 
BRANCH  24  25
ATOM     25  S   UNL A   1      32.831  17.662  24.031  1.00  0.00     0.175 S 
ATOM     26  C   UNL A   1      34.522  17.516  24.555  1.00  0.00     0.163 C 
ATOM     27  O   UNL A   1      31.978  17.178  25.082  1.00  0.00    -0.224 OA
ATOM     28  O   UNL A   1      32.748  17.112  22.676  1.00  0.00    -0.224 OA
ENDBRANCH  24  25
ENDBRANCH  12  19
ENDBRANCH   6   7
ENDBRANCH   3   6
ENDBRANCH   1   2
BRANCH   1  29
ATOM     29  C   UNL A   1      31.648  29.618  25.838  1.00  0.00     0.042 C 
BRANCH  29  30
ATOM     30  C   UNL A   1      33.261  29.696  26.008  1.00  0.00     0.118 C 
BRANCH  30  31
ATOM     31  N   UNL A   1      33.789  30.751  27.005  1.00  0.00    -0.352 N 
ATOM     32  C   UNL A   1      34.859  31.193  27.842  1.00  0.00     0.251 C 
ATOM     33  H   UNL A   1      33.068  31.412  27.112  1.00  0.00     0.163 HD
ATOM     34  O   UNL A   1      34.544  32.220  28.470  1.00  0.00    -0.269 OA
BRANCH  32  35
ATOM     35  C   UNL A   1      36.330  30.737  28.143  1.00  0.00     0.039 A 
ATOM     36  C   UNL A   1      37.320  31.500  28.866  1.00  0.00     0.014 A 
ATOM     37  C   UNL A   1      36.942  29.653  27.607  1.00  0.00     0.014 A 
ATOM     38  C   UNL A   1      38.792  31.086  29.219  1.00  0.00     0.010 A 
ATOM     39  C   UNL A   1      38.386  29.348  27.919  1.00  0.00     0.010 A 
ATOM     40  C   UNL A   1      39.439  29.901  28.797  1.00  0.00    -0.014 A 
BRANCH  40  41
ATOM     41  C   UNL A   1      40.441  28.820  29.897  1.00  0.00     0.031 A 
ATOM     42  C   UNL A   1      41.495  28.491  28.895  1.00  0.00     0.074 A 
ATOM     43  C   UNL A   1      40.874  28.400  31.278  1.00  0.00     0.049 A 
ATOM     44  N   UNL A   1      41.803  29.512  28.139  1.00  0.00    -0.248 NA
ATOM     45  C   UNL A   1      42.608  27.581  29.007  1.00  0.00     0.031 C 
ATOM     46  C   UNL A   1      40.282  28.635  32.646  1.00  0.00     0.029 A 
ATOM     47  N   UNL A   1      42.129  27.731  31.818  1.00  0.00    -0.354 N 
ATOM     48  C   UNL A   1      42.955  29.867  28.724  1.00  0.00     0.074 A 
ATOM     49  C   UNL A   1      43.569  28.506  28.819  1.00  0.00     0.031 C 
ATOM     50  C   UNL A   1      41.027  28.136  33.705  1.00  0.00     0.029 A 
ATOM     51  C   UNL A   1      42.301  27.515  33.292  1.00  0.00     0.049 A 
ATOM     52  H   UNL A   1      42.833  27.436  31.196  1.00  0.00     0.167 HD
ATOM     53  C   UNL A   1      43.143  30.991  29.522  1.00  0.00     0.037 A 
ATOM     54  C   UNL A   1      43.435  27.020  34.052  1.00  0.00     0.037 A 
ATOM     55  C   UNL A   1      44.520  31.156  29.786  1.00  0.00     0.049 A 
ATOM     56  C   UNL A   1      44.365  28.064  33.606  1.00  0.00     0.074 A 
ATOM     57  C   UNL A   1      45.669  30.558  29.333  1.00  0.00     0.029 A 
ATOM     58  N   UNL A   1      44.922  31.908  30.855  1.00  0.00    -0.354 N 
ATOM     59  N   UNL A   1      44.578  29.158  34.285  1.00  0.00    -0.248 NA
ATOM     60  C   UNL A   1      45.335  27.689  32.580  1.00  0.00     0.031 C 
ATOM     61  C   UNL A   1      46.236  30.211  30.581  1.00  0.00     0.029 A 
ATOM     62  C   UNL A   1      45.643  31.008  31.581  1.00  0.00     0.049 A 
ATOM     63  H   UNL A   1      44.736  32.855  31.050  1.00  0.00     0.167 HD
ATOM     64  C   UNL A   1      45.572  29.733  33.542  1.00  0.00     0.074 A 
ATOM     65  C   UNL A   1      46.214  28.657  32.840  1.00  0.00     0.031 C 
ATOM     66  C   UNL A   1      45.367  30.950  32.997  1.00  0.00     0.037 A 
BRANCH  53  67
ATOM     67  C   UNL A   1      42.158  32.133  30.130  1.00  0.00     0.064 A 
ATOM     68  C   UNL A   1      41.139  32.052  31.147  1.00  0.00     0.173 A 
ATOM     69  C   UNL A   1      42.229  33.421  29.578  1.00  0.00     0.173 A 
ATOM     70  F   UNL A   1      40.934  30.957  31.858  1.00  0.00    -0.203 F 
ATOM     71  C   UNL A   1      40.175  33.048  31.400  1.00  0.00     0.198 A 
ATOM     72  C   UNL A   1      41.336  34.459  29.912  1.00  0.00     0.198 A 
ATOM     73  F   UNL A   1      43.195  33.710  28.701  1.00  0.00    -0.203 F 
ATOM     74  F   UNL A   1      39.130  32.795  32.207  1.00  0.00    -0.200 F 
ATOM     75  C   UNL A   1      40.273  34.259  30.770  1.00  0.00     0.200 A 
ATOM     76  F   UNL A   1      41.518  35.670  29.371  1.00  0.00    -0.200 F 
ATOM     77  F   UNL A   1      39.367  35.221  30.989  1.00  0.00    -0.200 F 
ENDBRANCH  53  67
BRANCH  54  78
ATOM     78  C   UNL A   1      44.398  26.424  35.374  1.00  0.00     0.064 A 
ATOM     79  C   UNL A   1      45.495  25.544  35.365  1.00  0.00     0.173 A 
ATOM     80  C   UNL A   1      44.226  26.903  36.768  1.00  0.00     0.173 A 
ATOM     81  F   UNL A   1      45.847  24.926  34.234  1.00  0.00    -0.203 F 
ATOM     82  C   UNL A   1      46.299  25.238  36.551  1.00  0.00     0.198 A 
ATOM     83  C   UNL A   1      45.006  26.618  37.913  1.00  0.00     0.198 A 
ATOM     84  F   UNL A   1      43.254  27.713  37.165  1.00  0.00    -0.203 F 
ATOM     85  F   UNL A   1      47.325  24.378  36.460  1.00  0.00    -0.200 F 
ATOM     86  C   UNL A   1      46.070  25.792  37.804  1.00  0.00     0.200 A 
ATOM     87  F   UNL A   1      44.688  27.175  39.098  1.00  0.00    -0.200 F 
ATOM     88  F   UNL A   1      46.834  25.535  38.878  1.00  0.00    -0.200 F 
ENDBRANCH  54  78
BRANCH  66  89
ATOM     89  C   UNL A   1      44.387  31.771  33.801  1.00  0.00     0.064 A 
ATOM     90  C   UNL A   1      44.861  32.663  34.767  1.00  0.00     0.173 A 
ATOM     91  C   UNL A   1      43.005  31.512  33.817  1.00  0.00     0.173 A 
ATOM     92  F   UNL A   1      46.178  32.893  34.862  1.00  0.00    -0.203 F 
ATOM     93  C   UNL A   1      43.999  33.289  35.671  1.00  0.00     0.198 A 
ATOM     94  C   UNL A   1      42.132  32.154  34.701  1.00  0.00     0.198 A 
ATOM     95  F   UNL A   1      42.511  30.570  33.011  1.00  0.00    -0.203 F 
ATOM     96  F   UNL A   1      44.497  34.119  36.597  1.00  0.00    -0.200 F 
ATOM     97  C   UNL A   1      42.634  33.044  35.632  1.00  0.00     0.200 A 
ATOM     98  F   UNL A   1      40.815  31.899  34.661  1.00  0.00    -0.200 F 
ATOM     99  F   UNL A   1      41.811  33.652  36.498  1.00  0.00    -0.200 F 
ENDBRANCH  66  89
ENDBRANCH  40  41
ENDBRANCH  32  35
ENDBRANCH  30  31
ENDBRANCH  29  30
ENDBRANCH   1  29
TORSDOF 14
ENDMDL
