MODEL 1
REMARK VINA RESULT:     -11.3      0.000      0.000
REMARK SMILES CC(C)N(CCC#N)C(=O)c1ccncc1/C=C/C(=O)NCCCNC(=O)c1ccc(-c2c3nc(c(-c4c(F)c(F)c(F)c(F)c4F)c4ccc([nH]4)c(-c4c(F)c(F)c(F)c(F)c4F)c4nc(c(-c5c(F)c(F)c(F)c(F)c5F)c5ccc2[nH]5)C=C4)C=C3)cc1
REMARK SMILES IDX 19 1 20 2 21 3 18 5 17 6 16 7 11 8 12 9 13 10 15 11 14 12
REMARK SMILES IDX 9 13 10 14 4 15 2 16 1 17 3 18 5 19 6 20 7 21 8 22 22 23
REMARK SMILES IDX 23 24 24 25 25 26 26 27 27 29 28 30 29 31 90 32 30 33 89 34
REMARK SMILES IDX 31 35 32 36 33 37 83 38 34 39 88 40 82 41 84 42 35 43 87 44
REMARK SMILES IDX 81 45 80 46 36 48 68 49 48 50 67 51 49 52 52 53 66 54 85 55
REMARK SMILES IDX 50 56 51 57 65 59 86 60 53 61 37 62 38 63 46 64 39 65 40 66
REMARK SMILES IDX 44 67 47 68 41 69 42 70 45 71 43 72 69 73 70 74 78 75 71 76
REMARK SMILES IDX 72 77 76 78 79 79 73 80 74 81 77 82 75 83 54 84 55 85 63 86
REMARK SMILES IDX 56 87 57 88 61 89 64 90 58 91 59 92 62 93 60 94
REMARK H PARENT 21 4 25 28 84 47 52 58
REMARK Flexibility Score: inf
ROOT
ATOM      1  C   UNL A   1      32.912  26.197  21.806  1.00  0.00     0.244 C 
ATOM      2  O   UNL A   1      33.277  25.507  20.859  1.00  0.00    -0.270 OA
ATOM      3  N   UNL A   1      33.076  27.546  21.776  1.00  0.00    -0.352 N 
ATOM      4  H   UNL A   1      33.470  27.909  20.950  1.00  0.00     0.163 HD
ENDROOT
BRANCH   1   5
ATOM      5  C   UNL A   1      32.454  25.551  23.053  1.00  0.00     0.072 C 
ATOM      6  C   UNL A   1      33.061  24.563  23.732  1.00  0.00     0.016 C 
BRANCH   6   7
ATOM      7  C   UNL A   1      32.326  23.995  24.870  1.00  0.00     0.006 A 
ATOM      8  C   UNL A   1      31.854  22.659  24.946  1.00  0.00     0.050 A 
ATOM      9  C   UNL A   1      30.746  22.441  25.764  1.00  0.00     0.034 A 
ATOM     10  C   UNL A   1      30.335  23.436  26.643  1.00  0.00     0.112 A 
ATOM     11  C   UNL A   1      31.867  24.911  25.822  1.00  0.00     0.119 A 
ATOM     12  N   UNL A   1      30.900  24.650  26.724  1.00  0.00    -0.264 NA
BRANCH   8  13
ATOM     13  C   UNL A   1      32.563  21.523  24.221  1.00  0.00     0.254 C 
ATOM     14  O   UNL A   1      32.411  21.471  23.001  1.00  0.00    -0.269 OA
BRANCH  13  15
ATOM     15  N   UNL A   1      33.438  20.573  24.836  1.00  0.00    -0.335 N 
BRANCH  15  16
ATOM     16  C   UNL A   1      34.794  21.038  25.271  1.00  0.00     0.079 C 
ATOM     17  C   UNL A   1      35.536  21.912  24.250  1.00  0.00     0.031 C 
ATOM     18  C   UNL A   1      34.789  21.709  26.647  1.00  0.00     0.031 C 
ENDBRANCH  15  16
BRANCH  15  19
ATOM     19  C   UNL A   1      33.091  19.200  25.275  1.00  0.00     0.135 C 
BRANCH  19  20
ATOM     20  C   UNL A   1      33.699  18.044  24.476  1.00  0.00     0.141 C 
BRANCH  20  21
ATOM     21  C   UNL A   1      33.019  17.903  23.124  1.00  0.00     0.064 C 
ATOM     22  N   UNL A   1      32.455  17.786  22.004  1.00  0.00    -0.198 NA
ENDBRANCH  20  21
ENDBRANCH  19  20
ENDBRANCH  15  19
ENDBRANCH  13  15
ENDBRANCH   8  13
ENDBRANCH   6   7
ENDBRANCH   1   5
BRANCH   3  23
ATOM     23  C   UNL A   1      32.752  28.523  22.794  1.00  0.00     0.118 C 
BRANCH  23  24
ATOM     24  C   UNL A   1      33.919  28.827  23.724  1.00  0.00     0.042 C 
BRANCH  24  25
ATOM     25  C   UNL A   1      33.537  28.801  25.196  1.00  0.00     0.118 C 
BRANCH  25  26
ATOM     26  N   UNL A   1      33.084  30.104  25.675  1.00  0.00    -0.352 N 
ATOM     27  C   UNL A   1      33.429  30.839  26.777  1.00  0.00     0.251 C 
ATOM     28  H   UNL A   1      32.406  30.531  25.102  1.00  0.00     0.163 HD
ATOM     29  O   UNL A   1      32.733  31.794  27.108  1.00  0.00    -0.269 OA
BRANCH  27  30
ATOM     30  C   UNL A   1      34.634  30.506  27.560  1.00  0.00     0.039 A 
ATOM     31  C   UNL A   1      35.675  31.436  27.633  1.00  0.00     0.014 A 
ATOM     32  C   UNL A   1      34.770  29.257  28.167  1.00  0.00     0.014 A 
ATOM     33  C   UNL A   1      36.833  31.126  28.346  1.00  0.00     0.010 A 
ATOM     34  C   UNL A   1      35.868  28.994  28.971  1.00  0.00     0.010 A 
ATOM     35  C   UNL A   1      36.925  29.910  29.040  1.00  0.00    -0.014 A 
BRANCH  35  36
ATOM     36  C   UNL A   1      38.141  29.538  29.799  1.00  0.00     0.031 A 
ATOM     37  C   UNL A   1      38.361  30.109  31.174  1.00  0.00     0.074 A 
ATOM     38  C   UNL A   1      39.075  28.759  29.225  1.00  0.00     0.049 A 
ATOM     39  N   UNL A   1      39.395  29.991  31.967  1.00  0.00    -0.248 NA
ATOM     40  C   UNL A   1      37.290  30.964  31.711  1.00  0.00     0.031 C 
ATOM     41  C   UNL A   1      38.992  28.191  27.879  1.00  0.00     0.029 A 
ATOM     42  N   UNL A   1      40.283  28.318  29.700  1.00  0.00    -0.354 N 
ATOM     43  C   UNL A   1      39.112  30.781  33.073  1.00  0.00     0.074 A 
ATOM     44  C   UNL A   1      37.843  31.426  32.821  1.00  0.00     0.031 C 
ATOM     45  C   UNL A   1      40.083  27.444  27.652  1.00  0.00     0.029 A 
ATOM     46  C   UNL A   1      40.960  27.517  28.816  1.00  0.00     0.049 A 
ATOM     47  H   UNL A   1      40.631  28.553  30.591  1.00  0.00     0.167 HD
ATOM     48  C   UNL A   1      39.830  30.931  34.211  1.00  0.00     0.037 A 
ATOM     49  C   UNL A   1      42.154  26.910  28.938  1.00  0.00     0.037 A 
ATOM     50  C   UNL A   1      41.073  30.253  34.467  1.00  0.00     0.049 A 
ATOM     51  C   UNL A   1      42.930  27.079  30.215  1.00  0.00     0.074 A 
ATOM     52  C   UNL A   1      41.852  30.275  35.608  1.00  0.00     0.029 A 
ATOM     53  N   UNL A   1      41.718  29.427  33.556  1.00  0.00    -0.354 N 
ATOM     54  N   UNL A   1      42.624  27.772  31.285  1.00  0.00    -0.248 NA
ATOM     55  C   UNL A   1      44.214  26.373  30.303  1.00  0.00     0.031 C 
ATOM     56  C   UNL A   1      42.994  29.501  35.371  1.00  0.00     0.029 A 
ATOM     57  C   UNL A   1      42.897  28.949  34.103  1.00  0.00     0.049 A 
ATOM     58  H   UNL A   1      41.386  29.213  32.653  1.00  0.00     0.167 HD
ATOM     59  C   UNL A   1      43.655  27.556  32.189  1.00  0.00     0.074 A 
ATOM     60  C   UNL A   1      44.594  26.662  31.540  1.00  0.00     0.031 C 
ATOM     61  C   UNL A   1      43.811  28.050  33.443  1.00  0.00     0.037 A 
BRANCH  48  62
ATOM     62  C   UNL A   1      39.283  31.867  35.253  1.00  0.00     0.064 A 
ATOM     63  C   UNL A   1      39.571  33.241  35.239  1.00  0.00     0.173 A 
ATOM     64  C   UNL A   1      38.471  31.383  36.289  1.00  0.00     0.173 A 
ATOM     65  F   UNL A   1      40.353  33.759  34.279  1.00  0.00    -0.203 F 
ATOM     66  C   UNL A   1      39.110  34.083  36.248  1.00  0.00     0.198 A 
ATOM     67  C   UNL A   1      37.980  32.235  37.276  1.00  0.00     0.198 A 
ATOM     68  F   UNL A   1      38.157  30.079  36.351  1.00  0.00    -0.203 F 
ATOM     69  F   UNL A   1      39.464  35.376  36.253  1.00  0.00    -0.200 F 
ATOM     70  C   UNL A   1      38.312  33.580  37.263  1.00  0.00     0.200 A 
ATOM     71  F   UNL A   1      37.196  31.749  38.248  1.00  0.00    -0.200 F 
ATOM     72  F   UNL A   1      37.873  34.390  38.236  1.00  0.00    -0.200 F 
ENDBRANCH  48  62
BRANCH  49  73
ATOM     73  C   UNL A   1      42.651  26.037  27.845  1.00  0.00     0.064 A 
ATOM     74  C   UNL A   1      42.240  24.700  27.757  1.00  0.00     0.173 A 
ATOM     75  C   UNL A   1      43.519  26.520  26.853  1.00  0.00     0.173 A 
ATOM     76  F   UNL A   1      41.422  24.189  28.689  1.00  0.00    -0.203 F 
ATOM     77  C   UNL A   1      42.688  23.874  26.728  1.00  0.00     0.198 A 
ATOM     78  C   UNL A   1      43.944  25.701  25.810  1.00  0.00     0.198 A 
ATOM     79  F   UNL A   1      43.931  27.795  26.885  1.00  0.00    -0.203 F 
ATOM     80  F   UNL A   1      42.305  22.591  26.687  1.00  0.00    -0.200 F 
ATOM     81  C   UNL A   1      43.534  24.378  25.751  1.00  0.00     0.200 A 
ATOM     82  F   UNL A   1      44.746  26.196  24.857  1.00  0.00    -0.200 F 
ATOM     83  F   UNL A   1      43.954  23.587  24.754  1.00  0.00    -0.200 F 
ENDBRANCH  49  73
BRANCH  61  84
ATOM     84  C   UNL A   1      45.013  27.591  34.217  1.00  0.00     0.064 A 
ATOM     85  C   UNL A   1      46.221  28.302  34.200  1.00  0.00     0.173 A 
ATOM     86  C   UNL A   1      44.939  26.439  35.016  1.00  0.00     0.173 A 
ATOM     87  F   UNL A   1      46.347  29.401  33.441  1.00  0.00    -0.203 F 
ATOM     88  C   UNL A   1      47.320  27.861  34.932  1.00  0.00     0.198 A 
ATOM     89  C   UNL A   1      46.028  26.021  35.773  1.00  0.00     0.198 A 
ATOM     90  F   UNL A   1      43.803  25.727  35.072  1.00  0.00    -0.203 F 
ATOM     91  F   UNL A   1      48.481  28.526  34.860  1.00  0.00    -0.200 F 
ATOM     92  C   UNL A   1      47.221  26.726  35.723  1.00  0.00     0.200 A 
ATOM     93  F   UNL A   1      45.925  24.932  36.548  1.00  0.00    -0.200 F 
ATOM     94  F   UNL A   1      48.277  26.307  36.432  1.00  0.00    -0.200 F 
ENDBRANCH  61  84
ENDBRANCH  35  36
ENDBRANCH  27  30
ENDBRANCH  25  26
ENDBRANCH  24  25
ENDBRANCH  23  24
ENDBRANCH   3  23
TORSDOF 17
ENDMDL
MODEL 2
REMARK VINA RESULT:     -11.2      2.360      7.885
REMARK SMILES CC(C)N(CCC#N)C(=O)c1ccncc1/C=C/C(=O)NCCCNC(=O)c1ccc(-c2c3nc(c(-c4c(F)c(F)c(F)c(F)c4F)c4ccc([nH]4)c(-c4c(F)c(F)c(F)c(F)c4F)c4nc(c(-c5c(F)c(F)c(F)c(F)c5F)c5ccc2[nH]5)C=C4)C=C3)cc1
REMARK SMILES IDX 19 1 20 2 21 3 18 5 17 6 16 7 11 8 12 9 13 10 15 11 14 12
REMARK SMILES IDX 9 13 10 14 4 15 2 16 1 17 3 18 5 19 6 20 7 21 8 22 22 23
REMARK SMILES IDX 23 24 24 25 25 26 26 27 27 29 28 30 29 31 90 32 30 33 89 34
REMARK SMILES IDX 31 35 32 36 33 37 83 38 34 39 88 40 82 41 84 42 35 43 87 44
REMARK SMILES IDX 81 45 80 46 36 48 68 49 48 50 67 51 49 52 52 53 66 54 85 55
REMARK SMILES IDX 50 56 51 57 65 59 86 60 53 61 37 62 38 63 46 64 39 65 40 66
REMARK SMILES IDX 44 67 47 68 41 69 42 70 45 71 43 72 69 73 70 74 78 75 71 76
REMARK SMILES IDX 72 77 76 78 79 79 73 80 74 81 77 82 75 83 54 84 55 85 63 86
REMARK SMILES IDX 56 87 57 88 61 89 64 90 58 91 59 92 62 93 60 94
REMARK H PARENT 21 4 25 28 84 47 52 58
REMARK Flexibility Score: inf
ROOT
ATOM      1  C   UNL A   1      33.654  29.146  26.789  1.00  0.00     0.244 C 
ATOM      2  O   UNL A   1      34.813  28.956  27.142  1.00  0.00    -0.270 OA
ATOM      3  N   UNL A   1      33.049  30.340  27.029  1.00  0.00    -0.352 N 
ATOM      4  H   UNL A   1      33.610  31.022  27.465  1.00  0.00     0.163 HD
ENDROOT
BRANCH   1   5
ATOM      5  C   UNL A   1      32.853  28.023  26.262  1.00  0.00     0.072 C 
ATOM      6  C   UNL A   1      33.226  27.112  25.346  1.00  0.00     0.016 C 
BRANCH   6   7
ATOM      7  C   UNL A   1      32.191  26.178  24.884  1.00  0.00     0.006 A 
ATOM      8  C   UNL A   1      32.362  25.224  23.848  1.00  0.00     0.050 A 
ATOM      9  C   UNL A   1      31.207  24.839  23.166  1.00  0.00     0.034 A 
ATOM     10  C   UNL A   1      29.962  25.176  23.680  1.00  0.00     0.112 A 
ATOM     11  C   UNL A   1      30.893  26.423  25.346  1.00  0.00     0.119 A 
ATOM     12  N   UNL A   1      29.777  25.920  24.782  1.00  0.00    -0.264 NA
BRANCH   8  13
ATOM     13  C   UNL A   1      33.724  24.615  23.545  1.00  0.00     0.254 C 
ATOM     14  O   UNL A   1      34.319  25.060  22.564  1.00  0.00    -0.269 OA
BRANCH  13  15
ATOM     15  N   UNL A   1      34.383  23.633  24.350  1.00  0.00    -0.335 N 
BRANCH  15  16
ATOM     16  C   UNL A   1      35.880  23.621  24.368  1.00  0.00     0.079 C 
ATOM     17  C   UNL A   1      36.515  23.989  25.715  1.00  0.00     0.031 C 
ATOM     18  C   UNL A   1      36.479  22.318  23.832  1.00  0.00     0.031 C 
ENDBRANCH  15  16
BRANCH  15  19
ATOM     19  C   UNL A   1      33.751  22.724  25.336  1.00  0.00     0.135 C 
BRANCH  19  20
ATOM     20  C   UNL A   1      33.472  23.298  26.727  1.00  0.00     0.141 C 
BRANCH  20  21
ATOM     21  C   UNL A   1      31.981  23.291  27.027  1.00  0.00     0.064 C 
ATOM     22  N   UNL A   1      30.746  23.285  27.277  1.00  0.00    -0.198 NA
ENDBRANCH  20  21
ENDBRANCH  19  20
ENDBRANCH  15  19
ENDBRANCH  13  15
ENDBRANCH   8  13
ENDBRANCH   6   7
ENDBRANCH   1   5
BRANCH   3  23
ATOM     23  C   UNL A   1      31.692  30.747  26.731  1.00  0.00     0.118 C 
BRANCH  23  24
ATOM     24  C   UNL A   1      31.469  32.245  26.887  1.00  0.00     0.042 C 
BRANCH  24  25
ATOM     25  C   UNL A   1      32.762  33.032  27.034  1.00  0.00     0.118 C 
BRANCH  25  26
ATOM     26  N   UNL A   1      32.548  34.346  27.635  1.00  0.00    -0.352 N 
ATOM     27  C   UNL A   1      33.046  34.918  28.773  1.00  0.00     0.251 C 
ATOM     28  H   UNL A   1      31.933  34.924  27.128  1.00  0.00     0.163 HD
ATOM     29  O   UNL A   1      32.530  35.943  29.210  1.00  0.00    -0.269 OA
BRANCH  27  30
ATOM     30  C   UNL A   1      34.204  34.327  29.472  1.00  0.00     0.039 A 
ATOM     31  C   UNL A   1      35.494  34.670  29.057  1.00  0.00     0.014 A 
ATOM     32  C   UNL A   1      34.023  33.390  30.489  1.00  0.00     0.014 A 
ATOM     33  C   UNL A   1      36.599  34.098  29.689  1.00  0.00     0.010 A 
ATOM     34  C   UNL A   1      35.117  32.911  31.193  1.00  0.00     0.010 A 
ATOM     35  C   UNL A   1      36.416  33.233  30.778  1.00  0.00    -0.014 A 
BRANCH  35  36
ATOM     36  C   UNL A   1      37.562  32.598  31.468  1.00  0.00     0.031 A 
ATOM     37  C   UNL A   1      38.285  31.455  30.809  1.00  0.00     0.074 A 
ATOM     38  C   UNL A   1      37.896  32.994  32.709  1.00  0.00     0.049 A 
ATOM     39  N   UNL A   1      39.246  30.700  31.276  1.00  0.00    -0.248 NA
ATOM     40  C   UNL A   1      37.836  31.084  29.456  1.00  0.00     0.031 C 
ATOM     41  C   UNL A   1      37.233  34.056  33.466  1.00  0.00     0.029 A 
ATOM     42  N   UNL A   1      38.874  32.540  33.556  1.00  0.00    -0.354 N 
ATOM     43  C   UNL A   1      39.489  29.751  30.292  1.00  0.00     0.074 A 
ATOM     44  C   UNL A   1      38.532  29.981  29.233  1.00  0.00     0.031 C 
ATOM     45  C   UNL A   1      37.849  34.199  34.650  1.00  0.00     0.029 A 
ATOM     46  C   UNL A   1      38.918  33.212  34.752  1.00  0.00     0.049 A 
ATOM     47  H   UNL A   1      39.486  31.804  33.328  1.00  0.00     0.167 HD
ATOM     48  C   UNL A   1      40.445  28.793  30.259  1.00  0.00     0.037 A 
ATOM     49  C   UNL A   1      39.735  33.046  35.807  1.00  0.00     0.037 A 
ATOM     50  C   UNL A   1      41.417  28.598  31.302  1.00  0.00     0.049 A 
ATOM     51  C   UNL A   1      40.799  31.985  35.746  1.00  0.00     0.074 A 
ATOM     52  C   UNL A   1      42.472  27.707  31.347  1.00  0.00     0.029 A 
ATOM     53  N   UNL A   1      41.448  29.316  32.491  1.00  0.00    -0.354 N 
ATOM     54  N   UNL A   1      41.067  31.135  34.784  1.00  0.00    -0.248 NA
ATOM     55  C   UNL A   1      41.678  31.866  36.916  1.00  0.00     0.031 C 
ATOM     56  C   UNL A   1      43.112  27.850  32.583  1.00  0.00     0.029 A 
ATOM     57  C   UNL A   1      42.492  28.873  33.284  1.00  0.00     0.049 A 
ATOM     58  H   UNL A   1      40.819  30.035  32.733  1.00  0.00     0.167 HD
ATOM     59  C   UNL A   1      42.168  30.407  35.213  1.00  0.00     0.074 A 
ATOM     60  C   UNL A   1      42.520  30.920  36.522  1.00  0.00     0.031 C 
ATOM     61  C   UNL A   1      42.831  29.407  34.580  1.00  0.00     0.037 A 
BRANCH  48  62
ATOM     62  C   UNL A   1      40.472  27.886  29.059  1.00  0.00     0.064 A 
ATOM     63  C   UNL A   1      41.249  28.179  27.927  1.00  0.00     0.173 A 
ATOM     64  C   UNL A   1      39.701  26.715  29.036  1.00  0.00     0.173 A 
ATOM     65  F   UNL A   1      41.997  29.292  27.889  1.00  0.00    -0.203 F 
ATOM     66  C   UNL A   1      41.212  27.362  26.799  1.00  0.00     0.198 A 
ATOM     67  C   UNL A   1      39.696  25.880  27.921  1.00  0.00     0.198 A 
ATOM     68  F   UNL A   1      38.944  26.381  30.092  1.00  0.00    -0.203 F 
ATOM     69  F   UNL A   1      41.902  27.706  25.703  1.00  0.00    -0.200 F 
ATOM     70  C   UNL A   1      40.439  26.212  26.798  1.00  0.00     0.200 A 
ATOM     71  F   UNL A   1      38.960  24.761  27.927  1.00  0.00    -0.200 F 
ATOM     72  F   UNL A   1      40.400  25.429  25.712  1.00  0.00    -0.200 F 
ENDBRANCH  48  62
BRANCH  49  73
ATOM     73  C   UNL A   1      39.616  33.950  36.979  1.00  0.00     0.064 A 
ATOM     74  C   UNL A   1      38.883  33.561  38.108  1.00  0.00     0.173 A 
ATOM     75  C   UNL A   1      40.249  35.202  37.011  1.00  0.00     0.173 A 
ATOM     76  F   UNL A   1      38.249  32.379  38.120  1.00  0.00    -0.203 F 
ATOM     77  C   UNL A   1      38.775  34.394  39.219  1.00  0.00     0.198 A 
ATOM     78  C   UNL A   1      40.163  36.022  38.134  1.00  0.00     0.198 A 
ATOM     79  F   UNL A   1      40.973  35.616  35.961  1.00  0.00    -0.203 F 
ATOM     80  F   UNL A   1      38.040  34.011  40.273  1.00  0.00    -0.200 F 
ATOM     81  C   UNL A   1      39.421  35.621  39.234  1.00  0.00     0.200 A 
ATOM     82  F   UNL A   1      40.804  37.199  38.152  1.00  0.00    -0.200 F 
ATOM     83  F   UNL A   1      39.327  36.417  40.308  1.00  0.00    -0.200 F 
ENDBRANCH  49  73
BRANCH  61  84
ATOM     84  C   UNL A   1      44.037  28.839  35.270  1.00  0.00     0.064 A 
ATOM     85  C   UNL A   1      45.324  29.355  35.059  1.00  0.00     0.173 A 
ATOM     86  C   UNL A   1      43.894  27.784  36.186  1.00  0.00     0.173 A 
ATOM     87  F   UNL A   1      45.516  30.353  34.183  1.00  0.00    -0.203 F 
ATOM     88  C   UNL A   1      46.426  28.817  35.717  1.00  0.00     0.198 A 
ATOM     89  C   UNL A   1      44.993  27.272  36.867  1.00  0.00     0.198 A 
ATOM     90  F   UNL A   1      42.683  27.260  36.429  1.00  0.00    -0.203 F 
ATOM     91  F   UNL A   1      47.654  29.289  35.461  1.00  0.00    -0.200 F 
ATOM     92  C   UNL A   1      46.260  27.782  36.625  1.00  0.00     0.200 A 
ATOM     93  F   UNL A   1      44.827  26.282  37.755  1.00  0.00    -0.200 F 
ATOM     94  F   UNL A   1      47.321  27.269  37.262  1.00  0.00    -0.200 F 
ENDBRANCH  61  84
ENDBRANCH  35  36
ENDBRANCH  27  30
ENDBRANCH  25  26
ENDBRANCH  24  25
ENDBRANCH  23  24
ENDBRANCH   3  23
TORSDOF 17
ENDMDL
MODEL 3
REMARK VINA RESULT:     -11.1      2.161      3.315
REMARK SMILES CC(C)N(CCC#N)C(=O)c1ccncc1/C=C/C(=O)NCCCNC(=O)c1ccc(-c2c3nc(c(-c4c(F)c(F)c(F)c(F)c4F)c4ccc([nH]4)c(-c4c(F)c(F)c(F)c(F)c4F)c4nc(c(-c5c(F)c(F)c(F)c(F)c5F)c5ccc2[nH]5)C=C4)C=C3)cc1
REMARK SMILES IDX 19 1 20 2 21 3 18 5 17 6 16 7 11 8 12 9 13 10 15 11 14 12
REMARK SMILES IDX 9 13 10 14 4 15 2 16 1 17 3 18 5 19 6 20 7 21 8 22 22 23
REMARK SMILES IDX 23 24 24 25 25 26 26 27 27 29 28 30 29 31 90 32 30 33 89 34
REMARK SMILES IDX 31 35 32 36 33 37 83 38 34 39 88 40 82 41 84 42 35 43 87 44
REMARK SMILES IDX 81 45 80 46 36 48 68 49 48 50 67 51 49 52 52 53 66 54 85 55
REMARK SMILES IDX 50 56 51 57 65 59 86 60 53 61 37 62 38 63 46 64 39 65 40 66
REMARK SMILES IDX 44 67 47 68 41 69 42 70 45 71 43 72 69 73 70 74 78 75 71 76
REMARK SMILES IDX 72 77 76 78 79 79 73 80 74 81 77 82 75 83 54 84 55 85 63 86
REMARK SMILES IDX 56 87 57 88 61 89 64 90 58 91 59 92 62 93 60 94
REMARK H PARENT 21 4 25 28 84 47 52 58
REMARK Flexibility Score: inf
ROOT
ATOM      1  C   UNL A   1      33.766  29.115  26.873  1.00  0.00     0.244 C 
ATOM      2  O   UNL A   1      34.928  28.967  27.237  1.00  0.00    -0.270 OA
ATOM      3  N   UNL A   1      33.122  30.292  27.092  1.00  0.00    -0.352 N 
ATOM      4  H   UNL A   1      33.658  30.997  27.522  1.00  0.00     0.163 HD
ENDROOT
BRANCH   1   5
ATOM      5  C   UNL A   1      33.005  27.960  26.356  1.00  0.00     0.072 C 
ATOM      6  C   UNL A   1      33.369  27.115  25.375  1.00  0.00     0.016 C 
BRANCH   6   7
ATOM      7  C   UNL A   1      32.367  26.129  24.949  1.00  0.00     0.006 A 
ATOM      8  C   UNL A   1      32.594  25.099  23.999  1.00  0.00     0.050 A 
ATOM      9  C   UNL A   1      31.475  24.640  23.305  1.00  0.00     0.034 A 
ATOM     10  C   UNL A   1      30.204  24.995  23.741  1.00  0.00     0.112 A 
ATOM     11  C   UNL A   1      31.048  26.386  25.337  1.00  0.00     0.119 A 
ATOM     12  N   UNL A   1      29.963  25.821  24.772  1.00  0.00    -0.264 NA
BRANCH   8  13
ATOM     13  C   UNL A   1      33.977  24.493  23.801  1.00  0.00     0.254 C 
ATOM     14  O   UNL A   1      34.475  24.615  22.682  1.00  0.00    -0.269 OA
BRANCH  13  15
ATOM     15  N   UNL A   1      34.755  23.867  24.826  1.00  0.00    -0.335 N 
BRANCH  15  16
ATOM     16  C   UNL A   1      36.227  23.711  24.599  1.00  0.00     0.079 C 
ATOM     17  C   UNL A   1      37.089  23.781  25.868  1.00  0.00     0.031 C 
ATOM     18  C   UNL A   1      36.583  22.468  23.779  1.00  0.00     0.031 C 
ENDBRANCH  15  16
BRANCH  15  19
ATOM     19  C   UNL A   1      34.304  23.515  26.193  1.00  0.00     0.135 C 
BRANCH  19  20
ATOM     20  C   UNL A   1      33.264  22.397  26.312  1.00  0.00     0.141 C 
BRANCH  20  21
ATOM     21  C   UNL A   1      31.958  22.931  26.877  1.00  0.00     0.064 C 
ATOM     22  N   UNL A   1      30.875  23.372  27.346  1.00  0.00    -0.198 NA
ENDBRANCH  20  21
ENDBRANCH  19  20
ENDBRANCH  15  19
ENDBRANCH  13  15
ENDBRANCH   8  13
ENDBRANCH   6   7
ENDBRANCH   1   5
BRANCH   3  23
ATOM     23  C   UNL A   1      31.755  30.651  26.777  1.00  0.00     0.118 C 
BRANCH  23  24
ATOM     24  C   UNL A   1      31.482  32.143  26.916  1.00  0.00     0.042 C 
BRANCH  24  25
ATOM     25  C   UNL A   1      32.747  32.988  26.904  1.00  0.00     0.118 C 
BRANCH  25  26
ATOM     26  N   UNL A   1      32.586  34.239  27.640  1.00  0.00    -0.352 N 
ATOM     27  C   UNL A   1      33.132  34.681  28.815  1.00  0.00     0.251 C 
ATOM     28  H   UNL A   1      31.973  34.881  27.214  1.00  0.00     0.163 HD
ATOM     29  O   UNL A   1      32.657  35.668  29.369  1.00  0.00    -0.269 OA
BRANCH  27  30
ATOM     30  C   UNL A   1      34.292  33.994  29.414  1.00  0.00     0.039 A 
ATOM     31  C   UNL A   1      35.581  34.407  29.064  1.00  0.00     0.014 A 
ATOM     32  C   UNL A   1      34.115  32.905  30.268  1.00  0.00     0.014 A 
ATOM     33  C   UNL A   1      36.688  33.749  29.600  1.00  0.00     0.010 A 
ATOM     34  C   UNL A   1      35.211  32.328  30.890  1.00  0.00     0.010 A 
ATOM     35  C   UNL A   1      36.509  32.720  30.536  1.00  0.00    -0.014 A 
BRANCH  35  36
ATOM     36  C   UNL A   1      37.658  31.991  31.121  1.00  0.00     0.031 A 
ATOM     37  C   UNL A   1      38.121  32.328  32.511  1.00  0.00     0.074 A 
ATOM     38  C   UNL A   1      38.325  31.091  30.376  1.00  0.00     0.049 A 
ATOM     39  N   UNL A   1      39.159  31.882  33.172  1.00  0.00    -0.248 NA
ATOM     40  C   UNL A   1      37.336  33.337  33.241  1.00  0.00     0.031 C 
ATOM     41  C   UNL A   1      37.997  30.721  28.999  1.00  0.00     0.029 A 
ATOM     42  N   UNL A   1      39.426  30.331  30.673  1.00  0.00    -0.354 N 
ATOM     43  C   UNL A   1      39.166  32.579  34.373  1.00  0.00     0.074 A 
ATOM     44  C   UNL A   1      38.073  33.524  34.324  1.00  0.00     0.031 C 
ATOM     45  C   UNL A   1      38.854  29.776  28.584  1.00  0.00     0.029 A 
ATOM     46  C   UNL A   1      39.815  29.506  29.648  1.00  0.00     0.049 A 
ATOM     47  H   UNL A   1      39.893  30.371  31.539  1.00  0.00     0.167 HD
ATOM     48  C   UNL A   1      39.991  32.423  35.436  1.00  0.00     0.037 A 
ATOM     49  C   UNL A   1      40.834  28.630  29.582  1.00  0.00     0.037 A 
ATOM     50  C   UNL A   1      41.051  31.452  35.489  1.00  0.00     0.049 A 
ATOM     51  C   UNL A   1      41.730  28.462  30.777  1.00  0.00     0.074 A 
ATOM     52  C   UNL A   1      41.904  31.158  36.536  1.00  0.00     0.029 A 
ATOM     53  N   UNL A   1      41.400  30.613  34.439  1.00  0.00    -0.354 N 
ATOM     54  N   UNL A   1      41.690  29.075  31.936  1.00  0.00    -0.248 NA
ATOM     55  C   UNL A   1      42.809  27.474  30.657  1.00  0.00     0.031 C 
ATOM     56  C   UNL A   1      42.802  30.175  36.103  1.00  0.00     0.029 A 
ATOM     57  C   UNL A   1      42.470  29.815  34.806  1.00  0.00     0.049 A 
ATOM     58  H   UNL A   1      40.953  30.590  33.561  1.00  0.00     0.167 HD
ATOM     59  C   UNL A   1      42.710  28.522  32.697  1.00  0.00     0.074 A 
ATOM     60  C   UNL A   1      43.349  27.519  31.868  1.00  0.00     0.031 C 
ATOM     61  C   UNL A   1      43.083  28.814  33.968  1.00  0.00     0.037 A 
BRANCH  48  62
ATOM     62  C   UNL A   1      39.774  33.330  36.616  1.00  0.00     0.064 A 
ATOM     63  C   UNL A   1      40.472  34.539  36.759  1.00  0.00     0.173 A 
ATOM     64  C   UNL A   1      38.865  32.979  37.625  1.00  0.00     0.173 A 
ATOM     65  F   UNL A   1      41.363  34.920  35.831  1.00  0.00    -0.203 F 
ATOM     66  C   UNL A   1      40.307  35.335  37.891  1.00  0.00     0.198 A 
ATOM     67  C   UNL A   1      38.674  33.796  38.737  1.00  0.00     0.198 A 
ATOM     68  F   UNL A   1      38.164  31.837  37.539  1.00  0.00    -0.203 F 
ATOM     69  F   UNL A   1      41.043  36.445  38.040  1.00  0.00    -0.200 F 
ATOM     70  C   UNL A   1      39.406  34.965  38.876  1.00  0.00     0.200 A 
ATOM     71  F   UNL A   1      37.791  33.444  39.681  1.00  0.00    -0.200 F 
ATOM     72  F   UNL A   1      39.250  35.729  39.966  1.00  0.00    -0.200 F 
ENDBRANCH  48  62
BRANCH  49  73
ATOM     73  C   UNL A   1      41.014  27.802  28.362  1.00  0.00     0.064 A 
ATOM     74  C   UNL A   1      41.794  28.267  27.294  1.00  0.00     0.173 A 
ATOM     75  C   UNL A   1      40.440  26.528  28.245  1.00  0.00     0.173 A 
ATOM     76  F   UNL A   1      42.353  29.484  27.354  1.00  0.00    -0.203 F 
ATOM     77  C   UNL A   1      41.983  27.494  26.150  1.00  0.00     0.198 A 
ATOM     78  C   UNL A   1      40.652  25.746  27.112  1.00  0.00     0.198 A 
ATOM     79  F   UNL A   1      39.695  26.032  29.244  1.00  0.00    -0.203 F 
ATOM     80  F   UNL A   1      42.707  27.977  25.131  1.00  0.00    -0.200 F 
ATOM     81  C   UNL A   1      41.417  26.232  26.063  1.00  0.00     0.200 A 
ATOM     82  F   UNL A   1      40.119  24.518  27.039  1.00  0.00    -0.200 F 
ATOM     83  F   UNL A   1      41.609  25.484  24.967  1.00  0.00    -0.200 F 
ENDBRANCH  49  73
BRANCH  61  84
ATOM     84  C   UNL A   1      44.199  28.002  34.560  1.00  0.00     0.064 A 
ATOM     85  C   UNL A   1      45.535  28.423  34.499  1.00  0.00     0.173 A 
ATOM     86  C   UNL A   1      43.917  26.801  35.230  1.00  0.00     0.173 A 
ATOM     87  F   UNL A   1      45.857  29.556  33.857  1.00  0.00    -0.203 F 
ATOM     88  C   UNL A   1      46.551  27.657  35.061  1.00  0.00     0.198 A 
ATOM     89  C   UNL A   1      44.932  26.055  35.821  1.00  0.00     0.198 A 
ATOM     90  F   UNL A   1      42.654  26.358  35.323  1.00  0.00    -0.203 F 
ATOM     91  F   UNL A   1      47.827  28.050  34.945  1.00  0.00    -0.200 F 
ATOM     92  C   UNL A   1      46.249  26.478  35.728  1.00  0.00     0.200 A 
ATOM     93  F   UNL A   1      44.636  24.925  36.477  1.00  0.00    -0.200 F 
ATOM     94  F   UNL A   1      47.229  25.746  36.274  1.00  0.00    -0.200 F 
ENDBRANCH  61  84
ENDBRANCH  35  36
ENDBRANCH  27  30
ENDBRANCH  25  26
ENDBRANCH  24  25
ENDBRANCH  23  24
ENDBRANCH   3  23
TORSDOF 17
ENDMDL
