MODEL 1
REMARK VINA RESULT:     -12.0      0.000      0.000
REMARK SMILES C[N@@H+]1CCC[C@@H](C(=O)N[C@H](C(=O)NCCCNC(=O)c2ccc(-c3c4nc(c(-c5c(F)c(F)c(F)c(F)c5F)c5ccc([nH]5)c(-c5c(F)c(F)c(F)c(F)c5F)c5nc(c(-c6c(F)c(F)c(F)c(F)c6F)c6ccc3[nH]6)C=C5)C=C4)cc2)c2ccccc2)C1
REMARK SMILES IDX 15 1 14 2 13 3 11 4 12 5 10 7 9 8 7 9 8 10 6 12 1 13 2 14
REMARK SMILES IDX 3 15 89 16 4 18 5 19 83 20 84 21 88 22 85 23 87 24 86 25
REMARK SMILES IDX 16 26 17 27 18 28 19 30 20 31 21 32 82 33 22 34 81 35 23 36
REMARK SMILES IDX 24 37 25 38 75 39 26 40 80 41 74 42 76 43 27 44 79 45 73 46
REMARK SMILES IDX 72 47 28 49 60 50 40 51 59 52 41 53 44 54 58 55 77 56 42 57
REMARK SMILES IDX 43 58 57 60 78 61 45 62 29 63 30 64 38 65 31 66 32 67 36 68
REMARK SMILES IDX 39 69 33 70 34 71 37 72 35 73 61 74 62 75 70 76 63 77 64 78
REMARK SMILES IDX 68 79 71 80 65 81 66 82 69 83 67 84 46 85 47 86 55 87 48 88
REMARK SMILES IDX 49 89 53 90 56 91 50 92 51 93 54 94 52 95
REMARK H PARENT 13 6 9 11 2 17 17 29 76 48 44 59
REMARK Flexibility Score: inf
ROOT
ATOM      1  C   UNL A   1      33.852  28.132  25.492  1.00  0.00     0.042 C 
ENDROOT
BRANCH   1   2
ATOM      2  C   UNL A   1      33.123  26.894  24.975  1.00  0.00     0.117 C 
BRANCH   2   3
ATOM      3  N   UNL A   1      33.344  26.654  23.554  1.00  0.00    -0.354 N 
ATOM      4  C   UNL A   1      33.654  25.488  22.893  1.00  0.00     0.247 C 
ATOM      5  O   UNL A   1      33.868  25.562  21.680  1.00  0.00    -0.272 OA
ATOM      6  H   UNL A   1      33.258  27.448  22.978  1.00  0.00     0.163 HD
BRANCH   4   7
ATOM      7  C   UNL A   1      33.755  24.157  23.678  1.00  0.00     0.202 C 
BRANCH   7   8
ATOM      8  N   UNL A   1      33.159  23.071  22.909  1.00  0.00    -0.340 N 
ATOM      9  C   UNL A   1      32.313  22.066  23.238  1.00  0.00     0.229 C 
ATOM     10  O   UNL A   1      31.967  21.329  22.305  1.00  0.00    -0.275 OA
ATOM     11  H   UNL A   1      33.425  23.068  21.962  1.00  0.00     0.164 HD
BRANCH   9  12
ATOM     12  C   UNL A   1      31.729  21.791  24.635  1.00  0.00     0.133 C 
ATOM     13  C   UNL A   1      34.277  21.633  27.459  1.00  0.00     0.332 C 
ATOM     14  N   UNL A   1      33.342  22.222  26.505  1.00  0.00    -0.337 N 
ATOM     15  C   UNL A   1      32.402  23.138  27.155  1.00  0.00     0.262 C 
ATOM     16  C   UNL A   1      32.650  21.203  25.708  1.00  0.00     0.275 C 
ATOM     17  H   UNL A   1      33.899  22.775  25.853  1.00  0.00     0.347 HD
ATOM     18  C   UNL A   1      31.533  23.863  26.125  1.00  0.00     0.062 C 
ATOM     19  C   UNL A   1      30.829  22.908  25.170  1.00  0.00     0.025 C 
ENDBRANCH   9  12
ENDBRANCH   7   8
BRANCH   7  20
ATOM     20  C   UNL A   1      35.157  23.805  24.168  1.00  0.00    -0.016 A 
ATOM     21  C   UNL A   1      35.741  24.382  25.304  1.00  0.00     0.006 A 
ATOM     22  C   UNL A   1      35.857  22.762  23.539  1.00  0.00     0.006 A 
ATOM     23  C   UNL A   1      36.905  23.842  25.864  1.00  0.00     0.000 A 
ATOM     24  C   UNL A   1      37.025  22.231  24.085  1.00  0.00     0.000 A 
ATOM     25  C   UNL A   1      37.532  22.752  25.268  1.00  0.00     0.000 A 
ENDBRANCH   7  20
ENDBRANCH   4   7
ENDBRANCH   2   3
ENDBRANCH   1   2
BRANCH   1  26
ATOM     26  C   UNL A   1      33.783  28.323  27.002  1.00  0.00     0.118 C 
BRANCH  26  27
ATOM     27  N   UNL A   1      33.653  29.721  27.381  1.00  0.00    -0.352 N 
ATOM     28  C   UNL A   1      34.526  30.527  28.074  1.00  0.00     0.251 C 
ATOM     29  H   UNL A   1      32.816  30.154  27.100  1.00  0.00     0.163 HD
ATOM     30  O   UNL A   1      34.154  31.632  28.457  1.00  0.00    -0.269 OA
BRANCH  28  31
ATOM     31  C   UNL A   1      35.902  30.070  28.388  1.00  0.00     0.039 A 
ATOM     32  C   UNL A   1      36.894  30.207  27.410  1.00  0.00     0.014 A 
ATOM     33  C   UNL A   1      36.220  29.476  29.613  1.00  0.00     0.014 A 
ATOM     34  C   UNL A   1      38.206  29.806  27.681  1.00  0.00     0.010 A 
ATOM     35  C   UNL A   1      37.544  29.152  29.912  1.00  0.00     0.010 A 
ATOM     36  C   UNL A   1      38.551  29.303  28.947  1.00  0.00    -0.014 A 
BRANCH  36  37
ATOM     37  C   UNL A   1      39.951  28.916  29.269  1.00  0.00     0.031 A 
ATOM     38  C   UNL A   1      40.826  29.836  30.077  1.00  0.00     0.074 A 
ATOM     39  C   UNL A   1      40.458  27.763  28.791  1.00  0.00     0.049 A 
ATOM     40  N   UNL A   1      42.088  29.706  30.406  1.00  0.00    -0.248 NA
ATOM     41  C   UNL A   1      40.209  31.081  30.561  1.00  0.00     0.031 C 
ATOM     42  C   UNL A   1      39.734  26.801  27.959  1.00  0.00     0.029 A 
ATOM     43  N   UNL A   1      41.707  27.207  28.929  1.00  0.00    -0.354 N 
ATOM     44  C   UNL A   1      42.417  30.855  31.112  1.00  0.00     0.074 A 
ATOM     45  C   UNL A   1      41.239  31.695  31.123  1.00  0.00     0.031 C 
ATOM     46  C   UNL A   1      40.541  25.765  27.681  1.00  0.00     0.029 A 
ATOM     47  C   UNL A   1      41.851  26.004  28.281  1.00  0.00     0.049 A 
ATOM     48  H   UNL A   1      42.431  27.632  29.443  1.00  0.00     0.167 HD
ATOM     49  C   UNL A   1      43.586  31.174  31.719  1.00  0.00     0.037 A 
ATOM     50  C   UNL A   1      42.917  25.188  28.179  1.00  0.00     0.037 A 
ATOM     51  C   UNL A   1      44.749  30.326  31.739  1.00  0.00     0.049 A 
ATOM     52  C   UNL A   1      44.204  25.563  28.863  1.00  0.00     0.074 A 
ATOM     53  C   UNL A   1      45.958  30.533  32.382  1.00  0.00     0.029 A 
ATOM     54  N   UNL A   1      44.848  29.105  31.087  1.00  0.00    -0.354 N 
ATOM     55  N   UNL A   1      44.481  26.623  29.583  1.00  0.00    -0.248 NA
ATOM     56  C   UNL A   1      45.326  24.623  28.724  1.00  0.00     0.031 C 
ATOM     57  C   UNL A   1      46.803  29.458  32.083  1.00  0.00     0.029 A 
ATOM     58  C   UNL A   1      46.104  28.559  31.294  1.00  0.00     0.049 A 
ATOM     59  H   UNL A   1      44.131  28.690  30.554  1.00  0.00     0.167 HD
ATOM     60  C   UNL A   1      45.794  26.465  30.005  1.00  0.00     0.074 A 
ATOM     61  C   UNL A   1      46.256  25.201  29.471  1.00  0.00     0.031 C 
ATOM     62  C   UNL A   1      46.549  27.295  30.766  1.00  0.00     0.037 A 
BRANCH  49  63
ATOM     63  C   UNL A   1      43.664  32.498  32.421  1.00  0.00     0.064 A 
ATOM     64  C   UNL A   1      44.085  33.660  31.756  1.00  0.00     0.173 A 
ATOM     65  C   UNL A   1      43.278  32.617  33.766  1.00  0.00     0.173 A 
ATOM     66  F   UNL A   1      44.475  33.599  30.474  1.00  0.00    -0.203 F 
ATOM     67  C   UNL A   1      44.148  34.883  32.417  1.00  0.00     0.198 A 
ATOM     68  C   UNL A   1      43.313  33.849  34.416  1.00  0.00     0.198 A 
ATOM     69  F   UNL A   1      42.859  31.540  34.447  1.00  0.00    -0.203 F 
ATOM     70  F   UNL A   1      44.602  35.968  31.775  1.00  0.00    -0.200 F 
ATOM     71  C   UNL A   1      43.756  34.978  33.744  1.00  0.00     0.200 A 
ATOM     72  F   UNL A   1      42.920  33.941  35.694  1.00  0.00    -0.200 F 
ATOM     73  F   UNL A   1      43.811  36.157  34.378  1.00  0.00    -0.200 F 
ENDBRANCH  49  63
BRANCH  50  74
ATOM     74  C   UNL A   1      42.807  23.916  27.419  1.00  0.00     0.064 A 
ATOM     75  C   UNL A   1      42.348  22.745  28.039  1.00  0.00     0.173 A 
ATOM     76  C   UNL A   1      43.161  23.840  26.064  1.00  0.00     0.173 A 
ATOM     77  F   UNL A   1      42.018  22.764  29.339  1.00  0.00    -0.203 F 
ATOM     78  C   UNL A   1      42.264  21.544  27.339  1.00  0.00     0.198 A 
ATOM     79  C   UNL A   1      43.051  22.645  25.358  1.00  0.00     0.198 A 
ATOM     80  F   UNL A   1      43.603  24.933  25.423  1.00  0.00    -0.203 F 
ATOM     81  F   UNL A   1      41.863  20.431  27.968  1.00  0.00    -0.200 F 
ATOM     82  C   UNL A   1      42.610  21.496  25.997  1.00  0.00     0.200 A 
ATOM     83  F   UNL A   1      43.374  22.605  24.058  1.00  0.00    -0.200 F 
ATOM     84  F   UNL A   1      42.527  20.341  25.322  1.00  0.00    -0.200 F 
ENDBRANCH  50  74
BRANCH  62  85
ATOM     85  C   UNL A   1      47.942  26.848  31.099  1.00  0.00     0.064 A 
ATOM     86  C   UNL A   1      48.207  26.017  32.197  1.00  0.00     0.173 A 
ATOM     87  C   UNL A   1      49.021  27.224  30.285  1.00  0.00     0.173 A 
ATOM     88  F   UNL A   1      47.211  25.643  33.015  1.00  0.00    -0.203 F 
ATOM     89  C   UNL A   1      49.504  25.597  32.480  1.00  0.00     0.198 A 
ATOM     90  C   UNL A   1      50.312  26.779  30.554  1.00  0.00     0.198 A 
ATOM     91  F   UNL A   1      48.821  28.013  29.218  1.00  0.00    -0.203 F 
ATOM     92  F   UNL A   1      49.740  24.840  33.561  1.00  0.00    -0.200 F 
ATOM     93  C   UNL A   1      50.554  25.973  31.655  1.00  0.00     0.200 A 
ATOM     94  F   UNL A   1      51.323  27.133  29.749  1.00  0.00    -0.200 F 
ATOM     95  F   UNL A   1      51.800  25.562  31.926  1.00  0.00    -0.200 F 
ENDBRANCH  62  85
ENDBRANCH  36  37
ENDBRANCH  28  31
ENDBRANCH  26  27
ENDBRANCH   1  26
TORSDOF 13
ENDMDL
MODEL 2
REMARK VINA RESULT:     -11.9      3.040      4.522
REMARK SMILES C[N@@H+]1CCC[C@@H](C(=O)N[C@H](C(=O)NCCCNC(=O)c2ccc(-c3c4nc(c(-c5c(F)c(F)c(F)c(F)c5F)c5ccc([nH]5)c(-c5c(F)c(F)c(F)c(F)c5F)c5nc(c(-c6c(F)c(F)c(F)c(F)c6F)c6ccc3[nH]6)C=C5)C=C4)cc2)c2ccccc2)C1
REMARK SMILES IDX 15 1 14 2 13 3 11 4 12 5 10 7 9 8 7 9 8 10 6 12 1 13 2 14
REMARK SMILES IDX 3 15 89 16 4 18 5 19 83 20 84 21 88 22 85 23 87 24 86 25
REMARK SMILES IDX 16 26 17 27 18 28 19 30 20 31 21 32 82 33 22 34 81 35 23 36
REMARK SMILES IDX 24 37 25 38 75 39 26 40 80 41 74 42 76 43 27 44 79 45 73 46
REMARK SMILES IDX 72 47 28 49 60 50 40 51 59 52 41 53 44 54 58 55 77 56 42 57
REMARK SMILES IDX 43 58 57 60 78 61 45 62 29 63 30 64 38 65 31 66 32 67 36 68
REMARK SMILES IDX 39 69 33 70 34 71 37 72 35 73 61 74 62 75 70 76 63 77 64 78
REMARK SMILES IDX 68 79 71 80 65 81 66 82 69 83 67 84 46 85 47 86 55 87 48 88
REMARK SMILES IDX 49 89 53 90 56 91 50 92 51 93 54 94 52 95
REMARK H PARENT 13 6 9 11 2 17 17 29 76 48 44 59
REMARK Flexibility Score: inf
ROOT
ATOM      1  C   UNL A   1      31.812  28.342  26.620  1.00  0.00     0.042 C 
ENDROOT
BRANCH   1   2
ATOM      2  C   UNL A   1      31.320  27.229  25.697  1.00  0.00     0.117 C 
BRANCH   2   3
ATOM      3  N   UNL A   1      30.762  26.093  26.421  1.00  0.00    -0.354 N 
ATOM      4  C   UNL A   1      31.252  24.816  26.572  1.00  0.00     0.247 C 
ATOM      5  O   UNL A   1      30.545  24.005  27.177  1.00  0.00    -0.272 OA
ATOM      6  H   UNL A   1      29.904  26.266  26.872  1.00  0.00     0.163 HD
BRANCH   4   7
ATOM      7  C   UNL A   1      32.624  24.436  25.964  1.00  0.00     0.202 C 
BRANCH   7   8
ATOM      8  N   UNL A   1      33.295  23.454  26.806  1.00  0.00    -0.340 N 
ATOM      9  C   UNL A   1      34.506  22.852  26.734  1.00  0.00     0.229 C 
ATOM     10  O   UNL A   1      34.779  22.081  27.665  1.00  0.00    -0.275 OA
ATOM     11  H   UNL A   1      32.761  23.171  27.583  1.00  0.00     0.164 HD
BRANCH   9  12
ATOM     12  C   UNL A   1      35.564  23.068  25.638  1.00  0.00     0.133 C 
ATOM     13  C   UNL A   1      39.156  23.309  26.875  1.00  0.00     0.332 C 
ATOM     14  N   UNL A   1      37.916  22.689  26.420  1.00  0.00    -0.337 N 
ATOM     15  C   UNL A   1      38.152  21.711  25.356  1.00  0.00     0.262 C 
ATOM     16  C   UNL A   1      36.909  23.685  26.035  1.00  0.00     0.275 C 
ATOM     17  H   UNL A   1      37.533  22.180  27.217  1.00  0.00     0.347 HD
ATOM     18  C   UNL A   1      36.867  20.961  24.998  1.00  0.00     0.062 C 
ATOM     19  C   UNL A   1      35.710  21.894  24.666  1.00  0.00     0.025 C 
ENDBRANCH   9  12
ENDBRANCH   7   8
BRANCH   7  20
ATOM     20  C   UNL A   1      32.581  23.999  24.503  1.00  0.00    -0.016 A 
ATOM     21  C   UNL A   1      33.137  24.750  23.458  1.00  0.00     0.006 A 
ATOM     22  C   UNL A   1      32.079  22.725  24.187  1.00  0.00     0.006 A 
ATOM     23  C   UNL A   1      33.309  24.192  22.186  1.00  0.00     0.000 A 
ATOM     24  C   UNL A   1      32.235  22.171  22.918  1.00  0.00     0.000 A 
ATOM     25  C   UNL A   1      32.880  22.894  21.924  1.00  0.00     0.000 A 
ENDBRANCH   7  20
ENDBRANCH   4   7
ENDBRANCH   2   3
ENDBRANCH   1   2
BRANCH   1  26
ATOM     26  C   UNL A   1      32.934  29.195  26.042  1.00  0.00     0.118 C 
BRANCH  26  27
ATOM     27  N   UNL A   1      32.741  30.613  26.293  1.00  0.00    -0.352 N 
ATOM     28  C   UNL A   1      33.413  31.452  27.153  1.00  0.00     0.251 C 
ATOM     29  H   UNL A   1      32.023  31.037  25.772  1.00  0.00     0.163 HD
ATOM     30  O   UNL A   1      32.979  32.581  27.358  1.00  0.00    -0.269 OA
BRANCH  28  31
ATOM     31  C   UNL A   1      34.641  31.002  27.854  1.00  0.00     0.039 A 
ATOM     32  C   UNL A   1      35.699  31.906  28.001  1.00  0.00     0.014 A 
ATOM     33  C   UNL A   1      34.778  29.696  28.335  1.00  0.00     0.014 A 
ATOM     34  C   UNL A   1      36.862  31.520  28.676  1.00  0.00     0.010 A 
ATOM     35  C   UNL A   1      35.903  29.338  29.078  1.00  0.00     0.010 A 
ATOM     36  C   UNL A   1      36.963  30.241  29.249  1.00  0.00    -0.014 A 
BRANCH  36  37
ATOM     37  C   UNL A   1      38.173  29.830  30.011  1.00  0.00     0.031 A 
ATOM     38  C   UNL A   1      38.401  30.343  31.408  1.00  0.00     0.074 A 
ATOM     39  C   UNL A   1      39.097  29.039  29.432  1.00  0.00     0.049 A 
ATOM     40  N   UNL A   1      39.421  30.151  32.207  1.00  0.00    -0.248 NA
ATOM     41  C   UNL A   1      37.354  31.208  31.975  1.00  0.00     0.031 C 
ATOM     42  C   UNL A   1      39.022  28.508  28.071  1.00  0.00     0.029 A 
ATOM     43  N   UNL A   1      40.287  28.550  29.914  1.00  0.00    -0.354 N 
ATOM     44  C   UNL A   1      39.148  30.884  33.355  1.00  0.00     0.074 A 
ATOM     45  C   UNL A   1      37.891  31.564  33.131  1.00  0.00     0.031 C 
ATOM     46  C   UNL A   1      40.105  27.748  27.836  1.00  0.00     0.029 A 
ATOM     47  C   UNL A   1      40.969  27.769  29.012  1.00  0.00     0.049 A 
ATOM     48  H   UNL A   1      40.620  28.741  30.820  1.00  0.00     0.167 HD
ATOM     49  C   UNL A   1      39.865  30.964  34.502  1.00  0.00     0.037 A 
ATOM     50  C   UNL A   1      42.157  27.144  29.120  1.00  0.00     0.037 A 
ATOM     51  C   UNL A   1      41.099  30.261  34.740  1.00  0.00     0.049 A 
ATOM     52  C   UNL A   1      42.934  27.246  30.404  1.00  0.00     0.074 A 
ATOM     53  C   UNL A   1      41.865  30.229  35.893  1.00  0.00     0.029 A 
ATOM     54  N   UNL A   1      41.747  29.464  33.807  1.00  0.00    -0.354 N 
ATOM     55  N   UNL A   1      42.632  27.891  31.505  1.00  0.00    -0.248 NA
ATOM     56  C   UNL A   1      44.216  26.530  30.462  1.00  0.00     0.031 C 
ATOM     57  C   UNL A   1      42.998  29.446  35.643  1.00  0.00     0.029 A 
ATOM     58  C   UNL A   1      42.914  28.953  34.352  1.00  0.00     0.049 A 
ATOM     59  H   UNL A   1      41.425  29.290  32.893  1.00  0.00     0.167 HD
ATOM     60  C   UNL A   1      43.668  27.635  32.393  1.00  0.00     0.074 A 
ATOM     61  C   UNL A   1      44.602  26.767  31.708  1.00  0.00     0.031 C 
ATOM     62  C   UNL A   1      43.830  28.082  33.663  1.00  0.00     0.037 A 
BRANCH  49  63
ATOM     63  C   UNL A   1      39.329  31.841  35.595  1.00  0.00     0.064 A 
ATOM     64  C   UNL A   1      38.444  31.348  36.566  1.00  0.00     0.173 A 
ATOM     65  C   UNL A   1      39.732  33.182  35.696  1.00  0.00     0.173 A 
ATOM     66  F   UNL A   1      38.018  30.078  36.508  1.00  0.00    -0.203 F 
ATOM     67  C   UNL A   1      37.957  32.171  37.578  1.00  0.00     0.198 A 
ATOM     68  C   UNL A   1      39.268  33.994  36.728  1.00  0.00     0.198 A 
ATOM     69  F   UNL A   1      40.584  33.702  34.800  1.00  0.00    -0.203 F 
ATOM     70  F   UNL A   1      37.074  31.693  38.464  1.00  0.00    -0.200 F 
ATOM     71  C   UNL A   1      38.375  33.491  37.663  1.00  0.00     0.200 A 
ATOM     72  F   UNL A   1      39.683  35.266  36.816  1.00  0.00    -0.200 F 
ATOM     73  F   UNL A   1      37.912  34.282  38.640  1.00  0.00    -0.200 F 
ENDBRANCH  49  63
BRANCH  50  74
ATOM     74  C   UNL A   1      42.675  26.337  27.984  1.00  0.00     0.064 A 
ATOM     75  C   UNL A   1      43.502  26.915  27.010  1.00  0.00     0.173 A 
ATOM     76  C   UNL A   1      42.351  24.979  27.844  1.00  0.00     0.173 A 
ATOM     77  F   UNL A   1      43.820  28.215  27.090  1.00  0.00    -0.203 F 
ATOM     78  C   UNL A   1      43.971  26.170  25.930  1.00  0.00     0.198 A 
ATOM     79  C   UNL A   1      42.843  24.229  26.779  1.00  0.00     0.198 A 
ATOM     80  F   UNL A   1      41.566  24.379  28.751  1.00  0.00    -0.203 F 
ATOM     81  F   UNL A   1      44.724  26.758  24.991  1.00  0.00    -0.200 F 
ATOM     82  C   UNL A   1      43.646  24.827  25.818  1.00  0.00     0.200 A 
ATOM     83  F   UNL A   1      42.538  22.928  26.681  1.00  0.00    -0.200 F 
ATOM     84  F   UNL A   1      44.101  24.109  24.782  1.00  0.00    -0.200 F 
ENDBRANCH  50  74
BRANCH  62  85
ATOM     85  C   UNL A   1      45.045  27.612  34.409  1.00  0.00     0.064 A 
ATOM     86  C   UNL A   1      45.038  26.423  35.153  1.00  0.00     0.173 A 
ATOM     87  C   UNL A   1      46.242  28.340  34.344  1.00  0.00     0.173 A 
ATOM     88  F   UNL A   1      43.912  25.700  35.258  1.00  0.00    -0.203 F 
ATOM     89  C   UNL A   1      46.179  25.993  35.824  1.00  0.00     0.198 A 
ATOM     90  C   UNL A   1      47.390  27.892  34.992  1.00  0.00     0.198 A 
ATOM     91  F   UNL A   1      46.304  29.480  33.640  1.00  0.00    -0.203 F 
ATOM     92  F   UNL A   1      46.137  24.878  36.567  1.00  0.00    -0.200 F 
ATOM     93  C   UNL A   1      47.355  26.723  35.738  1.00  0.00     0.200 A 
ATOM     94  F   UNL A   1      48.528  28.592  34.897  1.00  0.00    -0.200 F 
ATOM     95  F   UNL A   1      48.454  26.304  36.379  1.00  0.00    -0.200 F 
ENDBRANCH  62  85
ENDBRANCH  36  37
ENDBRANCH  28  31
ENDBRANCH  26  27
ENDBRANCH   1  26
TORSDOF 13
ENDMDL
MODEL 3
REMARK VINA RESULT:     -11.8      4.228      9.475
REMARK SMILES C[N@@H+]1CCC[C@@H](C(=O)N[C@H](C(=O)NCCCNC(=O)c2ccc(-c3c4nc(c(-c5c(F)c(F)c(F)c(F)c5F)c5ccc([nH]5)c(-c5c(F)c(F)c(F)c(F)c5F)c5nc(c(-c6c(F)c(F)c(F)c(F)c6F)c6ccc3[nH]6)C=C5)C=C4)cc2)c2ccccc2)C1
REMARK SMILES IDX 15 1 14 2 13 3 11 4 12 5 10 7 9 8 7 9 8 10 6 12 1 13 2 14
REMARK SMILES IDX 3 15 89 16 4 18 5 19 83 20 84 21 88 22 85 23 87 24 86 25
REMARK SMILES IDX 16 26 17 27 18 28 19 30 20 31 21 32 82 33 22 34 81 35 23 36
REMARK SMILES IDX 24 37 25 38 75 39 26 40 80 41 74 42 76 43 27 44 79 45 73 46
REMARK SMILES IDX 72 47 28 49 60 50 40 51 59 52 41 53 44 54 58 55 77 56 42 57
REMARK SMILES IDX 43 58 57 60 78 61 45 62 29 63 30 64 38 65 31 66 32 67 36 68
REMARK SMILES IDX 39 69 33 70 34 71 37 72 35 73 61 74 62 75 70 76 63 77 64 78
REMARK SMILES IDX 68 79 71 80 65 81 66 82 69 83 67 84 46 85 47 86 55 87 48 88
REMARK SMILES IDX 49 89 53 90 56 91 50 92 51 93 54 94 52 95
REMARK H PARENT 13 6 9 11 2 17 17 29 76 48 44 59
REMARK Flexibility Score: inf
ROOT
ATOM      1  C   UNL A   1      31.402  32.161  26.680  1.00  0.00     0.042 C 
ENDROOT
BRANCH   1   2
ATOM      2  C   UNL A   1      31.409  30.642  26.828  1.00  0.00     0.117 C 
BRANCH   2   3
ATOM      3  N   UNL A   1      32.572  30.013  26.213  1.00  0.00    -0.354 N 
ATOM      4  C   UNL A   1      32.639  29.012  25.272  1.00  0.00     0.247 C 
ATOM      5  O   UNL A   1      33.760  28.597  24.964  1.00  0.00    -0.272 OA
ATOM      6  H   UNL A   1      33.442  30.358  26.517  1.00  0.00     0.163 HD
BRANCH   4   7
ATOM      7  C   UNL A   1      31.339  28.428  24.667  1.00  0.00     0.202 C 
BRANCH   7   8
ATOM      8  N   UNL A   1      31.285  28.692  23.235  1.00  0.00    -0.340 N 
ATOM      9  C   UNL A   1      30.409  29.368  22.455  1.00  0.00     0.229 C 
ATOM     10  O   UNL A   1      30.699  29.432  21.252  1.00  0.00    -0.275 OA
ATOM     11  H   UNL A   1      32.036  28.300  22.734  1.00  0.00     0.164 HD
BRANCH   9  12
ATOM     12  C   UNL A   1      29.130  30.080  22.931  1.00  0.00     0.133 C 
ATOM     13  C   UNL A   1      29.475  33.828  23.501  1.00  0.00     0.332 C 
ATOM     14  N   UNL A   1      29.253  32.579  22.779  1.00  0.00    -0.337 N 
ATOM     15  C   UNL A   1      28.035  32.627  21.967  1.00  0.00     0.262 C 
ATOM     16  C   UNL A   1      29.271  31.414  23.670  1.00  0.00     0.275 C 
ATOM     17  H   UNL A   1      30.038  32.468  22.137  1.00  0.00     0.347 HD
ATOM     18  C   UNL A   1      27.898  31.374  21.099  1.00  0.00     0.062 C 
ATOM     19  C   UNL A   1      27.995  30.085  21.903  1.00  0.00     0.025 C 
ENDBRANCH   9  12
ENDBRANCH   7   8
BRANCH   7  20
ATOM     20  C   UNL A   1      31.086  26.958  24.986  1.00  0.00    -0.016 A 
ATOM     21  C   UNL A   1      30.614  26.036  24.041  1.00  0.00     0.006 A 
ATOM     22  C   UNL A   1      31.462  26.459  26.244  1.00  0.00     0.006 A 
ATOM     23  C   UNL A   1      30.652  24.660  24.300  1.00  0.00     0.000 A 
ATOM     24  C   UNL A   1      31.488  25.091  26.511  1.00  0.00     0.000 A 
ATOM     25  C   UNL A   1      31.112  24.188  25.526  1.00  0.00     0.000 A 
ENDBRANCH   7  20
ENDBRANCH   4   7
ENDBRANCH   2   3
ENDBRANCH   1   2
BRANCH   1  26
ATOM     26  C   UNL A   1      32.676  32.850  27.153  1.00  0.00     0.118 C 
BRANCH  26  27
ATOM     27  N   UNL A   1      32.435  34.203  27.626  1.00  0.00    -0.352 N 
ATOM     28  C   UNL A   1      33.006  34.880  28.678  1.00  0.00     0.251 C 
ATOM     29  H   UNL A   1      31.762  34.710  27.118  1.00  0.00     0.163 HD
ATOM     30  O   UNL A   1      32.534  35.956  29.032  1.00  0.00    -0.269 OA
BRANCH  28  31
ATOM     31  C   UNL A   1      34.169  34.316  29.407  1.00  0.00     0.039 A 
ATOM     32  C   UNL A   1      33.935  33.553  30.557  1.00  0.00     0.014 A 
ATOM     33  C   UNL A   1      35.483  34.559  28.997  1.00  0.00     0.014 A 
ATOM     34  C   UNL A   1      35.008  32.990  31.255  1.00  0.00     0.010 A 
ATOM     35  C   UNL A   1      36.547  33.931  29.646  1.00  0.00     0.010 A 
ATOM     36  C   UNL A   1      36.324  33.147  30.789  1.00  0.00    -0.014 A 
BRANCH  36  37
ATOM     37  C   UNL A   1      37.473  32.515  31.491  1.00  0.00     0.031 A 
ATOM     38  C   UNL A   1      38.207  31.362  30.861  1.00  0.00     0.074 A 
ATOM     39  C   UNL A   1      37.826  32.940  32.720  1.00  0.00     0.049 A 
ATOM     40  N   UNL A   1      39.189  30.640  31.342  1.00  0.00    -0.248 NA
ATOM     41  C   UNL A   1      37.763  30.948  29.521  1.00  0.00     0.031 C 
ATOM     42  C   UNL A   1      37.172  34.017  33.464  1.00  0.00     0.029 A 
ATOM     43  N   UNL A   1      38.819  32.508  33.566  1.00  0.00    -0.354 N 
ATOM     44  C   UNL A   1      39.463  29.680  30.377  1.00  0.00     0.074 A 
ATOM     45  C   UNL A   1      38.513  29.879  29.304  1.00  0.00     0.031 C 
ATOM     46  C   UNL A   1      37.795  34.178  34.643  1.00  0.00     0.029 A 
ATOM     47  C   UNL A   1      38.867  33.193  34.756  1.00  0.00     0.049 A 
ATOM     48  H   UNL A   1      39.438  31.777  33.341  1.00  0.00     0.167 HD
ATOM     49  C   UNL A   1      40.434  28.735  30.371  1.00  0.00     0.037 A 
ATOM     50  C   UNL A   1      39.678  33.042  35.820  1.00  0.00     0.037 A 
ATOM     51  C   UNL A   1      41.401  28.557  31.422  1.00  0.00     0.049 A 
ATOM     52  C   UNL A   1      40.750  31.986  35.790  1.00  0.00     0.074 A 
ATOM     53  C   UNL A   1      42.462  27.669  31.477  1.00  0.00     0.029 A 
ATOM     54  N   UNL A   1      41.428  29.285  32.603  1.00  0.00    -0.354 N 
ATOM     55  N   UNL A   1      41.039  31.127  34.842  1.00  0.00    -0.248 NA
ATOM     56  C   UNL A   1      41.611  31.881  36.976  1.00  0.00     0.031 C 
ATOM     57  C   UNL A   1      43.104  27.830  32.711  1.00  0.00     0.029 A 
ATOM     58  C   UNL A   1      42.473  28.851  33.402  1.00  0.00     0.049 A 
ATOM     59  H   UNL A   1      40.796  30.002  32.839  1.00  0.00     0.167 HD
ATOM     60  C   UNL A   1      42.129  30.403  35.304  1.00  0.00     0.074 A 
ATOM     61  C   UNL A   1      42.459  30.930  36.612  1.00  0.00     0.031 C 
ATOM     62  C   UNL A   1      42.797  29.390  34.698  1.00  0.00     0.037 A 
BRANCH  49  63
ATOM     63  C   UNL A   1      40.502  27.819  29.185  1.00  0.00     0.064 A 
ATOM     64  C   UNL A   1      39.711  26.662  29.102  1.00  0.00     0.173 A 
ATOM     65  C   UNL A   1      41.339  28.119  28.099  1.00  0.00     0.173 A 
ATOM     66  F   UNL A   1      38.902  26.324  30.116  1.00  0.00    -0.203 F 
ATOM     67  C   UNL A   1      39.781  25.823  27.993  1.00  0.00     0.198 A 
ATOM     68  C   UNL A   1      41.383  27.294  26.977  1.00  0.00     0.198 A 
ATOM     69  F   UNL A   1      42.109  29.216  28.122  1.00  0.00    -0.203 F 
ATOM     70  F   UNL A   1      39.055  24.698  27.959  1.00  0.00    -0.200 F 
ATOM     71  C   UNL A   1      40.610  26.143  26.929  1.00  0.00     0.200 A 
ATOM     72  F   UNL A   1      42.176  27.612  25.945  1.00  0.00    -0.200 F 
ATOM     73  F   UNL A   1      40.672  25.339  25.859  1.00  0.00    -0.200 F 
ENDBRANCH  49  63
BRANCH  50  74
ATOM     74  C   UNL A   1      39.529  33.935  36.999  1.00  0.00     0.064 A 
ATOM     75  C   UNL A   1      40.149  35.193  37.031  1.00  0.00     0.173 A 
ATOM     76  C   UNL A   1      38.773  33.551  38.116  1.00  0.00     0.173 A 
ATOM     77  F   UNL A   1      40.900  35.594  35.994  1.00  0.00    -0.203 F 
ATOM     78  C   UNL A   1      40.033  36.025  38.141  1.00  0.00     0.198 A 
ATOM     79  C   UNL A   1      38.636  34.396  39.215  1.00  0.00     0.198 A 
ATOM     80  F   UNL A   1      38.158  32.360  38.134  1.00  0.00    -0.203 F 
ATOM     81  F   UNL A   1      40.671  37.203  38.164  1.00  0.00    -0.200 F 
ATOM     82  C   UNL A   1      39.272  35.628  39.231  1.00  0.00     0.200 A 
ATOM     83  F   UNL A   1      37.888  34.014  40.260  1.00  0.00    -0.200 F 
ATOM     84  F   UNL A   1      39.157  36.430  40.298  1.00  0.00    -0.200 F 
ENDBRANCH  50  74
BRANCH  62  85
ATOM     85  C   UNL A   1      43.973  28.808  35.425  1.00  0.00     0.064 A 
ATOM     86  C   UNL A   1      43.830  27.734  36.316  1.00  0.00     0.173 A 
ATOM     87  C   UNL A   1      45.265  29.305  35.197  1.00  0.00     0.173 A 
ATOM     88  F   UNL A   1      42.613  27.234  36.580  1.00  0.00    -0.203 F 
ATOM     89  C   UNL A   1      44.936  27.195  36.968  1.00  0.00     0.198 A 
ATOM     90  C   UNL A   1      46.372  28.744  35.829  1.00  0.00     0.198 A 
ATOM     91  F   UNL A   1      45.457  30.327  34.349  1.00  0.00    -0.203 F 
ATOM     92  F   UNL A   1      44.770  26.198  37.850  1.00  0.00    -0.200 F 
ATOM     93  C   UNL A   1      46.205  27.695  36.720  1.00  0.00     0.200 A 
ATOM     94  F   UNL A   1      47.598  29.221  35.578  1.00  0.00    -0.200 F 
ATOM     95  F   UNL A   1      47.268  27.169  37.344  1.00  0.00    -0.200 F 
ENDBRANCH  62  85
ENDBRANCH  36  37
ENDBRANCH  28  31
ENDBRANCH  26  27
ENDBRANCH   1  26
TORSDOF 13
ENDMDL
