MODEL 1
REMARK VINA RESULT:     -11.3      0.000      0.000
REMARK SMILES O=C(CC1(NC(=O)[C@]2(C(F)(F)F)CC[NH2+]C2)CCC1)NCCCNC(=O)c1ccc(-c2c3nc(c(-c4c(F)c(F)c(F)c(F)c4F)c4ccc([nH]4)c(-c4c(F)c(F)c(F)c(F)c4F)c4nc(c(-c5c(F)c(F)c(F)c(F)c5F)c5ccc2[nH]5)C=C4)C=C3)cc1
REMARK SMILES IDX 21 1 20 2 1 3 2 4 3 6 4 7 17 8 19 9 18 10 5 11 6 12 7 14
REMARK SMILES IDX 8 15 13 16 16 17 14 18 15 19 9 22 10 23 11 24 12 25 22 26
REMARK SMILES IDX 23 27 24 28 25 29 26 31 27 32 28 33 89 34 29 35 88 36 30 37
REMARK SMILES IDX 31 38 32 39 82 40 33 41 87 42 81 43 83 44 34 45 86 46 80 47
REMARK SMILES IDX 79 48 35 50 67 51 47 52 66 53 48 54 51 55 65 56 84 57 49 58
REMARK SMILES IDX 50 59 64 61 85 62 52 63 36 64 37 65 45 66 38 67 39 68 43 69
REMARK SMILES IDX 46 70 40 71 41 72 44 73 42 74 68 75 69 76 77 77 70 78 71 79
REMARK SMILES IDX 75 80 78 81 72 82 73 83 76 84 74 85 53 86 54 87 62 88 55 89
REMARK SMILES IDX 56 90 60 91 63 92 57 93 58 94 61 95 59 96
REMARK H PARENT 20 5 5 13 15 20 15 21 24 30 83 49 51 60
REMARK Flexibility Score: inf
ROOT
ATOM      1  C   UNL A   1      34.532  23.032  24.335  1.00  0.00     0.117 C 
ENDROOT
BRANCH   1   2
ATOM      2  N   UNL A   1      33.788  24.253  24.542  1.00  0.00    -0.356 N 
ATOM      3  O   UNL A   1      32.980  24.497  22.403  1.00  0.00    -0.275 OA
ATOM      4  C   UNL A   1      33.100  24.911  23.545  1.00  0.00     0.222 C 
ATOM      5  H   UNL A   1      33.772  24.638  25.448  1.00  0.00     0.163 HD
BRANCH   4   6
ATOM      6  C   UNL A   1      32.616  26.282  23.983  1.00  0.00     0.128 C 
BRANCH   6   7
ATOM      7  C   UNL A   1      31.242  26.383  24.643  1.00  0.00     0.049 C 
ATOM      8  C   UNL A   1      30.288  27.190  23.693  1.00  0.00     0.029 C 
ATOM      9  C   UNL A   1      30.209  25.203  24.509  1.00  0.00     0.029 C 
ATOM     10  C   UNL A   1      29.164  26.189  23.972  1.00  0.00     0.005 C 
BRANCH   7  11
ATOM     11  N   UNL A   1      31.196  26.972  26.044  1.00  0.00    -0.349 N 
ATOM     12  C   UNL A   1      31.789  27.967  26.780  1.00  0.00     0.241 C 
ATOM     13  H   UNL A   1      30.535  26.490  26.594  1.00  0.00     0.164 HD
ATOM     14  O   UNL A   1      31.583  27.894  27.999  1.00  0.00    -0.274 OA
BRANCH  12  15
ATOM     15  C   UNL A   1      32.614  29.124  26.229  1.00  0.00     0.197 C 
ATOM     16  C   UNL A   1      32.660  30.357  27.155  1.00  0.00     0.094 C 
ATOM     17  C   UNL A   1      31.907  29.708  24.997  1.00  0.00     0.287 C 
ATOM     18  C   UNL A   1      31.441  31.170  26.790  1.00  0.00     0.262 C 
ATOM     19  N   UNL A   1      31.332  31.020  25.342  1.00  0.00    -0.345 N 
ATOM     20  H   UNL A   1      31.849  31.763  24.874  1.00  0.00     0.346 HD
ATOM     21  H   UNL A   1      30.358  31.079  25.044  1.00  0.00     0.346 HD
BRANCH  15  22
ATOM     22  C   UNL A   1      34.043  28.654  26.076  1.00  0.00     0.408 C 
ATOM     23  F   UNL A   1      34.906  29.423  26.785  1.00  0.00    -0.170 F 
ATOM     24  F   UNL A   1      34.272  27.393  26.490  1.00  0.00    -0.170 F 
ATOM     25  F   UNL A   1      34.446  28.710  24.784  1.00  0.00    -0.170 F 
ENDBRANCH  15  22
ENDBRANCH  12  15
ENDBRANCH   7  11
ENDBRANCH   6   7
ENDBRANCH   4   6
ENDBRANCH   1   2
BRANCH   1  26
ATOM     26  C   UNL A   1      35.992  23.309  23.975  1.00  0.00     0.042 C 
BRANCH  26  27
ATOM     27  C   UNL A   1      36.876  23.782  25.130  1.00  0.00     0.118 C 
BRANCH  27  28
ATOM     28  N   UNL A   1      37.954  22.858  25.442  1.00  0.00    -0.352 N 
ATOM     29  C   UNL A   1      39.149  23.039  26.094  1.00  0.00     0.251 C 
ATOM     30  H   UNL A   1      37.799  21.938  25.132  1.00  0.00     0.163 HD
ATOM     31  O   UNL A   1      39.965  22.120  26.097  1.00  0.00    -0.269 OA
BRANCH  29  32
ATOM     32  C   UNL A   1      39.494  24.311  26.771  1.00  0.00     0.039 A 
ATOM     33  C   UNL A   1      39.065  24.489  28.092  1.00  0.00     0.014 A 
ATOM     34  C   UNL A   1      40.168  25.351  26.126  1.00  0.00     0.014 A 
ATOM     35  C   UNL A   1      39.365  25.670  28.778  1.00  0.00     0.010 A 
ATOM     36  C   UNL A   1      40.531  26.501  26.834  1.00  0.00     0.010 A 
ATOM     37  C   UNL A   1      40.137  26.671  28.171  1.00  0.00    -0.014 A 
BRANCH  37  38
ATOM     38  C   UNL A   1      40.566  27.871  28.943  1.00  0.00     0.031 A 
ATOM     39  C   UNL A   1      41.959  27.983  29.500  1.00  0.00     0.074 A 
ATOM     40  C   UNL A   1      39.675  28.855  29.177  1.00  0.00     0.049 A 
ATOM     41  N   UNL A   1      42.495  28.954  30.201  1.00  0.00    -0.248 NA
ATOM     42  C   UNL A   1      42.865  26.852  29.259  1.00  0.00     0.031 C 
ATOM     43  C   UNL A   1      38.279  28.849  28.738  1.00  0.00     0.029 A 
ATOM     44  N   UNL A   1      39.807  30.050  29.842  1.00  0.00    -0.354 N 
ATOM     45  C   UNL A   1      43.792  28.548  30.487  1.00  0.00     0.074 A 
ATOM     46  C   UNL A   1      43.947  27.221  29.930  1.00  0.00     0.031 C 
ATOM     47  C   UNL A   1      37.693  29.995  29.118  1.00  0.00     0.029 A 
ATOM     48  C   UNL A   1      38.657  30.800  29.860  1.00  0.00     0.049 A 
ATOM     49  H   UNL A   1      40.648  30.340  30.266  1.00  0.00     0.167 HD
ATOM     50  C   UNL A   1      44.770  29.227  31.136  1.00  0.00     0.037 A 
ATOM     51  C   UNL A   1      38.403  32.001  30.414  1.00  0.00     0.037 A 
ATOM     52  C   UNL A   1      44.620  30.552  31.682  1.00  0.00     0.049 A 
ATOM     53  C   UNL A   1      39.505  32.729  31.134  1.00  0.00     0.074 A 
ATOM     54  C   UNL A   1      45.570  31.342  32.309  1.00  0.00     0.029 A 
ATOM     55  N   UNL A   1      43.441  31.284  31.674  1.00  0.00    -0.354 N 
ATOM     56  N   UNL A   1      40.748  32.365  31.333  1.00  0.00    -0.248 NA
ATOM     57  C   UNL A   1      39.169  34.044  31.697  1.00  0.00     0.031 C 
ATOM     58  C   UNL A   1      44.953  32.525  32.729  1.00  0.00     0.029 A 
ATOM     59  C   UNL A   1      43.634  32.504  32.307  1.00  0.00     0.049 A 
ATOM     60  H   UNL A   1      42.592  30.982  31.278  1.00  0.00     0.167 HD
ATOM     61  C   UNL A   1      41.349  33.415  32.013  1.00  0.00     0.074 A 
ATOM     62  C   UNL A   1      40.339  34.439  32.176  1.00  0.00     0.031 C 
ATOM     63  C   UNL A   1      42.624  33.520  32.465  1.00  0.00     0.037 A 
BRANCH  50  64
ATOM     64  C   UNL A   1      46.102  28.547  31.295  1.00  0.00     0.064 A 
ATOM     65  C   UNL A   1      46.392  27.745  32.410  1.00  0.00     0.173 A 
ATOM     66  C   UNL A   1      47.083  28.658  30.298  1.00  0.00     0.173 A 
ATOM     67  F   UNL A   1      45.494  27.609  33.397  1.00  0.00    -0.203 F 
ATOM     68  C   UNL A   1      47.623  27.105  32.534  1.00  0.00     0.198 A 
ATOM     69  C   UNL A   1      48.301  27.990  30.409  1.00  0.00     0.198 A 
ATOM     70  F   UNL A   1      46.858  29.405  29.206  1.00  0.00    -0.203 F 
ATOM     71  F   UNL A   1      47.894  26.384  33.631  1.00  0.00    -0.200 F 
ATOM     72  C   UNL A   1      48.573  27.221  31.531  1.00  0.00     0.200 A 
ATOM     73  F   UNL A   1      49.210  28.090  29.431  1.00  0.00    -0.200 F 
ATOM     74  F   UNL A   1      49.753  26.597  31.647  1.00  0.00    -0.200 F 
ENDBRANCH  50  64
BRANCH  51  75
ATOM     75  C   UNL A   1      37.051  32.606  30.287  1.00  0.00     0.064 A 
ATOM     76  C   UNL A   1      36.070  32.396  31.266  1.00  0.00     0.173 A 
ATOM     77  C   UNL A   1      36.707  33.398  29.180  1.00  0.00     0.173 A 
ATOM     78  F   UNL A   1      36.345  31.629  32.332  1.00  0.00    -0.203 F 
ATOM     79  C   UNL A   1      34.792  32.933  31.134  1.00  0.00     0.198 A 
ATOM     80  C   UNL A   1      35.438  33.961  29.065  1.00  0.00     0.198 A 
ATOM     81  F   UNL A   1      37.610  33.635  28.217  1.00  0.00    -0.203 F 
ATOM     82  F   UNL A   1      33.859  32.671  32.059  1.00  0.00    -0.200 F 
ATOM     83  C   UNL A   1      34.479  33.720  30.036  1.00  0.00     0.200 A 
ATOM     84  F   UNL A   1      35.145  34.735  28.012  1.00  0.00    -0.200 F 
ATOM     85  F   UNL A   1      33.250  34.238  29.911  1.00  0.00    -0.200 F 
ENDBRANCH  51  75
BRANCH  63  86
ATOM     86  C   UNL A   1      43.008  34.806  33.142  1.00  0.00     0.064 A 
ATOM     87  C   UNL A   1      42.953  34.954  34.536  1.00  0.00     0.173 A 
ATOM     88  C   UNL A   1      43.445  35.903  32.383  1.00  0.00     0.173 A 
ATOM     89  F   UNL A   1      42.530  33.942  35.308  1.00  0.00    -0.203 F 
ATOM     90  C   UNL A   1      43.280  36.166  35.140  1.00  0.00     0.198 A 
ATOM     91  C   UNL A   1      43.805  37.101  32.995  1.00  0.00     0.198 A 
ATOM     92  F   UNL A   1      43.525  35.814  31.048  1.00  0.00    -0.203 F 
ATOM     93  F   UNL A   1      43.154  36.305  36.468  1.00  0.00    -0.200 F 
ATOM     94  C   UNL A   1      43.711  37.236  34.371  1.00  0.00     0.200 A 
ATOM     95  F   UNL A   1      44.236  38.129  32.250  1.00  0.00    -0.200 F 
ATOM     96  F   UNL A   1      44.023  38.401  34.955  1.00  0.00    -0.200 F 
ENDBRANCH  63  86
ENDBRANCH  37  38
ENDBRANCH  29  32
ENDBRANCH  27  28
ENDBRANCH  26  27
ENDBRANCH   1  26
TORSDOF 14
ENDMDL
MODEL 2
REMARK VINA RESULT:     -11.2      3.008      4.490
REMARK SMILES O=C(CC1(NC(=O)[C@]2(C(F)(F)F)CC[NH2+]C2)CCC1)NCCCNC(=O)c1ccc(-c2c3nc(c(-c4c(F)c(F)c(F)c(F)c4F)c4ccc([nH]4)c(-c4c(F)c(F)c(F)c(F)c4F)c4nc(c(-c5c(F)c(F)c(F)c(F)c5F)c5ccc2[nH]5)C=C4)C=C3)cc1
REMARK SMILES IDX 21 1 20 2 1 3 2 4 3 6 4 7 17 8 19 9 18 10 5 11 6 12 7 14
REMARK SMILES IDX 8 15 13 16 16 17 14 18 15 19 9 22 10 23 11 24 12 25 22 26
REMARK SMILES IDX 23 27 24 28 25 29 26 31 27 32 28 33 89 34 29 35 88 36 30 37
REMARK SMILES IDX 31 38 32 39 82 40 33 41 87 42 81 43 83 44 34 45 86 46 80 47
REMARK SMILES IDX 79 48 35 50 67 51 47 52 66 53 48 54 51 55 65 56 84 57 49 58
REMARK SMILES IDX 50 59 64 61 85 62 52 63 36 64 37 65 45 66 38 67 39 68 43 69
REMARK SMILES IDX 46 70 40 71 41 72 44 73 42 74 68 75 69 76 77 77 70 78 71 79
REMARK SMILES IDX 75 80 78 81 72 82 73 83 76 84 74 85 53 86 54 87 62 88 55 89
REMARK SMILES IDX 56 90 60 91 63 92 57 93 58 94 61 95 59 96
REMARK H PARENT 20 5 5 13 15 20 15 21 24 30 83 49 51 60
REMARK Flexibility Score: inf
ROOT
ATOM      1  C   UNL A   1      34.780  22.867  23.896  1.00  0.00     0.117 C 
ENDROOT
BRANCH   1   2
ATOM      2  N   UNL A   1      34.667  24.305  23.814  1.00  0.00    -0.356 N 
ATOM      3  O   UNL A   1      34.013  24.695  25.984  1.00  0.00    -0.275 OA
ATOM      4  C   UNL A   1      34.253  25.104  24.859  1.00  0.00     0.222 C 
ATOM      5  H   UNL A   1      34.897  24.739  22.961  1.00  0.00     0.163 HD
BRANCH   4   6
ATOM      6  C   UNL A   1      33.994  26.535  24.425  1.00  0.00     0.128 C 
BRANCH   6   7
ATOM      7  C   UNL A   1      33.057  27.388  25.280  1.00  0.00     0.049 C 
ATOM      8  C   UNL A   1      33.902  28.092  26.399  1.00  0.00     0.029 C 
ATOM      9  C   UNL A   1      32.659  28.837  24.812  1.00  0.00     0.029 C 
ATOM     10  C   UNL A   1      33.132  29.394  26.161  1.00  0.00     0.005 C 
BRANCH   7  11
ATOM     11  N   UNL A   1      31.862  26.682  25.900  1.00  0.00    -0.349 N 
ATOM     12  C   UNL A   1      30.625  26.208  25.539  1.00  0.00     0.241 C 
ATOM     13  H   UNL A   1      32.025  26.513  26.856  1.00  0.00     0.164 HD
ATOM     14  O   UNL A   1      29.891  25.918  26.493  1.00  0.00    -0.274 OA
BRANCH  12  15
ATOM     15  C   UNL A   1      30.126  25.987  24.116  1.00  0.00     0.197 C 
ATOM     16  C   UNL A   1      30.494  27.123  23.140  1.00  0.00     0.094 C 
ATOM     17  C   UNL A   1      28.593  26.069  24.099  1.00  0.00     0.287 C 
ATOM     18  C   UNL A   1      29.382  28.136  23.277  1.00  0.00     0.262 C 
ATOM     19  N   UNL A   1      28.181  27.326  23.449  1.00  0.00    -0.345 N 
ATOM     20  H   UNL A   1      27.759  27.129  22.542  1.00  0.00     0.346 HD
ATOM     21  H   UNL A   1      27.490  27.818  24.016  1.00  0.00     0.346 HD
BRANCH  15  22
ATOM     22  C   UNL A   1      30.779  24.735  23.576  1.00  0.00     0.408 C 
ATOM     23  F   UNL A   1      31.779  25.021  22.708  1.00  0.00    -0.170 F 
ATOM     24  F   UNL A   1      31.338  23.939  24.509  1.00  0.00    -0.170 F 
ATOM     25  F   UNL A   1      29.890  23.965  22.903  1.00  0.00    -0.170 F 
ENDBRANCH  15  22
ENDBRANCH  12  15
ENDBRANCH   7  11
ENDBRANCH   6   7
ENDBRANCH   4   6
ENDBRANCH   1   2
BRANCH   1  26
ATOM     26  C   UNL A   1      36.215  22.423  24.181  1.00  0.00     0.042 C 
BRANCH  26  27
ATOM     27  C   UNL A   1      36.532  22.124  25.648  1.00  0.00     0.118 C 
BRANCH  27  28
ATOM     28  N   UNL A   1      37.611  21.165  25.817  1.00  0.00    -0.352 N 
ATOM     29  C   UNL A   1      38.934  21.331  26.146  1.00  0.00     0.251 C 
ATOM     30  H   UNL A   1      37.346  20.229  25.669  1.00  0.00     0.163 HD
ATOM     31  O   UNL A   1      39.686  20.361  26.076  1.00  0.00    -0.269 OA
BRANCH  29  32
ATOM     32  C   UNL A   1      39.486  22.642  26.560  1.00  0.00     0.039 A 
ATOM     33  C   UNL A   1      40.569  22.649  27.447  1.00  0.00     0.014 A 
ATOM     34  C   UNL A   1      38.929  23.857  26.152  1.00  0.00     0.014 A 
ATOM     35  C   UNL A   1      41.128  23.858  27.867  1.00  0.00     0.010 A 
ATOM     36  C   UNL A   1      39.535  25.065  26.514  1.00  0.00     0.010 A 
ATOM     37  C   UNL A   1      40.644  25.079  27.373  1.00  0.00    -0.014 A 
BRANCH  37  38
ATOM     38  C   UNL A   1      41.322  26.360  27.719  1.00  0.00     0.031 A 
ATOM     39  C   UNL A   1      42.741  26.630  27.298  1.00  0.00     0.074 A 
ATOM     40  C   UNL A   1      40.662  27.275  28.456  1.00  0.00     0.049 A 
ATOM     41  N   UNL A   1      43.484  27.688  27.522  1.00  0.00    -0.248 NA
ATOM     42  C   UNL A   1      43.425  25.569  26.545  1.00  0.00     0.031 C 
ATOM     43  C   UNL A   1      39.302  27.117  28.973  1.00  0.00     0.029 A 
ATOM     44  N   UNL A   1      41.043  28.518  28.901  1.00  0.00    -0.354 N 
ATOM     45  C   UNL A   1      44.718  27.417  26.945  1.00  0.00     0.074 A 
ATOM     46  C   UNL A   1      44.643  26.075  26.406  1.00  0.00     0.031 C 
ATOM     47  C   UNL A   1      38.950  28.230  29.636  1.00  0.00     0.029 A 
ATOM     48  C   UNL A   1      40.072  29.164  29.627  1.00  0.00     0.049 A 
ATOM     49  H   UNL A   1      41.928  28.908  28.716  1.00  0.00     0.167 HD
ATOM     50  C   UNL A   1      45.807  28.220  26.853  1.00  0.00     0.037 A 
ATOM     51  C   UNL A   1      40.082  30.372  30.223  1.00  0.00     0.037 A 
ATOM     52  C   UNL A   1      45.879  29.560  27.379  1.00  0.00     0.049 A 
ATOM     53  C   UNL A   1      41.306  31.239  30.112  1.00  0.00     0.074 A 
ATOM     54  C   UNL A   1      46.921  30.469  27.288  1.00  0.00     0.029 A 
ATOM     55  N   UNL A   1      44.872  30.184  28.102  1.00  0.00    -0.354 N 
ATOM     56  N   UNL A   1      42.440  30.999  29.499  1.00  0.00    -0.248 NA
ATOM     57  C   UNL A   1      41.245  32.553  30.766  1.00  0.00     0.031 C 
ATOM     58  C   UNL A   1      46.567  31.619  28.003  1.00  0.00     0.029 A 
ATOM     59  C   UNL A   1      45.279  31.455  28.485  1.00  0.00     0.049 A 
ATOM     60  H   UNL A   1      43.999  29.783  28.314  1.00  0.00     0.167 HD
ATOM     61  C   UNL A   1      43.213  32.140  29.666  1.00  0.00     0.074 A 
ATOM     62  C   UNL A   1      42.410  33.080  30.421  1.00  0.00     0.031 C 
ATOM     63  C   UNL A   1      44.475  32.386  29.235  1.00  0.00     0.037 A 
BRANCH  50  64
ATOM     64  C   UNL A   1      47.020  27.672  26.154  1.00  0.00     0.064 A 
ATOM     65  C   UNL A   1      47.141  27.698  24.756  1.00  0.00     0.173 A 
ATOM     66  C   UNL A   1      48.098  27.160  26.892  1.00  0.00     0.173 A 
ATOM     67  F   UNL A   1      46.138  28.170  24.000  1.00  0.00    -0.203 F 
ATOM     68  C   UNL A   1      48.279  27.204  24.123  1.00  0.00     0.198 A 
ATOM     69  C   UNL A   1      49.249  26.697  26.259  1.00  0.00     0.198 A 
ATOM     70  F   UNL A   1      48.042  27.118  28.232  1.00  0.00    -0.203 F 
ATOM     71  F   UNL A   1      48.349  27.195  22.785  1.00  0.00    -0.200 F 
ATOM     72  C   UNL A   1      49.335  26.712  24.874  1.00  0.00     0.200 A 
ATOM     73  F   UNL A   1      50.275  26.237  26.987  1.00  0.00    -0.200 F 
ATOM     74  F   UNL A   1      50.434  26.246  24.265  1.00  0.00    -0.200 F 
ENDBRANCH  50  64
BRANCH  51  75
ATOM     75  C   UNL A   1      38.880  30.846  30.959  1.00  0.00     0.064 A 
ATOM     76  C   UNL A   1      37.839  31.506  30.293  1.00  0.00     0.173 A 
ATOM     77  C   UNL A   1      38.752  30.658  32.344  1.00  0.00     0.173 A 
ATOM     78  F   UNL A   1      37.925  31.728  28.973  1.00  0.00    -0.203 F 
ATOM     79  C   UNL A   1      36.727  31.982  30.985  1.00  0.00     0.198 A 
ATOM     80  C   UNL A   1      37.625  31.105  33.030  1.00  0.00     0.198 A 
ATOM     81  F   UNL A   1      39.717  30.026  33.028  1.00  0.00    -0.203 F 
ATOM     82  F   UNL A   1      35.772  32.657  30.331  1.00  0.00    -0.200 F 
ATOM     83  C   UNL A   1      36.619  31.775  32.352  1.00  0.00     0.200 A 
ATOM     84  F   UNL A   1      37.516  30.888  34.347  1.00  0.00    -0.200 F 
ATOM     85  F   UNL A   1      35.548  32.230  33.016  1.00  0.00    -0.200 F 
ENDBRANCH  51  75
BRANCH  63  86
ATOM     86  C   UNL A   1      45.050  33.743  29.534  1.00  0.00     0.064 A 
ATOM     87  C   UNL A   1      44.875  34.830  28.664  1.00  0.00     0.173 A 
ATOM     88  C   UNL A   1      45.780  33.958  30.713  1.00  0.00     0.173 A 
ATOM     89  F   UNL A   1      44.198  34.676  27.517  1.00  0.00    -0.203 F 
ATOM     90  C   UNL A   1      45.446  36.069  28.944  1.00  0.00     0.198 A 
ATOM     91  C   UNL A   1      46.318  35.208  31.006  1.00  0.00     0.198 A 
ATOM     92  F   UNL A   1      45.971  32.957  31.584  1.00  0.00    -0.203 F 
ATOM     93  F   UNL A   1      45.323  37.074  28.065  1.00  0.00    -0.200 F 
ATOM     94  C   UNL A   1      46.162  36.260  30.116  1.00  0.00     0.200 A 
ATOM     95  F   UNL A   1      46.997  35.393  32.147  1.00  0.00    -0.200 F 
ATOM     96  F   UNL A   1      46.712  37.452  30.382  1.00  0.00    -0.200 F 
ENDBRANCH  63  86
ENDBRANCH  37  38
ENDBRANCH  29  32
ENDBRANCH  27  28
ENDBRANCH  26  27
ENDBRANCH   1  26
TORSDOF 14
ENDMDL
MODEL 3
REMARK VINA RESULT:     -11.2      3.005      4.217
REMARK SMILES O=C(CC1(NC(=O)[C@]2(C(F)(F)F)CC[NH2+]C2)CCC1)NCCCNC(=O)c1ccc(-c2c3nc(c(-c4c(F)c(F)c(F)c(F)c4F)c4ccc([nH]4)c(-c4c(F)c(F)c(F)c(F)c4F)c4nc(c(-c5c(F)c(F)c(F)c(F)c5F)c5ccc2[nH]5)C=C4)C=C3)cc1
REMARK SMILES IDX 21 1 20 2 1 3 2 4 3 6 4 7 17 8 19 9 18 10 5 11 6 12 7 14
REMARK SMILES IDX 8 15 13 16 16 17 14 18 15 19 9 22 10 23 11 24 12 25 22 26
REMARK SMILES IDX 23 27 24 28 25 29 26 31 27 32 28 33 89 34 29 35 88 36 30 37
REMARK SMILES IDX 31 38 32 39 82 40 33 41 87 42 81 43 83 44 34 45 86 46 80 47
REMARK SMILES IDX 79 48 35 50 67 51 47 52 66 53 48 54 51 55 65 56 84 57 49 58
REMARK SMILES IDX 50 59 64 61 85 62 52 63 36 64 37 65 45 66 38 67 39 68 43 69
REMARK SMILES IDX 46 70 40 71 41 72 44 73 42 74 68 75 69 76 77 77 70 78 71 79
REMARK SMILES IDX 75 80 78 81 72 82 73 83 76 84 74 85 53 86 54 87 62 88 55 89
REMARK SMILES IDX 56 90 60 91 63 92 57 93 58 94 61 95 59 96
REMARK H PARENT 20 5 5 13 15 20 15 21 24 30 83 49 51 60
REMARK Flexibility Score: inf
ROOT
ATOM      1  C   UNL A   1      34.069  21.449  25.490  1.00  0.00     0.117 C 
ENDROOT
BRANCH   1   2
ATOM      2  N   UNL A   1      33.275  22.384  24.725  1.00  0.00    -0.356 N 
ATOM      3  O   UNL A   1      33.687  24.258  25.994  1.00  0.00    -0.275 OA
ATOM      4  C   UNL A   1      33.116  23.711  25.063  1.00  0.00     0.222 C 
ATOM      5  H   UNL A   1      32.821  22.054  23.918  1.00  0.00     0.163 HD
BRANCH   4   6
ATOM      6  C   UNL A   1      32.046  24.396  24.232  1.00  0.00     0.128 C 
BRANCH   6   7
ATOM      7  C   UNL A   1      32.480  25.497  23.265  1.00  0.00     0.049 C 
ATOM      8  C   UNL A   1      33.315  24.846  22.107  1.00  0.00     0.029 C 
ATOM      9  C   UNL A   1      31.498  25.995  22.140  1.00  0.00     0.029 C 
ATOM     10  C   UNL A   1      32.579  25.719  21.086  1.00  0.00     0.005 C 
BRANCH   7  11
ATOM     11  N   UNL A   1      33.244  26.669  23.860  1.00  0.00    -0.349 N 
ATOM     12  C   UNL A   1      33.002  27.855  24.507  1.00  0.00     0.241 C 
ATOM     13  H   UNL A   1      34.214  26.537  23.745  1.00  0.00     0.164 HD
ATOM     14  O   UNL A   1      33.982  28.610  24.576  1.00  0.00    -0.274 OA
BRANCH  12  15
ATOM     15  C   UNL A   1      31.686  28.277  25.150  1.00  0.00     0.197 C 
ATOM     16  C   UNL A   1      31.846  29.318  26.277  1.00  0.00     0.094 C 
ATOM     17  C   UNL A   1      31.100  27.090  25.928  1.00  0.00     0.287 C 
ATOM     18  C   UNL A   1      32.095  28.510  27.528  1.00  0.00     0.262 C 
ATOM     19  N   UNL A   1      31.238  27.339  27.374  1.00  0.00    -0.345 N 
ATOM     20  H   UNL A   1      30.324  27.518  27.787  1.00  0.00     0.346 HD
ATOM     21  H   UNL A   1      31.643  26.530  27.844  1.00  0.00     0.346 HD
BRANCH  15  22
ATOM     22  C   UNL A   1      30.829  28.927  24.088  1.00  0.00     0.408 C 
ATOM     23  F   UNL A   1      29.775  28.148  23.743  1.00  0.00    -0.170 F 
ATOM     24  F   UNL A   1      30.291  30.112  24.440  1.00  0.00    -0.170 F 
ATOM     25  F   UNL A   1      31.534  29.152  22.953  1.00  0.00    -0.170 F 
ENDBRANCH  15  22
ENDBRANCH  12  15
ENDBRANCH   7  11
ENDBRANCH   6   7
ENDBRANCH   4   6
ENDBRANCH   1   2
BRANCH   1  26
ATOM     26  C   UNL A   1      35.473  21.283  24.908  1.00  0.00     0.042 C 
BRANCH  26  27
ATOM     27  C   UNL A   1      36.610  21.836  25.768  1.00  0.00     0.118 C 
BRANCH  27  28
ATOM     28  N   UNL A   1      37.728  20.916  25.901  1.00  0.00    -0.352 N 
ATOM     29  C   UNL A   1      39.054  21.128  26.184  1.00  0.00     0.251 C 
ATOM     30  H   UNL A   1      37.490  19.971  25.764  1.00  0.00     0.163 HD
ATOM     31  O   UNL A   1      39.837  20.185  26.089  1.00  0.00    -0.269 OA
BRANCH  29  32
ATOM     32  C   UNL A   1      39.574  22.459  26.577  1.00  0.00     0.039 A 
ATOM     33  C   UNL A   1      40.632  22.507  27.493  1.00  0.00     0.014 A 
ATOM     34  C   UNL A   1      39.012  23.653  26.120  1.00  0.00     0.014 A 
ATOM     35  C   UNL A   1      41.161  23.736  27.896  1.00  0.00     0.010 A 
ATOM     36  C   UNL A   1      39.588  24.880  26.465  1.00  0.00     0.010 A 
ATOM     37  C   UNL A   1      40.673  24.935  27.354  1.00  0.00    -0.014 A 
BRANCH  37  38
ATOM     38  C   UNL A   1      41.321  26.235  27.684  1.00  0.00     0.031 A 
ATOM     39  C   UNL A   1      42.733  26.534  27.256  1.00  0.00     0.074 A 
ATOM     40  C   UNL A   1      40.641  27.143  28.411  1.00  0.00     0.049 A 
ATOM     41  N   UNL A   1      43.451  27.611  27.465  1.00  0.00    -0.248 NA
ATOM     42  C   UNL A   1      43.440  25.480  26.514  1.00  0.00     0.031 C 
ATOM     43  C   UNL A   1      39.286  26.960  28.933  1.00  0.00     0.029 A 
ATOM     44  N   UNL A   1      40.993  28.400  28.841  1.00  0.00    -0.354 N 
ATOM     45  C   UNL A   1      44.689  27.362  26.889  1.00  0.00     0.074 A 
ATOM     46  C   UNL A   1      44.644  26.013  26.367  1.00  0.00     0.031 C 
ATOM     47  C   UNL A   1      38.910  28.072  29.584  1.00  0.00     0.029 A 
ATOM     48  C   UNL A   1      40.009  29.032  29.561  1.00  0.00     0.049 A 
ATOM     49  H   UNL A   1      41.869  28.809  28.649  1.00  0.00     0.167 HD
ATOM     50  C   UNL A   1      45.759  28.190  26.785  1.00  0.00     0.037 A 
ATOM     51  C   UNL A   1      39.992  30.246  30.143  1.00  0.00     0.037 A 
ATOM     52  C   UNL A   1      45.801  29.537  27.295  1.00  0.00     0.049 A 
ATOM     53  C   UNL A   1      41.196  31.141  30.018  1.00  0.00     0.074 A 
ATOM     54  C   UNL A   1      46.821  30.470  27.191  1.00  0.00     0.029 A 
ATOM     55  N   UNL A   1      44.781  30.146  28.013  1.00  0.00    -0.354 N 
ATOM     56  N   UNL A   1      42.333  30.920  29.406  1.00  0.00    -0.248 NA
ATOM     57  C   UNL A   1      41.105  32.461  30.657  1.00  0.00     0.031 C 
ATOM     58  C   UNL A   1      46.441  31.619  27.893  1.00  0.00     0.029 A 
ATOM     59  C   UNL A   1      45.158  31.430  28.380  1.00  0.00     0.049 A 
ATOM     60  H   UNL A   1      43.918  29.727  28.231  1.00  0.00     0.167 HD
ATOM     61  C   UNL A   1      43.079  32.081  29.558  1.00  0.00     0.074 A 
ATOM     62  C   UNL A   1      42.257  33.011  30.303  1.00  0.00     0.031 C 
ATOM     63  C   UNL A   1      44.335  32.351  29.121  1.00  0.00     0.037 A 
BRANCH  50  64
ATOM     64  C   UNL A   1      46.984  27.662  26.090  1.00  0.00     0.064 A 
ATOM     65  C   UNL A   1      47.120  27.716  24.694  1.00  0.00     0.173 A 
ATOM     66  C   UNL A   1      48.056  27.141  26.831  1.00  0.00     0.173 A 
ATOM     67  F   UNL A   1      46.124  28.198  23.936  1.00  0.00    -0.203 F 
ATOM     68  C   UNL A   1      48.269  27.241  24.065  1.00  0.00     0.198 A 
ATOM     69  C   UNL A   1      49.216  26.697  26.202  1.00  0.00     0.198 A 
ATOM     70  F   UNL A   1      47.984  27.072  28.169  1.00  0.00    -0.203 F 
ATOM     71  F   UNL A   1      48.354  27.259  22.728  1.00  0.00    -0.200 F 
ATOM     72  C   UNL A   1      49.319  26.740  24.819  1.00  0.00     0.200 A 
ATOM     73  F   UNL A   1      50.236  26.228  26.933  1.00  0.00    -0.200 F 
ATOM     74  F   UNL A   1      50.427  26.292  24.213  1.00  0.00    -0.200 F 
ENDBRANCH  50  64
BRANCH  51  75
ATOM     75  C   UNL A   1      38.781  30.701  30.876  1.00  0.00     0.064 A 
ATOM     76  C   UNL A   1      37.709  31.299  30.200  1.00  0.00     0.173 A 
ATOM     77  C   UNL A   1      38.674  30.556  32.267  1.00  0.00     0.173 A 
ATOM     78  F   UNL A   1      37.773  31.479  28.872  1.00  0.00    -0.203 F 
ATOM     79  C   UNL A   1      36.588  31.757  30.888  1.00  0.00     0.198 A 
ATOM     80  C   UNL A   1      37.538  30.985  32.951  1.00  0.00     0.198 A 
ATOM     81  F   UNL A   1      39.669  29.984  32.962  1.00  0.00    -0.203 F 
ATOM     82  F   UNL A   1      35.602  32.374  30.223  1.00  0.00    -0.200 F 
ATOM     83  C   UNL A   1      36.501  31.594  32.262  1.00  0.00     0.200 A 
ATOM     84  F   UNL A   1      37.451  30.810  34.276  1.00  0.00    -0.200 F 
ATOM     85  F   UNL A   1      35.421  32.031  32.923  1.00  0.00    -0.200 F 
ENDBRANCH  51  75
BRANCH  63  86
ATOM     86  C   UNL A   1      44.878  33.725  29.403  1.00  0.00     0.064 A 
ATOM     87  C   UNL A   1      45.623  34.003  30.559  1.00  0.00     0.173 A 
ATOM     88  C   UNL A   1      44.657  34.773  28.497  1.00  0.00     0.173 A 
ATOM     89  F   UNL A   1      45.852  33.041  31.464  1.00  0.00    -0.203 F 
ATOM     90  C   UNL A   1      46.087  35.291  30.817  1.00  0.00     0.198 A 
ATOM     91  C   UNL A   1      45.154  36.051  28.743  1.00  0.00     0.198 A 
ATOM     92  F   UNL A   1      43.959  34.561  27.372  1.00  0.00    -0.203 F 
ATOM     93  F   UNL A   1      46.738  35.548  31.962  1.00  0.00    -0.200 F 
ATOM     94  C   UNL A   1      45.858  36.312  29.908  1.00  0.00     0.200 A 
ATOM     95  F   UNL A   1      44.944  37.032  27.854  1.00  0.00    -0.200 F 
ATOM     96  F   UNL A   1      46.304  37.550  30.160  1.00  0.00    -0.200 F 
ENDBRANCH  63  86
ENDBRANCH  37  38
ENDBRANCH  29  32
ENDBRANCH  27  28
ENDBRANCH  26  27
ENDBRANCH   1  26
TORSDOF 14
ENDMDL
