MODEL 1
REMARK VINA RESULT:     -13.7      0.000      0.000
REMARK SMILES C[C@@H]1Cc2ccccc2N1c1ccc(F)cc1C(=O)NCCCNC(=O)c1ccc(-c2c3nc(c(-c4c(F)c(F)c(F)c(F)c4F)c4ccc([nH]4)c(-c4c(F)c(F)c(F)c(F)c4F)c4nc(c(-c5c(F)c(F)c(F)c(F)c5F)c5ccc2[nH]5)C=C4)C=C3)cc1
REMARK SMILES IDX 22 1 21 2 20 3 18 4 19 5 17 7 11 8 12 9 13 10 16 11 14 12
REMARK SMILES IDX 15 13 10 14 1 15 2 16 3 17 4 18 9 19 5 20 8 21 6 22 7 23
REMARK SMILES IDX 23 24 24 25 25 26 26 28 27 29 28 30 89 31 29 32 88 33 30 34
REMARK SMILES IDX 31 35 32 36 82 37 33 38 87 39 81 40 83 41 34 42 86 43 80 44
REMARK SMILES IDX 79 45 35 47 67 48 47 49 66 50 48 51 51 52 65 53 84 54 49 55
REMARK SMILES IDX 50 56 64 58 85 59 52 60 36 61 37 62 45 63 38 64 39 65 43 66
REMARK SMILES IDX 46 67 40 68 41 69 44 70 42 71 68 72 69 73 77 74 70 75 71 76
REMARK SMILES IDX 75 77 78 78 72 79 73 80 76 81 74 82 53 83 54 84 62 85 55 86
REMARK SMILES IDX 56 87 60 88 63 89 57 90 58 91 61 92 59 93
REMARK H PARENT 20 6 24 27 83 46 51 57
REMARK Flexibility Score: inf
ROOT
ATOM      1  C   UNL A   1      31.767  28.394  27.050  1.00  0.00     0.042 C 
ENDROOT
BRANCH   1   2
ATOM      2  C   UNL A   1      32.405  27.025  26.849  1.00  0.00     0.118 C 
BRANCH   2   3
ATOM      3  N   UNL A   1      31.472  25.926  26.754  1.00  0.00    -0.352 N 
ATOM      4  C   UNL A   1      31.259  25.020  25.749  1.00  0.00     0.253 C 
ATOM      5  O   UNL A   1      30.509  24.076  26.016  1.00  0.00    -0.269 OA
ATOM      6  H   UNL A   1      30.893  25.809  27.541  1.00  0.00     0.163 HD
BRANCH   4   7
ATOM      7  C   UNL A   1      31.767  25.133  24.352  1.00  0.00     0.066 A 
ATOM      8  C   UNL A   1      32.680  24.290  23.677  1.00  0.00     0.054 A 
ATOM      9  C   UNL A   1      32.916  24.532  22.303  1.00  0.00     0.030 A 
ATOM     10  C   UNL A   1      32.303  25.582  21.620  1.00  0.00     0.041 A 
ATOM     11  C   UNL A   1      31.152  26.189  23.643  1.00  0.00     0.055 A 
ATOM     12  C   UNL A   1      31.431  26.408  22.303  1.00  0.00     0.124 A 
ATOM     13  F   UNL A   1      30.847  27.430  21.664  1.00  0.00    -0.207 F 
BRANCH   8  14
ATOM     14  N   UNL A   1      33.422  23.285  24.286  1.00  0.00    -0.337 N 
ATOM     15  C   UNL A   1      35.310  24.568  25.341  1.00  0.00     0.032 C 
ATOM     16  C   UNL A   1      34.256  23.478  25.498  1.00  0.00     0.089 C 
ATOM     17  C   UNL A   1      34.927  22.100  25.788  1.00  0.00     0.063 C 
ATOM     18  C   UNL A   1      34.041  21.162  25.036  1.00  0.00    -0.022 A 
ATOM     19  C   UNL A   1      33.159  21.890  24.237  1.00  0.00     0.045 A 
ATOM     20  C   UNL A   1      34.095  19.778  24.973  1.00  0.00     0.006 A 
ATOM     21  C   UNL A   1      32.261  21.238  23.404  1.00  0.00     0.026 A 
ATOM     22  C   UNL A   1      33.210  19.119  24.115  1.00  0.00     0.000 A 
ATOM     23  C   UNL A   1      32.288  19.843  23.347  1.00  0.00     0.002 A 
ENDBRANCH   8  14
ENDBRANCH   4   7
ENDBRANCH   2   3
ENDBRANCH   1   2
BRANCH   1  24
ATOM     24  C   UNL A   1      32.322  29.458  26.101  1.00  0.00     0.118 C 
BRANCH  24  25
ATOM     25  N   UNL A   1      32.232  30.830  26.588  1.00  0.00    -0.352 N 
ATOM     26  C   UNL A   1      33.078  31.682  27.255  1.00  0.00     0.251 C 
ATOM     27  H   UNL A   1      31.359  31.242  26.396  1.00  0.00     0.163 HD
ATOM     28  O   UNL A   1      32.649  32.802  27.541  1.00  0.00    -0.269 OA
BRANCH  26  29
ATOM     29  C   UNL A   1      34.444  31.305  27.708  1.00  0.00     0.039 A 
ATOM     30  C   UNL A   1      34.818  30.002  28.003  1.00  0.00     0.014 A 
ATOM     31  C   UNL A   1      35.410  32.317  27.842  1.00  0.00     0.014 A 
ATOM     32  C   UNL A   1      36.031  29.740  28.632  1.00  0.00     0.010 A 
ATOM     33  C   UNL A   1      36.686  32.033  28.354  1.00  0.00     0.010 A 
ATOM     34  C   UNL A   1      36.985  30.750  28.825  1.00  0.00    -0.014 A 
BRANCH  34  35
ATOM     35  C   UNL A   1      38.239  30.414  29.559  1.00  0.00     0.031 A 
ATOM     36  C   UNL A   1      38.415  30.814  31.003  1.00  0.00     0.074 A 
ATOM     37  C   UNL A   1      39.161  29.625  28.969  1.00  0.00     0.049 A 
ATOM     38  N   UNL A   1      39.394  30.523  31.824  1.00  0.00    -0.248 NA
ATOM     39  C   UNL A   1      37.368  31.654  31.603  1.00  0.00     0.031 C 
ATOM     40  C   UNL A   1      39.106  29.161  27.581  1.00  0.00     0.029 A 
ATOM     41  N   UNL A   1      40.283  29.014  29.475  1.00  0.00    -0.354 N 
ATOM     42  C   UNL A   1      39.096  31.168  33.018  1.00  0.00     0.074 A 
ATOM     43  C   UNL A   1      37.861  31.889  32.811  1.00  0.00     0.031 C 
ATOM     44  C   UNL A   1      40.070  28.252  27.382  1.00  0.00     0.029 A 
ATOM     45  C   UNL A   1      40.867  28.129  28.598  1.00  0.00     0.049 A 
ATOM     46  H   UNL A   1      40.635  29.193  30.377  1.00  0.00     0.167 HD
ATOM     47  C   UNL A   1      39.780  31.148  34.186  1.00  0.00     0.037 A 
ATOM     48  C   UNL A   1      41.923  27.308  28.753  1.00  0.00     0.037 A 
ATOM     49  C   UNL A   1      40.982  30.391  34.413  1.00  0.00     0.049 A 
ATOM     50  C   UNL A   1      42.669  27.313  30.056  1.00  0.00     0.074 A 
ATOM     51  C   UNL A   1      41.742  30.302  35.567  1.00  0.00     0.029 A 
ATOM     52  N   UNL A   1      41.590  29.575  33.471  1.00  0.00    -0.354 N 
ATOM     53  N   UNL A   1      42.391  27.956  31.163  1.00  0.00    -0.248 NA
ATOM     54  C   UNL A   1      43.891  26.500  30.121  1.00  0.00     0.031 C 
ATOM     55  C   UNL A   1      42.827  29.458  35.313  1.00  0.00     0.029 A 
ATOM     56  C   UNL A   1      42.723  28.990  34.014  1.00  0.00     0.049 A 
ATOM     57  H   UNL A   1      41.265  29.432  32.552  1.00  0.00     0.167 HD
ATOM     58  C   UNL A   1      43.404  27.634  32.053  1.00  0.00     0.074 A 
ATOM     59  C   UNL A   1      44.287  26.711  31.370  1.00  0.00     0.031 C 
ATOM     60  C   UNL A   1      43.593  28.079  33.319  1.00  0.00     0.037 A 
BRANCH  47  61
ATOM     61  C   UNL A   1      39.252  31.979  35.319  1.00  0.00     0.064 A 
ATOM     62  C   UNL A   1      38.449  31.425  36.327  1.00  0.00     0.173 A 
ATOM     63  C   UNL A   1      39.605  33.333  35.430  1.00  0.00     0.173 A 
ATOM     64  F   UNL A   1      38.070  30.140  36.257  1.00  0.00    -0.203 F 
ATOM     65  C   UNL A   1      38.005  32.200  37.395  1.00  0.00     0.198 A 
ATOM     66  C   UNL A   1      39.181  34.098  36.514  1.00  0.00     0.198 A 
ATOM     67  F   UNL A   1      40.376  33.909  34.496  1.00  0.00    -0.203 F 
ATOM     68  F   UNL A   1      37.208  31.659  38.327  1.00  0.00    -0.200 F 
ATOM     69  C   UNL A   1      38.379  33.532  37.493  1.00  0.00     0.200 A 
ATOM     70  F   UNL A   1      39.552  35.382  36.612  1.00  0.00    -0.200 F 
ATOM     71  F   UNL A   1      37.961  34.273  38.529  1.00  0.00    -0.200 F 
ENDBRANCH  47  61
BRANCH  48  72
ATOM     72  C   UNL A   1      42.331  26.413  27.638  1.00  0.00     0.064 A 
ATOM     73  C   UNL A   1      43.332  26.796  26.736  1.00  0.00     0.173 A 
ATOM     74  C   UNL A   1      41.752  25.146  27.470  1.00  0.00     0.173 A 
ATOM     75  F   UNL A   1      43.899  28.008  26.840  1.00  0.00    -0.203 F 
ATOM     76  C   UNL A   1      43.743  25.944  25.712  1.00  0.00     0.198 A 
ATOM     77  C   UNL A   1      42.184  24.284  26.465  1.00  0.00     0.198 A 
ATOM     78  F   UNL A   1      40.789  24.733  28.307  1.00  0.00    -0.203 F 
ATOM     79  F   UNL A   1      44.686  26.345  24.847  1.00  0.00    -0.200 F 
ATOM     80  C   UNL A   1      43.176  24.685  25.584  1.00  0.00     0.200 A 
ATOM     81  F   UNL A   1      41.644  23.062  26.357  1.00  0.00    -0.200 F 
ATOM     82  F   UNL A   1      43.585  23.859  24.612  1.00  0.00    -0.200 F 
ENDBRANCH  48  72
BRANCH  60  83
ATOM     83  C   UNL A   1      44.803  27.580  34.049  1.00  0.00     0.064 A 
ATOM     84  C   UNL A   1      46.007  28.300  34.035  1.00  0.00     0.173 A 
ATOM     85  C   UNL A   1      44.741  26.410  34.819  1.00  0.00     0.173 A 
ATOM     86  F   UNL A   1      46.116  29.417  33.301  1.00  0.00    -0.203 F 
ATOM     87  C   UNL A   1      47.111  27.857  34.757  1.00  0.00     0.198 A 
ATOM     88  C   UNL A   1      45.841  25.983  35.558  1.00  0.00     0.198 A 
ATOM     89  F   UNL A   1      43.610  25.692  34.869  1.00  0.00    -0.203 F 
ATOM     90  F   UNL A   1      48.262  28.542  34.705  1.00  0.00    -0.200 F 
ATOM     91  C   UNL A   1      47.025  26.704  35.523  1.00  0.00     0.200 A 
ATOM     92  F   UNL A   1      45.754  24.875  36.307  1.00  0.00    -0.200 F 
ATOM     93  F   UNL A   1      48.086  26.285  36.227  1.00  0.00    -0.200 F 
ENDBRANCH  60  83
ENDBRANCH  34  35
ENDBRANCH  26  29
ENDBRANCH  24  25
ENDBRANCH   1  24
TORSDOF 11
ENDMDL
MODEL 2
REMARK VINA RESULT:     -13.7      1.422      2.944
REMARK SMILES C[C@@H]1Cc2ccccc2N1c1ccc(F)cc1C(=O)NCCCNC(=O)c1ccc(-c2c3nc(c(-c4c(F)c(F)c(F)c(F)c4F)c4ccc([nH]4)c(-c4c(F)c(F)c(F)c(F)c4F)c4nc(c(-c5c(F)c(F)c(F)c(F)c5F)c5ccc2[nH]5)C=C4)C=C3)cc1
REMARK SMILES IDX 22 1 21 2 20 3 18 4 19 5 17 7 11 8 12 9 13 10 16 11 14 12
REMARK SMILES IDX 15 13 10 14 1 15 2 16 3 17 4 18 9 19 5 20 8 21 6 22 7 23
REMARK SMILES IDX 23 24 24 25 25 26 26 28 27 29 28 30 89 31 29 32 88 33 30 34
REMARK SMILES IDX 31 35 32 36 82 37 33 38 87 39 81 40 83 41 34 42 86 43 80 44
REMARK SMILES IDX 79 45 35 47 67 48 47 49 66 50 48 51 51 52 65 53 84 54 49 55
REMARK SMILES IDX 50 56 64 58 85 59 52 60 36 61 37 62 45 63 38 64 39 65 43 66
REMARK SMILES IDX 46 67 40 68 41 69 44 70 42 71 68 72 69 73 77 74 70 75 71 76
REMARK SMILES IDX 75 77 78 78 72 79 73 80 76 81 74 82 53 83 54 84 62 85 55 86
REMARK SMILES IDX 56 87 60 88 63 89 57 90 58 91 61 92 59 93
REMARK H PARENT 20 6 24 27 83 46 51 57
REMARK Flexibility Score: inf
ROOT
ATOM      1  C   UNL A   1      31.986  28.845  27.268  1.00  0.00     0.042 C 
ENDROOT
BRANCH   1   2
ATOM      2  C   UNL A   1      31.964  27.426  26.715  1.00  0.00     0.118 C 
BRANCH   2   3
ATOM      3  N   UNL A   1      30.705  26.734  26.863  1.00  0.00    -0.352 N 
ATOM      4  C   UNL A   1      30.226  25.611  26.244  1.00  0.00     0.253 C 
ATOM      5  O   UNL A   1      29.176  25.144  26.697  1.00  0.00    -0.269 OA
ATOM      6  H   UNL A   1      30.089  27.137  27.516  1.00  0.00     0.163 HD
BRANCH   4   7
ATOM      7  C   UNL A   1      30.800  24.975  25.024  1.00  0.00     0.066 A 
ATOM      8  C   UNL A   1      31.147  25.584  23.795  1.00  0.00     0.054 A 
ATOM      9  C   UNL A   1      31.795  24.788  22.820  1.00  0.00     0.030 A 
ATOM     10  C   UNL A   1      32.068  23.437  23.029  1.00  0.00     0.041 A 
ATOM     11  C   UNL A   1      31.087  23.606  25.219  1.00  0.00     0.055 A 
ATOM     12  C   UNL A   1      31.701  22.855  24.227  1.00  0.00     0.124 A 
ATOM     13  F   UNL A   1      31.941  21.555  24.435  1.00  0.00    -0.207 F 
BRANCH   8  14
ATOM     14  N   UNL A   1      30.828  26.890  23.446  1.00  0.00    -0.337 N 
ATOM     15  C   UNL A   1      33.093  27.970  23.265  1.00  0.00     0.032 C 
ATOM     16  C   UNL A   1      31.709  27.783  22.652  1.00  0.00     0.089 C 
ATOM     17  C   UNL A   1      30.963  29.149  22.547  1.00  0.00     0.063 C 
ATOM     18  C   UNL A   1      29.554  28.754  22.848  1.00  0.00    -0.022 A 
ATOM     19  C   UNL A   1      29.525  27.435  23.301  1.00  0.00     0.045 A 
ATOM     20  C   UNL A   1      28.411  29.538  22.836  1.00  0.00     0.006 A 
ATOM     21  C   UNL A   1      28.328  26.851  23.691  1.00  0.00     0.026 A 
ATOM     22  C   UNL A   1      27.208  28.960  23.253  1.00  0.00     0.000 A 
ATOM     23  C   UNL A   1      27.163  27.620  23.663  1.00  0.00     0.002 A 
ENDBRANCH   8  14
ENDBRANCH   4   7
ENDBRANCH   2   3
ENDBRANCH   1   2
BRANCH   1  24
ATOM     24  C   UNL A   1      32.294  29.898  26.202  1.00  0.00     0.118 C 
BRANCH  24  25
ATOM     25  N   UNL A   1      32.283  31.279  26.674  1.00  0.00    -0.352 N 
ATOM     26  C   UNL A   1      33.179  32.091  27.324  1.00  0.00     0.251 C 
ATOM     27  H   UNL A   1      31.432  31.736  26.482  1.00  0.00     0.163 HD
ATOM     28  O   UNL A   1      32.815  33.236  27.600  1.00  0.00    -0.269 OA
BRANCH  26  29
ATOM     29  C   UNL A   1      34.526  31.644  27.772  1.00  0.00     0.039 A 
ATOM     30  C   UNL A   1      34.836  30.322  28.059  1.00  0.00     0.014 A 
ATOM     31  C   UNL A   1      35.541  32.606  27.910  1.00  0.00     0.014 A 
ATOM     32  C   UNL A   1      36.036  29.997  28.684  1.00  0.00     0.010 A 
ATOM     33  C   UNL A   1      36.801  32.257  28.418  1.00  0.00     0.010 A 
ATOM     34  C   UNL A   1      37.039  30.957  28.881  1.00  0.00    -0.014 A 
BRANCH  34  35
ATOM     35  C   UNL A   1      38.275  30.556  29.611  1.00  0.00     0.031 A 
ATOM     36  C   UNL A   1      38.475  30.940  31.056  1.00  0.00     0.074 A 
ATOM     37  C   UNL A   1      39.155  29.724  29.016  1.00  0.00     0.049 A 
ATOM     38  N   UNL A   1      39.440  30.597  31.873  1.00  0.00    -0.248 NA
ATOM     39  C   UNL A   1      37.473  31.830  31.662  1.00  0.00     0.031 C 
ATOM     40  C   UNL A   1      39.074  29.269  27.626  1.00  0.00     0.029 A 
ATOM     41  N   UNL A   1      40.246  29.055  29.516  1.00  0.00    -0.354 N 
ATOM     42  C   UNL A   1      39.177  31.251  33.070  1.00  0.00     0.074 A 
ATOM     43  C   UNL A   1      37.979  32.035  32.870  1.00  0.00     0.031 C 
ATOM     44  C   UNL A   1      39.990  28.313  27.420  1.00  0.00     0.029 A 
ATOM     45  C   UNL A   1      40.783  28.145  28.635  1.00  0.00     0.049 A 
ATOM     46  H   UNL A   1      40.608  29.212  30.418  1.00  0.00     0.167 HD
ATOM     47  C   UNL A   1      39.862  31.193  34.237  1.00  0.00     0.037 A 
ATOM     48  C   UNL A   1      41.796  27.271  28.783  1.00  0.00     0.037 A 
ATOM     49  C   UNL A   1      41.025  30.375  34.457  1.00  0.00     0.049 A 
ATOM     50  C   UNL A   1      42.545  27.233  30.084  1.00  0.00     0.074 A 
ATOM     51  C   UNL A   1      41.782  30.243  35.610  1.00  0.00     0.029 A 
ATOM     52  N   UNL A   1      41.589  29.533  33.511  1.00  0.00    -0.354 N 
ATOM     53  N   UNL A   1      42.302  27.885  31.194  1.00  0.00    -0.248 NA
ATOM     54  C   UNL A   1      43.725  26.359  30.143  1.00  0.00     0.031 C 
ATOM     55  C   UNL A   1      42.823  29.346  35.350  1.00  0.00     0.029 A 
ATOM     56  C   UNL A   1      42.692  28.890  34.049  1.00  0.00     0.049 A 
ATOM     57  H   UNL A   1      41.255  29.410  32.593  1.00  0.00     0.167 HD
ATOM     58  C   UNL A   1      43.299  27.509  32.081  1.00  0.00     0.074 A 
ATOM     59  C   UNL A   1      44.133  26.545  31.392  1.00  0.00     0.031 C 
ATOM     60  C   UNL A   1      43.514  27.938  33.348  1.00  0.00     0.037 A 
BRANCH  47  61
ATOM     61  C   UNL A   1      39.380  32.044  35.375  1.00  0.00     0.064 A 
ATOM     62  C   UNL A   1      38.536  31.533  36.371  1.00  0.00     0.173 A 
ATOM     63  C   UNL A   1      39.816  33.372  35.501  1.00  0.00     0.173 A 
ATOM     64  F   UNL A   1      38.077  30.274  36.287  1.00  0.00    -0.203 F 
ATOM     65  C   UNL A   1      38.134  32.324  37.444  1.00  0.00     0.198 A 
ATOM     66  C   UNL A   1      39.433  34.152  36.589  1.00  0.00     0.198 A 
ATOM     67  F   UNL A   1      40.628  33.908  34.578  1.00  0.00    -0.203 F 
ATOM     68  F   UNL A   1      37.298  31.825  38.365  1.00  0.00    -0.200 F 
ATOM     69  C   UNL A   1      38.590  33.629  37.557  1.00  0.00     0.200 A 
ATOM     70  F   UNL A   1      39.883  35.409  36.703  1.00  0.00    -0.200 F 
ATOM     71  F   UNL A   1      38.212  34.385  38.598  1.00  0.00    -0.200 F 
ENDBRANCH  47  61
BRANCH  48  72
ATOM     72  C   UNL A   1      42.156  26.362  27.664  1.00  0.00     0.064 A 
ATOM     73  C   UNL A   1      43.166  26.702  26.754  1.00  0.00     0.173 A 
ATOM     74  C   UNL A   1      41.521  25.121  27.499  1.00  0.00     0.173 A 
ATOM     75  F   UNL A   1      43.786  27.888  26.856  1.00  0.00    -0.203 F 
ATOM     76  C   UNL A   1      43.531  25.835  25.726  1.00  0.00     0.198 A 
ATOM     77  C   UNL A   1      41.907  24.243  26.489  1.00  0.00     0.198 A 
ATOM     78  F   UNL A   1      40.547  24.749  28.342  1.00  0.00    -0.203 F 
ATOM     79  F   UNL A   1      44.484  26.196  24.855  1.00  0.00    -0.200 F 
ATOM     80  C   UNL A   1      42.909  24.602  25.600  1.00  0.00     0.200 A 
ATOM     81  F   UNL A   1      41.314  23.047  26.383  1.00  0.00    -0.200 F 
ATOM     82  F   UNL A   1      43.273  23.761  24.624  1.00  0.00    -0.200 F 
ENDBRANCH  48  72
BRANCH  60  83
ATOM     83  C   UNL A   1      44.698  27.376  34.073  1.00  0.00     0.064 A 
ATOM     84  C   UNL A   1      45.935  28.038  34.065  1.00  0.00     0.173 A 
ATOM     85  C   UNL A   1      44.581  26.204  34.832  1.00  0.00     0.173 A 
ATOM     86  F   UNL A   1      46.097  29.156  33.341  1.00  0.00    -0.203 F 
ATOM     87  C   UNL A   1      47.017  27.537  34.782  1.00  0.00     0.198 A 
ATOM     88  C   UNL A   1      45.659  25.718  35.567  1.00  0.00     0.198 A 
ATOM     89  F   UNL A   1      43.417  25.540  34.876  1.00  0.00    -0.203 F 
ATOM     90  F   UNL A   1      48.199  28.167  34.736  1.00  0.00    -0.200 F 
ATOM     91  C   UNL A   1      46.877  26.383  35.539  1.00  0.00     0.200 A 
ATOM     92  F   UNL A   1      45.520  24.609  36.307  1.00  0.00    -0.200 F 
ATOM     93  F   UNL A   1      47.916  25.907  36.238  1.00  0.00    -0.200 F 
ENDBRANCH  60  83
ENDBRANCH  34  35
ENDBRANCH  26  29
ENDBRANCH  24  25
ENDBRANCH   1  24
TORSDOF 11
ENDMDL
MODEL 3
REMARK VINA RESULT:     -13.7      0.125      1.597
REMARK SMILES C[C@@H]1Cc2ccccc2N1c1ccc(F)cc1C(=O)NCCCNC(=O)c1ccc(-c2c3nc(c(-c4c(F)c(F)c(F)c(F)c4F)c4ccc([nH]4)c(-c4c(F)c(F)c(F)c(F)c4F)c4nc(c(-c5c(F)c(F)c(F)c(F)c5F)c5ccc2[nH]5)C=C4)C=C3)cc1
REMARK SMILES IDX 22 1 21 2 20 3 18 4 19 5 17 7 11 8 12 9 13 10 16 11 14 12
REMARK SMILES IDX 15 13 10 14 1 15 2 16 3 17 4 18 9 19 5 20 8 21 6 22 7 23
REMARK SMILES IDX 23 24 24 25 25 26 26 28 27 29 28 30 89 31 29 32 88 33 30 34
REMARK SMILES IDX 31 35 32 36 82 37 33 38 87 39 81 40 83 41 34 42 86 43 80 44
REMARK SMILES IDX 79 45 35 47 67 48 47 49 66 50 48 51 51 52 65 53 84 54 49 55
REMARK SMILES IDX 50 56 64 58 85 59 52 60 36 61 37 62 45 63 38 64 39 65 43 66
REMARK SMILES IDX 46 67 40 68 41 69 44 70 42 71 68 72 69 73 77 74 70 75 71 76
REMARK SMILES IDX 75 77 78 78 72 79 73 80 76 81 74 82 53 83 54 84 62 85 55 86
REMARK SMILES IDX 56 87 60 88 63 89 57 90 58 91 61 92 59 93
REMARK H PARENT 20 6 24 27 83 46 51 57
REMARK Flexibility Score: inf
ROOT
ATOM      1  C   UNL A   1      31.768  28.459  27.083  1.00  0.00     0.042 C 
ENDROOT
BRANCH   1   2
ATOM      2  C   UNL A   1      32.383  27.081  26.875  1.00  0.00     0.118 C 
BRANCH   2   3
ATOM      3  N   UNL A   1      31.433  25.999  26.762  1.00  0.00    -0.352 N 
ATOM      4  C   UNL A   1      31.209  25.110  25.745  1.00  0.00     0.253 C 
ATOM      5  O   UNL A   1      30.441  24.176  25.998  1.00  0.00    -0.269 OA
ATOM      6  H   UNL A   1      30.849  25.882  27.546  1.00  0.00     0.163 HD
BRANCH   4   7
ATOM      7  C   UNL A   1      31.724  25.231  24.352  1.00  0.00     0.066 A 
ATOM      8  C   UNL A   1      32.646  24.397  23.679  1.00  0.00     0.054 A 
ATOM      9  C   UNL A   1      32.889  24.646  22.307  1.00  0.00     0.030 A 
ATOM     10  C   UNL A   1      32.273  25.696  21.625  1.00  0.00     0.041 A 
ATOM     11  C   UNL A   1      31.107  26.287  23.644  1.00  0.00     0.055 A 
ATOM     12  C   UNL A   1      31.393  26.514  22.306  1.00  0.00     0.124 A 
ATOM     13  F   UNL A   1      30.807  27.535  21.668  1.00  0.00    -0.207 F 
BRANCH   8  14
ATOM     14  N   UNL A   1      33.390  23.393  24.288  1.00  0.00    -0.337 N 
ATOM     15  C   UNL A   1      35.265  24.683  25.359  1.00  0.00     0.032 C 
ATOM     16  C   UNL A   1      34.217  23.586  25.505  1.00  0.00     0.089 C 
ATOM     17  C   UNL A   1      34.893  22.211  25.793  1.00  0.00     0.063 C 
ATOM     18  C   UNL A   1      34.017  21.271  25.033  1.00  0.00    -0.022 A 
ATOM     19  C   UNL A   1      33.136  21.997  24.232  1.00  0.00     0.045 A 
ATOM     20  C   UNL A   1      34.079  19.887  24.965  1.00  0.00     0.006 A 
ATOM     21  C   UNL A   1      32.246  21.344  23.391  1.00  0.00     0.026 A 
ATOM     22  C   UNL A   1      33.203  19.227  24.099  1.00  0.00     0.000 A 
ATOM     23  C   UNL A   1      32.280  19.949  23.329  1.00  0.00     0.002 A 
ENDBRANCH   8  14
ENDBRANCH   4   7
ENDBRANCH   2   3
ENDBRANCH   1   2
BRANCH   1  24
ATOM     24  C   UNL A   1      32.320  29.512  26.122  1.00  0.00     0.118 C 
BRANCH  24  25
ATOM     25  N   UNL A   1      32.244  30.889  26.600  1.00  0.00    -0.352 N 
ATOM     26  C   UNL A   1      33.097  31.736  27.263  1.00  0.00     0.251 C 
ATOM     27  H   UNL A   1      31.376  31.309  26.402  1.00  0.00     0.163 HD
ATOM     28  O   UNL A   1      32.680  32.862  27.542  1.00  0.00    -0.269 OA
BRANCH  26  29
ATOM     29  C   UNL A   1      34.458  31.346  27.723  1.00  0.00     0.039 A 
ATOM     30  C   UNL A   1      34.819  30.040  28.020  1.00  0.00     0.014 A 
ATOM     31  C   UNL A   1      35.432  32.349  27.861  1.00  0.00     0.014 A 
ATOM     32  C   UNL A   1      36.027  29.767  28.654  1.00  0.00     0.010 A 
ATOM     33  C   UNL A   1      36.703  32.054  28.379  1.00  0.00     0.010 A 
ATOM     34  C   UNL A   1      36.989  30.768  28.851  1.00  0.00    -0.014 A 
BRANCH  34  35
ATOM     35  C   UNL A   1      38.236  30.421  29.591  1.00  0.00     0.031 A 
ATOM     36  C   UNL A   1      38.417  30.835  31.030  1.00  0.00     0.074 A 
ATOM     37  C   UNL A   1      39.146  29.611  29.012  1.00  0.00     0.049 A 
ATOM     38  N   UNL A   1      39.390  30.539  31.856  1.00  0.00    -0.248 NA
ATOM     39  C   UNL A   1      37.383  31.699  31.619  1.00  0.00     0.031 C 
ATOM     40  C   UNL A   1      39.086  29.131  27.629  1.00  0.00     0.029 A 
ATOM     41  N   UNL A   1      40.258  28.988  29.526  1.00  0.00    -0.354 N 
ATOM     42  C   UNL A   1      39.101  31.202  33.042  1.00  0.00     0.074 A 
ATOM     43  C   UNL A   1      37.878  31.941  32.825  1.00  0.00     0.031 C 
ATOM     44  C   UNL A   1      40.035  28.204  27.442  1.00  0.00     0.029 A 
ATOM     45  C   UNL A   1      40.829  28.083  28.661  1.00  0.00     0.049 A 
ATOM     46  H   UNL A   1      40.611  29.172  30.427  1.00  0.00     0.167 HD
ATOM     47  C   UNL A   1      39.784  31.186  34.211  1.00  0.00     0.037 A 
ATOM     48  C   UNL A   1      41.871  27.247  28.827  1.00  0.00     0.037 A 
ATOM     49  C   UNL A   1      40.973  30.412  34.448  1.00  0.00     0.049 A 
ATOM     50  C   UNL A   1      42.616  27.256  30.131  1.00  0.00     0.074 A 
ATOM     51  C   UNL A   1      41.730  30.325  35.605  1.00  0.00     0.029 A 
ATOM     52  N   UNL A   1      41.569  29.575  33.517  1.00  0.00    -0.354 N 
ATOM     53  N   UNL A   1      42.347  27.917  31.229  1.00  0.00    -0.248 NA
ATOM     54  C   UNL A   1      43.825  26.424  30.207  1.00  0.00     0.031 C 
ATOM     55  C   UNL A   1      42.802  29.461  35.362  1.00  0.00     0.029 A 
ATOM     56  C   UNL A   1      42.692  28.979  34.069  1.00  0.00     0.049 A 
ATOM     57  H   UNL A   1      41.243  29.427  32.600  1.00  0.00     0.167 HD
ATOM     58  C   UNL A   1      43.353  27.589  32.125  1.00  0.00     0.074 A 
ATOM     59  C   UNL A   1      44.222  26.643  31.454  1.00  0.00     0.031 C 
ATOM     60  C   UNL A   1      43.548  28.046  33.386  1.00  0.00     0.037 A 
BRANCH  47  61
ATOM     61  C   UNL A   1      39.268  32.038  35.333  1.00  0.00     0.064 A 
ATOM     62  C   UNL A   1      38.454  31.510  36.346  1.00  0.00     0.173 A 
ATOM     63  C   UNL A   1      39.642  33.387  35.429  1.00  0.00     0.173 A 
ATOM     64  F   UNL A   1      38.055  30.230  36.292  1.00  0.00    -0.203 F 
ATOM     65  C   UNL A   1      38.022  32.304  37.405  1.00  0.00     0.198 A 
ATOM     66  C   UNL A   1      39.230  34.172  36.503  1.00  0.00     0.198 A 
ATOM     67  F   UNL A   1      40.423  33.940  34.489  1.00  0.00    -0.203 F 
ATOM     68  F   UNL A   1      37.215  31.787  38.341  1.00  0.00    -0.200 F 
ATOM     69  C   UNL A   1      38.417  33.631  37.487  1.00  0.00     0.200 A 
ATOM     70  F   UNL A   1      39.621  35.451  36.586  1.00  0.00    -0.200 F 
ATOM     71  F   UNL A   1      38.009  34.390  38.514  1.00  0.00    -0.200 F 
ENDBRANCH  47  61
BRANCH  48  72
ATOM     72  C   UNL A   1      42.266  26.333  27.724  1.00  0.00     0.064 A 
ATOM     73  C   UNL A   1      41.617  25.104  27.540  1.00  0.00     0.173 A 
ATOM     74  C   UNL A   1      43.274  26.680  26.812  1.00  0.00     0.173 A 
ATOM     75  F   UNL A   1      40.663  24.715  28.399  1.00  0.00    -0.203 F 
ATOM     76  C   UNL A   1      41.959  24.260  26.484  1.00  0.00     0.198 A 
ATOM     77  C   UNL A   1      43.594  25.850  25.740  1.00  0.00     0.198 A 
ATOM     78  F   UNL A   1      43.925  27.845  26.945  1.00  0.00    -0.203 F 
ATOM     79  F   UNL A   1      41.341  23.079  26.346  1.00  0.00    -0.200 F 
ATOM     80  C   UNL A   1      42.940  24.639  25.579  1.00  0.00     0.200 A 
ATOM     81  F   UNL A   1      44.530  26.229  24.860  1.00  0.00    -0.200 F 
ATOM     82  F   UNL A   1      43.254  23.837  24.553  1.00  0.00    -0.200 F 
ENDBRANCH  48  72
BRANCH  60  83
ATOM     83  C   UNL A   1      44.749  27.536  34.123  1.00  0.00     0.064 A 
ATOM     84  C   UNL A   1      44.697  26.340  34.854  1.00  0.00     0.173 A 
ATOM     85  C   UNL A   1      45.974  28.212  34.047  1.00  0.00     0.173 A 
ATOM     86  F   UNL A   1      43.543  25.666  34.966  1.00  0.00    -0.203 F 
ATOM     87  C   UNL A   1      45.830  25.846  35.494  1.00  0.00     0.198 A 
ATOM     88  C   UNL A   1      47.111  27.702  34.669  1.00  0.00     0.198 A 
ATOM     89  F   UNL A   1      46.074  29.356  33.354  1.00  0.00    -0.203 F 
ATOM     90  F   UNL A   1      45.752  24.717  36.213  1.00  0.00    -0.200 F 
ATOM     91  C   UNL A   1      47.037  26.522  35.395  1.00  0.00     0.200 A 
ATOM     92  F   UNL A   1      48.279  28.350  34.564  1.00  0.00    -0.200 F 
ATOM     93  F   UNL A   1      48.129  26.040  36.002  1.00  0.00    -0.200 F 
ENDBRANCH  60  83
ENDBRANCH  34  35
ENDBRANCH  26  29
ENDBRANCH  24  25
ENDBRANCH   1  24
TORSDOF 11
ENDMDL
