MODEL 1
REMARK VINA RESULT:     -12.4      0.000      0.000
REMARK SMILES CCc1ccsc1CNC(=O)N1[C@@H]2CC[C@H]1[C@H](C(=O)NCCCNC(=O)c1ccc(-c3c4nc(c(-c5c(F)c(F)c(F)c(F)c5F)c5ccc([nH]5)c(-c5c(F)c(F)c(F)c(F)c5F)c5nc(c(-c6c(F)c(F)c(F)c(F)c6F)c6ccc3[nH]6)C=C5)C=C4)cc1)C2
REMARK SMILES IDX 21 1 20 2 18 3 19 4 17 6 12 7 13 8 16 9 14 10 90 11 15 12
REMARK SMILES IDX 10 13 9 14 11 16 8 17 7 18 3 19 4 20 5 21 6 22 2 23 1 24
REMARK SMILES IDX 22 25 23 26 24 27 25 28 26 30 27 31 28 32 89 33 29 34 88 35
REMARK SMILES IDX 30 36 31 37 32 38 82 39 33 40 87 41 81 42 83 43 34 44 86 45
REMARK SMILES IDX 80 46 79 47 35 49 67 50 47 51 66 52 48 53 51 54 65 55 84 56
REMARK SMILES IDX 49 57 50 58 64 60 85 61 52 62 36 63 37 64 45 65 38 66 39 67
REMARK SMILES IDX 43 68 46 69 40 70 41 71 44 72 42 73 68 74 69 75 77 76 70 77
REMARK SMILES IDX 71 78 75 79 78 80 72 81 73 82 76 83 74 84 53 85 54 86 62 87
REMARK SMILES IDX 55 88 56 89 60 90 63 91 57 92 58 93 61 94 59 95
REMARK H PARENT 20 5 9 15 24 29 83 48 51 59
REMARK Flexibility Score: inf
ROOT
ATOM      1  C   UNL A   1      34.172  29.126  26.445  1.00  0.00     0.117 C 
ENDROOT
BRANCH   1   2
ATOM      2  N   UNL A   1      33.740  27.755  26.607  1.00  0.00    -0.356 N 
ATOM      3  C   UNL A   1      33.221  26.953  25.640  1.00  0.00     0.225 C 
ATOM      4  O   UNL A   1      33.692  25.813  25.557  1.00  0.00    -0.275 OA
ATOM      5  H   UNL A   1      33.833  27.364  27.505  1.00  0.00     0.163 HD
BRANCH   3   6
ATOM      6  C   UNL A   1      32.021  27.322  24.783  1.00  0.00     0.103 C 
ATOM      7  N   UNL A   1      30.865  25.789  23.460  1.00  0.00    -0.318 N 
ATOM      8  C   UNL A   1      29.849  26.475  24.215  1.00  0.00     0.088 C 
ATOM      9  C   UNL A   1      31.843  26.856  23.317  1.00  0.00     0.099 C 
ATOM     10  C   UNL A   1      29.598  27.693  23.296  1.00  0.00     0.027 C 
ATOM     11  C   UNL A   1      30.673  26.905  25.435  1.00  0.00     0.040 C 
ATOM     12  C   UNL A   1      30.976  27.919  22.624  1.00  0.00     0.028 C 
BRANCH   7  13
ATOM     13  C   UNL A   1      31.160  24.469  23.322  1.00  0.00     0.318 C 
ATOM     14  N   UNL A   1      32.490  24.190  23.185  1.00  0.00    -0.333 N 
ATOM     15  H   UNL A   1      33.152  24.843  23.507  1.00  0.00     0.165 HD
ATOM     16  O   UNL A   1      30.278  23.637  23.126  1.00  0.00    -0.249 OA
BRANCH  14  17
ATOM     17  C   UNL A   1      32.955  22.956  22.577  1.00  0.00     0.165 C 
BRANCH  17  18
ATOM     18  C   UNL A   1      33.452  21.981  23.614  1.00  0.00     0.027 A 
ATOM     19  C   UNL A   1      34.632  21.995  24.365  1.00  0.00    -0.033 A 
ATOM     20  C   UNL A   1      34.742  20.801  25.158  1.00  0.00     0.016 A 
ATOM     21  C   UNL A   1      33.679  19.948  24.999  1.00  0.00     0.065 A 
ATOM     22  S   UNL A   1      32.528  20.560  23.907  1.00  0.00    -0.147 S 
BRANCH  19  23
ATOM     23  C   UNL A   1      35.730  23.035  24.342  1.00  0.00     0.033 C 
ATOM     24  C   UNL A   1      36.653  22.953  23.126  1.00  0.00     0.009 C 
ENDBRANCH  19  23
ENDBRANCH  17  18
ENDBRANCH  14  17
ENDBRANCH   7  13
ENDBRANCH   3   6
ENDBRANCH   1   2
BRANCH   1  25
ATOM     25  C   UNL A   1      33.188  30.167  26.969  1.00  0.00     0.042 C 
BRANCH  25  26
ATOM     26  C   UNL A   1      33.902  31.407  27.514  1.00  0.00     0.118 C 
BRANCH  26  27
ATOM     27  N   UNL A   1      33.057  32.582  27.629  1.00  0.00    -0.352 N 
ATOM     28  C   UNL A   1      33.278  33.827  28.181  1.00  0.00     0.251 C 
ATOM     29  H   UNL A   1      32.160  32.469  27.242  1.00  0.00     0.163 HD
ATOM     30  O   UNL A   1      32.481  34.741  28.001  1.00  0.00    -0.269 OA
BRANCH  28  31
ATOM     31  C   UNL A   1      34.383  34.031  29.140  1.00  0.00     0.039 A 
ATOM     32  C   UNL A   1      34.154  33.584  30.449  1.00  0.00     0.014 A 
ATOM     33  C   UNL A   1      35.657  34.430  28.754  1.00  0.00     0.014 A 
ATOM     34  C   UNL A   1      35.232  33.320  31.284  1.00  0.00     0.010 A 
ATOM     35  C   UNL A   1      36.739  34.068  29.539  1.00  0.00     0.010 A 
ATOM     36  C   UNL A   1      36.530  33.439  30.773  1.00  0.00    -0.014 A 
BRANCH  36  37
ATOM     37  C   UNL A   1      37.674  32.777  31.434  1.00  0.00     0.031 A 
ATOM     38  C   UNL A   1      38.329  31.600  30.788  1.00  0.00     0.074 A 
ATOM     39  C   UNL A   1      38.003  33.164  32.683  1.00  0.00     0.049 A 
ATOM     40  N   UNL A   1      39.225  30.786  31.278  1.00  0.00    -0.248 NA
ATOM     41  C   UNL A   1      37.886  31.268  29.425  1.00  0.00     0.031 C 
ATOM     42  C   UNL A   1      37.360  34.247  33.435  1.00  0.00     0.029 A 
ATOM     43  N   UNL A   1      38.944  32.678  33.553  1.00  0.00    -0.354 N 
ATOM     44  C   UNL A   1      39.443  29.837  30.292  1.00  0.00     0.074 A 
ATOM     45  C   UNL A   1      38.546  30.142  29.198  1.00  0.00     0.031 C 
ATOM     46  C   UNL A   1      37.940  34.358  34.639  1.00  0.00     0.029 A 
ATOM     47  C   UNL A   1      38.963  33.330  34.763  1.00  0.00     0.049 A 
ATOM     48  H   UNL A   1      39.548  31.933  33.332  1.00  0.00     0.167 HD
ATOM     49  C   UNL A   1      40.333  28.818  30.295  1.00  0.00     0.037 A 
ATOM     50  C   UNL A   1      39.719  33.109  35.854  1.00  0.00     0.037 A 
ATOM     51  C   UNL A   1      41.228  28.540  31.385  1.00  0.00     0.049 A 
ATOM     52  C   UNL A   1      40.723  31.993  35.814  1.00  0.00     0.074 A 
ATOM     53  C   UNL A   1      42.187  27.550  31.487  1.00  0.00     0.029 A 
ATOM     54  N   UNL A   1      41.275  29.270  32.566  1.00  0.00    -0.354 N 
ATOM     55  N   UNL A   1      40.959  31.131  34.855  1.00  0.00    -0.248 NA
ATOM     56  C   UNL A   1      41.571  31.821  37.001  1.00  0.00     0.031 C 
ATOM     57  C   UNL A   1      42.804  27.669  32.738  1.00  0.00     0.029 A 
ATOM     58  C   UNL A   1      42.251  28.754  33.401  1.00  0.00     0.049 A 
ATOM     59  H   UNL A   1      40.699  30.040  32.778  1.00  0.00     0.167 HD
ATOM     60  C   UNL A   1      41.994  30.329  35.309  1.00  0.00     0.074 A 
ATOM     61  C   UNL A   1      42.353  30.818  36.626  1.00  0.00     0.031 C 
ATOM     62  C   UNL A   1      42.592  29.278  34.699  1.00  0.00     0.037 A 
BRANCH  49  63
ATOM     63  C   UNL A   1      40.385  27.953  29.073  1.00  0.00     0.064 A 
ATOM     64  C   UNL A   1      41.159  28.315  27.959  1.00  0.00     0.173 A 
ATOM     65  C   UNL A   1      39.660  26.755  29.009  1.00  0.00     0.173 A 
ATOM     66  F   UNL A   1      41.853  29.463  27.965  1.00  0.00    -0.203 F 
ATOM     67  C   UNL A   1      41.182  27.523  26.815  1.00  0.00     0.198 A 
ATOM     68  C   UNL A   1      39.708  25.951  27.872  1.00  0.00     0.198 A 
ATOM     69  F   UNL A   1      38.903  26.365  30.044  1.00  0.00    -0.203 F 
ATOM     70  F   UNL A   1      41.886  27.917  25.745  1.00  0.00    -0.200 F 
ATOM     71  C   UNL A   1      40.461  26.339  26.774  1.00  0.00     0.200 A 
ATOM     72  F   UNL A   1      39.015  24.804  27.835  1.00  0.00    -0.200 F 
ATOM     73  F   UNL A   1      40.484  25.578  25.672  1.00  0.00    -0.200 F 
ENDBRANCH  49  63
BRANCH  50  74
ATOM     74  C   UNL A   1      39.575  33.973  37.054  1.00  0.00     0.064 A 
ATOM     75  C   UNL A   1      38.787  33.564  38.139  1.00  0.00     0.173 A 
ATOM     76  C   UNL A   1      40.212  35.219  37.144  1.00  0.00     0.173 A 
ATOM     77  F   UNL A   1      38.144  32.387  38.093  1.00  0.00    -0.203 F 
ATOM     78  C   UNL A   1      38.618  34.380  39.256  1.00  0.00     0.198 A 
ATOM     79  C   UNL A   1      40.064  36.023  38.273  1.00  0.00     0.198 A 
ATOM     80  F   UNL A   1      40.985  35.652  36.138  1.00  0.00    -0.203 F 
ATOM     81  F   UNL A   1      37.819  33.985  40.257  1.00  0.00    -0.200 F 
ATOM     82  C   UNL A   1      39.260  35.607  39.324  1.00  0.00     0.200 A 
ATOM     83  F   UNL A   1      40.695  37.203  38.339  1.00  0.00    -0.200 F 
ATOM     84  F   UNL A   1      39.095  36.394  40.396  1.00  0.00    -0.200 F 
ENDBRANCH  50  74
BRANCH  62  85
ATOM     85  C   UNL A   1      43.714  28.616  35.436  1.00  0.00     0.064 A 
ATOM     86  C   UNL A   1      43.476  27.586  36.357  1.00  0.00     0.173 A 
ATOM     87  C   UNL A   1      45.042  28.989  35.184  1.00  0.00     0.173 A 
ATOM     88  F   UNL A   1      42.220  27.211  36.641  1.00  0.00    -0.203 F 
ATOM     89  C   UNL A   1      44.532  26.963  37.015  1.00  0.00     0.198 A 
ATOM     90  C   UNL A   1      46.096  28.347  35.826  1.00  0.00     0.198 A 
ATOM     91  F   UNL A   1      45.315  29.967  34.308  1.00  0.00    -0.203 F 
ATOM     92  F   UNL A   1      44.283  26.006  37.919  1.00  0.00    -0.200 F 
ATOM     93  C   UNL A   1      45.840  27.339  36.744  1.00  0.00     0.200 A 
ATOM     94  F   UNL A   1      47.359  28.704  35.557  1.00  0.00    -0.200 F 
ATOM     95  F   UNL A   1      46.855  26.731  37.372  1.00  0.00    -0.200 F 
ENDBRANCH  62  85
ENDBRANCH  36  37
ENDBRANCH  28  31
ENDBRANCH  26  27
ENDBRANCH  25  26
ENDBRANCH   1  25
TORSDOF 14
ENDMDL
MODEL 2
REMARK VINA RESULT:     -12.4      3.151      8.508
REMARK SMILES CCc1ccsc1CNC(=O)N1[C@@H]2CC[C@H]1[C@H](C(=O)NCCCNC(=O)c1ccc(-c3c4nc(c(-c5c(F)c(F)c(F)c(F)c5F)c5ccc([nH]5)c(-c5c(F)c(F)c(F)c(F)c5F)c5nc(c(-c6c(F)c(F)c(F)c(F)c6F)c6ccc3[nH]6)C=C5)C=C4)cc1)C2
REMARK SMILES IDX 21 1 20 2 18 3 19 4 17 6 12 7 13 8 16 9 14 10 90 11 15 12
REMARK SMILES IDX 10 13 9 14 11 16 8 17 7 18 3 19 4 20 5 21 6 22 2 23 1 24
REMARK SMILES IDX 22 25 23 26 24 27 25 28 26 30 27 31 28 32 89 33 29 34 88 35
REMARK SMILES IDX 30 36 31 37 32 38 82 39 33 40 87 41 81 42 83 43 34 44 86 45
REMARK SMILES IDX 80 46 79 47 35 49 67 50 47 51 66 52 48 53 51 54 65 55 84 56
REMARK SMILES IDX 49 57 50 58 64 60 85 61 52 62 36 63 37 64 45 65 38 66 39 67
REMARK SMILES IDX 43 68 46 69 40 70 41 71 44 72 42 73 68 74 69 75 77 76 70 77
REMARK SMILES IDX 71 78 75 79 78 80 72 81 73 82 76 83 74 84 53 85 54 86 62 87
REMARK SMILES IDX 55 88 56 89 60 90 63 91 57 92 58 93 61 94 59 95
REMARK H PARENT 20 5 9 15 24 29 83 48 51 59
REMARK Flexibility Score: inf
ROOT
ATOM      1  C   UNL A   1      39.447  21.002  26.082  1.00  0.00     0.117 C 
ENDROOT
BRANCH   1   2
ATOM      2  N   UNL A   1      38.914  22.174  25.423  1.00  0.00    -0.356 N 
ATOM      3  C   UNL A   1      37.787  22.850  25.766  1.00  0.00     0.225 C 
ATOM      4  O   UNL A   1      37.881  24.082  25.835  1.00  0.00    -0.275 OA
ATOM      5  H   UNL A   1      39.418  22.515  24.650  1.00  0.00     0.163 HD
BRANCH   3   6
ATOM      6  C   UNL A   1      36.418  22.205  25.914  1.00  0.00     0.103 C 
ATOM      7  N   UNL A   1      34.518  22.942  24.783  1.00  0.00    -0.318 N 
ATOM      8  C   UNL A   1      34.561  21.521  24.558  1.00  0.00     0.088 C 
ATOM      9  C   UNL A   1      35.110  23.010  26.110  1.00  0.00     0.099 C 
ATOM     10  C   UNL A   1      33.810  21.019  25.813  1.00  0.00     0.027 C 
ATOM     11  C   UNL A   1      36.066  21.274  24.720  1.00  0.00     0.040 C 
ATOM     12  C   UNL A   1      34.145  22.093  26.878  1.00  0.00     0.028 C 
BRANCH   7  13
ATOM     13  C   UNL A   1      34.455  23.997  23.929  1.00  0.00     0.318 C 
ATOM     14  N   UNL A   1      34.198  25.201  24.521  1.00  0.00    -0.333 N 
ATOM     15  H   UNL A   1      34.394  25.315  25.479  1.00  0.00     0.165 HD
ATOM     16  O   UNL A   1      34.423  23.830  22.712  1.00  0.00    -0.249 OA
BRANCH  14  17
ATOM     17  C   UNL A   1      33.645  26.318  23.778  1.00  0.00     0.165 C 
BRANCH  17  18
ATOM     18  C   UNL A   1      32.155  26.434  23.978  1.00  0.00     0.027 A 
ATOM     19  C   UNL A   1      31.429  27.250  24.853  1.00  0.00    -0.033 A 
ATOM     20  C   UNL A   1      30.025  26.949  24.779  1.00  0.00     0.016 A 
ATOM     21  C   UNL A   1      29.733  25.956  23.877  1.00  0.00     0.065 A 
ATOM     22  S   UNL A   1      31.128  25.370  23.100  1.00  0.00    -0.147 S 
BRANCH  19  23
ATOM     23  C   UNL A   1      31.971  28.266  25.833  1.00  0.00     0.033 C 
ATOM     24  C   UNL A   1      31.708  27.932  27.301  1.00  0.00     0.009 C 
ENDBRANCH  19  23
ENDBRANCH  17  18
ENDBRANCH  14  17
ENDBRANCH   7  13
ENDBRANCH   3   6
ENDBRANCH   1   2
BRANCH   1  25
ATOM     25  C   UNL A   1      40.969  20.945  26.143  1.00  0.00     0.042 C 
BRANCH  25  26
ATOM     26  C   UNL A   1      41.582  22.313  26.457  1.00  0.00     0.118 C 
BRANCH  26  27
ATOM     27  N   UNL A   1      42.532  22.785  25.466  1.00  0.00    -0.352 N 
ATOM     28  C   UNL A   1      43.031  24.041  25.191  1.00  0.00     0.251 C 
ATOM     29  H   UNL A   1      42.886  22.077  24.881  1.00  0.00     0.163 HD
ATOM     30  O   UNL A   1      43.975  24.185  24.421  1.00  0.00    -0.269 OA
BRANCH  28  31
ATOM     31  C   UNL A   1      42.325  25.245  25.677  1.00  0.00     0.039 A 
ATOM     32  C   UNL A   1      41.091  25.026  26.303  1.00  0.00     0.014 A 
ATOM     33  C   UNL A   1      42.918  26.501  25.728  1.00  0.00     0.014 A 
ATOM     34  C   UNL A   1      40.575  25.987  27.164  1.00  0.00     0.010 A 
ATOM     35  C   UNL A   1      42.468  27.417  26.664  1.00  0.00     0.010 A 
ATOM     36  C   UNL A   1      41.339  27.126  27.442  1.00  0.00    -0.014 A 
BRANCH  36  37
ATOM     37  C   UNL A   1      41.072  27.951  28.639  1.00  0.00     0.031 A 
ATOM     38  C   UNL A   1      41.866  27.735  29.886  1.00  0.00     0.074 A 
ATOM     39  C   UNL A   1      40.010  28.781  28.619  1.00  0.00     0.049 A 
ATOM     40  N   UNL A   1      41.674  28.231  31.079  1.00  0.00    -0.248 NA
ATOM     41  C   UNL A   1      43.000  26.803  29.789  1.00  0.00     0.031 C 
ATOM     42  C   UNL A   1      39.117  28.994  27.474  1.00  0.00     0.029 A 
ATOM     43  N   UNL A   1      39.483  29.585  29.596  1.00  0.00    -0.354 N 
ATOM     44  C   UNL A   1      42.653  27.662  31.879  1.00  0.00     0.074 A 
ATOM     45  C   UNL A   1      43.401  26.741  31.051  1.00  0.00     0.031 C 
ATOM     46  C   UNL A   1      38.173  29.886  27.806  1.00  0.00     0.029 A 
ATOM     47  C   UNL A   1      38.363  30.275  29.197  1.00  0.00     0.049 A 
ATOM     48  H   UNL A   1      39.870  29.661  30.498  1.00  0.00     0.167 HD
ATOM     49  C   UNL A   1      42.914  27.909  33.183  1.00  0.00     0.037 A 
ATOM     50  C   UNL A   1      37.574  31.120  29.885  1.00  0.00     0.037 A 
ATOM     51  C   UNL A   1      42.169  28.841  33.986  1.00  0.00     0.049 A 
ATOM     52  C   UNL A   1      37.911  31.402  31.321  1.00  0.00     0.074 A 
ATOM     53  C   UNL A   1      42.360  29.188  35.310  1.00  0.00     0.029 A 
ATOM     54  N   UNL A   1      41.088  29.582  33.526  1.00  0.00    -0.354 N 
ATOM     55  N   UNL A   1      38.872  30.897  32.057  1.00  0.00    -0.248 NA
ATOM     56  C   UNL A   1      37.063  32.374  32.023  1.00  0.00     0.031 C 
ATOM     57  C   UNL A   1      41.384  30.129  35.658  1.00  0.00     0.029 A 
ATOM     58  C   UNL A   1      40.605  30.390  34.541  1.00  0.00     0.049 A 
ATOM     59  H   UNL A   1      40.720  29.539  32.615  1.00  0.00     0.167 HD
ATOM     60  C   UNL A   1      38.760  31.503  33.299  1.00  0.00     0.074 A 
ATOM     61  C   UNL A   1      37.646  32.427  33.212  1.00  0.00     0.031 C 
ATOM     62  C   UNL A   1      39.504  31.310  34.414  1.00  0.00     0.037 A 
BRANCH  49  63
ATOM     63  C   UNL A   1      44.063  27.172  33.800  1.00  0.00     0.064 A 
ATOM     64  C   UNL A   1      43.881  25.919  34.406  1.00  0.00     0.173 A 
ATOM     65  C   UNL A   1      45.355  27.716  33.790  1.00  0.00     0.173 A 
ATOM     66  F   UNL A   1      42.659  25.368  34.459  1.00  0.00    -0.203 F 
ATOM     67  C   UNL A   1      44.944  25.250  35.003  1.00  0.00     0.198 A 
ATOM     68  C   UNL A   1      46.422  27.030  34.364  1.00  0.00     0.198 A 
ATOM     69  F   UNL A   1      45.582  28.911  33.227  1.00  0.00    -0.203 F 
ATOM     70  F   UNL A   1      44.735  24.080  35.622  1.00  0.00    -0.200 F 
ATOM     71  C   UNL A   1      46.215  25.803  34.977  1.00  0.00     0.200 A 
ATOM     72  F   UNL A   1      47.652  27.563  34.335  1.00  0.00    -0.200 F 
ATOM     73  F   UNL A   1      47.239  25.159  35.553  1.00  0.00    -0.200 F 
ENDBRANCH  49  63
BRANCH  50  74
ATOM     74  C   UNL A   1      36.416  31.773  29.223  1.00  0.00     0.064 A 
ATOM     75  C   UNL A   1      36.417  33.155  28.981  1.00  0.00     0.173 A 
ATOM     76  C   UNL A   1      35.288  31.042  28.824  1.00  0.00     0.173 A 
ATOM     77  F   UNL A   1      37.467  33.899  29.361  1.00  0.00    -0.203 F 
ATOM     78  C   UNL A   1      35.323  33.784  28.391  1.00  0.00     0.198 A 
ATOM     79  C   UNL A   1      34.205  31.669  28.209  1.00  0.00     0.198 A 
ATOM     80  F   UNL A   1      35.241  29.718  29.024  1.00  0.00    -0.203 F 
ATOM     81  F   UNL A   1      35.331  35.113  28.217  1.00  0.00    -0.200 F 
ATOM     82  C   UNL A   1      34.219  33.040  28.002  1.00  0.00     0.200 A 
ATOM     83  F   UNL A   1      33.145  30.945  27.825  1.00  0.00    -0.200 F 
ATOM     84  F   UNL A   1      33.165  33.646  27.438  1.00  0.00    -0.200 F 
ENDBRANCH  50  74
BRANCH  62  85
ATOM     85  C   UNL A   1      39.158  32.140  35.610  1.00  0.00     0.064 A 
ATOM     86  C   UNL A   1      39.658  33.441  35.767  1.00  0.00     0.173 A 
ATOM     87  C   UNL A   1      38.284  31.642  36.587  1.00  0.00     0.173 A 
ATOM     88  F   UNL A   1      40.512  33.949  34.865  1.00  0.00    -0.203 F 
ATOM     89  C   UNL A   1      39.306  34.209  36.871  1.00  0.00     0.198 A 
ATOM     90  C   UNL A   1      37.916  32.422  37.678  1.00  0.00     0.198 A 
ATOM     91  F   UNL A   1      37.780  30.404  36.475  1.00  0.00    -0.203 F 
ATOM     92  F   UNL A   1      39.823  35.436  37.023  1.00  0.00    -0.200 F 
ATOM     93  C   UNL A   1      38.431  33.702  37.822  1.00  0.00     0.200 A 
ATOM     94  F   UNL A   1      37.064  31.936  38.591  1.00  0.00    -0.200 F 
ATOM     95  F   UNL A   1      38.087  34.448  38.881  1.00  0.00    -0.200 F 
ENDBRANCH  62  85
ENDBRANCH  36  37
ENDBRANCH  28  31
ENDBRANCH  26  27
ENDBRANCH  25  26
ENDBRANCH   1  25
TORSDOF 14
ENDMDL
MODEL 3
REMARK VINA RESULT:     -12.4      0.663      1.305
REMARK SMILES CCc1ccsc1CNC(=O)N1[C@@H]2CC[C@H]1[C@H](C(=O)NCCCNC(=O)c1ccc(-c3c4nc(c(-c5c(F)c(F)c(F)c(F)c5F)c5ccc([nH]5)c(-c5c(F)c(F)c(F)c(F)c5F)c5nc(c(-c6c(F)c(F)c(F)c(F)c6F)c6ccc3[nH]6)C=C5)C=C4)cc1)C2
REMARK SMILES IDX 21 1 20 2 18 3 19 4 17 6 12 7 13 8 16 9 14 10 90 11 15 12
REMARK SMILES IDX 10 13 9 14 11 16 8 17 7 18 3 19 4 20 5 21 6 22 2 23 1 24
REMARK SMILES IDX 22 25 23 26 24 27 25 28 26 30 27 31 28 32 89 33 29 34 88 35
REMARK SMILES IDX 30 36 31 37 32 38 82 39 33 40 87 41 81 42 83 43 34 44 86 45
REMARK SMILES IDX 80 46 79 47 35 49 67 50 47 51 66 52 48 53 51 54 65 55 84 56
REMARK SMILES IDX 49 57 50 58 64 60 85 61 52 62 36 63 37 64 45 65 38 66 39 67
REMARK SMILES IDX 43 68 46 69 40 70 41 71 44 72 42 73 68 74 69 75 77 76 70 77
REMARK SMILES IDX 71 78 75 79 78 80 72 81 73 82 76 83 74 84 53 85 54 86 62 87
REMARK SMILES IDX 55 88 56 89 60 90 63 91 57 92 58 93 61 94 59 95
REMARK H PARENT 20 5 9 15 24 29 83 48 51 59
REMARK Flexibility Score: inf
ROOT
ATOM      1  C   UNL A   1      34.227  28.953  26.523  1.00  0.00     0.117 C 
ENDROOT
BRANCH   1   2
ATOM      2  N   UNL A   1      33.712  27.602  26.507  1.00  0.00    -0.356 N 
ATOM      3  C   UNL A   1      33.217  26.940  25.428  1.00  0.00     0.225 C 
ATOM      4  O   UNL A   1      33.630  25.788  25.250  1.00  0.00    -0.275 OA
ATOM      5  H   UNL A   1      33.722  27.113  27.360  1.00  0.00     0.163 HD
BRANCH   3   6
ATOM      6  C   UNL A   1      32.099  27.469  24.543  1.00  0.00     0.103 C 
ATOM      7  N   UNL A   1      31.700  26.703  22.378  1.00  0.00    -0.318 N 
ATOM      8  C   UNL A   1      30.419  26.656  23.035  1.00  0.00     0.088 C 
ATOM      9  C   UNL A   1      32.294  27.846  23.054  1.00  0.00     0.099 C 
ATOM     10  C   UNL A   1      29.927  28.101  22.783  1.00  0.00     0.027 C 
ATOM     11  C   UNL A   1      30.876  26.511  24.492  1.00  0.00     0.040 C 
ATOM     12  C   UNL A   1      31.242  28.919  22.735  1.00  0.00     0.028 C 
BRANCH   7  13
ATOM     13  C   UNL A   1      32.419  25.757  21.719  1.00  0.00     0.318 C 
ATOM     14  N   UNL A   1      32.280  24.488  22.204  1.00  0.00    -0.333 N 
ATOM     15  H   UNL A   1      31.481  24.264  22.733  1.00  0.00     0.165 HD
ATOM     16  O   UNL A   1      33.278  26.069  20.897  1.00  0.00    -0.249 OA
BRANCH  14  17
ATOM     17  C   UNL A   1      33.276  23.461  21.961  1.00  0.00     0.165 C 
BRANCH  17  18
ATOM     18  C   UNL A   1      33.373  22.498  23.117  1.00  0.00     0.027 A 
ATOM     19  C   UNL A   1      34.374  22.358  24.085  1.00  0.00    -0.033 A 
ATOM     20  C   UNL A   1      34.101  21.232  24.936  1.00  0.00     0.016 A 
ATOM     21  C   UNL A   1      32.940  20.576  24.608  1.00  0.00     0.065 A 
ATOM     22  S   UNL A   1      32.153  21.297  23.284  1.00  0.00    -0.147 S 
BRANCH  19  23
ATOM     23  C   UNL A   1      35.637  23.176  24.233  1.00  0.00     0.033 C 
ATOM     24  C   UNL A   1      36.668  22.953  23.127  1.00  0.00     0.009 C 
ENDBRANCH  19  23
ENDBRANCH  17  18
ENDBRANCH  14  17
ENDBRANCH   7  13
ENDBRANCH   3   6
ENDBRANCH   1   2
BRANCH   1  25
ATOM     25  C   UNL A   1      33.221  30.010  26.966  1.00  0.00     0.042 C 
BRANCH  25  26
ATOM     26  C   UNL A   1      33.910  31.256  27.531  1.00  0.00     0.118 C 
BRANCH  26  27
ATOM     27  N   UNL A   1      33.051  32.423  27.625  1.00  0.00    -0.352 N 
ATOM     28  C   UNL A   1      33.255  33.677  28.164  1.00  0.00     0.251 C 
ATOM     29  H   UNL A   1      32.158  32.297  27.233  1.00  0.00     0.163 HD
ATOM     30  O   UNL A   1      32.450  34.581  27.967  1.00  0.00    -0.269 OA
BRANCH  28  31
ATOM     31  C   UNL A   1      34.350  33.904  29.129  1.00  0.00     0.039 A 
ATOM     32  C   UNL A   1      34.127  33.444  30.435  1.00  0.00     0.014 A 
ATOM     33  C   UNL A   1      35.615  34.337  28.751  1.00  0.00     0.014 A 
ATOM     34  C   UNL A   1      35.207  33.202  31.274  1.00  0.00     0.010 A 
ATOM     35  C   UNL A   1      36.702  33.998  29.539  1.00  0.00     0.010 A 
ATOM     36  C   UNL A   1      36.504  33.357  30.770  1.00  0.00    -0.014 A 
BRANCH  36  37
ATOM     37  C   UNL A   1      37.661  32.721  31.432  1.00  0.00     0.031 A 
ATOM     38  C   UNL A   1      38.341  31.555  30.789  1.00  0.00     0.074 A 
ATOM     39  C   UNL A   1      37.982  33.118  32.679  1.00  0.00     0.049 A 
ATOM     40  N   UNL A   1      39.253  30.761  31.282  1.00  0.00    -0.248 NA
ATOM     41  C   UNL A   1      37.905  31.210  29.427  1.00  0.00     0.031 C 
ATOM     42  C   UNL A   1      37.317  34.190  33.429  1.00  0.00     0.029 A 
ATOM     43  N   UNL A   1      38.933  32.654  33.551  1.00  0.00    -0.354 N 
ATOM     44  C   UNL A   1      39.491  29.814  30.298  1.00  0.00     0.074 A 
ATOM     45  C   UNL A   1      38.588  30.097  29.203  1.00  0.00     0.031 C 
ATOM     46  C   UNL A   1      37.895  34.316  34.632  1.00  0.00     0.029 A 
ATOM     47  C   UNL A   1      38.939  33.309  34.760  1.00  0.00     0.049 A 
ATOM     48  H   UNL A   1      39.553  31.921  33.332  1.00  0.00     0.167 HD
ATOM     49  C   UNL A   1      40.401  28.814  30.304  1.00  0.00     0.037 A 
ATOM     50  C   UNL A   1      39.699  33.108  35.851  1.00  0.00     0.037 A 
ATOM     51  C   UNL A   1      41.302  28.558  31.395  1.00  0.00     0.049 A 
ATOM     52  C   UNL A   1      40.727  32.012  35.814  1.00  0.00     0.074 A 
ATOM     53  C   UNL A   1      42.281  27.587  31.500  1.00  0.00     0.029 A 
ATOM     54  N   UNL A   1      41.334  29.292  32.574  1.00  0.00    -0.354 N 
ATOM     55  N   UNL A   1      40.980  31.152  34.857  1.00  0.00    -0.248 NA
ATOM     56  C   UNL A   1      41.577  31.861  37.001  1.00  0.00     0.031 C 
ATOM     57  C   UNL A   1      42.895  27.723  32.750  1.00  0.00     0.029 A 
ATOM     58  C   UNL A   1      42.320  28.798  33.410  1.00  0.00     0.049 A 
ATOM     59  H   UNL A   1      40.743  30.050  32.783  1.00  0.00     0.167 HD
ATOM     60  C   UNL A   1      42.031  30.373  35.314  1.00  0.00     0.074 A 
ATOM     61  C   UNL A   1      42.380  30.874  36.629  1.00  0.00     0.031 C 
ATOM     62  C   UNL A   1      42.650  29.333  34.706  1.00  0.00     0.037 A 
BRANCH  49  63
ATOM     63  C   UNL A   1      40.471  27.946  29.084  1.00  0.00     0.064 A 
ATOM     64  C   UNL A   1      41.295  28.283  27.999  1.00  0.00     0.173 A 
ATOM     65  C   UNL A   1      39.712  26.771  28.994  1.00  0.00     0.173 A 
ATOM     66  F   UNL A   1      42.023  29.409  28.030  1.00  0.00    -0.203 F 
ATOM     67  C   UNL A   1      41.336  27.490  26.857  1.00  0.00     0.198 A 
ATOM     68  C   UNL A   1      39.777  25.965  27.860  1.00  0.00     0.198 A 
ATOM     69  F   UNL A   1      38.907  26.406  30.001  1.00  0.00    -0.203 F 
ATOM     70  F   UNL A   1      42.089  27.861  25.813  1.00  0.00    -0.200 F 
ATOM     71  C   UNL A   1      40.581  26.329  26.790  1.00  0.00     0.200 A 
ATOM     72  F   UNL A   1      39.051  24.840  27.797  1.00  0.00    -0.200 F 
ATOM     73  F   UNL A   1      40.620  25.566  25.689  1.00  0.00    -0.200 F 
ENDBRANCH  49  63
BRANCH  50  74
ATOM     74  C   UNL A   1      39.538  33.971  37.048  1.00  0.00     0.064 A 
ATOM     75  C   UNL A   1      40.163  35.225  37.115  1.00  0.00     0.173 A 
ATOM     76  C   UNL A   1      38.767  33.568  38.148  1.00  0.00     0.173 A 
ATOM     77  F   UNL A   1      40.924  35.648  36.094  1.00  0.00    -0.203 F 
ATOM     78  C   UNL A   1      40.046  36.030  38.246  1.00  0.00     0.198 A 
ATOM     79  C   UNL A   1      38.629  34.385  39.269  1.00  0.00     0.198 A 
ATOM     80  F   UNL A   1      38.142  32.383  38.130  1.00  0.00    -0.203 F 
ATOM     81  F   UNL A   1      40.694  37.202  38.302  1.00  0.00    -0.200 F 
ATOM     82  C   UNL A   1      39.276  35.612  39.321  1.00  0.00     0.200 A 
ATOM     83  F   UNL A   1      37.875  33.982  40.300  1.00  0.00    -0.200 F 
ATOM     84  F   UNL A   1      39.166  36.384  40.411  1.00  0.00    -0.200 F 
ENDBRANCH  50  74
BRANCH  62  85
ATOM     85  C   UNL A   1      43.786  28.696  35.445  1.00  0.00     0.064 A 
ATOM     86  C   UNL A   1      43.569  27.663  36.368  1.00  0.00     0.173 A 
ATOM     87  C   UNL A   1      45.106  29.096  35.193  1.00  0.00     0.173 A 
ATOM     88  F   UNL A   1      42.321  27.263  36.653  1.00  0.00    -0.203 F 
ATOM     89  C   UNL A   1      44.638  27.064  37.027  1.00  0.00     0.198 A 
ATOM     90  C   UNL A   1      46.173  28.478  35.836  1.00  0.00     0.198 A 
ATOM     91  F   UNL A   1      45.359  30.078  34.315  1.00  0.00    -0.203 F 
ATOM     92  F   UNL A   1      44.409  26.104  37.934  1.00  0.00    -0.200 F 
ATOM     93  C   UNL A   1      45.938  27.467  36.756  1.00  0.00     0.200 A 
ATOM     94  F   UNL A   1      47.429  28.862  35.568  1.00  0.00    -0.200 F 
ATOM     95  F   UNL A   1      46.965  26.882  37.387  1.00  0.00    -0.200 F 
ENDBRANCH  62  85
ENDBRANCH  36  37
ENDBRANCH  28  31
ENDBRANCH  26  27
ENDBRANCH  25  26
ENDBRANCH   1  25
TORSDOF 14
ENDMDL
