MODEL 1
REMARK VINA RESULT:     -12.3      0.000      0.000
REMARK SMILES CCN1/C(=[NH+]/C(=O)CCCC(=O)NCCCNC(=O)c2ccc(-c3c4nc(c(-c5c(F)c(F)c(F)c(F)c5F)c5ccc([nH]5)c(-c5c(F)c(F)c(F)c(F)c5F)c5nc(c(-c6c(F)c(F)c(F)c(F)c6F)c6ccc3[nH]6)C=C5)C=C4)cc2)S[C@H]2CS(=O)(=O)C[C@@H]21
REMARK SMILES IDX 14 1 13 2 11 3 12 4 10 6 9 7 8 8 6 9 3 10 4 11 90 12 5 13
REMARK SMILES IDX 83 14 84 15 89 16 85 18 86 19 7 20 87 21 88 22 2 23 1 24
REMARK SMILES IDX 15 25 16 26 17 27 18 28 19 30 20 31 21 32 82 33 22 34 81 35
REMARK SMILES IDX 23 36 24 37 25 38 75 39 26 40 80 41 74 42 76 43 27 44 79 45
REMARK SMILES IDX 73 46 72 47 28 49 60 50 40 51 59 52 41 53 44 54 58 55 77 56
REMARK SMILES IDX 42 57 43 58 57 60 78 61 45 62 29 63 30 64 38 65 31 66 32 67
REMARK SMILES IDX 36 68 39 69 33 70 34 71 37 72 35 73 61 74 62 75 70 76 63 77
REMARK SMILES IDX 64 78 68 79 71 80 65 81 66 82 69 83 67 84 46 85 47 86 55 87
REMARK SMILES IDX 48 88 49 89 53 90 56 91 50 92 51 93 54 94 52 95
REMARK H PARENT 13 5 5 17 17 29 76 48 44 59
REMARK Flexibility Score: inf
ROOT
ATOM      1  C   UNL A   1      36.885  20.746  25.063  1.00  0.00     0.117 C 
ENDROOT
BRANCH   1   2
ATOM      2  N   UNL A   1      37.239  21.940  25.803  1.00  0.00    -0.356 N 
ATOM      3  C   UNL A   1      36.805  23.221  25.650  1.00  0.00     0.220 C 
ATOM      4  O   UNL A   1      37.340  24.099  26.329  1.00  0.00    -0.275 OA
ATOM      5  H   UNL A   1      37.892  21.805  26.527  1.00  0.00     0.163 HD
BRANCH   3   6
ATOM      6  C   UNL A   1      35.665  23.548  24.705  1.00  0.00     0.100 C 
BRANCH   6   7
ATOM      7  C   UNL A   1      34.703  24.635  25.186  1.00  0.00     0.022 C 
BRANCH   7   8
ATOM      8  C   UNL A   1      33.282  24.224  25.560  1.00  0.00     0.128 C 
BRANCH   8   9
ATOM      9  C   UNL A   1      32.125  24.853  24.791  1.00  0.00     0.307 C 
ATOM     10  N   UNL A   1      31.271  28.337  24.054  1.00  0.00    -0.251 N 
ATOM     11  C   UNL A   1      31.209  26.964  24.318  1.00  0.00     0.314 C 
ATOM     12  C   UNL A   1      29.963  28.953  23.825  1.00  0.00     0.205 C 
ATOM     13  N   UNL A   1      32.223  26.211  24.591  1.00  0.00    -0.205 N 
ATOM     14  S   UNL A   1      29.499  26.449  24.228  1.00  0.00    -0.030 SA
ATOM     15  C   UNL A   1      29.131  27.848  23.166  1.00  0.00     0.120 C 
ATOM     16  C   UNL A   1      29.835  30.115  22.863  1.00  0.00     0.187 C 
ATOM     17  H   UNL A   1      33.112  26.630  24.658  1.00  0.00     0.316 HD
ATOM     18  C   UNL A   1      27.738  28.404  23.029  1.00  0.00     0.156 C 
ATOM     19  S   UNL A   1      28.085  30.067  22.432  1.00  0.00     0.155 S 
ATOM     20  O   UNL A   1      31.196  24.129  24.441  1.00  0.00    -0.247 OA
ATOM     21  O   UNL A   1      27.977  30.075  20.987  1.00  0.00    -0.229 OA
ATOM     22  O   UNL A   1      27.380  31.014  23.267  1.00  0.00    -0.229 OA
BRANCH  10  23
ATOM     23  C   UNL A   1      32.433  29.169  24.336  1.00  0.00     0.234 C 
ATOM     24  C   UNL A   1      32.267  29.938  25.636  1.00  0.00     0.054 C 
ENDBRANCH  10  23
ENDBRANCH   8   9
ENDBRANCH   7   8
ENDBRANCH   6   7
ENDBRANCH   3   6
ENDBRANCH   1   2
BRANCH   1  25
ATOM     25  C   UNL A   1      38.049  19.761  25.032  1.00  0.00     0.042 C 
BRANCH  25  26
ATOM     26  C   UNL A   1      39.234  20.210  25.865  1.00  0.00     0.118 C 
BRANCH  26  27
ATOM     27  N   UNL A   1      40.292  19.211  25.902  1.00  0.00    -0.352 N 
ATOM     28  C   UNL A   1      41.643  19.381  26.089  1.00  0.00     0.251 C 
ATOM     29  H   UNL A   1      39.998  18.281  25.776  1.00  0.00     0.163 HD
ATOM     30  O   UNL A   1      42.406  18.438  25.907  1.00  0.00    -0.269 OA
BRANCH  28  31
ATOM     31  C   UNL A   1      42.179  20.702  26.486  1.00  0.00     0.039 A 
ATOM     32  C   UNL A   1      42.516  21.625  25.492  1.00  0.00     0.014 A 
ATOM     33  C   UNL A   1      42.357  21.032  27.832  1.00  0.00     0.014 A 
ATOM     34  C   UNL A   1      42.976  22.896  25.850  1.00  0.00     0.010 A 
ATOM     35  C   UNL A   1      42.717  22.327  28.188  1.00  0.00     0.010 A 
ATOM     36  C   UNL A   1      43.049  23.268  27.202  1.00  0.00    -0.014 A 
BRANCH  36  37
ATOM     37  C   UNL A   1      43.525  24.610  27.625  1.00  0.00     0.031 A 
ATOM     38  C   UNL A   1      42.519  25.670  27.987  1.00  0.00     0.074 A 
ATOM     39  C   UNL A   1      44.841  24.899  27.617  1.00  0.00     0.049 A 
ATOM     40  N   UNL A   1      42.703  26.941  28.243  1.00  0.00    -0.248 NA
ATOM     41  C   UNL A   1      41.107  25.250  28.036  1.00  0.00     0.031 C 
ATOM     42  C   UNL A   1      45.913  23.969  27.260  1.00  0.00     0.029 A 
ATOM     43  N   UNL A   1      45.500  26.068  27.905  1.00  0.00    -0.354 N 
ATOM     44  C   UNL A   1      41.438  27.468  28.463  1.00  0.00     0.074 A 
ATOM     45  C   UNL A   1      40.487  26.400  28.246  1.00  0.00     0.031 C 
ATOM     46  C   UNL A   1      47.096  24.596  27.373  1.00  0.00     0.029 A 
ATOM     47  C   UNL A   1      46.865  25.983  27.761  1.00  0.00     0.049 A 
ATOM     48  H   UNL A   1      45.039  26.891  28.188  1.00  0.00     0.167 HD
ATOM     49  C   UNL A   1      41.098  28.721  28.846  1.00  0.00     0.037 A 
ATOM     50  C   UNL A   1      47.815  26.925  27.912  1.00  0.00     0.037 A 
ATOM     51  C   UNL A   1      42.048  29.773  29.093  1.00  0.00     0.049 A 
ATOM     52  C   UNL A   1      47.406  28.321  28.306  1.00  0.00     0.074 A 
ATOM     53  C   UNL A   1      41.811  31.072  29.504  1.00  0.00     0.029 A 
ATOM     54  N   UNL A   1      43.422  29.638  28.958  1.00  0.00    -0.354 N 
ATOM     55  N   UNL A   1      46.209  28.798  28.549  1.00  0.00    -0.248 NA
ATOM     56  C   UNL A   1      48.483  29.310  28.453  1.00  0.00     0.031 C 
ATOM     57  C   UNL A   1      43.038  31.735  29.586  1.00  0.00     0.029 A 
ATOM     58  C   UNL A   1      44.045  30.833  29.277  1.00  0.00     0.049 A 
ATOM     59  H   UNL A   1      43.885  28.816  28.680  1.00  0.00     0.167 HD
ATOM     60  C   UNL A   1      46.394  30.122  28.922  1.00  0.00     0.074 A 
ATOM     61  C   UNL A   1      47.818  30.374  28.881  1.00  0.00     0.031 C 
ATOM     62  C   UNL A   1      45.467  31.049  29.269  1.00  0.00     0.037 A 
BRANCH  49  63
ATOM     63  C   UNL A   1      39.640  29.018  29.045  1.00  0.00     0.064 A 
ATOM     64  C   UNL A   1      38.813  29.374  27.968  1.00  0.00     0.173 A 
ATOM     65  C   UNL A   1      39.050  28.901  30.312  1.00  0.00     0.173 A 
ATOM     66  F   UNL A   1      39.330  29.514  26.737  1.00  0.00    -0.203 F 
ATOM     67  C   UNL A   1      37.458  29.629  28.157  1.00  0.00     0.198 A 
ATOM     68  C   UNL A   1      37.687  29.124  30.492  1.00  0.00     0.198 A 
ATOM     69  F   UNL A   1      39.793  28.557  31.376  1.00  0.00    -0.203 F 
ATOM     70  F   UNL A   1      36.699  30.016  27.122  1.00  0.00    -0.200 F 
ATOM     71  C   UNL A   1      36.894  29.494  29.416  1.00  0.00     0.200 A 
ATOM     72  F   UNL A   1      37.140  28.979  31.708  1.00  0.00    -0.200 F 
ATOM     73  F   UNL A   1      35.587  29.728  29.595  1.00  0.00    -0.200 F 
ENDBRANCH  49  63
BRANCH  50  74
ATOM     74  C   UNL A   1      49.252  26.591  27.710  1.00  0.00     0.064 A 
ATOM     75  C   UNL A   1      49.775  26.429  26.419  1.00  0.00     0.173 A 
ATOM     76  C   UNL A   1      50.117  26.380  28.793  1.00  0.00     0.173 A 
ATOM     77  F   UNL A   1      48.983  26.599  25.350  1.00  0.00    -0.203 F 
ATOM     78  C   UNL A   1      51.096  26.032  26.220  1.00  0.00     0.198 A 
ATOM     79  C   UNL A   1      51.447  26.017  28.592  1.00  0.00     0.198 A 
ATOM     80  F   UNL A   1      49.671  26.527  30.049  1.00  0.00    -0.203 F 
ATOM     81  F   UNL A   1      51.549  25.819  24.976  1.00  0.00    -0.200 F 
ATOM     82  C   UNL A   1      51.932  25.829  27.306  1.00  0.00     0.200 A 
ATOM     83  F   UNL A   1      52.256  25.833  29.644  1.00  0.00    -0.200 F 
ATOM     84  F   UNL A   1      53.199  25.438  27.115  1.00  0.00    -0.200 F 
ENDBRANCH  50  74
BRANCH  62  85
ATOM     85  C   UNL A   1      45.964  32.396  29.706  1.00  0.00     0.064 A 
ATOM     86  C   UNL A   1      46.119  33.459  28.805  1.00  0.00     0.173 A 
ATOM     87  C   UNL A   1      46.234  32.639  31.062  1.00  0.00     0.173 A 
ATOM     88  F   UNL A   1      45.887  33.274  27.496  1.00  0.00    -0.203 F 
ATOM     89  C   UNL A   1      46.551  34.708  29.240  1.00  0.00     0.198 A 
ATOM     90  C   UNL A   1      46.633  33.899  31.499  1.00  0.00     0.198 A 
ATOM     91  F   UNL A   1      46.092  31.658  31.966  1.00  0.00    -0.203 F 
ATOM     92  F   UNL A   1      46.735  35.697  28.355  1.00  0.00    -0.200 F 
ATOM     93  C   UNL A   1      46.797  34.930  30.588  1.00  0.00     0.200 A 
ATOM     94  F   UNL A   1      46.855  34.114  32.803  1.00  0.00    -0.200 F 
ATOM     95  F   UNL A   1      47.199  36.137  31.007  1.00  0.00    -0.200 F 
ENDBRANCH  62  85
ENDBRANCH  36  37
ENDBRANCH  28  31
ENDBRANCH  26  27
ENDBRANCH  25  26
ENDBRANCH   1  25
TORSDOF 14
ENDMDL
MODEL 2
REMARK VINA RESULT:     -12.2      0.248      1.971
REMARK SMILES CCN1/C(=[NH+]/C(=O)CCCC(=O)NCCCNC(=O)c2ccc(-c3c4nc(c(-c5c(F)c(F)c(F)c(F)c5F)c5ccc([nH]5)c(-c5c(F)c(F)c(F)c(F)c5F)c5nc(c(-c6c(F)c(F)c(F)c(F)c6F)c6ccc3[nH]6)C=C5)C=C4)cc2)S[C@H]2CS(=O)(=O)C[C@@H]21
REMARK SMILES IDX 14 1 13 2 11 3 12 4 10 6 9 7 8 8 6 9 3 10 4 11 90 12 5 13
REMARK SMILES IDX 83 14 84 15 89 16 85 18 86 19 7 20 87 21 88 22 2 23 1 24
REMARK SMILES IDX 15 25 16 26 17 27 18 28 19 30 20 31 21 32 82 33 22 34 81 35
REMARK SMILES IDX 23 36 24 37 25 38 75 39 26 40 80 41 74 42 76 43 27 44 79 45
REMARK SMILES IDX 73 46 72 47 28 49 60 50 40 51 59 52 41 53 44 54 58 55 77 56
REMARK SMILES IDX 42 57 43 58 57 60 78 61 45 62 29 63 30 64 38 65 31 66 32 67
REMARK SMILES IDX 36 68 39 69 33 70 34 71 37 72 35 73 61 74 62 75 70 76 63 77
REMARK SMILES IDX 64 78 68 79 71 80 65 81 66 82 69 83 67 84 46 85 47 86 55 87
REMARK SMILES IDX 48 88 49 89 53 90 56 91 50 92 51 93 54 94 52 95
REMARK H PARENT 13 5 5 17 17 29 76 48 44 59
REMARK Flexibility Score: inf
ROOT
ATOM      1  C   UNL A   1      36.792  20.680  25.144  1.00  0.00     0.117 C 
ENDROOT
BRANCH   1   2
ATOM      2  N   UNL A   1      37.150  21.900  25.841  1.00  0.00    -0.356 N 
ATOM      3  C   UNL A   1      36.737  23.179  25.628  1.00  0.00     0.220 C 
ATOM      4  O   UNL A   1      37.272  24.076  26.279  1.00  0.00    -0.275 OA
ATOM      5  H   UNL A   1      37.789  21.786  26.581  1.00  0.00     0.163 HD
BRANCH   3   6
ATOM      6  C   UNL A   1      35.618  23.481  24.650  1.00  0.00     0.100 C 
BRANCH   6   7
ATOM      7  C   UNL A   1      34.614  24.540  25.107  1.00  0.00     0.022 C 
BRANCH   7   8
ATOM      8  C   UNL A   1      33.196  24.088  25.445  1.00  0.00     0.128 C 
BRANCH   8   9
ATOM      9  C   UNL A   1      32.035  24.748  24.707  1.00  0.00     0.307 C 
ATOM     10  N   UNL A   1      31.267  28.252  23.972  1.00  0.00    -0.251 N 
ATOM     11  C   UNL A   1      31.171  26.883  24.248  1.00  0.00     0.314 C 
ATOM     12  C   UNL A   1      29.971  28.907  23.779  1.00  0.00     0.205 C 
ATOM     13  N   UNL A   1      32.169  26.100  24.495  1.00  0.00    -0.205 N 
ATOM     14  S   UNL A   1      29.443  26.421  24.215  1.00  0.00    -0.030 SA
ATOM     15  C   UNL A   1      29.086  27.824  23.155  1.00  0.00     0.120 C 
ATOM     16  C   UNL A   1      29.850  30.066  22.814  1.00  0.00     0.187 C 
ATOM     17  H   UNL A   1      33.072  26.492  24.531  1.00  0.00     0.316 HD
ATOM     18  C   UNL A   1      27.707  28.423  23.057  1.00  0.00     0.156 C 
ATOM     19  S   UNL A   1      28.087  30.070  22.438  1.00  0.00     0.155 S 
ATOM     20  O   UNL A   1      31.074  24.050  24.392  1.00  0.00    -0.247 OA
ATOM     21  O   UNL A   1      27.933  30.072  20.997  1.00  0.00    -0.229 OA
ATOM     22  O   UNL A   1      27.437  31.043  23.287  1.00  0.00    -0.229 OA
BRANCH  10  23
ATOM     23  C   UNL A   1      32.462  29.049  24.212  1.00  0.00     0.234 C 
ATOM     24  C   UNL A   1      33.403  29.018  23.019  1.00  0.00     0.054 C 
ENDBRANCH  10  23
ENDBRANCH   8   9
ENDBRANCH   7   8
ENDBRANCH   6   7
ENDBRANCH   3   6
ENDBRANCH   1   2
BRANCH   1  25
ATOM     25  C   UNL A   1      38.006  19.770  24.985  1.00  0.00     0.042 C 
BRANCH  25  26
ATOM     26  C   UNL A   1      39.193  20.204  25.822  1.00  0.00     0.118 C 
BRANCH  26  27
ATOM     27  N   UNL A   1      40.249  19.203  25.843  1.00  0.00    -0.352 N 
ATOM     28  C   UNL A   1      41.599  19.367  26.039  1.00  0.00     0.251 C 
ATOM     29  H   UNL A   1      39.954  18.276  25.695  1.00  0.00     0.163 HD
ATOM     30  O   UNL A   1      42.362  18.426  25.839  1.00  0.00    -0.269 OA
BRANCH  28  31
ATOM     31  C   UNL A   1      42.136  20.678  26.465  1.00  0.00     0.039 A 
ATOM     32  C   UNL A   1      42.580  21.580  25.494  1.00  0.00     0.014 A 
ATOM     33  C   UNL A   1      42.210  21.020  27.818  1.00  0.00     0.014 A 
ATOM     34  C   UNL A   1      43.043  22.842  25.876  1.00  0.00     0.010 A 
ATOM     35  C   UNL A   1      42.573  22.309  28.190  1.00  0.00     0.010 A 
ATOM     36  C   UNL A   1      43.013  23.228  27.225  1.00  0.00    -0.014 A 
BRANCH  36  37
ATOM     37  C   UNL A   1      43.488  24.564  27.673  1.00  0.00     0.031 A 
ATOM     38  C   UNL A   1      42.480  25.624  28.029  1.00  0.00     0.074 A 
ATOM     39  C   UNL A   1      44.806  24.844  27.693  1.00  0.00     0.049 A 
ATOM     40  N   UNL A   1      42.667  26.891  28.303  1.00  0.00    -0.248 NA
ATOM     41  C   UNL A   1      41.066  25.212  28.046  1.00  0.00     0.031 C 
ATOM     42  C   UNL A   1      45.878  23.913  27.346  1.00  0.00     0.029 A 
ATOM     43  N   UNL A   1      45.465  26.007  28.008  1.00  0.00    -0.354 N 
ATOM     44  C   UNL A   1      41.400  27.423  28.506  1.00  0.00     0.074 A 
ATOM     45  C   UNL A   1      40.449  26.363  28.259  1.00  0.00     0.031 C 
ATOM     46  C   UNL A   1      47.062  24.532  27.488  1.00  0.00     0.029 A 
ATOM     47  C   UNL A   1      46.832  25.915  27.888  1.00  0.00     0.049 A 
ATOM     48  H   UNL A   1      45.003  26.829  28.292  1.00  0.00     0.167 HD
ATOM     49  C   UNL A   1      41.061  28.673  28.897  1.00  0.00     0.037 A 
ATOM     50  C   UNL A   1      47.784  26.850  28.069  1.00  0.00     0.037 A 
ATOM     51  C   UNL A   1      42.011  29.716  29.175  1.00  0.00     0.049 A 
ATOM     52  C   UNL A   1      47.375  28.244  28.472  1.00  0.00     0.074 A 
ATOM     53  C   UNL A   1      41.774  31.012  29.597  1.00  0.00     0.029 A 
ATOM     54  N   UNL A   1      43.386  29.576  29.064  1.00  0.00    -0.354 N 
ATOM     55  N   UNL A   1      46.177  28.724  28.698  1.00  0.00    -0.248 NA
ATOM     56  C   UNL A   1      48.455  29.225  28.651  1.00  0.00     0.031 C 
ATOM     57  C   UNL A   1      43.002  31.667  29.709  1.00  0.00     0.029 A 
ATOM     58  C   UNL A   1      44.010  30.763  29.409  1.00  0.00     0.049 A 
ATOM     59  H   UNL A   1      43.850  28.754  28.785  1.00  0.00     0.167 HD
ATOM     60  C   UNL A   1      46.362  30.044  29.090  1.00  0.00     0.074 A 
ATOM     61  C   UNL A   1      47.787  30.288  29.078  1.00  0.00     0.031 C 
ATOM     62  C   UNL A   1      45.433  30.972  29.430  1.00  0.00     0.037 A 
BRANCH  49  63
ATOM     63  C   UNL A   1      39.600  28.975  29.072  1.00  0.00     0.064 A 
ATOM     64  C   UNL A   1      38.977  28.870  30.325  1.00  0.00     0.173 A 
ATOM     65  C   UNL A   1      38.825  29.419  27.991  1.00  0.00     0.173 A 
ATOM     66  F   UNL A   1      39.670  28.437  31.390  1.00  0.00    -0.203 F 
ATOM     67  C   UNL A   1      37.627  29.170  30.484  1.00  0.00     0.198 A 
ATOM     68  C   UNL A   1      37.482  29.751  28.159  1.00  0.00     0.198 A 
ATOM     69  F   UNL A   1      39.371  29.543  26.771  1.00  0.00    -0.203 F 
ATOM     70  F   UNL A   1      37.043  29.015  31.680  1.00  0.00    -0.200 F 
ATOM     71  C   UNL A   1      36.883  29.620  29.403  1.00  0.00     0.200 A 
ATOM     72  F   UNL A   1      36.768  30.199  27.117  1.00  0.00    -0.200 F 
ATOM     73  F   UNL A   1      35.587  29.921  29.559  1.00  0.00    -0.200 F 
ENDBRANCH  49  63
BRANCH  50  74
ATOM     74  C   UNL A   1      49.222  26.511  27.890  1.00  0.00     0.064 A 
ATOM     75  C   UNL A   1      50.047  26.277  29.000  1.00  0.00     0.173 A 
ATOM     76  C   UNL A   1      49.813  26.458  26.620  1.00  0.00     0.173 A 
ATOM     77  F   UNL A   1      49.535  26.335  30.238  1.00  0.00    -0.203 F 
ATOM     78  C   UNL A   1      51.412  26.043  28.849  1.00  0.00     0.198 A 
ATOM     79  C   UNL A   1      51.172  26.191  26.468  1.00  0.00     0.198 A 
ATOM     80  F   UNL A   1      49.070  26.669  25.523  1.00  0.00    -0.203 F 
ATOM     81  F   UNL A   1      52.188  25.892  29.932  1.00  0.00    -0.200 F 
ATOM     82  C   UNL A   1      51.974  25.998  27.583  1.00  0.00     0.200 A 
ATOM     83  F   UNL A   1      51.709  26.135  25.242  1.00  0.00    -0.200 F 
ATOM     84  F   UNL A   1      53.288  25.783  27.438  1.00  0.00    -0.200 F 
ENDBRANCH  50  74
BRANCH  62  85
ATOM     85  C   UNL A   1      45.929  32.311  29.892  1.00  0.00     0.064 A 
ATOM     86  C   UNL A   1      46.194  32.578  31.243  1.00  0.00     0.173 A 
ATOM     87  C   UNL A   1      46.195  33.323  28.956  1.00  0.00     0.173 A 
ATOM     88  F   UNL A   1      45.943  31.649  32.177  1.00  0.00    -0.203 F 
ATOM     89  C   UNL A   1      46.684  33.818  31.642  1.00  0.00     0.198 A 
ATOM     90  C   UNL A   1      46.716  34.549  29.356  1.00  0.00     0.198 A 
ATOM     91  F   UNL A   1      45.967  33.114  27.651  1.00  0.00    -0.203 F 
ATOM     92  F   UNL A   1      46.888  34.068  32.943  1.00  0.00    -0.200 F 
ATOM     93  C   UNL A   1      46.954  34.799  30.698  1.00  0.00     0.200 A 
ATOM     94  F   UNL A   1      46.991  35.489  28.440  1.00  0.00    -0.200 F 
ATOM     95  F   UNL A   1      47.439  35.986  31.084  1.00  0.00    -0.200 F 
ENDBRANCH  62  85
ENDBRANCH  36  37
ENDBRANCH  28  31
ENDBRANCH  26  27
ENDBRANCH  25  26
ENDBRANCH   1  25
TORSDOF 14
ENDMDL
MODEL 3
REMARK VINA RESULT:     -12.0      5.377     11.013
REMARK SMILES CCN1/C(=[NH+]/C(=O)CCCC(=O)NCCCNC(=O)c2ccc(-c3c4nc(c(-c5c(F)c(F)c(F)c(F)c5F)c5ccc([nH]5)c(-c5c(F)c(F)c(F)c(F)c5F)c5nc(c(-c6c(F)c(F)c(F)c(F)c6F)c6ccc3[nH]6)C=C5)C=C4)cc2)S[C@H]2CS(=O)(=O)C[C@@H]21
REMARK SMILES IDX 14 1 13 2 11 3 12 4 10 6 9 7 8 8 6 9 3 10 4 11 90 12 5 13
REMARK SMILES IDX 83 14 84 15 89 16 85 18 86 19 7 20 87 21 88 22 2 23 1 24
REMARK SMILES IDX 15 25 16 26 17 27 18 28 19 30 20 31 21 32 82 33 22 34 81 35
REMARK SMILES IDX 23 36 24 37 25 38 75 39 26 40 80 41 74 42 76 43 27 44 79 45
REMARK SMILES IDX 73 46 72 47 28 49 60 50 40 51 59 52 41 53 44 54 58 55 77 56
REMARK SMILES IDX 42 57 43 58 57 60 78 61 45 62 29 63 30 64 38 65 31 66 32 67
REMARK SMILES IDX 36 68 39 69 33 70 34 71 37 72 35 73 61 74 62 75 70 76 63 77
REMARK SMILES IDX 64 78 68 79 71 80 65 81 66 82 69 83 67 84 46 85 47 86 55 87
REMARK SMILES IDX 48 88 49 89 53 90 56 91 50 92 51 93 54 94 52 95
REMARK H PARENT 13 5 5 17 17 29 76 48 44 59
REMARK Flexibility Score: inf
ROOT
ATOM      1  C   UNL A   1      31.544  30.767  26.258  1.00  0.00     0.117 C 
ENDROOT
BRANCH   1   2
ATOM      2  N   UNL A   1      30.979  30.413  24.972  1.00  0.00    -0.356 N 
ATOM      3  C   UNL A   1      31.245  29.349  24.166  1.00  0.00     0.220 C 
ATOM      4  O   UNL A   1      30.719  29.320  23.053  1.00  0.00    -0.275 OA
ATOM      5  H   UNL A   1      30.299  31.036  24.629  1.00  0.00     0.163 HD
BRANCH   3   6
ATOM      6  C   UNL A   1      32.128  28.213  24.645  1.00  0.00     0.100 C 
BRANCH   6   7
ATOM      7  C   UNL A   1      33.436  28.027  23.875  1.00  0.00     0.022 C 
BRANCH   7   8
ATOM      8  C   UNL A   1      33.429  27.108  22.656  1.00  0.00     0.128 C 
BRANCH   8   9
ATOM      9  C   UNL A   1      32.920  25.681  22.835  1.00  0.00     0.307 C 
ATOM     10  N   UNL A   1      34.302  22.782  24.595  1.00  0.00    -0.251 N 
ATOM     11  C   UNL A   1      33.620  23.611  23.696  1.00  0.00     0.314 C 
ATOM     12  C   UNL A   1      34.131  21.353  24.325  1.00  0.00     0.205 C 
ATOM     13  N   UNL A   1      33.650  24.903  23.703  1.00  0.00    -0.205 N 
ATOM     14  S   UNL A   1      32.726  22.577  22.542  1.00  0.00    -0.030 SA
ATOM     15  C   UNL A   1      32.719  21.242  23.741  1.00  0.00     0.120 C 
ATOM     16  C   UNL A   1      34.120  20.366  25.472  1.00  0.00     0.187 C 
ATOM     17  H   UNL A   1      34.223  25.353  24.365  1.00  0.00     0.316 HD
ATOM     18  C   UNL A   1      32.552  19.801  23.334  1.00  0.00     0.156 C 
ATOM     19  S   UNL A   1      33.259  18.954  24.756  1.00  0.00     0.155 S 
ATOM     20  O   UNL A   1      31.939  25.327  22.184  1.00  0.00    -0.247 OA
ATOM     21  O   UNL A   1      32.185  18.578  25.654  1.00  0.00    -0.229 OA
ATOM     22  O   UNL A   1      34.243  18.005  24.287  1.00  0.00    -0.229 OA
BRANCH  10  23
ATOM     23  C   UNL A   1      35.369  23.239  25.474  1.00  0.00     0.234 C 
ATOM     24  C   UNL A   1      36.712  23.253  24.763  1.00  0.00     0.054 C 
ENDBRANCH  10  23
ENDBRANCH   8   9
ENDBRANCH   7   8
ENDBRANCH   6   7
ENDBRANCH   3   6
ENDBRANCH   1   2
BRANCH   1  25
ATOM     25  C   UNL A   1      31.400  32.263  26.521  1.00  0.00     0.042 C 
BRANCH  25  26
ATOM     26  C   UNL A   1      32.590  32.859  27.247  1.00  0.00     0.118 C 
BRANCH  26  27
ATOM     27  N   UNL A   1      32.365  34.245  27.629  1.00  0.00    -0.352 N 
ATOM     28  C   UNL A   1      32.970  34.985  28.617  1.00  0.00     0.251 C 
ATOM     29  H   UNL A   1      31.682  34.722  27.104  1.00  0.00     0.163 HD
ATOM     30  O   UNL A   1      32.520  36.088  28.913  1.00  0.00    -0.269 OA
BRANCH  28  31
ATOM     31  C   UNL A   1      34.144  34.445  29.337  1.00  0.00     0.039 A 
ATOM     32  C   UNL A   1      33.952  33.790  30.556  1.00  0.00     0.014 A 
ATOM     33  C   UNL A   1      35.435  34.589  28.821  1.00  0.00     0.014 A 
ATOM     34  C   UNL A   1      35.044  33.230  31.226  1.00  0.00     0.010 A 
ATOM     35  C   UNL A   1      36.504  33.945  29.433  1.00  0.00     0.010 A 
ATOM     36  C   UNL A   1      36.324  33.275  30.653  1.00  0.00    -0.014 A 
BRANCH  36  37
ATOM     37  C   UNL A   1      37.510  32.685  31.327  1.00  0.00     0.031 A 
ATOM     38  C   UNL A   1      38.245  31.550  30.667  1.00  0.00     0.074 A 
ATOM     39  C   UNL A   1      37.882  33.116  32.548  1.00  0.00     0.049 A 
ATOM     40  N   UNL A   1      39.209  30.797  31.136  1.00  0.00    -0.248 NA
ATOM     41  C   UNL A   1      37.816  31.189  29.304  1.00  0.00     0.031 C 
ATOM     42  C   UNL A   1      37.235  34.189  33.304  1.00  0.00     0.029 A 
ATOM     43  N   UNL A   1      38.890  32.688  33.377  1.00  0.00    -0.354 N 
ATOM     44  C   UNL A   1      39.484  29.871  30.138  1.00  0.00     0.074 A 
ATOM     45  C   UNL A   1      38.544  30.109  29.065  1.00  0.00     0.031 C 
ATOM     46  C   UNL A   1      37.876  34.351  34.474  1.00  0.00     0.029 A 
ATOM     47  C   UNL A   1      38.945  33.364  34.573  1.00  0.00     0.049 A 
ATOM     48  H   UNL A   1      39.514  31.965  33.137  1.00  0.00     0.167 HD
ATOM     49  C   UNL A   1      40.454  28.929  30.103  1.00  0.00     0.037 A 
ATOM     50  C   UNL A   1      39.760  33.192  35.631  1.00  0.00     0.037 A 
ATOM     51  C   UNL A   1      41.408  28.715  31.157  1.00  0.00     0.049 A 
ATOM     52  C   UNL A   1      40.811  32.112  35.578  1.00  0.00     0.074 A 
ATOM     53  C   UNL A   1      42.445  27.801  31.213  1.00  0.00     0.029 A 
ATOM     54  N   UNL A   1      41.445  29.437  32.341  1.00  0.00    -0.354 N 
ATOM     55  N   UNL A   1      41.085  31.268  34.613  1.00  0.00    -0.248 NA
ATOM     56  C   UNL A   1      41.669  31.965  36.762  1.00  0.00     0.031 C 
ATOM     57  C   UNL A   1      43.088  27.945  32.445  1.00  0.00     0.029 A 
ATOM     58  C   UNL A   1      42.486  28.985  33.135  1.00  0.00     0.049 A 
ATOM     59  H   UNL A   1      40.825  30.162  32.581  1.00  0.00     0.167 HD
ATOM     60  C   UNL A   1      42.174  30.526  35.053  1.00  0.00     0.074 A 
ATOM     61  C   UNL A   1      42.515  31.023  36.368  1.00  0.00     0.031 C 
ATOM     62  C   UNL A   1      42.834  29.522  34.424  1.00  0.00     0.037 A 
BRANCH  49  63
ATOM     63  C   UNL A   1      40.548  28.072  28.873  1.00  0.00     0.064 A 
ATOM     64  C   UNL A   1      39.831  26.870  28.763  1.00  0.00     0.173 A 
ATOM     65  C   UNL A   1      41.323  28.474  27.776  1.00  0.00     0.173 A 
ATOM     66  F   UNL A   1      39.086  26.432  29.790  1.00  0.00    -0.203 F 
ATOM     67  C   UNL A   1      39.909  26.090  27.613  1.00  0.00     0.198 A 
ATOM     68  C   UNL A   1      41.372  27.708  26.613  1.00  0.00     0.198 A 
ATOM     69  F   UNL A   1      42.025  29.617  27.825  1.00  0.00    -0.203 F 
ATOM     70  F   UNL A   1      39.254  24.922  27.551  1.00  0.00    -0.200 F 
ATOM     71  C   UNL A   1      40.671  26.515  26.535  1.00  0.00     0.200 A 
ATOM     72  F   UNL A   1      42.099  28.126  25.567  1.00  0.00    -0.200 F 
ATOM     73  F   UNL A   1      40.735  25.769  25.424  1.00  0.00    -0.200 F 
ENDBRANCH  49  63
BRANCH  50  74
ATOM     74  C   UNL A   1      39.639  34.064  36.831  1.00  0.00     0.064 A 
ATOM     75  C   UNL A   1      40.324  35.286  36.900  1.00  0.00     0.173 A 
ATOM     76  C   UNL A   1      38.880  33.681  37.945  1.00  0.00     0.173 A 
ATOM     77  F   UNL A   1      41.080  35.689  35.868  1.00  0.00    -0.203 F 
ATOM     78  C   UNL A   1      40.287  36.070  38.051  1.00  0.00     0.198 A 
ATOM     79  C   UNL A   1      38.816  34.482  39.083  1.00  0.00     0.198 A 
ATOM     80  F   UNL A   1      38.200  32.525  37.931  1.00  0.00    -0.203 F 
ATOM     81  F   UNL A   1      41.007  37.199  38.114  1.00  0.00    -0.200 F 
ATOM     82  C   UNL A   1      39.531  35.669  39.141  1.00  0.00     0.200 A 
ATOM     83  F   UNL A   1      38.074  34.098  40.131  1.00  0.00    -0.200 F 
ATOM     84  F   UNL A   1      39.502  36.419  40.252  1.00  0.00    -0.200 F 
ENDBRANCH  50  74
BRANCH  62  85
ATOM     85  C   UNL A   1      44.037  28.946  35.111  1.00  0.00     0.064 A 
ATOM     86  C   UNL A   1      43.940  27.857  35.989  1.00  0.00     0.173 A 
ATOM     87  C   UNL A   1      45.314  29.461  34.840  1.00  0.00     0.173 A 
ATOM     88  F   UNL A   1      42.740  27.339  36.291  1.00  0.00    -0.203 F 
ATOM     89  C   UNL A   1      45.075  27.320  36.589  1.00  0.00     0.198 A 
ATOM     90  C   UNL A   1      46.450  28.900  35.416  1.00  0.00     0.198 A 
ATOM     91  F   UNL A   1      45.462  30.496  34.000  1.00  0.00    -0.203 F 
ATOM     92  F   UNL A   1      44.955  26.308  37.459  1.00  0.00    -0.200 F 
ATOM     93  C   UNL A   1      46.330  27.835  36.294  1.00  0.00     0.200 A 
ATOM     94  F   UNL A   1      47.662  29.388  35.116  1.00  0.00    -0.200 F 
ATOM     95  F   UNL A   1      47.421  27.307  36.862  1.00  0.00    -0.200 F 
ENDBRANCH  62  85
ENDBRANCH  36  37
ENDBRANCH  28  31
ENDBRANCH  26  27
ENDBRANCH  25  26
ENDBRANCH   1  25
TORSDOF 14
ENDMDL
