MODEL 1
REMARK VINA RESULT:     -12.9      0.000      0.000
REMARK SMILES Cc1cc(OC(F)(F)F)cc2c1O[C@@H](C(F)(F)F)C(C(=O)NCCCNC(=O)c1ccc(-c3c4nc(c(-c5c(F)c(F)c(F)c(F)c5F)c5ccc([nH]5)c(-c5c(F)c(F)c(F)c(F)c5F)c5nc(c(-c6c(F)c(F)c(F)c(F)c6F)c6ccc3[nH]6)C=C5)C=C4)cc1)=C2
REMARK SMILES IDX 24 1 23 2 22 3 20 4 21 5 19 7 1 8 2 9 3 10 12 11 4 12 11 13
REMARK SMILES IDX 13 14 10 15 92 16 14 17 5 18 6 19 7 20 8 21 9 22 15 23 16 24
REMARK SMILES IDX 17 25 18 26 25 27 26 28 27 29 28 31 29 32 30 33 91 34 31 35
REMARK SMILES IDX 90 36 32 37 33 38 34 39 84 40 35 41 89 42 83 43 85 44 36 45
REMARK SMILES IDX 88 46 82 47 81 48 37 50 69 51 49 52 68 53 50 54 53 55 67 56
REMARK SMILES IDX 86 57 51 58 52 59 66 61 87 62 54 63 38 64 39 65 47 66 40 67
REMARK SMILES IDX 41 68 45 69 48 70 42 71 43 72 46 73 44 74 70 75 71 76 79 77
REMARK SMILES IDX 72 78 73 79 77 80 80 81 74 82 75 83 78 84 76 85 55 86 56 87
REMARK SMILES IDX 64 88 57 89 58 90 62 91 65 92 59 93 60 94 63 95 61 96
REMARK H PARENT 22 6 26 30 85 49 53 60
REMARK Flexibility Score: inf
ROOT
ATOM      1  C   UNL A   1      37.966  19.597  25.011  1.00  0.00     0.042 C 
ENDROOT
BRANCH   1   2
ATOM      2  C   UNL A   1      36.761  20.532  25.011  1.00  0.00     0.118 C 
BRANCH   2   3
ATOM      3  N   UNL A   1      36.893  21.565  23.998  1.00  0.00    -0.352 N 
ATOM      4  C   UNL A   1      36.254  22.706  23.657  1.00  0.00     0.251 C 
ATOM      5  O   UNL A   1      36.754  23.322  22.710  1.00  0.00    -0.270 OA
ATOM      6  H   UNL A   1      37.652  21.384  23.397  1.00  0.00     0.163 HD
BRANCH   4   7
ATOM      7  C   UNL A   1      35.033  23.245  24.323  1.00  0.00     0.067 C 
ATOM      8  C   UNL A   1      30.577  24.101  26.701  1.00  0.00     0.048 C 
ATOM      9  C   UNL A   1      31.682  24.972  26.175  1.00  0.00    -0.005 A 
ATOM     10  C   UNL A   1      31.563  26.370  26.212  1.00  0.00     0.054 A 
ATOM     11  C   UNL A   1      32.828  24.401  25.610  1.00  0.00     0.131 A 
ATOM     12  C   UNL A   1      32.580  27.185  25.707  1.00  0.00     0.130 A 
ATOM     13  C   UNL A   1      33.844  25.202  25.090  1.00  0.00     0.021 A 
ATOM     14  O   UNL A   1      32.920  23.038  25.636  1.00  0.00    -0.475 OA
ATOM     15  C   UNL A   1      33.715  26.593  25.142  1.00  0.00     0.058 A 
ATOM     16  C   UNL A   1      35.031  24.575  24.522  1.00  0.00     0.025 C 
ATOM     17  C   UNL A   1      33.822  22.427  24.678  1.00  0.00     0.314 C 
BRANCH  12  18
ATOM     18  O   UNL A   1      32.591  28.551  25.697  1.00  0.00    -0.406 OA
BRANCH  18  19
ATOM     19  C   UNL A   1      32.877  29.216  26.916  1.00  0.00     0.573 C 
ATOM     20  F   UNL A   1      33.722  28.490  27.678  1.00  0.00    -0.132 F 
ATOM     21  F   UNL A   1      33.406  30.438  26.693  1.00  0.00    -0.132 F 
ATOM     22  F   UNL A   1      31.725  29.378  27.604  1.00  0.00    -0.132 F 
ENDBRANCH  18  19
ENDBRANCH  12  18
BRANCH  17  23
ATOM     23  C   UNL A   1      33.025  21.924  23.464  1.00  0.00     0.429 C 
ATOM     24  F   UNL A   1      31.697  22.136  23.660  1.00  0.00    -0.167 F 
ATOM     25  F   UNL A   1      33.361  22.552  22.316  1.00  0.00    -0.167 F 
ATOM     26  F   UNL A   1      33.177  20.597  23.246  1.00  0.00    -0.167 F 
ENDBRANCH  17  23
ENDBRANCH   4   7
ENDBRANCH   2   3
ENDBRANCH   1   2
BRANCH   1  27
ATOM     27  C   UNL A   1      39.158  20.191  25.753  1.00  0.00     0.118 C 
BRANCH  27  28
ATOM     28  N   UNL A   1      40.220  19.207  25.920  1.00  0.00    -0.352 N 
ATOM     29  C   UNL A   1      41.570  19.402  26.080  1.00  0.00     0.251 C 
ATOM     30  H   UNL A   1      39.927  18.268  25.919  1.00  0.00     0.163 HD
ATOM     31  O   UNL A   1      42.348  18.471  25.904  1.00  0.00    -0.269 OA
BRANCH  29  32
ATOM     32  C   UNL A   1      42.084  20.731  26.468  1.00  0.00     0.039 A 
ATOM     33  C   UNL A   1      42.169  21.061  27.824  1.00  0.00     0.014 A 
ATOM     34  C   UNL A   1      42.423  21.672  25.492  1.00  0.00     0.014 A 
ATOM     35  C   UNL A   1      42.635  22.323  28.200  1.00  0.00     0.010 A 
ATOM     36  C   UNL A   1      42.956  22.899  25.866  1.00  0.00     0.010 A 
ATOM     37  C   UNL A   1      43.043  23.244  27.223  1.00  0.00    -0.014 A 
BRANCH  37  38
ATOM     38  C   UNL A   1      43.496  24.606  27.590  1.00  0.00     0.031 A 
ATOM     39  C   UNL A   1      42.478  25.656  27.933  1.00  0.00     0.074 A 
ATOM     40  C   UNL A   1      44.805  24.909  27.558  1.00  0.00     0.049 A 
ATOM     41  N   UNL A   1      42.656  26.918  28.228  1.00  0.00    -0.248 NA
ATOM     42  C   UNL A   1      41.067  25.235  27.920  1.00  0.00     0.031 C 
ATOM     43  C   UNL A   1      45.878  23.980  27.205  1.00  0.00     0.029 A 
ATOM     44  N   UNL A   1      45.455  26.088  27.818  1.00  0.00    -0.354 N 
ATOM     45  C   UNL A   1      41.385  27.439  28.427  1.00  0.00     0.074 A 
ATOM     46  C   UNL A   1      40.442  26.377  28.159  1.00  0.00     0.031 C 
ATOM     47  C   UNL A   1      47.055  24.621  27.287  1.00  0.00     0.029 A 
ATOM     48  C   UNL A   1      46.817  26.011  27.670  1.00  0.00     0.049 A 
ATOM     49  H   UNL A   1      44.988  26.914  28.085  1.00  0.00     0.167 HD
ATOM     50  C   UNL A   1      41.040  28.684  28.828  1.00  0.00     0.037 A 
ATOM     51  C   UNL A   1      47.764  26.956  27.825  1.00  0.00     0.037 A 
ATOM     52  C   UNL A   1      41.986  29.729  29.110  1.00  0.00     0.049 A 
ATOM     53  C   UNL A   1      47.355  28.341  28.245  1.00  0.00     0.074 A 
ATOM     54  C   UNL A   1      41.745  31.008  29.578  1.00  0.00     0.029 A 
ATOM     55  N   UNL A   1      43.359  29.615  28.943  1.00  0.00    -0.354 N 
ATOM     56  N   UNL A   1      46.157  28.808  28.498  1.00  0.00    -0.248 NA
ATOM     57  C   UNL A   1      48.431  29.330  28.405  1.00  0.00     0.031 C 
ATOM     58  C   UNL A   1      42.966  31.684  29.646  1.00  0.00     0.029 A 
ATOM     59  C   UNL A   1      43.976  30.811  29.272  1.00  0.00     0.049 A 
ATOM     60  H   UNL A   1      43.826  28.804  28.638  1.00  0.00     0.167 HD
ATOM     61  C   UNL A   1      46.332  30.135  28.866  1.00  0.00     0.074 A 
ATOM     62  C   UNL A   1      47.756  30.396  28.817  1.00  0.00     0.031 C 
ATOM     63  C   UNL A   1      45.396  31.053  29.213  1.00  0.00     0.037 A 
BRANCH  50  64
ATOM     64  C   UNL A   1      39.578  28.979  28.993  1.00  0.00     0.064 A 
ATOM     65  C   UNL A   1      38.780  29.366  27.905  1.00  0.00     0.173 A 
ATOM     66  C   UNL A   1      38.959  28.845  30.245  1.00  0.00     0.173 A 
ATOM     67  F   UNL A   1      39.325  29.522  26.689  1.00  0.00    -0.203 F 
ATOM     68  C   UNL A   1      37.424  29.637  28.070  1.00  0.00     0.198 A 
ATOM     69  C   UNL A   1      37.596  29.087  30.399  1.00  0.00     0.198 A 
ATOM     70  F   UNL A   1      39.674  28.475  31.318  1.00  0.00    -0.203 F 
ATOM     71  F   UNL A   1      36.694  30.055  27.026  1.00  0.00    -0.200 F 
ATOM     72  C   UNL A   1      36.832  29.490  29.315  1.00  0.00     0.200 A 
ATOM     73  F   UNL A   1      37.022  28.932  31.601  1.00  0.00    -0.200 F 
ATOM     74  F   UNL A   1      35.525  29.743  29.471  1.00  0.00    -0.200 F 
ENDBRANCH  50  64
BRANCH  51  75
ATOM     75  C   UNL A   1      49.190  26.596  27.624  1.00  0.00     0.064 A 
ATOM     76  C   UNL A   1      50.025  26.342  28.722  1.00  0.00     0.173 A 
ATOM     77  C   UNL A   1      49.736  26.450  26.341  1.00  0.00     0.173 A 
ATOM     78  F   UNL A   1      49.552  26.487  29.968  1.00  0.00    -0.203 F 
ATOM     79  C   UNL A   1      51.351  25.956  28.543  1.00  0.00     0.198 A 
ATOM     80  C   UNL A   1      51.056  26.041  26.163  1.00  0.00     0.198 A 
ATOM     81  F   UNL A   1      48.976  26.677  25.259  1.00  0.00    -0.203 F 
ATOM     82  F   UNL A   1      52.133  25.739  29.609  1.00  0.00    -0.200 F 
ATOM     83  C   UNL A   1      51.863  25.795  27.264  1.00  0.00     0.200 A 
ATOM     84  F   UNL A   1      51.542  25.872  24.926  1.00  0.00    -0.200 F 
ATOM     85  F   UNL A   1      53.133  25.403  27.093  1.00  0.00    -0.200 F 
ENDBRANCH  51  75
BRANCH  63  86
ATOM     86  C   UNL A   1      45.872  32.430  29.576  1.00  0.00     0.064 A 
ATOM     87  C   UNL A   1      45.943  33.454  28.622  1.00  0.00     0.173 A 
ATOM     88  C   UNL A   1      46.176  32.748  30.909  1.00  0.00     0.173 A 
ATOM     89  F   UNL A   1      45.674  33.196  27.333  1.00  0.00    -0.203 F 
ATOM     90  C   UNL A   1      46.309  34.747  28.987  1.00  0.00     0.198 A 
ATOM     91  C   UNL A   1      46.514  34.048  31.276  1.00  0.00     0.198 A 
ATOM     92  F   UNL A   1      46.115  31.806  31.861  1.00  0.00    -0.203 F 
ATOM     93  F   UNL A   1      46.399  35.704  28.054  1.00  0.00    -0.200 F 
ATOM     94  C   UNL A   1      46.582  35.045  30.314  1.00  0.00     0.200 A 
ATOM     95  F   UNL A   1      46.760  34.338  32.560  1.00  0.00    -0.200 F 
ATOM     96  F   UNL A   1      46.914  36.295  30.667  1.00  0.00    -0.200 F 
ENDBRANCH  63  86
ENDBRANCH  37  38
ENDBRANCH  29  32
ENDBRANCH  27  28
ENDBRANCH   1  27
TORSDOF 13
ENDMDL
MODEL 2
REMARK VINA RESULT:     -12.8      5.348     10.503
REMARK SMILES Cc1cc(OC(F)(F)F)cc2c1O[C@@H](C(F)(F)F)C(C(=O)NCCCNC(=O)c1ccc(-c3c4nc(c(-c5c(F)c(F)c(F)c(F)c5F)c5ccc([nH]5)c(-c5c(F)c(F)c(F)c(F)c5F)c5nc(c(-c6c(F)c(F)c(F)c(F)c6F)c6ccc3[nH]6)C=C5)C=C4)cc1)=C2
REMARK SMILES IDX 24 1 23 2 22 3 20 4 21 5 19 7 1 8 2 9 3 10 12 11 4 12 11 13
REMARK SMILES IDX 13 14 10 15 92 16 14 17 5 18 6 19 7 20 8 21 9 22 15 23 16 24
REMARK SMILES IDX 17 25 18 26 25 27 26 28 27 29 28 31 29 32 30 33 91 34 31 35
REMARK SMILES IDX 90 36 32 37 33 38 34 39 84 40 35 41 89 42 83 43 85 44 36 45
REMARK SMILES IDX 88 46 82 47 81 48 37 50 69 51 49 52 68 53 50 54 53 55 67 56
REMARK SMILES IDX 86 57 51 58 52 59 66 61 87 62 54 63 38 64 39 65 47 66 40 67
REMARK SMILES IDX 41 68 45 69 48 70 42 71 43 72 46 73 44 74 70 75 71 76 79 77
REMARK SMILES IDX 72 78 73 79 77 80 80 81 74 82 75 83 78 84 76 85 55 86 56 87
REMARK SMILES IDX 64 88 57 89 58 90 62 91 65 92 59 93 60 94 63 95 61 96
REMARK H PARENT 22 6 26 30 85 49 53 60
REMARK Flexibility Score: inf
ROOT
ATOM      1  C   UNL A   1      31.381  31.965  26.282  1.00  0.00     0.042 C 
ENDROOT
BRANCH   1   2
ATOM      2  C   UNL A   1      31.563  30.548  25.750  1.00  0.00     0.118 C 
BRANCH   2   3
ATOM      3  N   UNL A   1      31.406  29.562  26.806  1.00  0.00    -0.352 N 
ATOM      4  C   UNL A   1      31.621  28.237  26.964  1.00  0.00     0.251 C 
ATOM      5  O   UNL A   1      31.378  27.800  28.094  1.00  0.00    -0.270 OA
ATOM      6  H   UNL A   1      31.045  29.968  27.627  1.00  0.00     0.163 HD
BRANCH   4   7
ATOM      7  C   UNL A   1      32.112  27.308  25.905  1.00  0.00     0.067 C 
ATOM      8  C   UNL A   1      33.166  24.656  21.652  1.00  0.00     0.048 C 
ATOM      9  C   UNL A   1      33.632  24.599  23.079  1.00  0.00    -0.005 A 
ATOM     10  C   UNL A   1      34.503  23.584  23.501  1.00  0.00     0.054 A 
ATOM     11  C   UNL A   1      33.174  25.535  24.013  1.00  0.00     0.131 A 
ATOM     12  C   UNL A   1      34.925  23.515  24.832  1.00  0.00     0.130 A 
ATOM     13  C   UNL A   1      33.575  25.471  25.346  1.00  0.00     0.021 A 
ATOM     14  O   UNL A   1      32.362  26.530  23.547  1.00  0.00    -0.475 OA
ATOM     15  C   UNL A   1      34.451  24.459  25.750  1.00  0.00     0.058 A 
ATOM     16  C   UNL A   1      33.092  26.471  26.289  1.00  0.00     0.025 C 
ATOM     17  C   UNL A   1      31.527  27.202  24.524  1.00  0.00     0.314 C 
BRANCH  12  18
ATOM     18  O   UNL A   1      35.779  22.590  25.362  1.00  0.00    -0.406 OA
BRANCH  18  19
ATOM     19  C   UNL A   1      37.159  22.722  25.067  1.00  0.00     0.573 C 
ATOM     20  F   UNL A   1      37.519  24.022  24.999  1.00  0.00    -0.132 F 
ATOM     21  F   UNL A   1      37.918  22.092  25.989  1.00  0.00    -0.132 F 
ATOM     22  F   UNL A   1      37.403  22.155  23.865  1.00  0.00    -0.132 F 
ENDBRANCH  18  19
ENDBRANCH  12  18
BRANCH  17  23
ATOM     23  C   UNL A   1      30.108  26.611  24.486  1.00  0.00     0.429 C 
ATOM     24  F   UNL A   1      29.200  27.595  24.250  1.00  0.00    -0.167 F 
ATOM     25  F   UNL A   1      29.949  25.684  23.515  1.00  0.00    -0.167 F 
ATOM     26  F   UNL A   1      29.750  26.025  25.652  1.00  0.00    -0.167 F 
ENDBRANCH  17  23
ENDBRANCH   4   7
ENDBRANCH   2   3
ENDBRANCH   1   2
BRANCH   1  27
ATOM     27  C   UNL A   1      32.593  32.446  27.072  1.00  0.00     0.118 C 
BRANCH  27  28
ATOM     28  N   UNL A   1      32.477  33.859  27.411  1.00  0.00    -0.352 N 
ATOM     29  C   UNL A   1      33.061  34.558  28.438  1.00  0.00     0.251 C 
ATOM     30  H   UNL A   1      31.897  34.387  26.818  1.00  0.00     0.163 HD
ATOM     31  O   UNL A   1      32.625  35.658  28.757  1.00  0.00    -0.269 OA
BRANCH  29  32
ATOM     32  C   UNL A   1      34.219  33.988  29.156  1.00  0.00     0.039 A 
ATOM     33  C   UNL A   1      35.512  34.326  28.744  1.00  0.00     0.014 A 
ATOM     34  C   UNL A   1      34.028  33.073  30.194  1.00  0.00     0.014 A 
ATOM     35  C   UNL A   1      36.613  33.775  29.404  1.00  0.00     0.010 A 
ATOM     36  C   UNL A   1      35.121  32.583  30.898  1.00  0.00     0.010 A 
ATOM     37  C   UNL A   1      36.423  32.910  30.493  1.00  0.00    -0.014 A 
BRANCH  37  38
ATOM     38  C   UNL A   1      37.571  32.275  31.181  1.00  0.00     0.031 A 
ATOM     39  C   UNL A   1      38.290  31.135  30.519  1.00  0.00     0.074 A 
ATOM     40  C   UNL A   1      37.925  32.683  32.412  1.00  0.00     0.049 A 
ATOM     41  N   UNL A   1      39.279  30.406  30.968  1.00  0.00    -0.248 NA
ATOM     42  C   UNL A   1      37.816  30.745  29.180  1.00  0.00     0.031 C 
ATOM     43  C   UNL A   1      37.277  33.756  33.165  1.00  0.00     0.029 A 
ATOM     44  N   UNL A   1      38.913  32.235  33.251  1.00  0.00    -0.354 N 
ATOM     45  C   UNL A   1      39.538  29.473  29.974  1.00  0.00     0.074 A 
ATOM     46  C   UNL A   1      38.566  29.684  28.926  1.00  0.00     0.031 C 
ATOM     47  C   UNL A   1      37.895  33.895  34.349  1.00  0.00     0.029 A 
ATOM     48  C   UNL A   1      38.963  32.903  34.448  1.00  0.00     0.049 A 
ATOM     49  H   UNL A   1      39.528  31.501  33.016  1.00  0.00     0.167 HD
ATOM     50  C   UNL A   1      40.521  28.544  29.928  1.00  0.00     0.037 A 
ATOM     51  C   UNL A   1      39.779  32.731  35.506  1.00  0.00     0.037 A 
ATOM     52  C   UNL A   1      41.496  28.353  30.968  1.00  0.00     0.049 A 
ATOM     53  C   UNL A   1      40.847  31.674  35.445  1.00  0.00     0.074 A 
ATOM     54  C   UNL A   1      42.569  27.480  30.994  1.00  0.00     0.029 A 
ATOM     55  N   UNL A   1      41.512  29.046  32.170  1.00  0.00    -0.354 N 
ATOM     56  N   UNL A   1      41.131  30.842  34.473  1.00  0.00    -0.248 NA
ATOM     57  C   UNL A   1      41.713  31.536  36.625  1.00  0.00     0.031 C 
ATOM     58  C   UNL A   1      43.203  27.608  32.233  1.00  0.00     0.029 A 
ATOM     59  C   UNL A   1      42.560  28.599  32.958  1.00  0.00     0.049 A 
ATOM     60  H   UNL A   1      40.875  29.752  32.424  1.00  0.00     0.167 HD
ATOM     61  C   UNL A   1      42.215  30.095  34.912  1.00  0.00     0.074 A 
ATOM     62  C   UNL A   1      42.549  30.584  36.234  1.00  0.00     0.031 C 
ATOM     63  C   UNL A   1      42.874  29.095  34.275  1.00  0.00     0.037 A 
BRANCH  50  64
ATOM     64  C   UNL A   1      40.594  27.671  28.710  1.00  0.00     0.064 A 
ATOM     65  C   UNL A   1      41.385  28.019  27.604  1.00  0.00     0.173 A 
ATOM     66  C   UNL A   1      39.888  26.460  28.656  1.00  0.00     0.173 A 
ATOM     67  F   UNL A   1      42.069  29.173  27.599  1.00  0.00    -0.203 F 
ATOM     68  C   UNL A   1      41.445  27.201  26.479  1.00  0.00     0.198 A 
ATOM     69  C   UNL A   1      39.975  25.629  27.541  1.00  0.00     0.198 A 
ATOM     70  F   UNL A   1      39.119  26.078  29.686  1.00  0.00    -0.203 F 
ATOM     71  F   UNL A   1      42.167  27.580  25.414  1.00  0.00    -0.200 F 
ATOM     72  C   UNL A   1      40.746  26.004  26.451  1.00  0.00     0.200 A 
ATOM     73  F   UNL A   1      39.309  24.466  27.521  1.00  0.00    -0.200 F 
ATOM     74  F   UNL A   1      40.811  25.213  25.371  1.00  0.00    -0.200 F 
ENDBRANCH  50  64
BRANCH  51  75
ATOM     75  C   UNL A   1      39.635  33.620  36.687  1.00  0.00     0.064 A 
ATOM     76  C   UNL A   1      40.286  34.860  36.732  1.00  0.00     0.173 A 
ATOM     77  C   UNL A   1      38.811  33.275  37.768  1.00  0.00     0.173 A 
ATOM     78  F   UNL A   1      41.100  35.225  35.730  1.00  0.00    -0.203 F 
ATOM     79  C   UNL A   1      40.118  35.723  37.813  1.00  0.00     0.198 A 
ATOM     80  C   UNL A   1      38.625  34.148  38.838  1.00  0.00     0.198 A 
ATOM     81  F   UNL A   1      38.162  32.101  37.770  1.00  0.00    -0.203 F 
ATOM     82  F   UNL A   1      40.768  36.894  37.841  1.00  0.00    -0.200 F 
ATOM     83  C   UNL A   1      39.279  35.371  38.861  1.00  0.00     0.200 A 
ATOM     84  F   UNL A   1      37.802  33.811  39.841  1.00  0.00    -0.200 F 
ATOM     85  F   UNL A   1      39.102  36.210  39.890  1.00  0.00    -0.200 F 
ENDBRANCH  51  75
BRANCH  63  86
ATOM     86  C   UNL A   1      44.031  28.459  34.989  1.00  0.00     0.064 A 
ATOM     87  C   UNL A   1      43.865  27.301  35.763  1.00  0.00     0.173 A 
ATOM     88  C   UNL A   1      45.332  28.961  34.826  1.00  0.00     0.173 A 
ATOM     89  F   UNL A   1      42.640  26.790  35.959  1.00  0.00    -0.203 F 
ATOM     90  C   UNL A   1      44.959  26.675  36.354  1.00  0.00     0.198 A 
ATOM     91  C   UNL A   1      46.426  28.315  35.394  1.00  0.00     0.198 A 
ATOM     92  F   UNL A   1      45.544  30.061  34.088  1.00  0.00    -0.203 F 
ATOM     93  F   UNL A   1      44.774  25.587  37.114  1.00  0.00    -0.200 F 
ATOM     94  C   UNL A   1      46.238  27.175  36.160  1.00  0.00     0.200 A 
ATOM     95  F   UNL A   1      47.663  28.790  35.191  1.00  0.00    -0.200 F 
ATOM     96  F   UNL A   1      47.291  26.557  36.713  1.00  0.00    -0.200 F 
ENDBRANCH  63  86
ENDBRANCH  37  38
ENDBRANCH  29  32
ENDBRANCH  27  28
ENDBRANCH   1  27
TORSDOF 13
ENDMDL
MODEL 3
REMARK VINA RESULT:     -12.8      0.980      1.976
REMARK SMILES Cc1cc(OC(F)(F)F)cc2c1O[C@@H](C(F)(F)F)C(C(=O)NCCCNC(=O)c1ccc(-c3c4nc(c(-c5c(F)c(F)c(F)c(F)c5F)c5ccc([nH]5)c(-c5c(F)c(F)c(F)c(F)c5F)c5nc(c(-c6c(F)c(F)c(F)c(F)c6F)c6ccc3[nH]6)C=C5)C=C4)cc1)=C2
REMARK SMILES IDX 24 1 23 2 22 3 20 4 21 5 19 7 1 8 2 9 3 10 12 11 4 12 11 13
REMARK SMILES IDX 13 14 10 15 92 16 14 17 5 18 6 19 7 20 8 21 9 22 15 23 16 24
REMARK SMILES IDX 17 25 18 26 25 27 26 28 27 29 28 31 29 32 30 33 91 34 31 35
REMARK SMILES IDX 90 36 32 37 33 38 34 39 84 40 35 41 89 42 83 43 85 44 36 45
REMARK SMILES IDX 88 46 82 47 81 48 37 50 69 51 49 52 68 53 50 54 53 55 67 56
REMARK SMILES IDX 86 57 51 58 52 59 66 61 87 62 54 63 38 64 39 65 47 66 40 67
REMARK SMILES IDX 41 68 45 69 48 70 42 71 43 72 46 73 44 74 70 75 71 76 79 77
REMARK SMILES IDX 72 78 73 79 77 80 80 81 74 82 75 83 78 84 76 85 55 86 56 87
REMARK SMILES IDX 64 88 57 89 58 90 62 91 65 92 59 93 60 94 63 95 61 96
REMARK H PARENT 22 6 26 30 85 49 53 60
REMARK Flexibility Score: inf
ROOT
ATOM      1  C   UNL A   1      37.871  19.581  25.012  1.00  0.00     0.042 C 
ENDROOT
BRANCH   1   2
ATOM      2  C   UNL A   1      36.651  20.496  25.001  1.00  0.00     0.118 C 
BRANCH   2   3
ATOM      3  N   UNL A   1      36.788  21.548  24.009  1.00  0.00    -0.352 N 
ATOM      4  C   UNL A   1      36.143  22.690  23.680  1.00  0.00     0.251 C 
ATOM      5  O   UNL A   1      36.652  23.327  22.751  1.00  0.00    -0.270 OA
ATOM      6  H   UNL A   1      37.557  21.386  23.415  1.00  0.00     0.163 HD
BRANCH   4   7
ATOM      7  C   UNL A   1      34.908  23.206  24.338  1.00  0.00     0.067 C 
ATOM      8  C   UNL A   1      30.335  24.003  26.503  1.00  0.00     0.048 C 
ATOM      9  C   UNL A   1      31.532  24.862  26.208  1.00  0.00    -0.005 A 
ATOM     10  C   UNL A   1      31.498  26.240  26.467  1.00  0.00     0.054 A 
ATOM     11  C   UNL A   1      32.682  24.304  25.638  1.00  0.00     0.131 A 
ATOM     12  C   UNL A   1      32.602  27.047  26.177  1.00  0.00     0.130 A 
ATOM     13  C   UNL A   1      33.786  25.098  25.332  1.00  0.00     0.021 A 
ATOM     14  O   UNL A   1      32.685  22.951  25.445  1.00  0.00    -0.475 OA
ATOM     15  C   UNL A   1      33.741  26.469  25.604  1.00  0.00     0.058 A 
ATOM     16  C   UNL A   1      34.973  24.483  24.754  1.00  0.00     0.025 C 
ATOM     17  C   UNL A   1      33.623  22.435  24.466  1.00  0.00     0.314 C 
BRANCH  12  18
ATOM     18  O   UNL A   1      32.700  28.392  26.395  1.00  0.00    -0.406 OA
BRANCH  18  19
ATOM     19  C   UNL A   1      32.248  29.259  25.368  1.00  0.00     0.573 C 
ATOM     20  F   UNL A   1      31.134  28.776  24.779  1.00  0.00    -0.132 F 
ATOM     21  F   UNL A   1      32.004  30.498  25.848  1.00  0.00    -0.132 F 
ATOM     22  F   UNL A   1      33.213  29.358  24.427  1.00  0.00    -0.132 F 
ENDBRANCH  18  19
ENDBRANCH  12  18
BRANCH  17  23
ATOM     23  C   UNL A   1      32.898  22.195  23.132  1.00  0.00     0.429 C 
ATOM     24  F   UNL A   1      32.908  20.869  22.830  1.00  0.00    -0.167 F 
ATOM     25  F   UNL A   1      31.604  22.586  23.157  1.00  0.00    -0.167 F 
ATOM     26  F   UNL A   1      33.483  22.833  22.092  1.00  0.00    -0.167 F 
ENDBRANCH  17  23
ENDBRANCH   4   7
ENDBRANCH   2   3
ENDBRANCH   1   2
BRANCH   1  27
ATOM     27  C   UNL A   1      39.054  20.204  25.745  1.00  0.00     0.118 C 
BRANCH  27  28
ATOM     28  N   UNL A   1      40.102  19.222  25.988  1.00  0.00    -0.352 N 
ATOM     29  C   UNL A   1      41.456  19.409  26.126  1.00  0.00     0.251 C 
ATOM     30  H   UNL A   1      39.796  18.290  26.065  1.00  0.00     0.163 HD
ATOM     31  O   UNL A   1      42.219  18.456  26.024  1.00  0.00    -0.269 OA
BRANCH  29  32
ATOM     32  C   UNL A   1      41.991  20.757  26.402  1.00  0.00     0.039 A 
ATOM     33  C   UNL A   1      42.208  21.148  27.727  1.00  0.00     0.014 A 
ATOM     34  C   UNL A   1      42.220  21.656  25.357  1.00  0.00     0.014 A 
ATOM     35  C   UNL A   1      42.694  22.429  27.999  1.00  0.00     0.010 A 
ATOM     36  C   UNL A   1      42.773  22.902  25.622  1.00  0.00     0.010 A 
ATOM     37  C   UNL A   1      42.991  23.309  26.946  1.00  0.00    -0.014 A 
BRANCH  37  38
ATOM     38  C   UNL A   1      43.463  24.688  27.206  1.00  0.00     0.031 A 
ATOM     39  C   UNL A   1      42.505  25.706  27.754  1.00  0.00     0.074 A 
ATOM     40  C   UNL A   1      44.725  25.035  26.898  1.00  0.00     0.049 A 
ATOM     41  N   UNL A   1      42.696  26.977  28.001  1.00  0.00    -0.248 NA
ATOM     42  C   UNL A   1      41.138  25.238  28.040  1.00  0.00     0.031 C 
ATOM     43  C   UNL A   1      45.732  24.140  26.329  1.00  0.00     0.029 A 
ATOM     44  N   UNL A   1      45.373  26.239  27.013  1.00  0.00    -0.354 N 
ATOM     45  C   UNL A   1      41.478  27.456  28.463  1.00  0.00     0.074 A 
ATOM     46  C   UNL A   1      40.537  26.361  28.403  1.00  0.00     0.031 C 
ATOM     47  C   UNL A   1      46.877  24.821  26.160  1.00  0.00     0.029 A 
ATOM     48  C   UNL A   1      46.675  26.205  26.582  1.00  0.00     0.049 A 
ATOM     49  H   UNL A   1      44.944  27.051  27.370  1.00  0.00     0.167 HD
ATOM     50  C   UNL A   1      41.182  28.693  28.925  1.00  0.00     0.037 A 
ATOM     51  C   UNL A   1      47.600  27.184  26.530  1.00  0.00     0.037 A 
ATOM     52  C   UNL A   1      42.129  29.772  28.998  1.00  0.00     0.049 A 
ATOM     53  C   UNL A   1      47.240  28.558  27.024  1.00  0.00     0.074 A 
ATOM     54  C   UNL A   1      41.946  31.046  29.504  1.00  0.00     0.029 A 
ATOM     55  N   UNL A   1      43.439  29.703  28.546  1.00  0.00    -0.354 N 
ATOM     56  N   UNL A   1      46.106  28.986  27.523  1.00  0.00    -0.248 NA
ATOM     57  C   UNL A   1      48.290  29.585  26.952  1.00  0.00     0.031 C 
ATOM     58  C   UNL A   1      43.130  31.764  29.311  1.00  0.00     0.029 A 
ATOM     59  C   UNL A   1      44.068  30.922  28.734  1.00  0.00     0.049 A 
ATOM     60  H   UNL A   1      43.859  28.905  28.151  1.00  0.00     0.167 HD
ATOM     61  C   UNL A   1      46.308  30.323  27.842  1.00  0.00     0.074 A 
ATOM     62  C   UNL A   1      47.680  30.631  27.493  1.00  0.00     0.031 C 
ATOM     63  C   UNL A   1      45.435  31.212  28.377  1.00  0.00     0.037 A 
BRANCH  50  64
ATOM     64  C   UNL A   1      39.778  28.939  29.394  1.00  0.00     0.064 A 
ATOM     65  C   UNL A   1      39.395  28.700  30.722  1.00  0.00     0.173 A 
ATOM     66  C   UNL A   1      38.810  29.448  28.515  1.00  0.00     0.173 A 
ATOM     67  F   UNL A   1      40.279  28.201  31.600  1.00  0.00    -0.203 F 
ATOM     68  C   UNL A   1      38.089  28.932  31.147  1.00  0.00     0.198 A 
ATOM     69  C   UNL A   1      37.513  29.709  28.951  1.00  0.00     0.198 A 
ATOM     70  F   UNL A   1      39.122  29.698  27.234  1.00  0.00    -0.203 F 
ATOM     71  F   UNL A   1      37.735  28.647  32.408  1.00  0.00    -0.200 F 
ATOM     72  C   UNL A   1      37.152  29.443  30.263  1.00  0.00     0.200 A 
ATOM     73  F   UNL A   1      36.611  30.215  28.098  1.00  0.00    -0.200 F 
ATOM     74  F   UNL A   1      35.897  29.675  30.674  1.00  0.00    -0.200 F 
ENDBRANCH  50  64
BRANCH  51  75
ATOM     75  C   UNL A   1      48.964  26.871  26.035  1.00  0.00     0.064 A 
ATOM     76  C   UNL A   1      49.927  26.320  26.891  1.00  0.00     0.173 A 
ATOM     77  C   UNL A   1      49.319  27.066  24.692  1.00  0.00     0.173 A 
ATOM     78  F   UNL A   1      49.640  26.132  28.188  1.00  0.00    -0.203 F 
ATOM     79  C   UNL A   1      51.194  25.976  26.424  1.00  0.00     0.198 A 
ATOM     80  C   UNL A   1      50.577  26.701  24.220  1.00  0.00     0.198 A 
ATOM     81  F   UNL A   1      48.430  27.586  23.832  1.00  0.00    -0.203 F 
ATOM     82  F   UNL A   1      52.103  25.470  27.268  1.00  0.00    -0.200 F 
ATOM     83  C   UNL A   1      51.515  26.157  25.086  1.00  0.00     0.200 A 
ATOM     84  F   UNL A   1      50.879  26.863  22.925  1.00  0.00    -0.200 F 
ATOM     85  F   UNL A   1      52.726  25.808  24.633  1.00  0.00    -0.200 F 
ENDBRANCH  51  75
BRANCH  63  86
ATOM     86  C   UNL A   1      45.928  32.607  28.628  1.00  0.00     0.064 A 
ATOM     87  C   UNL A   1      46.593  32.944  29.815  1.00  0.00     0.173 A 
ATOM     88  C   UNL A   1      45.812  33.593  27.636  1.00  0.00     0.173 A 
ATOM     89  F   UNL A   1      46.719  32.040  30.799  1.00  0.00    -0.203 F 
ATOM     90  C   UNL A   1      47.117  34.220  30.004  1.00  0.00     0.198 A 
ATOM     91  C   UNL A   1      46.363  34.858  27.815  1.00  0.00     0.198 A 
ATOM     92  F   UNL A   1      45.193  33.318  26.479  1.00  0.00    -0.203 F 
ATOM     93  F   UNL A   1      47.723  34.529  31.158  1.00  0.00    -0.200 F 
ATOM     94  C   UNL A   1      47.012  35.172  29.000  1.00  0.00     0.200 A 
ATOM     95  F   UNL A   1      46.275  35.771  26.838  1.00  0.00    -0.200 F 
ATOM     96  F   UNL A   1      47.536  36.393  29.174  1.00  0.00    -0.200 F 
ENDBRANCH  63  86
ENDBRANCH  37  38
ENDBRANCH  29  32
ENDBRANCH  27  28
ENDBRANCH   1  27
TORSDOF 13
ENDMDL
