MODEL 1
REMARK VINA RESULT:     -11.0      0.000      0.000
REMARK SMILES CCC[N@@H+](CC1CC[NH2+]CC1)[C@@H](CC)C(=O)NCCCNC(=O)c1ccc(-c2c3nc(c(-c4c(F)c(F)c(F)c(F)c4F)c4ccc([nH]4)c(-c4c(F)c(F)c(F)c(F)c4F)c4nc(c(-c5c(F)c(F)c(F)c(F)c5F)c5ccc2[nH]5)C=C4)C=C3)cc1
REMARK SMILES IDX 18 1 17 2 15 3 16 4 12 6 4 7 3 9 2 10 1 11 5 12 6 13 7 14
REMARK SMILES IDX 11 15 8 16 10 17 9 18 13 21 14 22 19 23 20 24 21 25 22 26
REMARK SMILES IDX 23 28 24 29 25 30 86 31 26 32 85 33 27 34 28 35 29 36 79 37
REMARK SMILES IDX 30 38 84 39 78 40 80 41 31 42 83 43 77 44 76 45 32 47 64 48
REMARK SMILES IDX 44 49 63 50 45 51 48 52 62 53 81 54 46 55 47 56 61 58 82 59
REMARK SMILES IDX 49 60 33 61 34 62 42 63 35 64 36 65 40 66 43 67 37 68 38 69
REMARK SMILES IDX 41 70 39 71 65 72 66 73 74 74 67 75 68 76 72 77 75 78 69 79
REMARK SMILES IDX 70 80 73 81 71 82 50 83 51 84 59 85 52 86 53 87 57 88 60 89
REMARK SMILES IDX 54 90 55 91 58 92 56 93
REMARK H PARENT 17 5 4 8 9 19 9 20 21 27 80 46 48 57
REMARK Flexibility Score: inf
ROOT
ATOM      1  C   UNL A   1      36.833  21.034  25.248  1.00  0.00     0.118 C 
ENDROOT
BRANCH   1   2
ATOM      2  N   UNL A   1      36.556  21.808  24.036  1.00  0.00    -0.351 N 
ATOM      3  C   UNL A   1      35.938  22.932  23.615  1.00  0.00     0.278 C 
ATOM      4  O   UNL A   1      36.525  23.370  22.599  1.00  0.00    -0.268 OA
ATOM      5  H   UNL A   1      36.960  21.352  23.262  1.00  0.00     0.163 HD
BRANCH   3   6
ATOM      6  C   UNL A   1      34.698  23.775  24.130  1.00  0.00     0.273 C 
BRANCH   6   7
ATOM      7  N   UNL A   1      33.337  23.483  23.577  1.00  0.00    -0.324 N 
ATOM      8  H   UNL A   1      32.854  23.667  24.457  1.00  0.00     0.348 HD
BRANCH   7   9
ATOM      9  C   UNL A   1      32.609  24.416  22.719  1.00  0.00     0.262 C 
BRANCH   9  10
ATOM     10  C   UNL A   1      31.137  24.602  22.948  1.00  0.00     0.058 C 
ATOM     11  C   UNL A   1      30.721  24.907  24.373  1.00  0.00     0.010 C 
ENDBRANCH   9  10
ENDBRANCH   7   9
BRANCH   7  12
ATOM     12  C   UNL A   1      33.158  22.070  23.109  1.00  0.00     0.266 C 
BRANCH  12  13
ATOM     13  C   UNL A   1      32.233  21.173  23.983  1.00  0.00     0.055 C 
ATOM     14  C   UNL A   1      32.182  21.633  25.455  1.00  0.00     0.071 C 
ATOM     15  C   UNL A   1      32.527  19.673  23.863  1.00  0.00     0.071 C 
ATOM     16  C   UNL A   1      33.266  21.014  26.329  1.00  0.00     0.261 C 
ATOM     17  C   UNL A   1      33.587  19.169  24.832  1.00  0.00     0.261 C 
ATOM     18  N   UNL A   1      33.265  19.561  26.202  1.00  0.00    -0.346 N 
ATOM     19  H   UNL A   1      32.342  19.203  26.445  1.00  0.00     0.346 HD
ATOM     20  H   UNL A   1      33.969  19.174  26.829  1.00  0.00     0.346 HD
ENDBRANCH  12  13
ENDBRANCH   7  12
ENDBRANCH   6   7
BRANCH   6  21
ATOM     21  C   UNL A   1      34.915  24.676  25.374  1.00  0.00     0.072 C 
ATOM     22  C   UNL A   1      34.085  25.930  25.576  1.00  0.00     0.011 C 
ENDBRANCH   6  21
ENDBRANCH   3   6
ENDBRANCH   1   2
BRANCH   1  23
ATOM     23  C   UNL A   1      37.938  19.991  25.062  1.00  0.00     0.042 C 
BRANCH  23  24
ATOM     24  C   UNL A   1      39.255  20.288  25.750  1.00  0.00     0.118 C 
BRANCH  24  25
ATOM     25  N   UNL A   1      40.209  19.187  25.811  1.00  0.00    -0.352 N 
ATOM     26  C   UNL A   1      41.558  19.210  26.110  1.00  0.00     0.251 C 
ATOM     27  H   UNL A   1      39.837  18.298  25.609  1.00  0.00     0.163 HD
ATOM     28  O   UNL A   1      42.201  18.163  26.108  1.00  0.00    -0.269 OA
BRANCH  26  29
ATOM     29  C   UNL A   1      42.254  20.498  26.370  1.00  0.00     0.039 A 
ATOM     30  C   UNL A   1      42.736  21.253  25.296  1.00  0.00     0.014 A 
ATOM     31  C   UNL A   1      42.375  20.999  27.663  1.00  0.00     0.014 A 
ATOM     32  C   UNL A   1      43.240  22.540  25.520  1.00  0.00     0.010 A 
ATOM     33  C   UNL A   1      42.703  22.331  27.862  1.00  0.00     0.010 A 
ATOM     34  C   UNL A   1      43.174  23.112  26.802  1.00  0.00    -0.014 A 
BRANCH  34  35
ATOM     35  C   UNL A   1      43.628  24.502  27.077  1.00  0.00     0.031 A 
ATOM     36  C   UNL A   1      42.647  25.520  27.608  1.00  0.00     0.074 A 
ATOM     37  C   UNL A   1      44.881  24.876  26.754  1.00  0.00     0.049 A 
ATOM     38  N   UNL A   1      42.815  26.798  27.832  1.00  0.00    -0.248 NA
ATOM     39  C   UNL A   1      41.272  25.054  27.851  1.00  0.00     0.031 C 
ATOM     40  C   UNL A   1      45.885  24.024  26.114  1.00  0.00     0.029 A 
ATOM     41  N   UNL A   1      45.524  26.078  26.912  1.00  0.00    -0.354 N 
ATOM     42  C   UNL A   1      41.563  27.285  28.188  1.00  0.00     0.074 A 
ATOM     43  C   UNL A   1      40.630  26.191  28.059  1.00  0.00     0.031 C 
ATOM     44  C   UNL A   1      47.029  24.712  25.979  1.00  0.00     0.029 A 
ATOM     45  C   UNL A   1      46.834  26.061  26.499  1.00  0.00     0.049 A 
ATOM     46  H   UNL A   1      45.088  26.878  27.287  1.00  0.00     0.167 HD
ATOM     47  C   UNL A   1      41.226  28.519  28.632  1.00  0.00     0.037 A 
ATOM     48  C   UNL A   1      47.774  27.023  26.553  1.00  0.00     0.037 A 
ATOM     49  C   UNL A   1      42.180  29.574  28.839  1.00  0.00     0.049 A 
ATOM     50  C   UNL A   1      47.414  28.348  27.169  1.00  0.00     0.074 A 
ATOM     51  C   UNL A   1      41.986  30.821  29.401  1.00  0.00     0.029 A 
ATOM     52  N   UNL A   1      43.523  29.490  28.499  1.00  0.00    -0.354 N 
ATOM     53  N   UNL A   1      46.252  28.765  27.612  1.00  0.00    -0.248 NA
ATOM     54  C   UNL A   1      48.500  29.325  27.317  1.00  0.00     0.031 C 
ATOM     55  C   UNL A   1      43.206  31.507  29.368  1.00  0.00     0.029 A 
ATOM     56  C   UNL A   1      44.169  30.670  28.827  1.00  0.00     0.049 A 
ATOM     57  H   UNL A   1      43.953  28.705  28.087  1.00  0.00     0.167 HD
ATOM     58  C   UNL A   1      46.464  30.047  28.097  1.00  0.00     0.074 A 
ATOM     59  C   UNL A   1      47.877  30.325  27.925  1.00  0.00     0.031 C 
ATOM     60  C   UNL A   1      45.573  30.922  28.629  1.00  0.00     0.037 A 
BRANCH  47  61
ATOM     61  C   UNL A   1      39.775  28.772  28.941  1.00  0.00     0.064 A 
ATOM     62  C   UNL A   1      38.886  29.271  27.974  1.00  0.00     0.173 A 
ATOM     63  C   UNL A   1      39.269  28.532  30.227  1.00  0.00     0.173 A 
ATOM     64  F   UNL A   1      39.317  29.531  26.730  1.00  0.00    -0.203 F 
ATOM     65  C   UNL A   1      37.566  29.576  28.298  1.00  0.00     0.198 A 
ATOM     66  C   UNL A   1      37.937  28.802  30.537  1.00  0.00     0.198 A 
ATOM     67  F   UNL A   1      40.067  28.049  31.190  1.00  0.00    -0.203 F 
ATOM     68  F   UNL A   1      36.765  30.131  27.378  1.00  0.00    -0.200 F 
ATOM     69  C   UNL A   1      37.092  29.338  29.577  1.00  0.00     0.200 A 
ATOM     70  F   UNL A   1      37.475  28.560  31.771  1.00  0.00    -0.200 F 
ATOM     71  F   UNL A   1      35.824  29.638  29.890  1.00  0.00    -0.200 F 
ENDBRANCH  47  61
BRANCH  48  72
ATOM     72  C   UNL A   1      49.153  26.735  26.078  1.00  0.00     0.064 A 
ATOM     73  C   UNL A   1      50.088  26.114  26.919  1.00  0.00     0.173 A 
ATOM     74  C   UNL A   1      49.554  27.036  24.769  1.00  0.00     0.173 A 
ATOM     75  F   UNL A   1      49.757  25.820  28.185  1.00  0.00    -0.203 F 
ATOM     76  C   UNL A   1      51.375  25.818  26.472  1.00  0.00     0.198 A 
ATOM     77  C   UNL A   1      50.833  26.716  24.315  1.00  0.00     0.198 A 
ATOM     78  F   UNL A   1      48.695  27.620  23.921  1.00  0.00    -0.203 F 
ATOM     79  F   UNL A   1      52.257  25.253  27.308  1.00  0.00    -0.200 F 
ATOM     80  C   UNL A   1      51.743  26.112  25.169  1.00  0.00     0.200 A 
ATOM     81  F   UNL A   1      51.180  26.985  23.049  1.00  0.00    -0.200 F 
ATOM     82  F   UNL A   1      52.976  25.813  24.736  1.00  0.00    -0.200 F 
ENDBRANCH  48  72
BRANCH  60  83
ATOM     83  C   UNL A   1      46.109  32.255  29.058  1.00  0.00     0.064 A 
ATOM     84  C   UNL A   1      46.618  32.457  30.349  1.00  0.00     0.173 A 
ATOM     85  C   UNL A   1      46.137  33.334  28.161  1.00  0.00     0.173 A 
ATOM     86  F   UNL A   1      46.601  31.458  31.245  1.00  0.00    -0.203 F 
ATOM     87  C   UNL A   1      47.105  33.700  30.739  1.00  0.00     0.198 A 
ATOM     88  C   UNL A   1      46.654  34.568  28.545  1.00  0.00     0.198 A 
ATOM     89  F   UNL A   1      45.671  33.188  26.912  1.00  0.00    -0.203 F 
ATOM     90  F   UNL A   1      47.534  33.886  31.995  1.00  0.00    -0.200 F 
ATOM     91  C   UNL A   1      47.126  34.754  29.835  1.00  0.00     0.200 A 
ATOM     92  F   UNL A   1      46.688  35.580  27.668  1.00  0.00    -0.200 F 
ATOM     93  F   UNL A   1      47.597  35.950  30.212  1.00  0.00    -0.200 F 
ENDBRANCH  60  83
ENDBRANCH  34  35
ENDBRANCH  26  29
ENDBRANCH  24  25
ENDBRANCH  23  24
ENDBRANCH   1  23
TORSDOF 16
ENDMDL
MODEL 2
REMARK VINA RESULT:     -11.0      5.109      8.637
REMARK SMILES CCC[N@@H+](CC1CC[NH2+]CC1)[C@@H](CC)C(=O)NCCCNC(=O)c1ccc(-c2c3nc(c(-c4c(F)c(F)c(F)c(F)c4F)c4ccc([nH]4)c(-c4c(F)c(F)c(F)c(F)c4F)c4nc(c(-c5c(F)c(F)c(F)c(F)c5F)c5ccc2[nH]5)C=C4)C=C3)cc1
REMARK SMILES IDX 18 1 17 2 15 3 16 4 12 6 4 7 3 9 2 10 1 11 5 12 6 13 7 14
REMARK SMILES IDX 11 15 8 16 10 17 9 18 13 21 14 22 19 23 20 24 21 25 22 26
REMARK SMILES IDX 23 28 24 29 25 30 86 31 26 32 85 33 27 34 28 35 29 36 79 37
REMARK SMILES IDX 30 38 84 39 78 40 80 41 31 42 83 43 77 44 76 45 32 47 64 48
REMARK SMILES IDX 44 49 63 50 45 51 48 52 62 53 81 54 46 55 47 56 61 58 82 59
REMARK SMILES IDX 49 60 33 61 34 62 42 63 35 64 36 65 40 66 43 67 37 68 38 69
REMARK SMILES IDX 41 70 39 71 65 72 66 73 74 74 67 75 68 76 72 77 75 78 69 79
REMARK SMILES IDX 70 80 73 81 71 82 50 83 51 84 59 85 52 86 53 87 57 88 60 89
REMARK SMILES IDX 54 90 55 91 58 92 56 93
REMARK H PARENT 17 5 4 8 9 19 9 20 21 27 80 46 48 57
REMARK Flexibility Score: inf
ROOT
ATOM      1  C   UNL A   1      32.378  27.862  27.341  1.00  0.00     0.118 C 
ENDROOT
BRANCH   1   2
ATOM      2  N   UNL A   1      31.585  26.690  26.961  1.00  0.00    -0.351 N 
ATOM      3  C   UNL A   1      31.696  25.486  26.362  1.00  0.00     0.278 C 
ATOM      4  O   UNL A   1      30.844  24.705  26.843  1.00  0.00    -0.268 OA
ATOM      5  H   UNL A   1      30.651  26.828  27.241  1.00  0.00     0.163 HD
BRANCH   3   6
ATOM      6  C   UNL A   1      32.648  24.888  25.244  1.00  0.00     0.273 C 
BRANCH   6   7
ATOM      7  N   UNL A   1      32.081  24.577  23.893  1.00  0.00    -0.324 N 
ATOM      8  H   UNL A   1      32.967  24.713  23.404  1.00  0.00     0.348 HD
BRANCH   7   9
ATOM      9  C   UNL A   1      31.782  23.218  23.447  1.00  0.00     0.262 C 
BRANCH   9  10
ATOM     10  C   UNL A   1      32.461  22.071  24.139  1.00  0.00     0.058 C 
ATOM     11  C   UNL A   1      31.749  21.516  25.356  1.00  0.00     0.010 C 
ENDBRANCH   9  10
ENDBRANCH   7   9
BRANCH   7  12
ATOM     12  C   UNL A   1      31.023  25.537  23.439  1.00  0.00     0.266 C 
BRANCH  12  13
ATOM     13  C   UNL A   1      31.432  26.517  22.302  1.00  0.00     0.055 C 
ATOM     14  C   UNL A   1      32.953  26.778  22.262  1.00  0.00     0.071 C 
ATOM     15  C   UNL A   1      30.629  27.824  22.286  1.00  0.00     0.071 C 
ATOM     16  C   UNL A   1      33.399  27.938  23.145  1.00  0.00     0.261 C 
ATOM     17  C   UNL A   1      31.214  28.921  23.162  1.00  0.00     0.261 C 
ATOM     18  N   UNL A   1      32.624  29.137  22.851  1.00  0.00    -0.346 N 
ATOM     19  H   UNL A   1      32.719  29.366  21.862  1.00  0.00     0.346 HD
ATOM     20  H   UNL A   1      32.975  29.905  23.424  1.00  0.00     0.346 HD
ENDBRANCH  12  13
ENDBRANCH   7  12
ENDBRANCH   6   7
BRANCH   6  21
ATOM     21  C   UNL A   1      34.173  24.903  25.524  1.00  0.00     0.072 C 
ATOM     22  C   UNL A   1      35.157  24.406  24.480  1.00  0.00     0.011 C 
ENDBRANCH   6  21
ENDBRANCH   3   6
ENDBRANCH   1   2
BRANCH   1  23
ATOM     23  C   UNL A   1      31.771  29.185  26.865  1.00  0.00     0.042 C 
BRANCH  23  24
ATOM     24  C   UNL A   1      32.745  30.197  26.295  1.00  0.00     0.118 C 
BRANCH  24  25
ATOM     25  N   UNL A   1      32.598  31.566  26.771  1.00  0.00    -0.352 N 
ATOM     26  C   UNL A   1      33.476  32.337  27.510  1.00  0.00     0.251 C 
ATOM     27  H   UNL A   1      31.750  32.006  26.533  1.00  0.00     0.163 HD
ATOM     28  O   UNL A   1      33.166  33.485  27.820  1.00  0.00    -0.269 OA
BRANCH  26  29
ATOM     29  C   UNL A   1      34.764  31.769  27.989  1.00  0.00     0.039 A 
ATOM     30  C   UNL A   1      35.877  32.603  28.131  1.00  0.00     0.014 A 
ATOM     31  C   UNL A   1      34.863  30.431  28.362  1.00  0.00     0.014 A 
ATOM     32  C   UNL A   1      37.040  32.115  28.739  1.00  0.00     0.010 A 
ATOM     33  C   UNL A   1      35.942  30.002  29.120  1.00  0.00     0.010 A 
ATOM     34  C   UNL A   1      37.061  30.822  29.290  1.00  0.00    -0.014 A 
BRANCH  34  35
ATOM     35  C   UNL A   1      38.246  30.283  30.010  1.00  0.00     0.031 A 
ATOM     36  C   UNL A   1      38.498  30.682  31.444  1.00  0.00     0.074 A 
ATOM     37  C   UNL A   1      39.146  29.527  29.351  1.00  0.00     0.049 A 
ATOM     38  N   UNL A   1      39.512  30.395  32.221  1.00  0.00    -0.248 NA
ATOM     39  C   UNL A   1      37.515  31.583  32.066  1.00  0.00     0.031 C 
ATOM     40  C   UNL A   1      39.086  29.180  27.930  1.00  0.00     0.029 A 
ATOM     41  N   UNL A   1      40.296  28.921  29.789  1.00  0.00    -0.354 N 
ATOM     42  C   UNL A   1      39.306  31.119  33.389  1.00  0.00     0.074 A 
ATOM     43  C   UNL A   1      38.128  31.928  33.185  1.00  0.00     0.031 C 
ATOM     44  C   UNL A   1      40.123  28.383  27.626  1.00  0.00     0.029 A 
ATOM     45  C   UNL A   1      40.934  28.184  28.821  1.00  0.00     0.049 A 
ATOM     46  H   UNL A   1      40.632  29.005  30.711  1.00  0.00     0.167 HD
ATOM     47  C   UNL A   1      40.005  31.078  34.548  1.00  0.00     0.037 A 
ATOM     48  C   UNL A   1      42.039  27.419  28.900  1.00  0.00     0.037 A 
ATOM     49  C   UNL A   1      41.124  30.204  34.768  1.00  0.00     0.049 A 
ATOM     50  C   UNL A   1      42.728  27.283  30.230  1.00  0.00     0.074 A 
ATOM     51  C   UNL A   1      41.833  29.977  35.932  1.00  0.00     0.029 A 
ATOM     52  N   UNL A   1      41.686  29.395  33.790  1.00  0.00    -0.354 N 
ATOM     53  N   UNL A   1      42.460  27.884  31.365  1.00  0.00    -0.248 NA
ATOM     54  C   UNL A   1      43.857  26.347  30.298  1.00  0.00     0.031 C 
ATOM     55  C   UNL A   1      42.849  29.057  35.649  1.00  0.00     0.029 A 
ATOM     56  C   UNL A   1      42.745  28.677  34.320  1.00  0.00     0.049 A 
ATOM     57  H   UNL A   1      41.377  29.339  32.856  1.00  0.00     0.167 HD
ATOM     58  C   UNL A   1      43.377  27.396  32.284  1.00  0.00     0.074 A 
ATOM     59  C   UNL A   1      44.188  26.422  31.580  1.00  0.00     0.031 C 
ATOM     60  C   UNL A   1      43.543  27.726  33.589  1.00  0.00     0.037 A 
BRANCH  47  61
ATOM     61  C   UNL A   1      39.557  31.988  35.660  1.00  0.00     0.064 A 
ATOM     62  C   UNL A   1      40.116  33.264  35.847  1.00  0.00     0.173 A 
ATOM     63  C   UNL A   1      38.570  31.572  36.566  1.00  0.00     0.173 A 
ATOM     64  F   UNL A   1      41.072  33.710  35.018  1.00  0.00    -0.203 F 
ATOM     65  C   UNL A   1      39.747  34.060  36.929  1.00  0.00     0.198 A 
ATOM     66  C   UNL A   1      38.176  32.388  37.625  1.00  0.00     0.198 A 
ATOM     67  F   UNL A   1      37.995  30.367  36.435  1.00  0.00    -0.203 F 
ATOM     68  F   UNL A   1      40.358  35.236  37.129  1.00  0.00    -0.200 F 
ATOM     69  C   UNL A   1      38.775  33.623  37.814  1.00  0.00     0.200 A 
ATOM     70  F   UNL A   1      37.227  31.970  38.474  1.00  0.00    -0.200 F 
ATOM     71  F   UNL A   1      38.427  34.387  38.858  1.00  0.00    -0.200 F 
ENDBRANCH  47  61
BRANCH  48  72
ATOM     72  C   UNL A   1      42.506  26.672  27.702  1.00  0.00     0.064 A 
ATOM     73  C   UNL A   1      43.516  27.191  26.880  1.00  0.00     0.173 A 
ATOM     74  C   UNL A   1      41.983  25.412  27.376  1.00  0.00     0.173 A 
ATOM     75  F   UNL A   1      44.038  28.398  27.142  1.00  0.00    -0.203 F 
ATOM     76  C   UNL A   1      43.977  26.484  25.770  1.00  0.00     0.198 A 
ATOM     77  C   UNL A   1      42.463  24.695  26.280  1.00  0.00     0.198 A 
ATOM     78  F   UNL A   1      41.023  24.866  28.136  1.00  0.00    -0.203 F 
ATOM     79  F   UNL A   1      44.921  27.019  24.984  1.00  0.00    -0.200 F 
ATOM     80  C   UNL A   1      43.455  25.234  25.476  1.00  0.00     0.200 A 
ATOM     81  F   UNL A   1      41.969  23.479  26.009  1.00  0.00    -0.200 F 
ATOM     82  F   UNL A   1      43.909  24.549  24.417  1.00  0.00    -0.200 F 
ENDBRANCH  48  72
BRANCH  60  83
ATOM     83  C   UNL A   1      44.643  27.026  34.330  1.00  0.00     0.064 A 
ATOM     84  C   UNL A   1      45.930  27.577  34.417  1.00  0.00     0.173 A 
ATOM     85  C   UNL A   1      44.401  25.806  34.979  1.00  0.00     0.173 A 
ATOM     86  F   UNL A   1      46.211  28.736  33.802  1.00  0.00    -0.203 F 
ATOM     87  C   UNL A   1      46.946  26.914  35.099  1.00  0.00     0.198 A 
ATOM     88  C   UNL A   1      45.412  25.162  35.687  1.00  0.00     0.198 A 
ATOM     89  F   UNL A   1      43.185  25.244  34.933  1.00  0.00    -0.203 F 
ATOM     90  F   UNL A   1      48.182  27.431  35.122  1.00  0.00    -0.200 F 
ATOM     91  C   UNL A   1      46.685  25.710  35.738  1.00  0.00     0.200 A 
ATOM     92  F   UNL A   1      45.155  24.007  36.316  1.00  0.00    -0.200 F 
ATOM     93  F   UNL A   1      47.664  25.075  36.396  1.00  0.00    -0.200 F 
ENDBRANCH  60  83
ENDBRANCH  34  35
ENDBRANCH  26  29
ENDBRANCH  24  25
ENDBRANCH  23  24
ENDBRANCH   1  23
TORSDOF 16
ENDMDL
MODEL 3
REMARK VINA RESULT:     -11.0      5.001      8.427
REMARK SMILES CCC[N@@H+](CC1CC[NH2+]CC1)[C@@H](CC)C(=O)NCCCNC(=O)c1ccc(-c2c3nc(c(-c4c(F)c(F)c(F)c(F)c4F)c4ccc([nH]4)c(-c4c(F)c(F)c(F)c(F)c4F)c4nc(c(-c5c(F)c(F)c(F)c(F)c5F)c5ccc2[nH]5)C=C4)C=C3)cc1
REMARK SMILES IDX 18 1 17 2 15 3 16 4 12 6 4 7 3 9 2 10 1 11 5 12 6 13 7 14
REMARK SMILES IDX 11 15 8 16 10 17 9 18 13 21 14 22 19 23 20 24 21 25 22 26
REMARK SMILES IDX 23 28 24 29 25 30 86 31 26 32 85 33 27 34 28 35 29 36 79 37
REMARK SMILES IDX 30 38 84 39 78 40 80 41 31 42 83 43 77 44 76 45 32 47 64 48
REMARK SMILES IDX 44 49 63 50 45 51 48 52 62 53 81 54 46 55 47 56 61 58 82 59
REMARK SMILES IDX 49 60 33 61 34 62 42 63 35 64 36 65 40 66 43 67 37 68 38 69
REMARK SMILES IDX 41 70 39 71 65 72 66 73 74 74 67 75 68 76 72 77 75 78 69 79
REMARK SMILES IDX 70 80 73 81 71 82 50 83 51 84 59 85 52 86 53 87 57 88 60 89
REMARK SMILES IDX 54 90 55 91 58 92 56 93
REMARK H PARENT 17 5 4 8 9 19 9 20 21 27 80 46 48 57
REMARK Flexibility Score: inf
ROOT
ATOM      1  C   UNL A   1      33.865  28.365  25.197  1.00  0.00     0.118 C 
ENDROOT
BRANCH   1   2
ATOM      2  N   UNL A   1      34.203  28.048  23.808  1.00  0.00    -0.351 N 
ATOM      3  C   UNL A   1      33.717  27.420  22.717  1.00  0.00     0.278 C 
ATOM      4  O   UNL A   1      34.168  27.971  21.687  1.00  0.00    -0.268 OA
ATOM      5  H   UNL A   1      35.089  28.422  23.597  1.00  0.00     0.163 HD
BRANCH   3   6
ATOM      6  C   UNL A   1      32.728  26.202  22.487  1.00  0.00     0.273 C 
BRANCH   6   7
ATOM      7  N   UNL A   1      33.104  24.848  23.005  1.00  0.00    -0.324 N 
ATOM      8  H   UNL A   1      33.192  24.431  22.078  1.00  0.00     0.348 HD
BRANCH   7   9
ATOM      9  C   UNL A   1      34.434  24.535  23.524  1.00  0.00     0.262 C 
BRANCH   9  10
ATOM     10  C   UNL A   1      35.064  23.228  23.138  1.00  0.00     0.058 C 
ATOM     11  C   UNL A   1      36.570  23.147  23.290  1.00  0.00     0.010 C 
ENDBRANCH   9  10
ENDBRANCH   7   9
BRANCH   7  12
ATOM     12  C   UNL A   1      32.037  24.192  23.830  1.00  0.00     0.266 C 
BRANCH  12  13
ATOM     13  C   UNL A   1      32.009  24.574  25.339  1.00  0.00     0.055 C 
ATOM     14  C   UNL A   1      31.738  23.359  26.252  1.00  0.00     0.071 C 
ATOM     15  C   UNL A   1      31.083  25.752  25.666  1.00  0.00     0.071 C 
ATOM     16  C   UNL A   1      30.257  23.097  26.499  1.00  0.00     0.261 C 
ATOM     17  C   UNL A   1      29.644  25.349  25.951  1.00  0.00     0.261 C 
ATOM     18  N   UNL A   1      29.591  24.305  26.971  1.00  0.00    -0.346 N 
ATOM     19  H   UNL A   1      30.055  24.638  27.816  1.00  0.00     0.346 HD
ATOM     20  H   UNL A   1      28.614  24.088  27.170  1.00  0.00     0.346 HD
ENDBRANCH  12  13
ENDBRANCH   7  12
ENDBRANCH   6   7
BRANCH   6  21
ATOM     21  C   UNL A   1      31.302  26.529  21.971  1.00  0.00     0.072 C 
ATOM     22  C   UNL A   1      30.524  27.703  22.537  1.00  0.00     0.011 C 
ENDBRANCH   6  21
ENDBRANCH   3   6
ENDBRANCH   1   2
BRANCH   1  23
ATOM     23  C   UNL A   1      32.812  29.469  25.328  1.00  0.00     0.042 C 
BRANCH  23  24
ATOM     24  C   UNL A   1      32.499  29.926  26.739  1.00  0.00     0.118 C 
BRANCH  24  25
ATOM     25  N   UNL A   1      32.470  31.367  26.954  1.00  0.00    -0.352 N 
ATOM     26  C   UNL A   1      33.451  32.199  27.460  1.00  0.00     0.251 C 
ATOM     27  H   UNL A   1      31.628  31.812  26.703  1.00  0.00     0.163 HD
ATOM     28  O   UNL A   1      33.232  33.404  27.568  1.00  0.00    -0.269 OA
BRANCH  26  29
ATOM     29  C   UNL A   1      34.744  31.642  27.937  1.00  0.00     0.039 A 
ATOM     30  C   UNL A   1      35.853  32.483  28.068  1.00  0.00     0.014 A 
ATOM     31  C   UNL A   1      34.853  30.308  28.319  1.00  0.00     0.014 A 
ATOM     32  C   UNL A   1      37.022  32.006  28.673  1.00  0.00     0.010 A 
ATOM     33  C   UNL A   1      35.938  29.890  29.074  1.00  0.00     0.010 A 
ATOM     34  C   UNL A   1      37.053  30.718  29.233  1.00  0.00    -0.014 A 
BRANCH  34  35
ATOM     35  C   UNL A   1      38.245  30.191  29.951  1.00  0.00     0.031 A 
ATOM     36  C   UNL A   1      38.503  30.603  31.380  1.00  0.00     0.074 A 
ATOM     37  C   UNL A   1      39.145  29.433  29.294  1.00  0.00     0.049 A 
ATOM     38  N   UNL A   1      39.523  30.328  32.154  1.00  0.00    -0.248 NA
ATOM     39  C   UNL A   1      37.519  31.505  32.000  1.00  0.00     0.031 C 
ATOM     40  C   UNL A   1      39.078  29.072  27.876  1.00  0.00     0.029 A 
ATOM     41  N   UNL A   1      40.300  28.836  29.731  1.00  0.00    -0.354 N 
ATOM     42  C   UNL A   1      39.320  31.061  33.316  1.00  0.00     0.074 A 
ATOM     43  C   UNL A   1      38.138  31.863  33.112  1.00  0.00     0.031 C 
ATOM     44  C   UNL A   1      40.117  28.278  27.573  1.00  0.00     0.029 A 
ATOM     45  C   UNL A   1      40.936  28.093  28.766  1.00  0.00     0.049 A 
ATOM     46  H   UNL A   1      40.641  28.930  30.650  1.00  0.00     0.167 HD
ATOM     47  C   UNL A   1      40.026  31.034  34.472  1.00  0.00     0.037 A 
ATOM     48  C   UNL A   1      42.045  27.334  28.845  1.00  0.00     0.037 A 
ATOM     49  C   UNL A   1      41.151  30.167  34.692  1.00  0.00     0.049 A 
ATOM     50  C   UNL A   1      42.742  27.214  30.172  1.00  0.00     0.074 A 
ATOM     51  C   UNL A   1      41.867  29.954  35.855  1.00  0.00     0.029 A 
ATOM     52  N   UNL A   1      41.711  29.352  33.718  1.00  0.00    -0.354 N 
ATOM     53  N   UNL A   1      42.478  27.823  31.303  1.00  0.00    -0.248 NA
ATOM     54  C   UNL A   1      43.876  26.283  30.242  1.00  0.00     0.031 C 
ATOM     55  C   UNL A   1      42.886  29.036  35.574  1.00  0.00     0.029 A 
ATOM     56  C   UNL A   1      42.776  28.643  34.249  1.00  0.00     0.049 A 
ATOM     57  H   UNL A   1      41.396  29.286  32.787  1.00  0.00     0.167 HD
ATOM     58  C   UNL A   1      43.403  27.347  32.221  1.00  0.00     0.074 A 
ATOM     59  C   UNL A   1      44.214  26.371  31.521  1.00  0.00     0.031 C 
ATOM     60  C   UNL A   1      43.574  27.690  33.522  1.00  0.00     0.037 A 
BRANCH  47  61
ATOM     61  C   UNL A   1      39.580  31.952  35.578  1.00  0.00     0.064 A 
ATOM     62  C   UNL A   1      38.591  31.574  36.502  1.00  0.00     0.173 A 
ATOM     63  C   UNL A   1      40.132  33.235  35.705  1.00  0.00     0.173 A 
ATOM     64  F   UNL A   1      38.018  30.364  36.421  1.00  0.00    -0.203 F 
ATOM     65  C   UNL A   1      38.131  32.465  37.469  1.00  0.00     0.198 A 
ATOM     66  C   UNL A   1      39.698  34.110  36.700  1.00  0.00     0.198 A 
ATOM     67  F   UNL A   1      41.086  33.649  34.857  1.00  0.00    -0.203 F 
ATOM     68  F   UNL A   1      37.128  32.107  38.282  1.00  0.00    -0.200 F 
ATOM     69  C   UNL A   1      38.687  33.730  37.570  1.00  0.00     0.200 A 
ATOM     70  F   UNL A   1      40.245  35.328  36.805  1.00  0.00    -0.200 F 
ATOM     71  F   UNL A   1      38.240  34.588  38.496  1.00  0.00    -0.200 F 
ENDBRANCH  47  61
BRANCH  48  72
ATOM     72  C   UNL A   1      42.508  26.578  27.651  1.00  0.00     0.064 A 
ATOM     73  C   UNL A   1      43.488  27.109  26.800  1.00  0.00     0.173 A 
ATOM     74  C   UNL A   1      42.014  25.300  27.357  1.00  0.00     0.173 A 
ATOM     75  F   UNL A   1      43.981  28.335  27.030  1.00  0.00    -0.203 F 
ATOM     76  C   UNL A   1      43.945  26.396  25.693  1.00  0.00     0.198 A 
ATOM     77  C   UNL A   1      42.491  24.576  26.264  1.00  0.00     0.198 A 
ATOM     78  F   UNL A   1      41.084  24.742  28.145  1.00  0.00    -0.203 F 
ATOM     79  F   UNL A   1      44.860  26.941  24.879  1.00  0.00    -0.200 F 
ATOM     80  C   UNL A   1      43.453  25.127  25.431  1.00  0.00     0.200 A 
ATOM     81  F   UNL A   1      42.025  23.343  26.024  1.00  0.00    -0.200 F 
ATOM     82  F   UNL A   1      43.904  24.436  24.375  1.00  0.00    -0.200 F 
ENDBRANCH  48  72
BRANCH  60  83
ATOM     83  C   UNL A   1      44.682  27.001  34.262  1.00  0.00     0.064 A 
ATOM     84  C   UNL A   1      44.475  25.775  34.912  1.00  0.00     0.173 A 
ATOM     85  C   UNL A   1      45.969  27.560  34.300  1.00  0.00     0.173 A 
ATOM     86  F   UNL A   1      43.258  25.210  34.913  1.00  0.00    -0.203 F 
ATOM     87  C   UNL A   1      45.508  25.150  35.603  1.00  0.00     0.198 A 
ATOM     88  C   UNL A   1      47.007  26.915  34.965  1.00  0.00     0.198 A 
ATOM     89  F   UNL A   1      46.219  28.725  33.685  1.00  0.00    -0.203 F 
ATOM     90  F   UNL A   1      45.273  24.008  36.264  1.00  0.00    -0.200 F 
ATOM     91  C   UNL A   1      46.774  25.718  35.625  1.00  0.00     0.200 A 
ATOM     92  F   UNL A   1      48.233  27.456  34.973  1.00  0.00    -0.200 F 
ATOM     93  F   UNL A   1      47.768  25.112  36.289  1.00  0.00    -0.200 F 
ENDBRANCH  60  83
ENDBRANCH  34  35
ENDBRANCH  26  29
ENDBRANCH  24  25
ENDBRANCH  23  24
ENDBRANCH   1  23
TORSDOF 16
ENDMDL
