MODEL 1
REMARK VINA RESULT:     -11.4      0.000      0.000
REMARK SMILES O=C(NCCCNC(=O)[C@H]1C[NH2+]CCN1c1ccc(Br)cn1)c1ccc(-c2c3nc(c(-c4c(F)c(F)c(F)c(F)c4F)c4ccc([nH]4)c(-c4c(F)c(F)c(F)c(F)c4F)c4nc(c(-c5c(F)c(F)c(F)c(F)c5F)c5ccc2[nH]5)C=C4)C=C3)cc1
REMARK SMILES IDX 4 1 3 2 1 3 2 4 23 6 24 7 85 8 25 9 84 10 26 11 27 12 28 13
REMARK SMILES IDX 78 14 29 15 83 16 77 17 79 18 30 19 82 20 76 21 75 22 31 24
REMARK SMILES IDX 63 25 43 26 62 27 44 28 47 29 61 30 80 31 45 32 46 33 60 35
REMARK SMILES IDX 81 36 48 37 32 38 33 39 41 40 34 41 35 42 39 43 42 44 36 45
REMARK SMILES IDX 37 46 40 47 38 48 64 49 65 50 73 51 66 52 67 53 71 54 74 55
REMARK SMILES IDX 68 56 69 57 72 58 70 59 49 60 50 61 58 62 51 63 52 64 56 65
REMARK SMILES IDX 59 66 53 67 54 68 57 69 55 70 5 71 6 72 7 73 8 74 9 76 10 77
REMARK SMILES IDX 11 78 15 79 12 80 14 81 13 82 16 85 17 86 22 87 18 88 21 89
REMARK SMILES IDX 19 90 20 91
REMARK H PARENT 3 5 79 23 47 34 7 75 12 83 12 84
REMARK Flexibility Score: inf
ROOT
ATOM      1  C   UNL A   1      34.052  32.657  28.581  1.00  0.00     0.118 C 
ENDROOT
BRANCH   1   2
ATOM      2  N   UNL A   1      33.660  31.532  27.742  1.00  0.00    -0.352 N 
ATOM      3  O   UNL A   1      33.943  29.724  26.433  1.00  0.00    -0.269 OA
ATOM      4  C   UNL A   1      34.370  30.425  27.342  1.00  0.00     0.251 C 
ATOM      5  H   UNL A   1      32.735  31.571  27.406  1.00  0.00     0.163 HD
BRANCH   4   6
ATOM      6  C   UNL A   1      35.657  30.091  27.990  1.00  0.00     0.039 A 
ATOM      7  C   UNL A   1      36.865  30.318  27.330  1.00  0.00     0.014 A 
ATOM      8  C   UNL A   1      35.661  29.580  29.291  1.00  0.00     0.014 A 
ATOM      9  C   UNL A   1      38.053  29.860  27.879  1.00  0.00     0.010 A 
ATOM     10  C   UNL A   1      36.873  29.247  29.900  1.00  0.00     0.010 A 
ATOM     11  C   UNL A   1      38.076  29.357  29.186  1.00  0.00    -0.014 A 
BRANCH  11  12
ATOM     12  C   UNL A   1      39.380  29.043  29.819  1.00  0.00     0.031 A 
ATOM     13  C   UNL A   1      40.254  27.950  29.282  1.00  0.00     0.074 A 
ATOM     14  C   UNL A   1      39.757  29.751  30.900  1.00  0.00     0.049 A 
ATOM     15  N   UNL A   1      41.380  27.483  29.762  1.00  0.00    -0.248 NA
ATOM     16  C   UNL A   1      39.802  27.283  28.053  1.00  0.00     0.031 C 
ATOM     17  C   UNL A   1      38.981  30.836  31.508  1.00  0.00     0.029 A 
ATOM     18  N   UNL A   1      40.878  29.669  31.685  1.00  0.00    -0.354 N 
ATOM     19  C   UNL A   1      41.753  26.449  28.916  1.00  0.00     0.074 A 
ATOM     20  C   UNL A   1      40.724  26.342  27.903  1.00  0.00     0.031 C 
ATOM     21  C   UNL A   1      39.655  31.330  32.553  1.00  0.00     0.029 A 
ATOM     22  C   UNL A   1      40.866  30.543  32.743  1.00  0.00     0.049 A 
ATOM     23  H   UNL A   1      41.617  29.044  31.507  1.00  0.00     0.167 HD
ATOM     24  C   UNL A   1      42.855  25.663  28.986  1.00  0.00     0.037 A 
ATOM     25  C   UNL A   1      41.707  30.667  33.785  1.00  0.00     0.037 A 
ATOM     26  C   UNL A   1      43.872  25.795  29.999  1.00  0.00     0.049 A 
ATOM     27  C   UNL A   1      42.899  29.762  33.863  1.00  0.00     0.074 A 
ATOM     28  C   UNL A   1      45.051  25.084  30.134  1.00  0.00     0.029 A 
ATOM     29  N   UNL A   1      43.820  26.689  31.061  1.00  0.00    -0.354 N 
ATOM     30  N   UNL A   1      43.262  28.808  33.041  1.00  0.00    -0.248 NA
ATOM     31  C   UNL A   1      43.797  29.945  35.009  1.00  0.00     0.031 C 
ATOM     32  C   UNL A   1      45.680  25.502  31.312  1.00  0.00     0.029 A 
ATOM     33  C   UNL A   1      44.929  26.523  31.876  1.00  0.00     0.049 A 
ATOM     34  H   UNL A   1      43.101  27.344  31.213  1.00  0.00     0.167 HD
ATOM     35  C   UNL A   1      44.439  28.288  33.556  1.00  0.00     0.074 A 
ATOM     36  C   UNL A   1      44.733  29.041  34.760  1.00  0.00     0.031 C 
ATOM     37  C   UNL A   1      45.207  27.284  33.070  1.00  0.00     0.037 A 
BRANCH  24  38
ATOM     38  C   UNL A   1      42.993  24.566  27.968  1.00  0.00     0.064 A 
ATOM     39  C   UNL A   1      42.607  23.243  28.237  1.00  0.00     0.173 A 
ATOM     40  C   UNL A   1      43.513  24.846  26.694  1.00  0.00     0.173 A 
ATOM     41  F   UNL A   1      42.111  22.917  29.440  1.00  0.00    -0.203 F 
ATOM     42  C   UNL A   1      42.779  22.238  27.289  1.00  0.00     0.198 A 
ATOM     43  C   UNL A   1      43.650  23.845  25.736  1.00  0.00     0.198 A 
ATOM     44  F   UNL A   1      43.889  26.094  26.377  1.00  0.00    -0.203 F 
ATOM     45  F   UNL A   1      42.464  20.971  27.593  1.00  0.00    -0.200 F 
ATOM     46  C   UNL A   1      43.295  22.539  26.038  1.00  0.00     0.200 A 
ATOM     47  F   UNL A   1      44.137  24.142  24.523  1.00  0.00    -0.200 F 
ATOM     48  F   UNL A   1      43.464  21.570  25.129  1.00  0.00    -0.200 F 
ENDBRANCH  24  38
BRANCH  25  49
ATOM     49  C   UNL A   1      41.407  31.672  34.835  1.00  0.00     0.064 A 
ATOM     50  C   UNL A   1      42.018  32.931  34.830  1.00  0.00     0.173 A 
ATOM     51  C   UNL A   1      40.440  31.418  35.822  1.00  0.00     0.173 A 
ATOM     52  F   UNL A   1      42.956  33.216  33.914  1.00  0.00    -0.203 F 
ATOM     53  C   UNL A   1      41.676  33.899  35.772  1.00  0.00     0.198 A 
ATOM     54  C   UNL A   1      40.077  32.396  36.743  1.00  0.00     0.198 A 
ATOM     55  F   UNL A   1      39.815  30.232  35.858  1.00  0.00    -0.203 F 
ATOM     56  F   UNL A   1      42.291  35.090  35.760  1.00  0.00    -0.200 F 
ATOM     57  C   UNL A   1      40.698  33.635  36.721  1.00  0.00     0.200 A 
ATOM     58  F   UNL A   1      39.112  32.145  37.639  1.00  0.00    -0.200 F 
ATOM     59  F   UNL A   1      40.351  34.576  37.609  1.00  0.00    -0.200 F 
ENDBRANCH  25  49
BRANCH  37  60
ATOM     60  C   UNL A   1      46.467  26.957  33.817  1.00  0.00     0.064 A 
ATOM     61  C   UNL A   1      46.500  25.971  34.813  1.00  0.00     0.173 A 
ATOM     62  C   UNL A   1      47.671  27.592  33.475  1.00  0.00     0.173 A 
ATOM     63  F   UNL A   1      45.372  25.351  35.187  1.00  0.00    -0.203 F 
ATOM     64  C   UNL A   1      47.695  25.638  35.447  1.00  0.00     0.198 A 
ATOM     65  C   UNL A   1      48.867  27.235  34.089  1.00  0.00     0.198 A 
ATOM     66  F   UNL A   1      47.690  28.540  32.527  1.00  0.00    -0.203 F 
ATOM     67  F   UNL A   1      47.700  24.716  36.418  1.00  0.00    -0.200 F 
ATOM     68  C   UNL A   1      48.878  26.262  35.076  1.00  0.00     0.200 A 
ATOM     69  F   UNL A   1      50.011  27.829  33.720  1.00  0.00    -0.200 F 
ATOM     70  F   UNL A   1      50.030  25.924  35.673  1.00  0.00    -0.200 F 
ENDBRANCH  37  60
ENDBRANCH  11  12
ENDBRANCH   4   6
ENDBRANCH   1   2
BRANCH   1  71
ATOM     71  C   UNL A   1      33.839  33.987  27.881  1.00  0.00     0.042 C 
BRANCH  71  72
ATOM     72  C   UNL A   1      34.120  35.169  28.790  1.00  0.00     0.117 C 
BRANCH  72  73
ATOM     73  N   UNL A   1      33.188  35.229  29.891  1.00  0.00    -0.354 N 
ATOM     74  C   UNL A   1      33.343  35.113  31.234  1.00  0.00     0.248 C 
ATOM     75  H   UNL A   1      32.257  35.385  29.613  1.00  0.00     0.163 HD
ATOM     76  O   UNL A   1      32.277  35.078  31.868  1.00  0.00    -0.272 OA
BRANCH  74  77
ATOM     77  C   UNL A   1      34.698  35.115  31.994  1.00  0.00     0.228 C 
ATOM     78  C   UNL A   1      34.748  35.294  33.535  1.00  0.00     0.296 C 
ATOM     79  N   UNL A   1      35.479  33.934  31.588  1.00  0.00    -0.334 N 
ATOM     80  N   UNL A   1      34.815  34.108  34.427  1.00  0.00    -0.343 N 
ATOM     81  C   UNL A   1      35.166  32.703  32.303  1.00  0.00     0.180 C 
ATOM     82  C   UNL A   1      35.439  32.921  33.809  1.00  0.00     0.282 C 
ATOM     83  H   UNL A   1      33.865  33.863  34.705  1.00  0.00     0.346 HD
ATOM     84  H   UNL A   1      35.404  34.370  35.218  1.00  0.00     0.346 HD
BRANCH  79  85
ATOM     85  C   UNL A   1      36.767  34.052  31.107  1.00  0.00     0.129 A 
ATOM     86  C   UNL A   1      37.123  33.648  29.817  1.00  0.00     0.048 A 
ATOM     87  N   UNL A   1      37.687  34.596  31.931  1.00  0.00    -0.238 NA
ATOM     88  C   UNL A   1      38.439  33.770  29.376  1.00  0.00     0.021 A 
ATOM     89  C   UNL A   1      38.971  34.672  31.501  1.00  0.00     0.129 A 
ATOM     90  C   UNL A   1      39.389  34.278  30.243  1.00  0.00     0.036 A 
ATOM     91  Br  UNL A   1      41.189  34.428  29.716  1.00  0.00    -0.049 Br
ENDBRANCH  79  85
ENDBRANCH  74  77
ENDBRANCH  72  73
ENDBRANCH  71  72
ENDBRANCH   1  71
TORSDOF 11
ENDMDL
MODEL 2
REMARK VINA RESULT:     -11.4      0.540      7.506
REMARK SMILES O=C(NCCCNC(=O)[C@H]1C[NH2+]CCN1c1ccc(Br)cn1)c1ccc(-c2c3nc(c(-c4c(F)c(F)c(F)c(F)c4F)c4ccc([nH]4)c(-c4c(F)c(F)c(F)c(F)c4F)c4nc(c(-c5c(F)c(F)c(F)c(F)c5F)c5ccc2[nH]5)C=C4)C=C3)cc1
REMARK SMILES IDX 4 1 3 2 1 3 2 4 23 6 24 7 85 8 25 9 84 10 26 11 27 12 28 13
REMARK SMILES IDX 78 14 29 15 83 16 77 17 79 18 30 19 82 20 76 21 75 22 31 24
REMARK SMILES IDX 63 25 43 26 62 27 44 28 47 29 61 30 80 31 45 32 46 33 60 35
REMARK SMILES IDX 81 36 48 37 32 38 33 39 41 40 34 41 35 42 39 43 42 44 36 45
REMARK SMILES IDX 37 46 40 47 38 48 64 49 65 50 73 51 66 52 67 53 71 54 74 55
REMARK SMILES IDX 68 56 69 57 72 58 70 59 49 60 50 61 58 62 51 63 52 64 56 65
REMARK SMILES IDX 59 66 53 67 54 68 57 69 55 70 5 71 6 72 7 73 8 74 9 76 10 77
REMARK SMILES IDX 11 78 15 79 12 80 14 81 13 82 16 85 17 86 22 87 18 88 21 89
REMARK SMILES IDX 19 90 20 91
REMARK H PARENT 3 5 79 23 47 34 7 75 12 83 12 84
REMARK Flexibility Score: inf
ROOT
ATOM      1  C   UNL A   1      34.081  32.793  28.583  1.00  0.00     0.118 C 
ENDROOT
BRANCH   1   2
ATOM      2  N   UNL A   1      33.637  31.689  27.742  1.00  0.00    -0.352 N 
ATOM      3  O   UNL A   1      33.834  29.870  26.433  1.00  0.00    -0.269 OA
ATOM      4  C   UNL A   1      34.292  30.549  27.345  1.00  0.00     0.251 C 
ATOM      5  H   UNL A   1      32.716  31.774  27.403  1.00  0.00     0.163 HD
BRANCH   4   6
ATOM      6  C   UNL A   1      35.559  30.150  27.996  1.00  0.00     0.039 A 
ATOM      7  C   UNL A   1      36.780  30.336  27.350  1.00  0.00     0.014 A 
ATOM      8  C   UNL A   1      35.530  29.619  29.289  1.00  0.00     0.014 A 
ATOM      9  C   UNL A   1      37.944  29.821  27.900  1.00  0.00     0.010 A 
ATOM     10  C   UNL A   1      36.722  29.225  29.902  1.00  0.00     0.010 A 
ATOM     11  C   UNL A   1      37.935  29.296  29.199  1.00  0.00    -0.014 A 
BRANCH  11  12
ATOM     12  C   UNL A   1      39.219  28.917  29.837  1.00  0.00     0.031 A 
ATOM     13  C   UNL A   1      39.754  29.683  31.008  1.00  0.00     0.074 A 
ATOM     14  C   UNL A   1      39.906  27.876  29.328  1.00  0.00     0.049 A 
ATOM     15  N   UNL A   1      40.899  29.546  31.631  1.00  0.00    -0.248 NA
ATOM     16  C   UNL A   1      38.902  30.752  31.547  1.00  0.00     0.031 C 
ATOM     17  C   UNL A   1      39.478  27.063  28.187  1.00  0.00     0.029 A 
ATOM     18  N   UNL A   1      41.106  27.325  29.695  1.00  0.00    -0.354 N 
ATOM     19  C   UNL A   1      40.919  30.529  32.609  1.00  0.00     0.074 A 
ATOM     20  C   UNL A   1      39.681  31.270  32.486  1.00  0.00     0.031 C 
ATOM     21  C   UNL A   1      40.386  26.106  27.960  1.00  0.00     0.029 A 
ATOM     22  C   UNL A   1      41.500  26.293  28.880  1.00  0.00     0.049 A 
ATOM     23  H   UNL A   1      41.632  27.638  30.465  1.00  0.00     0.167 HD
ATOM     24  C   UNL A   1      41.887  30.784  33.523  1.00  0.00     0.037 A 
ATOM     25  C   UNL A   1      42.653  25.602  28.840  1.00  0.00     0.037 A 
ATOM     26  C   UNL A   1      43.107  30.026  33.632  1.00  0.00     0.049 A 
ATOM     27  C   UNL A   1      43.726  25.926  29.834  1.00  0.00     0.074 A 
ATOM     28  C   UNL A   1      44.132  30.169  34.551  1.00  0.00     0.029 A 
ATOM     29  N   UNL A   1      43.475  28.991  32.782  1.00  0.00    -0.354 N 
ATOM     30  N   UNL A   1      43.724  26.836  30.778  1.00  0.00    -0.248 NA
ATOM     31  C   UNL A   1      44.960  25.136  29.761  1.00  0.00     0.031 C 
ATOM     32  C   UNL A   1      45.147  29.266  34.218  1.00  0.00     0.029 A 
ATOM     33  C   UNL A   1      44.727  28.510  33.134  1.00  0.00     0.049 A 
ATOM     34  H   UNL A   1      42.927  28.649  32.040  1.00  0.00     0.167 HD
ATOM     35  C   UNL A   1      44.943  26.718  31.425  1.00  0.00     0.074 A 
ATOM     36  C   UNL A   1      45.658  25.640  30.769  1.00  0.00     0.031 C 
ATOM     37  C   UNL A   1      45.422  27.433  32.471  1.00  0.00     0.037 A 
BRANCH  24  38
ATOM     38  C   UNL A   1      41.684  31.957  34.442  1.00  0.00     0.064 A 
ATOM     39  C   UNL A   1      41.024  31.835  35.675  1.00  0.00     0.173 A 
ATOM     40  C   UNL A   1      42.167  33.226  34.084  1.00  0.00     0.173 A 
ATOM     41  F   UNL A   1      40.534  30.648  36.064  1.00  0.00    -0.203 F 
ATOM     42  C   UNL A   1      40.817  32.945  36.491  1.00  0.00     0.198 A 
ATOM     43  C   UNL A   1      41.989  34.326  34.919  1.00  0.00     0.198 A 
ATOM     44  F   UNL A   1      42.814  33.400  32.922  1.00  0.00    -0.203 F 
ATOM     45  F   UNL A   1      40.126  32.816  37.633  1.00  0.00    -0.200 F 
ATOM     46  C   UNL A   1      41.303  34.188  36.116  1.00  0.00     0.200 A 
ATOM     47  F   UNL A   1      42.474  35.523  34.560  1.00  0.00    -0.200 F 
ATOM     48  F   UNL A   1      41.099  35.255  36.900  1.00  0.00    -0.200 F 
ENDBRANCH  24  38
BRANCH  25  49
ATOM     49  C   UNL A   1      42.834  24.566  27.791  1.00  0.00     0.064 A 
ATOM     50  C   UNL A   1      43.373  24.886  26.541  1.00  0.00     0.173 A 
ATOM     51  C   UNL A   1      42.541  23.217  28.053  1.00  0.00     0.173 A 
ATOM     52  F   UNL A   1      43.658  26.162  26.242  1.00  0.00    -0.203 F 
ATOM     53  C   UNL A   1      43.614  23.897  25.588  1.00  0.00     0.198 A 
ATOM     54  C   UNL A   1      42.811  22.227  27.113  1.00  0.00     0.198 A 
ATOM     55  F   UNL A   1      42.038  22.858  29.243  1.00  0.00    -0.203 F 
ATOM     56  F   UNL A   1      44.111  24.232  24.390  1.00  0.00    -0.200 F 
ATOM     57  C   UNL A   1      43.342  22.568  25.879  1.00  0.00     0.200 A 
ATOM     58  F   UNL A   1      42.573  20.942  27.409  1.00  0.00    -0.200 F 
ATOM     59  F   UNL A   1      43.599  21.616  24.972  1.00  0.00    -0.200 F 
ENDBRANCH  25  49
BRANCH  37  60
ATOM     60  C   UNL A   1      46.772  27.054  33.005  1.00  0.00     0.064 A 
ATOM     61  C   UNL A   1      47.945  27.677  32.556  1.00  0.00     0.173 A 
ATOM     62  C   UNL A   1      46.881  26.105  34.032  1.00  0.00     0.173 A 
ATOM     63  F   UNL A   1      47.894  28.577  31.563  1.00  0.00    -0.203 F 
ATOM     64  C   UNL A   1      49.181  27.356  33.113  1.00  0.00     0.198 A 
ATOM     65  C   UNL A   1      48.113  25.808  34.606  1.00  0.00     0.198 A 
ATOM     66  F   UNL A   1      45.786  25.483  34.496  1.00  0.00    -0.203 F 
ATOM     67  F   UNL A   1      50.293  27.940  32.648  1.00  0.00    -0.200 F 
ATOM     68  C   UNL A   1      49.262  26.432  34.144  1.00  0.00     0.200 A 
ATOM     69  F   UNL A   1      48.187  24.925  35.611  1.00  0.00    -0.200 F 
ATOM     70  F   UNL A   1      50.449  26.140  34.692  1.00  0.00    -0.200 F 
ENDBRANCH  37  60
ENDBRANCH  11  12
ENDBRANCH   4   6
ENDBRANCH   1   2
BRANCH   1  71
ATOM     71  C   UNL A   1      34.007  34.123  27.858  1.00  0.00     0.042 C 
BRANCH  71  72
ATOM     72  C   UNL A   1      34.223  35.302  28.790  1.00  0.00     0.117 C 
BRANCH  72  73
ATOM     73  N   UNL A   1      33.272  35.304  29.877  1.00  0.00    -0.354 N 
ATOM     74  C   UNL A   1      33.408  35.141  31.216  1.00  0.00     0.248 C 
ATOM     75  H   UNL A   1      32.343  35.453  29.589  1.00  0.00     0.163 HD
ATOM     76  O   UNL A   1      32.332  35.062  31.831  1.00  0.00    -0.272 OA
BRANCH  74  77
ATOM     77  C   UNL A   1      34.750  35.139  31.998  1.00  0.00     0.228 C 
ATOM     78  C   UNL A   1      34.777  35.338  33.537  1.00  0.00     0.296 C 
ATOM     79  N   UNL A   1      35.526  33.945  31.622  1.00  0.00    -0.334 N 
ATOM     80  N   UNL A   1      34.818  34.164  34.446  1.00  0.00    -0.343 N 
ATOM     81  C   UNL A   1      35.188  32.727  32.348  1.00  0.00     0.180 C 
ATOM     82  C   UNL A   1      35.439  32.962  33.855  1.00  0.00     0.282 C 
ATOM     83  H   UNL A   1      33.861  33.932  34.712  1.00  0.00     0.346 HD
ATOM     84  H   UNL A   1      35.396  34.430  35.243  1.00  0.00     0.346 HD
BRANCH  79  85
ATOM     85  C   UNL A   1      36.822  34.043  31.160  1.00  0.00     0.129 A 
ATOM     86  C   UNL A   1      37.196  33.611  29.885  1.00  0.00     0.048 A 
ATOM     87  N   UNL A   1      37.733  34.597  31.988  1.00  0.00    -0.238 NA
ATOM     88  C   UNL A   1      38.521  33.714  29.463  1.00  0.00     0.021 A 
ATOM     89  C   UNL A   1      39.025  34.654  31.578  1.00  0.00     0.129 A 
ATOM     90  C   UNL A   1      39.460  34.232  30.336  1.00  0.00     0.036 A 
ATOM     91  Br  UNL A   1      41.270  34.358  29.837  1.00  0.00    -0.049 Br
ENDBRANCH  79  85
ENDBRANCH  74  77
ENDBRANCH  72  73
ENDBRANCH  71  72
ENDBRANCH   1  71
TORSDOF 11
ENDMDL
MODEL 3
REMARK VINA RESULT:     -11.3      3.841      6.339
REMARK SMILES O=C(NCCCNC(=O)[C@H]1C[NH2+]CCN1c1ccc(Br)cn1)c1ccc(-c2c3nc(c(-c4c(F)c(F)c(F)c(F)c4F)c4ccc([nH]4)c(-c4c(F)c(F)c(F)c(F)c4F)c4nc(c(-c5c(F)c(F)c(F)c(F)c5F)c5ccc2[nH]5)C=C4)C=C3)cc1
REMARK SMILES IDX 4 1 3 2 1 3 2 4 23 6 24 7 85 8 25 9 84 10 26 11 27 12 28 13
REMARK SMILES IDX 78 14 29 15 83 16 77 17 79 18 30 19 82 20 76 21 75 22 31 24
REMARK SMILES IDX 63 25 43 26 62 27 44 28 47 29 61 30 80 31 45 32 46 33 60 35
REMARK SMILES IDX 81 36 48 37 32 38 33 39 41 40 34 41 35 42 39 43 42 44 36 45
REMARK SMILES IDX 37 46 40 47 38 48 64 49 65 50 73 51 66 52 67 53 71 54 74 55
REMARK SMILES IDX 68 56 69 57 72 58 70 59 49 60 50 61 58 62 51 63 52 64 56 65
REMARK SMILES IDX 59 66 53 67 54 68 57 69 55 70 5 71 6 72 7 73 8 74 9 76 10 77
REMARK SMILES IDX 11 78 15 79 12 80 14 81 13 82 16 85 17 86 22 87 18 88 21 89
REMARK SMILES IDX 19 90 20 91
REMARK H PARENT 3 5 79 23 47 34 7 75 12 83 12 84
REMARK Flexibility Score: inf
ROOT
ATOM      1  C   UNL A   1      33.597  28.992  25.232  1.00  0.00     0.118 C 
ENDROOT
BRANCH   1   2
ATOM      2  N   UNL A   1      33.006  30.232  25.718  1.00  0.00    -0.352 N 
ATOM      3  O   UNL A   1      32.529  31.864  27.192  1.00  0.00    -0.269 OA
ATOM      4  C   UNL A   1      33.309  30.994  26.821  1.00  0.00     0.251 C 
ATOM      5  H   UNL A   1      32.269  30.582  25.166  1.00  0.00     0.163 HD
BRANCH   4   6
ATOM      6  C   UNL A   1      34.559  30.753  27.574  1.00  0.00     0.039 A 
ATOM      7  C   UNL A   1      34.806  29.514  28.164  1.00  0.00     0.014 A 
ATOM      8  C   UNL A   1      35.518  31.767  27.658  1.00  0.00     0.014 A 
ATOM      9  C   UNL A   1      35.903  29.346  28.995  1.00  0.00     0.010 A 
ATOM     10  C   UNL A   1      36.692  31.550  28.382  1.00  0.00     0.010 A 
ATOM     11  C   UNL A   1      36.879  30.347  29.081  1.00  0.00    -0.014 A 
BRANCH  11  12
ATOM     12  C   UNL A   1      38.130  30.076  29.830  1.00  0.00     0.031 A 
ATOM     13  C   UNL A   1      39.195  29.190  29.259  1.00  0.00     0.074 A 
ATOM     14  C   UNL A   1      38.284  30.633  31.046  1.00  0.00     0.049 A 
ATOM     15  N   UNL A   1      40.308  28.775  29.811  1.00  0.00    -0.248 NA
ATOM     16  C   UNL A   1      38.979  28.689  27.894  1.00  0.00     0.031 C 
ATOM     17  C   UNL A   1      37.309  31.511  31.699  1.00  0.00     0.029 A 
ATOM     18  N   UNL A   1      39.307  30.544  31.954  1.00  0.00    -0.354 N 
ATOM     19  C   UNL A   1      40.907  27.942  28.878  1.00  0.00     0.074 A 
ATOM     20  C   UNL A   1      40.026  27.893  27.730  1.00  0.00     0.031 C 
ATOM     21  C   UNL A   1      37.787  31.896  32.888  1.00  0.00     0.029 A 
ATOM     22  C   UNL A   1      39.059  31.225  33.120  1.00  0.00     0.049 A 
ATOM     23  H   UNL A   1      40.137  30.042  31.786  1.00  0.00     0.167 HD
ATOM     24  C   UNL A   1      42.086  27.281  28.978  1.00  0.00     0.037 A 
ATOM     25  C   UNL A   1      39.750  31.266  34.273  1.00  0.00     0.037 A 
ATOM     26  C   UNL A   1      42.952  27.354  30.127  1.00  0.00     0.049 A 
ATOM     27  C   UNL A   1      41.031  30.496  34.376  1.00  0.00     0.074 A 
ATOM     28  C   UNL A   1      44.190  26.764  30.313  1.00  0.00     0.029 A 
ATOM     29  N   UNL A   1      42.662  28.048  31.294  1.00  0.00    -0.354 N 
ATOM     30  N   UNL A   1      41.608  29.737  33.477  1.00  0.00    -0.248 NA
ATOM     31  C   UNL A   1      41.758  30.584  35.647  1.00  0.00     0.031 C 
ATOM     32  C   UNL A   1      44.618  27.047  31.614  1.00  0.00     0.029 A 
ATOM     33  C   UNL A   1      43.681  27.872  32.218  1.00  0.00     0.049 A 
ATOM     34  H   UNL A   1      41.852  28.587  31.444  1.00  0.00     0.167 HD
ATOM     35  C   UNL A   1      42.774  29.271  34.062  1.00  0.00     0.074 A 
ATOM     36  C   UNL A   1      42.826  29.841  35.394  1.00  0.00     0.031 C 
ATOM     37  C   UNL A   1      43.717  28.450  33.539  1.00  0.00     0.037 A 
BRANCH  24  38
ATOM     38  C   UNL A   1      42.482  26.389  27.834  1.00  0.00     0.064 A 
ATOM     39  C   UNL A   1      42.010  25.072  27.715  1.00  0.00     0.173 A 
ATOM     40  C   UNL A   1      43.344  26.865  26.833  1.00  0.00     0.173 A 
ATOM     41  F   UNL A   1      41.191  24.562  28.647  1.00  0.00    -0.203 F 
ATOM     42  C   UNL A   1      42.422  24.254  26.666  1.00  0.00     0.198 A 
ATOM     43  C   UNL A   1      43.725  26.056  25.766  1.00  0.00     0.198 A 
ATOM     44  F   UNL A   1      43.818  28.119  26.889  1.00  0.00    -0.203 F 
ATOM     45  F   UNL A   1      42.010  22.980  26.610  1.00  0.00    -0.200 F 
ATOM     46  C   UNL A   1      43.274  24.747  25.690  1.00  0.00     0.200 A 
ATOM     47  F   UNL A   1      44.538  26.540  24.816  1.00  0.00    -0.200 F 
ATOM     48  F   UNL A   1      43.672  23.957  24.683  1.00  0.00    -0.200 F 
ENDBRANCH  24  38
BRANCH  25  49
ATOM     49  C   UNL A   1      39.202  32.045  35.413  1.00  0.00     0.064 A 
ATOM     50  C   UNL A   1      38.402  31.439  36.388  1.00  0.00     0.173 A 
ATOM     51  C   UNL A   1      39.535  33.398  35.587  1.00  0.00     0.173 A 
ATOM     52  F   UNL A   1      38.049  30.151  36.258  1.00  0.00    -0.203 F 
ATOM     53  C   UNL A   1      37.955  32.156  37.496  1.00  0.00     0.198 A 
ATOM     54  C   UNL A   1      39.114  34.104  36.710  1.00  0.00     0.198 A 
ATOM     55  F   UNL A   1      40.313  34.019  34.688  1.00  0.00    -0.203 F 
ATOM     56  F   UNL A   1      37.173  31.558  38.406  1.00  0.00    -0.200 F 
ATOM     57  C   UNL A   1      38.321  33.484  37.662  1.00  0.00     0.200 A 
ATOM     58  F   UNL A   1      39.493  35.379  36.878  1.00  0.00    -0.200 F 
ATOM     59  F   UNL A   1      37.911  34.164  38.741  1.00  0.00    -0.200 F 
ENDBRANCH  25  49
BRANCH  37  60
ATOM     60  C   UNL A   1      44.913  28.144  34.392  1.00  0.00     0.064 A 
ATOM     61  C   UNL A   1      44.957  27.017  35.224  1.00  0.00     0.173 A 
ATOM     62  C   UNL A   1      46.057  28.954  34.316  1.00  0.00     0.173 A 
ATOM     63  F   UNL A   1      43.883  26.224  35.344  1.00  0.00    -0.203 F 
ATOM     64  C   UNL A   1      46.103  26.716  35.957  1.00  0.00     0.198 A 
ATOM     65  C   UNL A   1      47.209  28.634  35.026  1.00  0.00     0.198 A 
ATOM     66  F   UNL A   1      46.063  30.042  33.532  1.00  0.00    -0.203 F 
ATOM     67  F   UNL A   1      46.114  25.652  36.771  1.00  0.00    -0.200 F 
ATOM     68  C   UNL A   1      47.231  27.517  35.848  1.00  0.00     0.200 A 
ATOM     69  F   UNL A   1      48.302  29.401  34.909  1.00  0.00    -0.200 F 
ATOM     70  F   UNL A   1      48.339  27.213  36.537  1.00  0.00    -0.200 F 
ENDBRANCH  37  60
ENDBRANCH  11  12
ENDBRANCH   4   6
ENDBRANCH   1   2
BRANCH   1  71
ATOM     71  C   UNL A   1      33.719  28.978  23.719  1.00  0.00     0.042 C 
BRANCH  71  72
ATOM     72  C   UNL A   1      32.418  28.596  23.039  1.00  0.00     0.117 C 
BRANCH  72  73
ATOM     73  N   UNL A   1      32.632  27.652  21.968  1.00  0.00    -0.354 N 
ATOM     74  C   UNL A   1      32.990  26.344  21.954  1.00  0.00     0.248 C 
ATOM     75  H   UNL A   1      32.490  28.032  21.071  1.00  0.00     0.163 HD
ATOM     76  O   UNL A   1      33.219  25.890  20.822  1.00  0.00    -0.272 OA
BRANCH  74  77
ATOM     77  C   UNL A   1      33.040  25.404  23.191  1.00  0.00     0.228 C 
ATOM     78  C   UNL A   1      31.739  24.991  23.931  1.00  0.00     0.296 C 
ATOM     79  N   UNL A   1      33.842  24.214  22.860  1.00  0.00    -0.334 N 
ATOM     80  N   UNL A   1      31.063  23.710  23.604  1.00  0.00    -0.343 N 
ATOM     81  C   UNL A   1      33.123  23.148  22.173  1.00  0.00     0.180 C 
ATOM     82  C   UNL A   1      31.966  22.667  23.077  1.00  0.00     0.282 C 
ATOM     83  H   UNL A   1      30.346  23.896  22.904  1.00  0.00     0.346 HD
ATOM     84  H   UNL A   1      30.679  23.350  24.478  1.00  0.00     0.346 HD
BRANCH  79  85
ATOM     85  C   UNL A   1      34.913  23.827  23.638  1.00  0.00     0.129 A 
ATOM     86  C   UNL A   1      35.063  24.244  24.963  1.00  0.00     0.048 A 
ATOM     87  N   UNL A   1      35.821  23.003  23.074  1.00  0.00    -0.238 NA
ATOM     88  C   UNL A   1      36.170  23.841  25.710  1.00  0.00     0.021 A 
ATOM     89  C   UNL A   1      36.911  22.652  23.800  1.00  0.00     0.129 A 
ATOM     90  C   UNL A   1      37.124  23.041  25.110  1.00  0.00     0.036 A 
ATOM     91  Br  UNL A   1      38.659  22.501  26.056  1.00  0.00    -0.049 Br
ENDBRANCH  79  85
ENDBRANCH  74  77
ENDBRANCH  72  73
ENDBRANCH  71  72
ENDBRANCH   1  71
TORSDOF 11
ENDMDL
