MODEL 1
REMARK VINA RESULT:      -9.6      0.000      0.000
REMARK SMILES CC(C)[C@H](CO)Nc1ccc(C(=O)NCCCNC(=O)c2ccc(-c3c4nc(c(-c5c(F)c(F)c(F)c(F)c5F)c5ccc([nH]5)c(-c5c(F)c(F)c(F)c(F)c5F)c5nc(c(-c6c(F)c(F)c(F)c(F)c6F)c6ccc3[nH]6)C=C5)C=C4)cc2)cc1
REMARK SMILES IDX 15 1 14 2 12 3 13 4 11 6 8 7 9 8 85 9 10 10 84 11 7 12 4 14
REMARK SMILES IDX 2 15 1 16 3 17 5 18 6 19 16 21 17 22 18 23 19 24 20 26 21 27
REMARK SMILES IDX 22 28 83 29 23 30 82 31 24 32 25 33 26 34 76 35 27 36 81 37
REMARK SMILES IDX 75 38 77 39 28 40 80 41 74 42 73 43 29 45 61 46 41 47 60 48
REMARK SMILES IDX 42 49 45 50 59 51 78 52 43 53 44 54 58 56 79 57 46 58 30 59
REMARK SMILES IDX 31 60 39 61 32 62 33 63 37 64 40 65 34 66 35 67 38 68 36 69
REMARK SMILES IDX 62 70 63 71 71 72 64 73 65 74 69 75 72 76 66 77 67 78 70 79
REMARK SMILES IDX 68 80 47 81 48 82 56 83 49 84 50 85 54 86 57 87 51 88 52 89
REMARK SMILES IDX 55 90 53 91
REMARK H PARENT 14 5 7 13 6 20 18 25 77 44 45 55
REMARK Flexibility Score: inf
ROOT
ATOM      1  C   UNL A   1      42.635  22.310  28.145  1.00  0.00     0.118 C 
ENDROOT
BRANCH   1   2
ATOM      2  N   UNL A   1      43.683  21.850  27.250  1.00  0.00    -0.352 N 
ATOM      3  C   UNL A   1      44.589  22.523  26.466  1.00  0.00     0.251 C 
ATOM      4  O   UNL A   1      45.433  21.854  25.871  1.00  0.00    -0.269 OA
ATOM      5  H   UNL A   1      43.758  20.870  27.195  1.00  0.00     0.163 HD
BRANCH   3   6
ATOM      6  C   UNL A   1      44.618  24.007  26.339  1.00  0.00     0.039 A 
ATOM      7  C   UNL A   1      44.597  26.825  25.961  1.00  0.00     0.034 A 
ATOM      8  C   UNL A   1      43.672  26.005  25.309  1.00  0.00     0.026 A 
ATOM      9  C   UNL A   1      45.499  26.210  26.831  1.00  0.00     0.026 A 
ATOM     10  C   UNL A   1      43.685  24.613  25.487  1.00  0.00     0.016 A 
ATOM     11  C   UNL A   1      45.486  24.828  27.050  1.00  0.00     0.016 A 
BRANCH   7  12
ATOM     12  N   UNL A   1      44.631  28.188  25.701  1.00  0.00    -0.380 N 
ATOM     13  H   UNL A   1      44.340  28.518  24.821  1.00  0.00     0.160 HD
BRANCH  12  14
ATOM     14  C   UNL A   1      45.092  29.151  26.716  1.00  0.00     0.107 C 
BRANCH  14  15
ATOM     15  C   UNL A   1      43.951  30.118  27.143  1.00  0.00     0.007 C 
ATOM     16  C   UNL A   1      44.215  31.597  26.848  1.00  0.00     0.009 C 
ATOM     17  C   UNL A   1      42.588  29.724  26.563  1.00  0.00     0.009 C 
ENDBRANCH  14  15
BRANCH  14  18
ATOM     18  C   UNL A   1      46.346  29.901  26.178  1.00  0.00     0.181 C 
BRANCH  18  19
ATOM     19  O   UNL A   1      46.530  29.677  24.779  1.00  0.00    -0.394 OA
ATOM     20  H   UNL A   1      45.899  29.006  24.474  1.00  0.00     0.210 HD
ENDBRANCH  18  19
ENDBRANCH  14  18
ENDBRANCH  12  14
ENDBRANCH   7  12
ENDBRANCH   3   6
ENDBRANCH   1   2
BRANCH   1  21
ATOM     21  C   UNL A   1      41.247  21.927  27.627  1.00  0.00     0.042 C 
BRANCH  21  22
ATOM     22  C   UNL A   1      41.065  22.165  26.130  1.00  0.00     0.118 C 
BRANCH  22  23
ATOM     23  N   UNL A   1      39.667  22.354  25.774  1.00  0.00    -0.352 N 
ATOM     24  C   UNL A   1      38.770  23.310  26.182  1.00  0.00     0.251 C 
ATOM     25  H   UNL A   1      39.307  21.692  25.141  1.00  0.00     0.163 HD
ATOM     26  O   UNL A   1      37.580  23.167  25.922  1.00  0.00    -0.269 OA
BRANCH  24  27
ATOM     27  C   UNL A   1      39.212  24.504  26.938  1.00  0.00     0.039 A 
ATOM     28  C   UNL A   1      39.976  25.469  26.273  1.00  0.00     0.014 A 
ATOM     29  C   UNL A   1      38.945  24.652  28.302  1.00  0.00     0.014 A 
ATOM     30  C   UNL A   1      40.428  26.599  26.957  1.00  0.00     0.010 A 
ATOM     31  C   UNL A   1      39.346  25.808  28.971  1.00  0.00     0.010 A 
ATOM     32  C   UNL A   1      40.096  26.790  28.308  1.00  0.00    -0.014 A 
BRANCH  32  33
ATOM     33  C   UNL A   1      40.527  28.011  29.037  1.00  0.00     0.031 A 
ATOM     34  C   UNL A   1      41.920  28.113  29.592  1.00  0.00     0.074 A 
ATOM     35  C   UNL A   1      39.641  29.003  29.251  1.00  0.00     0.049 A 
ATOM     36  N   UNL A   1      42.455  29.063  30.319  1.00  0.00    -0.248 NA
ATOM     37  C   UNL A   1      42.827  26.989  29.313  1.00  0.00     0.031 C 
ATOM     38  C   UNL A   1      38.249  29.004  28.801  1.00  0.00     0.029 A 
ATOM     39  N   UNL A   1      39.776  30.197  29.915  1.00  0.00    -0.354 N 
ATOM     40  C   UNL A   1      43.749  28.642  30.599  1.00  0.00     0.074 A 
ATOM     41  C   UNL A   1      43.909  27.336  29.996  1.00  0.00     0.031 C 
ATOM     42  C   UNL A   1      37.660  30.146  29.191  1.00  0.00     0.029 A 
ATOM     43  C   UNL A   1      38.621  30.942  29.948  1.00  0.00     0.049 A 
ATOM     44  H   UNL A   1      40.619  30.491  30.330  1.00  0.00     0.167 HD
ATOM     45  C   UNL A   1      44.719  29.295  31.282  1.00  0.00     0.037 A 
ATOM     46  C   UNL A   1      38.365  32.127  30.532  1.00  0.00     0.037 A 
ATOM     47  C   UNL A   1      44.569  30.610  31.851  1.00  0.00     0.049 A 
ATOM     48  C   UNL A   1      39.467  32.835  31.273  1.00  0.00     0.074 A 
ATOM     49  C   UNL A   1      45.516  31.383  32.501  1.00  0.00     0.029 A 
ATOM     50  N   UNL A   1      43.393  31.346  31.836  1.00  0.00    -0.354 N 
ATOM     51  N   UNL A   1      40.705  32.459  31.472  1.00  0.00    -0.248 NA
ATOM     52  C   UNL A   1      39.135  34.140  31.865  1.00  0.00     0.031 C 
ATOM     53  C   UNL A   1      44.903  32.570  32.914  1.00  0.00     0.029 A 
ATOM     54  C   UNL A   1      43.587  32.557  32.482  1.00  0.00     0.049 A 
ATOM     55  H   UNL A   1      42.548  31.053  31.427  1.00  0.00     0.167 HD
ATOM     56  C   UNL A   1      41.308  33.485  32.186  1.00  0.00     0.074 A 
ATOM     57  C   UNL A   1      40.302  34.510  32.373  1.00  0.00     0.031 C 
ATOM     58  C   UNL A   1      42.578  33.571  32.649  1.00  0.00     0.037 A 
BRANCH  45  59
ATOM     59  C   UNL A   1      46.041  28.605  31.451  1.00  0.00     0.064 A 
ATOM     60  C   UNL A   1      46.273  27.713  32.509  1.00  0.00     0.173 A 
ATOM     61  C   UNL A   1      47.065  28.789  30.510  1.00  0.00     0.173 A 
ATOM     62  F   UNL A   1      45.329  27.510  33.440  1.00  0.00    -0.203 F 
ATOM     63  C   UNL A   1      47.489  27.045  32.629  1.00  0.00     0.198 A 
ATOM     64  C   UNL A   1      48.271  28.099  30.619  1.00  0.00     0.198 A 
ATOM     65  F   UNL A   1      46.892  29.625  29.476  1.00  0.00    -0.203 F 
ATOM     66  F   UNL A   1      47.701  26.225  33.668  1.00  0.00    -0.200 F 
ATOM     67  C   UNL A   1      48.483  27.233  31.681  1.00  0.00     0.200 A 
ATOM     68  F   UNL A   1      49.225  28.271  29.694  1.00  0.00    -0.200 F 
ATOM     69  F   UNL A   1      49.647  26.579  31.791  1.00  0.00    -0.200 F 
ENDBRANCH  45  59
BRANCH  46  70
ATOM     70  C   UNL A   1      37.012  32.731  30.427  1.00  0.00     0.064 A 
ATOM     71  C   UNL A   1      36.634  33.459  29.290  1.00  0.00     0.173 A 
ATOM     72  C   UNL A   1      36.076  32.606  31.464  1.00  0.00     0.173 A 
ATOM     73  F   UNL A   1      37.504  33.623  28.282  1.00  0.00    -0.203 F 
ATOM     74  C   UNL A   1      35.381  34.060  29.204  1.00  0.00     0.198 A 
ATOM     75  C   UNL A   1      34.811  33.183  31.364  1.00  0.00     0.198 A 
ATOM     76  F   UNL A   1      36.387  31.916  32.570  1.00  0.00    -0.203 F 
ATOM     77  F   UNL A   1      35.063  34.791  28.127  1.00  0.00    -0.200 F 
ATOM     78  C   UNL A   1      34.469  33.918  30.238  1.00  0.00     0.200 A 
ATOM     79  F   UNL A   1      33.928  33.034  32.360  1.00  0.00    -0.200 F 
ATOM     80  F   UNL A   1      33.262  34.495  30.155  1.00  0.00    -0.200 F 
ENDBRANCH  46  70
BRANCH  58  81
ATOM     81  C   UNL A   1      42.964  34.828  33.370  1.00  0.00     0.064 A 
ATOM     82  C   UNL A   1      43.383  35.973  32.676  1.00  0.00     0.173 A 
ATOM     83  C   UNL A   1      42.878  34.899  34.768  1.00  0.00     0.173 A 
ATOM     84  F   UNL A   1      43.496  35.948  31.340  1.00  0.00    -0.203 F 
ATOM     85  C   UNL A   1      43.726  37.136  33.360  1.00  0.00     0.198 A 
ATOM     86  C   UNL A   1      43.195  36.073  35.446  1.00  0.00     0.198 A 
ATOM     87  F   UNL A   1      42.477  33.833  35.476  1.00  0.00    -0.203 F 
ATOM     88  F   UNL A   1      44.167  38.204  32.681  1.00  0.00    -0.200 F 
ATOM     89  C   UNL A   1      43.625  37.187  34.742  1.00  0.00     0.200 A 
ATOM     90  F   UNL A   1      43.086  36.125  36.780  1.00  0.00    -0.200 F 
ATOM     91  F   UNL A   1      43.950  38.311  35.397  1.00  0.00    -0.200 F 
ENDBRANCH  58  81
ENDBRANCH  32  33
ENDBRANCH  24  27
ENDBRANCH  22  23
ENDBRANCH  21  22
ENDBRANCH   1  21
TORSDOF 15
ENDMDL
MODEL 2
REMARK VINA RESULT:      -9.4      4.185     10.363
REMARK SMILES CC(C)[C@H](CO)Nc1ccc(C(=O)NCCCNC(=O)c2ccc(-c3c4nc(c(-c5c(F)c(F)c(F)c(F)c5F)c5ccc([nH]5)c(-c5c(F)c(F)c(F)c(F)c5F)c5nc(c(-c6c(F)c(F)c(F)c(F)c6F)c6ccc3[nH]6)C=C5)C=C4)cc2)cc1
REMARK SMILES IDX 15 1 14 2 12 3 13 4 11 6 8 7 9 8 85 9 10 10 84 11 7 12 4 14
REMARK SMILES IDX 2 15 1 16 3 17 5 18 6 19 16 21 17 22 18 23 19 24 20 26 21 27
REMARK SMILES IDX 22 28 83 29 23 30 82 31 24 32 25 33 26 34 76 35 27 36 81 37
REMARK SMILES IDX 75 38 77 39 28 40 80 41 74 42 73 43 29 45 61 46 41 47 60 48
REMARK SMILES IDX 42 49 45 50 59 51 78 52 43 53 44 54 58 56 79 57 46 58 30 59
REMARK SMILES IDX 31 60 39 61 32 62 33 63 37 64 40 65 34 66 35 67 38 68 36 69
REMARK SMILES IDX 62 70 63 71 71 72 64 73 65 74 69 75 72 76 66 77 67 78 70 79
REMARK SMILES IDX 68 80 47 81 48 82 56 83 49 84 50 85 54 86 57 87 51 88 52 89
REMARK SMILES IDX 55 90 53 91
REMARK H PARENT 14 5 7 13 6 20 18 25 77 44 45 55
REMARK Flexibility Score: inf
ROOT
ATOM      1  C   UNL A   1      36.546  20.387  24.992  1.00  0.00     0.118 C 
ENDROOT
BRANCH   1   2
ATOM      2  N   UNL A   1      35.389  19.508  24.955  1.00  0.00    -0.352 N 
ATOM      3  C   UNL A   1      34.046  19.740  25.131  1.00  0.00     0.251 C 
ATOM      4  O   UNL A   1      33.277  18.797  24.949  1.00  0.00    -0.269 OA
ATOM      5  H   UNL A   1      35.610  18.566  24.769  1.00  0.00     0.163 HD
BRANCH   3   6
ATOM      6  C   UNL A   1      33.487  21.074  25.487  1.00  0.00     0.039 A 
ATOM      7  C   UNL A   1      32.404  23.570  26.314  1.00  0.00     0.034 A 
ATOM      8  C   UNL A   1      32.994  22.701  27.236  1.00  0.00     0.026 A 
ATOM      9  C   UNL A   1      32.405  23.181  24.974  1.00  0.00     0.026 A 
ATOM     10  C   UNL A   1      33.522  21.465  26.832  1.00  0.00     0.016 A 
ATOM     11  C   UNL A   1      32.972  21.972  24.558  1.00  0.00     0.016 A 
BRANCH   7  12
ATOM     12  N   UNL A   1      31.803  24.745  26.744  1.00  0.00    -0.380 N 
ATOM     13  H   UNL A   1      31.660  24.888  27.707  1.00  0.00     0.160 HD
BRANCH  12  14
ATOM     14  C   UNL A   1      31.376  25.782  25.789  1.00  0.00     0.107 C 
BRANCH  14  15
ATOM     15  C   UNL A   1      32.022  27.158  26.116  1.00  0.00     0.007 C 
ATOM     16  C   UNL A   1      31.525  27.813  27.407  1.00  0.00     0.009 C 
ATOM     17  C   UNL A   1      33.555  27.107  26.134  1.00  0.00     0.009 C 
ENDBRANCH  14  15
BRANCH  14  18
ATOM     18  C   UNL A   1      29.820  25.840  25.758  1.00  0.00     0.181 C 
BRANCH  18  19
ATOM     19  O   UNL A   1      29.243  24.900  26.665  1.00  0.00    -0.394 OA
ATOM     20  H   UNL A   1      29.632  25.019  27.546  1.00  0.00     0.210 HD
ENDBRANCH  18  19
ENDBRANCH  14  18
ENDBRANCH  12  14
ENDBRANCH   7  12
ENDBRANCH   3   6
ENDBRANCH   1   2
BRANCH   1  21
ATOM     21  C   UNL A   1      37.852  19.600  24.870  1.00  0.00     0.042 C 
BRANCH  21  22
ATOM     22  C   UNL A   1      38.972  20.130  25.761  1.00  0.00     0.118 C 
BRANCH  22  23
ATOM     23  N   UNL A   1      40.066  19.178  25.886  1.00  0.00    -0.352 N 
ATOM     24  C   UNL A   1      41.407  19.391  26.085  1.00  0.00     0.251 C 
ATOM     25  H   UNL A   1      39.803  18.232  25.816  1.00  0.00     0.163 HD
ATOM     26  O   UNL A   1      42.190  18.456  25.954  1.00  0.00    -0.269 OA
BRANCH  24  27
ATOM     27  C   UNL A   1      41.926  20.730  26.445  1.00  0.00     0.039 A 
ATOM     28  C   UNL A   1      42.191  21.642  25.416  1.00  0.00     0.014 A 
ATOM     29  C   UNL A   1      42.218  21.076  27.768  1.00  0.00     0.014 A 
ATOM     30  C   UNL A   1      42.699  22.907  25.715  1.00  0.00     0.010 A 
ATOM     31  C   UNL A   1      42.670  22.360  28.071  1.00  0.00     0.010 A 
ATOM     32  C   UNL A   1      42.921  23.286  27.048  1.00  0.00    -0.014 A 
BRANCH  32  33
ATOM     33  C   UNL A   1      43.414  24.646  27.386  1.00  0.00     0.031 A 
ATOM     34  C   UNL A   1      42.476  25.678  27.948  1.00  0.00     0.074 A 
ATOM     35  C   UNL A   1      44.696  24.970  27.129  1.00  0.00     0.049 A 
ATOM     36  N   UNL A   1      42.703  26.936  28.234  1.00  0.00    -0.248 NA
ATOM     37  C   UNL A   1      41.093  25.245  28.203  1.00  0.00     0.031 C 
ATOM     38  C   UNL A   1      45.693  24.071  26.544  1.00  0.00     0.029 A 
ATOM     39  N   UNL A   1      45.377  26.148  27.311  1.00  0.00    -0.354 N 
ATOM     40  C   UNL A   1      41.492  27.447  28.681  1.00  0.00     0.074 A 
ATOM     41  C   UNL A   1      40.523  26.376  28.596  1.00  0.00     0.031 C 
ATOM     42  C   UNL A   1      46.860  24.725  26.426  1.00  0.00     0.029 A 
ATOM     43  C   UNL A   1      46.686  26.097  26.893  1.00  0.00     0.049 A 
ATOM     44  H   UNL A   1      44.968  26.952  27.703  1.00  0.00     0.167 HD
ATOM     45  C   UNL A   1      41.218  28.692  29.138  1.00  0.00     0.037 A 
ATOM     46  C   UNL A   1      47.633  27.053  26.878  1.00  0.00     0.037 A 
ATOM     47  C   UNL A   1      42.192  29.747  29.256  1.00  0.00     0.049 A 
ATOM     48  C   UNL A   1      47.304  28.424  27.404  1.00  0.00     0.074 A 
ATOM     49  C   UNL A   1      42.027  31.021  29.772  1.00  0.00     0.029 A 
ATOM     50  N   UNL A   1      43.515  29.648  28.851  1.00  0.00    -0.354 N 
ATOM     51  N   UNL A   1      46.174  28.875  27.887  1.00  0.00    -0.248 NA
ATOM     52  C   UNL A   1      48.388  29.417  27.388  1.00  0.00     0.031 C 
ATOM     53  C   UNL A   1      43.239  31.706  29.644  1.00  0.00     0.029 A 
ATOM     54  C   UNL A   1      44.172  30.845  29.090  1.00  0.00     0.049 A 
ATOM     55  H   UNL A   1      43.926  28.847  28.454  1.00  0.00     0.167 HD
ATOM     56  C   UNL A   1      46.414  30.191  28.257  1.00  0.00     0.074 A 
ATOM     57  C   UNL A   1      47.804  30.462  27.957  1.00  0.00     0.031 C 
ATOM     58  C   UNL A   1      45.559  31.094  28.795  1.00  0.00     0.037 A 
BRANCH  45  59
ATOM     59  C   UNL A   1      39.808  28.991  29.556  1.00  0.00     0.064 A 
ATOM     60  C   UNL A   1      38.848  29.436  28.634  1.00  0.00     0.173 A 
ATOM     61  C   UNL A   1      39.395  28.769  30.878  1.00  0.00     0.173 A 
ATOM     62  F   UNL A   1      39.195  29.672  27.359  1.00  0.00    -0.203 F 
ATOM     63  C   UNL A   1      37.532  29.666  29.025  1.00  0.00     0.198 A 
ATOM     64  C   UNL A   1      38.072  28.975  31.260  1.00  0.00     0.198 A 
ATOM     65  F   UNL A   1      40.271  28.336  31.797  1.00  0.00    -0.203 F 
ATOM     66  F   UNL A   1      36.641  30.126  28.136  1.00  0.00    -0.200 F 
ATOM     67  C   UNL A   1      37.143  29.429  30.335  1.00  0.00     0.200 A 
ATOM     68  F   UNL A   1      37.694  28.731  32.522  1.00  0.00    -0.200 F 
ATOM     69  F   UNL A   1      35.873  29.638  30.706  1.00  0.00    -0.200 F 
ENDBRANCH  45  59
BRANCH  46  70
ATOM     70  C   UNL A   1      48.992  26.745  26.361  1.00  0.00     0.064 A 
ATOM     71  C   UNL A   1      49.987  26.239  27.209  1.00  0.00     0.173 A 
ATOM     72  C   UNL A   1      49.327  26.963  25.017  1.00  0.00     0.173 A 
ATOM     73  F   UNL A   1      49.719  26.035  28.507  1.00  0.00    -0.203 F 
ATOM     74  C   UNL A   1      51.273  25.986  26.738  1.00  0.00     0.198 A 
ATOM     75  C   UNL A   1      50.606  26.682  24.540  1.00  0.00     0.198 A 
ATOM     76  F   UNL A   1      48.409  27.441  24.165  1.00  0.00    -0.203 F 
ATOM     77  F   UNL A   1      52.219  25.550  27.580  1.00  0.00    -0.200 F 
ATOM     78  C   UNL A   1      51.581  26.203  25.403  1.00  0.00     0.200 A 
ATOM     79  F   UNL A   1      50.896  26.881  23.248  1.00  0.00    -0.200 F 
ATOM     80  F   UNL A   1      52.818  25.959  24.950  1.00  0.00    -0.200 F 
ENDBRANCH  46  70
BRANCH  58  81
ATOM     81  C   UNL A   1      46.111  32.449  29.126  1.00  0.00     0.064 A 
ATOM     82  C   UNL A   1      46.060  33.507  28.206  1.00  0.00     0.173 A 
ATOM     83  C   UNL A   1      46.664  32.701  30.390  1.00  0.00     0.173 A 
ATOM     84  F   UNL A   1      45.556  33.311  26.979  1.00  0.00    -0.203 F 
ATOM     85  C   UNL A   1      46.566  34.762  28.533  1.00  0.00     0.198 A 
ATOM     86  C   UNL A   1      47.143  33.964  30.723  1.00  0.00     0.198 A 
ATOM     87  F   UNL A   1      46.730  31.723  31.306  1.00  0.00    -0.203 F 
ATOM     88  F   UNL A   1      46.549  35.747  27.624  1.00  0.00    -0.200 F 
ATOM     89  C   UNL A   1      47.101  34.991  29.793  1.00  0.00     0.200 A 
ATOM     90  F   UNL A   1      47.649  34.188  31.944  1.00  0.00    -0.200 F 
ATOM     91  F   UNL A   1      47.582  36.203  30.107  1.00  0.00    -0.200 F 
ENDBRANCH  58  81
ENDBRANCH  32  33
ENDBRANCH  24  27
ENDBRANCH  22  23
ENDBRANCH  21  22
ENDBRANCH   1  21
TORSDOF 15
ENDMDL
MODEL 3
REMARK VINA RESULT:      -9.4      4.758      9.586
REMARK SMILES CC(C)[C@H](CO)Nc1ccc(C(=O)NCCCNC(=O)c2ccc(-c3c4nc(c(-c5c(F)c(F)c(F)c(F)c5F)c5ccc([nH]5)c(-c5c(F)c(F)c(F)c(F)c5F)c5nc(c(-c6c(F)c(F)c(F)c(F)c6F)c6ccc3[nH]6)C=C5)C=C4)cc2)cc1
REMARK SMILES IDX 15 1 14 2 12 3 13 4 11 6 8 7 9 8 85 9 10 10 84 11 7 12 4 14
REMARK SMILES IDX 2 15 1 16 3 17 5 18 6 19 16 21 17 22 18 23 19 24 20 26 21 27
REMARK SMILES IDX 22 28 83 29 23 30 82 31 24 32 25 33 26 34 76 35 27 36 81 37
REMARK SMILES IDX 75 38 77 39 28 40 80 41 74 42 73 43 29 45 61 46 41 47 60 48
REMARK SMILES IDX 42 49 45 50 59 51 78 52 43 53 44 54 58 56 79 57 46 58 30 59
REMARK SMILES IDX 31 60 39 61 32 62 33 63 37 64 40 65 34 66 35 67 38 68 36 69
REMARK SMILES IDX 62 70 63 71 71 72 64 73 65 74 69 75 72 76 66 77 67 78 70 79
REMARK SMILES IDX 68 80 47 81 48 82 56 83 49 84 50 85 54 86 57 87 51 88 52 89
REMARK SMILES IDX 55 90 53 91
REMARK H PARENT 14 5 7 13 6 20 18 25 77 44 45 55
REMARK Flexibility Score: inf
ROOT
ATOM      1  C   UNL A   1      31.682  30.687  26.853  1.00  0.00     0.118 C 
ENDROOT
BRANCH   1   2
ATOM      2  N   UNL A   1      32.956  30.352  27.466  1.00  0.00    -0.352 N 
ATOM      3  C   UNL A   1      33.949  29.472  27.110  1.00  0.00     0.251 C 
ATOM      4  O   UNL A   1      34.976  29.468  27.789  1.00  0.00    -0.269 OA
ATOM      5  H   UNL A   1      33.143  30.850  28.294  1.00  0.00     0.163 HD
BRANCH   3   6
ATOM      6  C   UNL A   1      33.855  28.565  25.932  1.00  0.00     0.039 A 
ATOM      7  C   UNL A   1      33.724  26.716  23.775  1.00  0.00     0.034 A 
ATOM      8  C   UNL A   1      33.683  26.277  25.102  1.00  0.00     0.026 A 
ATOM      9  C   UNL A   1      33.790  28.093  23.556  1.00  0.00     0.026 A 
ATOM     10  C   UNL A   1      33.756  27.187  26.168  1.00  0.00     0.016 A 
ATOM     11  C   UNL A   1      33.814  29.007  24.614  1.00  0.00     0.016 A 
BRANCH   7  12
ATOM     12  N   UNL A   1      33.746  25.798  22.734  1.00  0.00    -0.380 N 
ATOM     13  H   UNL A   1      34.603  25.582  22.301  1.00  0.00     0.160 HD
BRANCH  12  14
ATOM     14  C   UNL A   1      32.514  25.142  22.265  1.00  0.00     0.107 C 
BRANCH  14  15
ATOM     15  C   UNL A   1      32.595  23.597  22.425  1.00  0.00     0.007 C 
ATOM     16  C   UNL A   1      33.939  23.071  22.933  1.00  0.00     0.009 C 
ATOM     17  C   UNL A   1      31.469  23.029  23.296  1.00  0.00     0.009 C 
ENDBRANCH  14  15
BRANCH  14  18
ATOM     18  C   UNL A   1      32.227  25.580  20.798  1.00  0.00     0.181 C 
BRANCH  18  19
ATOM     19  O   UNL A   1      32.903  24.741  19.859  1.00  0.00    -0.394 OA
ATOM     20  H   UNL A   1      33.368  24.034  20.333  1.00  0.00     0.210 HD
ENDBRANCH  18  19
ENDBRANCH  14  18
ENDBRANCH  12  14
ENDBRANCH   7  12
ENDBRANCH   3   6
ENDBRANCH   1   2
BRANCH   1  21
ATOM     21  C   UNL A   1      31.429  32.196  26.875  1.00  0.00     0.042 C 
BRANCH  21  22
ATOM     22  C   UNL A   1      32.705  33.030  26.962  1.00  0.00     0.118 C 
BRANCH  22  23
ATOM     23  N   UNL A   1      32.479  34.302  27.631  1.00  0.00    -0.352 N 
ATOM     24  C   UNL A   1      33.051  34.821  28.765  1.00  0.00     0.251 C 
ATOM     25  H   UNL A   1      31.810  34.884  27.202  1.00  0.00     0.163 HD
ATOM     26  O   UNL A   1      32.569  35.826  29.277  1.00  0.00    -0.269 OA
BRANCH  24  27
ATOM     27  C   UNL A   1      34.234  34.183  29.388  1.00  0.00     0.039 A 
ATOM     28  C   UNL A   1      34.025  33.212  30.375  1.00  0.00     0.014 A 
ATOM     29  C   UNL A   1      35.537  34.573  29.065  1.00  0.00     0.014 A 
ATOM     30  C   UNL A   1      35.115  32.602  31.000  1.00  0.00     0.010 A 
ATOM     31  C   UNL A   1      36.625  33.922  29.646  1.00  0.00     0.010 A 
ATOM     32  C   UNL A   1      36.426  32.935  30.623  1.00  0.00    -0.014 A 
BRANCH  32  33
ATOM     33  C   UNL A   1      37.595  32.259  31.242  1.00  0.00     0.031 A 
ATOM     34  C   UNL A   1      38.339  31.188  30.493  1.00  0.00     0.074 A 
ATOM     35  C   UNL A   1      37.949  32.571  32.504  1.00  0.00     0.049 A 
ATOM     36  N   UNL A   1      39.334  30.436  30.894  1.00  0.00    -0.248 NA
ATOM     37  C   UNL A   1      37.892  30.909  29.120  1.00  0.00     0.031 C 
ATOM     38  C   UNL A   1      37.281  33.560  33.349  1.00  0.00     0.029 A 
ATOM     39  N   UNL A   1      38.951  32.075  33.301  1.00  0.00    -0.354 N 
ATOM     40  C   UNL A   1      39.616  29.585  29.834  1.00  0.00     0.074 A 
ATOM     41  C   UNL A   1      38.666  29.887  28.784  1.00  0.00     0.031 C 
ATOM     42  C   UNL A   1      37.895  33.608  34.542  1.00  0.00     0.029 A 
ATOM     43  C   UNL A   1      38.978  32.629  34.559  1.00  0.00     0.049 A 
ATOM     44  H   UNL A   1      39.588  31.387  33.002  1.00  0.00     0.167 HD
ATOM     45  C   UNL A   1      40.591  28.650  29.738  1.00  0.00     0.037 A 
ATOM     46  C   UNL A   1      39.779  32.369  35.609  1.00  0.00     0.037 A 
ATOM     47  C   UNL A   1      41.558  28.376  30.771  1.00  0.00     0.049 A 
ATOM     48  C   UNL A   1      40.861  31.333  35.469  1.00  0.00     0.074 A 
ATOM     49  C   UNL A   1      42.626  27.495  30.741  1.00  0.00     0.029 A 
ATOM     50  N   UNL A   1      41.572  28.980  32.019  1.00  0.00    -0.354 N 
ATOM     51  N   UNL A   1      41.162  30.584  34.438  1.00  0.00    -0.248 NA
ATOM     52  C   UNL A   1      41.722  31.113  36.641  1.00  0.00     0.031 C 
ATOM     53  C   UNL A   1      43.263  27.539  31.984  1.00  0.00     0.029 A 
ATOM     54  C   UNL A   1      42.620  28.478  32.774  1.00  0.00     0.049 A 
ATOM     55  H   UNL A   1      40.934  29.664  32.323  1.00  0.00     0.167 HD
ATOM     56  C   UNL A   1      42.258  29.824  34.823  1.00  0.00     0.074 A 
ATOM     57  C   UNL A   1      42.581  30.215  36.179  1.00  0.00     0.031 C 
ATOM     58  C   UNL A   1      42.934  28.886  34.118  1.00  0.00     0.037 A 
BRANCH  45  59
ATOM     59  C   UNL A   1      40.673  27.851  28.471  1.00  0.00     0.064 A 
ATOM     60  C   UNL A   1      41.447  28.279  27.382  1.00  0.00     0.173 A 
ATOM     61  C   UNL A   1      40.023  26.612  28.367  1.00  0.00     0.173 A 
ATOM     62  F   UNL A   1      42.081  29.461  27.428  1.00  0.00    -0.203 F 
ATOM     63  C   UNL A   1      41.550  27.506  26.229  1.00  0.00     0.198 A 
ATOM     64  C   UNL A   1      40.150  25.829  27.222  1.00  0.00     0.198 A 
ATOM     65  F   UNL A   1      39.277  26.152  29.382  1.00  0.00    -0.203 F 
ATOM     66  F   UNL A   1      42.266  27.953  25.187  1.00  0.00    -0.200 F 
ATOM     67  C   UNL A   1      40.909  26.279  26.152  1.00  0.00     0.200 A 
ATOM     68  F   UNL A   1      39.541  24.637  27.156  1.00  0.00    -0.200 F 
ATOM     69  F   UNL A   1      41.021  25.531  25.047  1.00  0.00    -0.200 F 
ENDBRANCH  45  59
BRANCH  46  70
ATOM     70  C   UNL A   1      39.599  33.111  36.883  1.00  0.00     0.064 A 
ATOM     71  C   UNL A   1      40.375  34.243  37.172  1.00  0.00     0.173 A 
ATOM     72  C   UNL A   1      38.662  32.699  37.842  1.00  0.00     0.173 A 
ATOM     73  F   UNL A   1      41.299  34.662  36.295  1.00  0.00    -0.203 F 
ATOM     74  C   UNL A   1      40.238  34.920  38.382  1.00  0.00     0.198 A 
ATOM     75  C   UNL A   1      38.506  33.394  39.039  1.00  0.00     0.198 A 
ATOM     76  F   UNL A   1      37.893  31.626  37.610  1.00  0.00    -0.203 F 
ATOM     77  F   UNL A   1      41.026  35.968  38.653  1.00  0.00    -0.200 F 
ATOM     78  C   UNL A   1      39.301  34.498  39.313  1.00  0.00     0.200 A 
ATOM     79  F   UNL A   1      37.591  32.991  39.931  1.00  0.00    -0.200 F 
ATOM     80  F   UNL A   1      39.168  35.149  40.476  1.00  0.00    -0.200 F 
ENDBRANCH  46  70
BRANCH  58  81
ATOM     81  C   UNL A   1      44.113  28.242  34.787  1.00  0.00     0.064 A 
ATOM     82  C   UNL A   1      43.983  27.050  35.514  1.00  0.00     0.173 A 
ATOM     83  C   UNL A   1      45.392  28.805  34.667  1.00  0.00     0.173 A 
ATOM     84  F   UNL A   1      42.778  26.482  35.670  1.00  0.00    -0.203 F 
ATOM     85  C   UNL A   1      45.089  26.459  36.118  1.00  0.00     0.198 A 
ATOM     86  C   UNL A   1      46.499  28.196  35.249  1.00  0.00     0.198 A 
ATOM     87  F   UNL A   1      45.568  29.942  33.976  1.00  0.00    -0.203 F 
ATOM     88  F   UNL A   1      44.935  25.344  36.847  1.00  0.00    -0.200 F 
ATOM     89  C   UNL A   1      46.346  27.028  35.980  1.00  0.00     0.200 A 
ATOM     90  F   UNL A   1      47.716  28.740  35.104  1.00  0.00    -0.200 F 
ATOM     91  F   UNL A   1      47.411  26.453  36.557  1.00  0.00    -0.200 F 
ENDBRANCH  58  81
ENDBRANCH  32  33
ENDBRANCH  24  27
ENDBRANCH  22  23
ENDBRANCH  21  22
ENDBRANCH   1  21
TORSDOF 15
ENDMDL
