MODEL 1
REMARK VINA RESULT:     -13.8      0.000      0.000
REMARK SMILES C[C@H]1Oc2ccccc2C=C1/C=C/C(=O)N[C@H](C(=O)NCCCNC(=O)c1ccc(-c2c3nc(c(-c4c(F)c(F)c(F)c(F)c4F)c4ccc([nH]4)c(-c4c(F)c(F)c(F)c(F)c4F)c4nc(c(-c5c(F)c(F)c(F)c(F)c5F)c5ccc2[nH]5)C=C4)C=C3)cc1)c1ccccc1
REMARK SMILES IDX 21 1 20 2 18 3 19 4 17 6 16 7 14 8 15 9 13 11 12 12 11 13
REMARK SMILES IDX 1 14 2 15 3 16 4 17 10 18 5 19 9 20 6 21 8 22 7 23 90 24
REMARK SMILES IDX 91 25 95 26 92 27 94 28 93 29 22 30 23 31 24 32 25 33 26 35
REMARK SMILES IDX 27 36 28 37 89 38 29 39 88 40 30 41 31 42 32 43 82 44 33 45
REMARK SMILES IDX 87 46 81 47 83 48 34 49 86 50 80 51 79 52 35 54 67 55 47 56
REMARK SMILES IDX 66 57 48 58 51 59 65 60 84 61 49 62 50 63 64 65 85 66 52 67
REMARK SMILES IDX 36 68 37 69 45 70 38 71 39 72 43 73 46 74 40 75 41 76 44 77
REMARK SMILES IDX 42 78 68 79 69 80 77 81 70 82 71 83 75 84 78 85 72 86 73 87
REMARK SMILES IDX 76 88 74 89 53 90 54 91 62 92 55 93 56 94 60 95 63 96 57 97
REMARK SMILES IDX 58 98 61 99 59 100
REMARK H PARENT 20 5 16 10 24 34 83 53 51 64
REMARK Flexibility Score: inf
ROOT
ATOM      1  C   UNL A   1      31.831  30.687  26.141  1.00  0.00     0.117 C 
ENDROOT
BRANCH   1   2
ATOM      2  N   UNL A   1      31.041  30.487  24.937  1.00  0.00    -0.354 N 
ATOM      3  C   UNL A   1      30.728  29.343  24.255  1.00  0.00     0.247 C 
ATOM      4  O   UNL A   1      30.065  29.516  23.227  1.00  0.00    -0.272 OA
ATOM      5  H   UNL A   1      30.669  31.311  24.547  1.00  0.00     0.163 HD
BRANCH   3   6
ATOM      6  C   UNL A   1      31.306  27.949  24.678  1.00  0.00     0.202 C 
BRANCH   6   7
ATOM      7  N   UNL A   1      30.377  27.185  25.515  1.00  0.00    -0.337 N 
ATOM      8  C   UNL A   1      30.420  25.979  26.120  1.00  0.00     0.244 C 
ATOM      9  O   UNL A   1      29.400  25.615  26.711  1.00  0.00    -0.270 OA
ATOM     10  H   UNL A   1      29.530  27.661  25.673  1.00  0.00     0.164 HD
BRANCH   8  11
ATOM     11  C   UNL A   1      31.595  25.071  26.156  1.00  0.00     0.071 C 
ATOM     12  C   UNL A   1      31.924  24.027  25.384  1.00  0.00     0.013 C 
BRANCH  12  13
ATOM     13  C   UNL A   1      33.186  23.288  25.385  1.00  0.00    -0.007 C 
ATOM     14  C   UNL A   1      32.836  21.867  23.295  1.00  0.00     0.058 C 
ATOM     15  C   UNL A   1      33.135  21.874  24.796  1.00  0.00     0.200 C 
ATOM     16  O   UNL A   1      34.310  21.061  24.991  1.00  0.00    -0.485 OA
ATOM     17  C   UNL A   1      35.491  21.714  25.188  1.00  0.00     0.127 A 
ATOM     18  C   UNL A   1      34.349  23.811  25.803  1.00  0.00     0.019 C 
ATOM     19  C   UNL A   1      36.654  20.974  24.975  1.00  0.00     0.047 A 
ATOM     20  C   UNL A   1      35.568  23.038  25.616  1.00  0.00     0.017 A 
ATOM     21  C   UNL A   1      37.902  21.560  25.184  1.00  0.00     0.004 A 
ATOM     22  C   UNL A   1      36.821  23.617  25.845  1.00  0.00     0.012 A 
ATOM     23  C   UNL A   1      37.985  22.879  25.624  1.00  0.00     0.001 A 
ENDBRANCH  12  13
ENDBRANCH   8  11
ENDBRANCH   6   7
BRANCH   6  24
ATOM     24  C   UNL A   1      31.977  27.126  23.571  1.00  0.00    -0.016 A 
ATOM     25  C   UNL A   1      31.213  26.603  22.510  1.00  0.00     0.006 A 
ATOM     26  C   UNL A   1      33.363  26.885  23.543  1.00  0.00     0.006 A 
ATOM     27  C   UNL A   1      31.793  25.800  21.523  1.00  0.00     0.000 A 
ATOM     28  C   UNL A   1      33.942  26.075  22.563  1.00  0.00     0.000 A 
ATOM     29  C   UNL A   1      33.155  25.522  21.560  1.00  0.00     0.000 A 
ENDBRANCH   6  24
ENDBRANCH   3   6
ENDBRANCH   1   2
BRANCH   1  30
ATOM     30  C   UNL A   1      31.464  31.979  26.856  1.00  0.00     0.042 C 
BRANCH  30  31
ATOM     31  C   UNL A   1      32.682  32.781  27.301  1.00  0.00     0.118 C 
BRANCH  31  32
ATOM     32  N   UNL A   1      32.379  34.175  27.602  1.00  0.00    -0.352 N 
ATOM     33  C   UNL A   1      32.920  35.033  28.536  1.00  0.00     0.251 C 
ATOM     34  H   UNL A   1      31.671  34.569  27.046  1.00  0.00     0.163 HD
ATOM     35  O   UNL A   1      32.429  36.139  28.709  1.00  0.00    -0.269 OA
BRANCH  33  36
ATOM     36  C   UNL A   1      34.063  34.600  29.375  1.00  0.00     0.039 A 
ATOM     37  C   UNL A   1      35.357  34.563  28.864  1.00  0.00     0.014 A 
ATOM     38  C   UNL A   1      33.827  34.195  30.693  1.00  0.00     0.014 A 
ATOM     39  C   UNL A   1      36.353  33.893  29.562  1.00  0.00     0.010 A 
ATOM     40  C   UNL A   1      34.865  33.636  31.447  1.00  0.00     0.010 A 
ATOM     41  C   UNL A   1      36.119  33.409  30.860  1.00  0.00    -0.014 A 
BRANCH  41  42
ATOM     42  C   UNL A   1      37.195  32.658  31.560  1.00  0.00     0.031 A 
ATOM     43  C   UNL A   1      37.919  31.525  30.880  1.00  0.00     0.074 A 
ATOM     44  C   UNL A   1      37.575  33.045  32.793  1.00  0.00     0.049 A 
ATOM     45  N   UNL A   1      38.904  30.786  31.329  1.00  0.00    -0.248 NA
ATOM     46  C   UNL A   1      37.477  31.163  29.525  1.00  0.00     0.031 C 
ATOM     47  C   UNL A   1      36.955  34.127  33.561  1.00  0.00     0.029 A 
ATOM     48  N   UNL A   1      38.590  32.602  33.603  1.00  0.00    -0.354 N 
ATOM     49  C   UNL A   1      39.171  29.856  30.332  1.00  0.00     0.074 A 
ATOM     50  C   UNL A   1      38.233  30.106  29.261  1.00  0.00     0.031 C 
ATOM     51  C   UNL A   1      37.644  34.310  34.696  1.00  0.00     0.029 A 
ATOM     52  C   UNL A   1      38.707  33.313  34.772  1.00  0.00     0.049 A 
ATOM     53  H   UNL A   1      39.177  31.847  33.370  1.00  0.00     0.167 HD
ATOM     54  C   UNL A   1      40.121  28.890  30.308  1.00  0.00     0.037 A 
ATOM     55  C   UNL A   1      39.563  33.176  35.802  1.00  0.00     0.037 A 
ATOM     56  C   UNL A   1      41.087  28.673  31.353  1.00  0.00     0.049 A 
ATOM     57  C   UNL A   1      40.602  32.095  35.755  1.00  0.00     0.074 A 
ATOM     58  C   UNL A   1      42.127  27.760  31.389  1.00  0.00     0.029 A 
ATOM     59  N   UNL A   1      41.133  29.378  32.547  1.00  0.00    -0.354 N 
ATOM     60  N   UNL A   1      40.852  31.234  34.799  1.00  0.00    -0.248 NA
ATOM     61  C   UNL A   1      41.466  31.954  36.935  1.00  0.00     0.031 C 
ATOM     62  C   UNL A   1      42.773  27.880  32.623  1.00  0.00     0.029 A 
ATOM     63  C   UNL A   1      42.165  28.898  33.339  1.00  0.00     0.049 A 
ATOM     64  H   UNL A   1      40.524  30.110  32.795  1.00  0.00     0.167 HD
ATOM     65  C   UNL A   1      41.895  30.446  35.260  1.00  0.00     0.074 A 
ATOM     66  C   UNL A   1      42.251  30.948  36.571  1.00  0.00     0.031 C 
ATOM     67  C   UNL A   1      42.496  29.394  34.652  1.00  0.00     0.037 A 
BRANCH  54  68
ATOM     68  C   UNL A   1      40.158  27.975  29.118  1.00  0.00     0.064 A 
ATOM     69  C   UNL A   1      40.891  28.288  27.964  1.00  0.00     0.173 A 
ATOM     70  C   UNL A   1      39.488  26.742  29.154  1.00  0.00     0.173 A 
ATOM     71  F   UNL A   1      41.540  29.459  27.874  1.00  0.00    -0.203 F 
ATOM     72  C   UNL A   1      40.934  27.411  26.883  1.00  0.00     0.198 A 
ATOM     73  C   UNL A   1      39.555  25.856  28.082  1.00  0.00     0.198 A 
ATOM     74  F   UNL A   1      38.778  26.390  30.237  1.00  0.00    -0.203 F 
ATOM     75  F   UNL A   1      41.608  27.750  25.775  1.00  0.00    -0.200 F 
ATOM     76  C   UNL A   1      40.272  26.194  26.945  1.00  0.00     0.200 A 
ATOM     77  F   UNL A   1      38.925  24.675  28.149  1.00  0.00    -0.200 F 
ATOM     78  F   UNL A   1      40.322  25.349  25.906  1.00  0.00    -0.200 F 
ENDBRANCH  54  68
BRANCH  55  79
ATOM     79  C   UNL A   1      39.454  34.101  36.956  1.00  0.00     0.064 A 
ATOM     80  C   UNL A   1      38.733  33.742  38.102  1.00  0.00     0.173 A 
ATOM     81  C   UNL A   1      40.134  35.329  36.967  1.00  0.00     0.173 A 
ATOM     82  F   UNL A   1      38.052  32.587  38.130  1.00  0.00    -0.203 F 
ATOM     83  C   UNL A   1      38.706  34.572  39.221  1.00  0.00     0.198 A 
ATOM     84  C   UNL A   1      40.128  36.144  38.096  1.00  0.00     0.198 A 
ATOM     85  F   UNL A   1      40.844  35.711  35.896  1.00  0.00    -0.203 F 
ATOM     86  F   UNL A   1      38.000  34.211  40.302  1.00  0.00    -0.200 F 
ATOM     87  C   UNL A   1      39.414  35.764  39.223  1.00  0.00     0.200 A 
ATOM     88  F   UNL A   1      40.831  37.285  38.099  1.00  0.00    -0.200 F 
ATOM     89  F   UNL A   1      39.411  36.547  40.310  1.00  0.00    -0.200 F 
ENDBRANCH  55  79
BRANCH  67  90
ATOM     90  C   UNL A   1      43.594  28.701  35.400  1.00  0.00     0.064 A 
ATOM     91  C   UNL A   1      43.317  27.655  36.292  1.00  0.00     0.173 A 
ATOM     92  C   UNL A   1      44.938  29.038  35.175  1.00  0.00     0.173 A 
ATOM     93  F   UNL A   1      42.048  27.307  36.550  1.00  0.00    -0.203 F 
ATOM     94  C   UNL A   1      44.346  26.979  36.942  1.00  0.00     0.198 A 
ATOM     95  C   UNL A   1      45.964  28.343  35.808  1.00  0.00     0.198 A 
ATOM     96  F   UNL A   1      45.254  30.027  34.327  1.00  0.00    -0.203 F 
ATOM     97  F   UNL A   1      44.058  26.003  37.814  1.00  0.00    -0.200 F 
ATOM     98  C   UNL A   1      45.667  27.317  36.693  1.00  0.00     0.200 A 
ATOM     99  F   UNL A   1      47.242  28.662  35.557  1.00  0.00    -0.200 F 
ATOM    100  F   UNL A   1      46.657  26.656  37.309  1.00  0.00    -0.200 F 
ENDBRANCH  67  90
ENDBRANCH  41  42
ENDBRANCH  33  36
ENDBRANCH  31  32
ENDBRANCH  30  31
ENDBRANCH   1  30
TORSDOF 14
ENDMDL
MODEL 2
REMARK VINA RESULT:     -13.7      5.352     10.052
REMARK SMILES C[C@H]1Oc2ccccc2C=C1/C=C/C(=O)N[C@H](C(=O)NCCCNC(=O)c1ccc(-c2c3nc(c(-c4c(F)c(F)c(F)c(F)c4F)c4ccc([nH]4)c(-c4c(F)c(F)c(F)c(F)c4F)c4nc(c(-c5c(F)c(F)c(F)c(F)c5F)c5ccc2[nH]5)C=C4)C=C3)cc1)c1ccccc1
REMARK SMILES IDX 21 1 20 2 18 3 19 4 17 6 16 7 14 8 15 9 13 11 12 12 11 13
REMARK SMILES IDX 1 14 2 15 3 16 4 17 10 18 5 19 9 20 6 21 8 22 7 23 90 24
REMARK SMILES IDX 91 25 95 26 92 27 94 28 93 29 22 30 23 31 24 32 25 33 26 35
REMARK SMILES IDX 27 36 28 37 89 38 29 39 88 40 30 41 31 42 32 43 82 44 33 45
REMARK SMILES IDX 87 46 81 47 83 48 34 49 86 50 80 51 79 52 35 54 67 55 47 56
REMARK SMILES IDX 66 57 48 58 51 59 65 60 84 61 49 62 50 63 64 65 85 66 52 67
REMARK SMILES IDX 36 68 37 69 45 70 38 71 39 72 43 73 46 74 40 75 41 76 44 77
REMARK SMILES IDX 42 78 68 79 69 80 77 81 70 82 71 83 75 84 78 85 72 86 73 87
REMARK SMILES IDX 76 88 74 89 53 90 54 91 62 92 55 93 56 94 60 95 63 96 57 97
REMARK SMILES IDX 58 98 61 99 59 100
REMARK H PARENT 20 5 16 10 24 34 83 53 51 64
REMARK Flexibility Score: inf
ROOT
ATOM      1  C   UNL A   1      36.739  20.880  25.358  1.00  0.00     0.117 C 
ENDROOT
BRANCH   1   2
ATOM      2  N   UNL A   1      35.519  20.110  25.173  1.00  0.00    -0.354 N 
ATOM      3  C   UNL A   1      34.271  20.500  24.771  1.00  0.00     0.247 C 
ATOM      4  O   UNL A   1      33.425  19.599  24.758  1.00  0.00    -0.272 OA
ATOM      5  H   UNL A   1      35.606  19.149  25.368  1.00  0.00     0.163 HD
BRANCH   3   6
ATOM      6  C   UNL A   1      33.924  22.004  24.502  1.00  0.00     0.202 C 
BRANCH   6   7
ATOM      7  N   UNL A   1      33.835  22.315  23.074  1.00  0.00    -0.337 N 
ATOM      8  C   UNL A   1      33.609  23.439  22.361  1.00  0.00     0.244 C 
ATOM      9  O   UNL A   1      33.538  23.317  21.135  1.00  0.00    -0.270 OA
ATOM     10  H   UNL A   1      33.972  21.524  22.504  1.00  0.00     0.164 HD
BRANCH   8  11
ATOM     11  C   UNL A   1      33.469  24.806  22.924  1.00  0.00     0.071 C 
ATOM     12  C   UNL A   1      32.409  25.622  23.000  1.00  0.00     0.013 C 
BRANCH  12  13
ATOM     13  C   UNL A   1      32.319  26.891  23.722  1.00  0.00    -0.007 C 
ATOM     14  C   UNL A   1      29.785  27.041  23.978  1.00  0.00     0.058 C 
ATOM     15  C   UNL A   1      31.056  27.720  23.463  1.00  0.00     0.200 C 
ATOM     16  O   UNL A   1      31.057  29.061  23.992  1.00  0.00    -0.485 OA
ATOM     17  C   UNL A   1      31.870  29.308  25.059  1.00  0.00     0.127 A 
ATOM     18  C   UNL A   1      33.232  27.300  24.616  1.00  0.00     0.019 C 
ATOM     19  C   UNL A   1      31.584  30.448  25.810  1.00  0.00     0.047 A 
ATOM     20  C   UNL A   1      32.962  28.505  25.386  1.00  0.00     0.017 A 
ATOM     21  C   UNL A   1      32.387  30.786  26.898  1.00  0.00     0.004 A 
ATOM     22  C   UNL A   1      33.779  28.858  26.466  1.00  0.00     0.012 A 
ATOM     23  C   UNL A   1      33.488  29.995  27.222  1.00  0.00     0.001 A 
ENDBRANCH  12  13
ENDBRANCH   8  11
ENDBRANCH   6   7
BRANCH   6  24
ATOM     24  C   UNL A   1      32.795  22.605  25.348  1.00  0.00    -0.016 A 
ATOM     25  C   UNL A   1      31.516  22.015  25.351  1.00  0.00     0.006 A 
ATOM     26  C   UNL A   1      32.983  23.731  26.171  1.00  0.00     0.006 A 
ATOM     27  C   UNL A   1      30.456  22.580  26.066  1.00  0.00     0.000 A 
ATOM     28  C   UNL A   1      31.922  24.301  26.879  1.00  0.00     0.000 A 
ATOM     29  C   UNL A   1      30.655  23.733  26.817  1.00  0.00     0.000 A 
ENDBRANCH   6  24
ENDBRANCH   3   6
ENDBRANCH   1   2
BRANCH   1  30
ATOM     30  C   UNL A   1      37.974  20.104  24.927  1.00  0.00     0.042 C 
BRANCH  30  31
ATOM     31  C   UNL A   1      39.185  20.371  25.814  1.00  0.00     0.118 C 
BRANCH  31  32
ATOM     32  N   UNL A   1      40.145  19.275  25.830  1.00  0.00    -0.352 N 
ATOM     33  C   UNL A   1      41.500  19.265  26.089  1.00  0.00     0.251 C 
ATOM     34  H   UNL A   1      39.763  18.393  25.622  1.00  0.00     0.163 HD
ATOM     35  O   UNL A   1      42.149  18.243  25.925  1.00  0.00    -0.269 OA
BRANCH  33  36
ATOM     36  C   UNL A   1      42.187  20.509  26.513  1.00  0.00     0.039 A 
ATOM     37  C   UNL A   1      42.267  20.864  27.856  1.00  0.00     0.014 A 
ATOM     38  C   UNL A   1      42.738  21.349  25.540  1.00  0.00     0.014 A 
ATOM     39  C   UNL A   1      42.654  22.152  28.204  1.00  0.00     0.010 A 
ATOM     40  C   UNL A   1      43.249  22.599  25.907  1.00  0.00     0.010 A 
ATOM     41  C   UNL A   1      43.141  23.043  27.234  1.00  0.00    -0.014 A 
BRANCH  41  42
ATOM     42  C   UNL A   1      43.505  24.428  27.636  1.00  0.00     0.031 A 
ATOM     43  C   UNL A   1      44.935  24.901  27.584  1.00  0.00     0.074 A 
ATOM     44  C   UNL A   1      42.531  25.292  27.983  1.00  0.00     0.049 A 
ATOM     45  N   UNL A   1      45.424  26.083  27.865  1.00  0.00    -0.248 NA
ATOM     46  C   UNL A   1      45.952  23.920  27.175  1.00  0.00     0.031 C 
ATOM     47  C   UNL A   1      41.108  24.960  28.072  1.00  0.00     0.029 A 
ATOM     48  N   UNL A   1      42.580  26.628  28.288  1.00  0.00    -0.354 N 
ATOM     49  C   UNL A   1      46.800  25.978  27.703  1.00  0.00     0.074 A 
ATOM     50  C   UNL A   1      47.075  24.611  27.319  1.00  0.00     0.031 C 
ATOM     51  C   UNL A   1      40.413  26.073  28.341  1.00  0.00     0.029 A 
ATOM     52  C   UNL A   1      41.344  27.183  28.515  1.00  0.00     0.049 A 
ATOM     53  H   UNL A   1      43.419  27.140  28.341  1.00  0.00     0.167 HD
ATOM     54  C   UNL A   1      47.746  26.936  27.849  1.00  0.00     0.037 A 
ATOM     55  C   UNL A   1      40.993  28.441  28.840  1.00  0.00     0.037 A 
ATOM     56  C   UNL A   1      47.469  28.309  28.182  1.00  0.00     0.049 A 
ATOM     57  C   UNL A   1      42.059  29.484  29.003  1.00  0.00     0.074 A 
ATOM     58  C   UNL A   1      48.356  29.366  28.289  1.00  0.00     0.029 A 
ATOM     59  N   UNL A   1      46.209  28.816  28.461  1.00  0.00    -0.354 N 
ATOM     60  N   UNL A   1      43.353  29.372  28.830  1.00  0.00    -0.248 NA
ATOM     61  C   UNL A   1      41.619  30.822  29.420  1.00  0.00     0.031 C 
ATOM     62  C   UNL A   1      47.640  30.502  28.679  1.00  0.00     0.029 A 
ATOM     63  C   UNL A   1      46.299  30.164  28.772  1.00  0.00     0.049 A 
ATOM     64  H   UNL A   1      45.373  28.296  28.443  1.00  0.00     0.167 HD
ATOM     65  C   UNL A   1      43.885  30.618  29.123  1.00  0.00     0.074 A 
ATOM     66  C   UNL A   1      42.770  31.481  29.456  1.00  0.00     0.031 C 
ATOM     67  C   UNL A   1      45.183  31.007  29.122  1.00  0.00     0.037 A 
BRANCH  54  68
ATOM     68  C   UNL A   1      49.182  26.536  27.665  1.00  0.00     0.064 A 
ATOM     69  C   UNL A   1      49.756  26.396  26.393  1.00  0.00     0.173 A 
ATOM     70  C   UNL A   1      50.009  26.338  28.782  1.00  0.00     0.173 A 
ATOM     71  F   UNL A   1      49.006  26.563  25.292  1.00  0.00    -0.203 F 
ATOM     72  C   UNL A   1      51.097  26.051  26.246  1.00  0.00     0.198 A 
ATOM     73  C   UNL A   1      51.356  26.019  28.631  1.00  0.00     0.198 A 
ATOM     74  F   UNL A   1      49.512  26.466  30.022  1.00  0.00    -0.203 F 
ATOM     75  F   UNL A   1      51.613  25.883  25.021  1.00  0.00    -0.200 F 
ATOM     76  C   UNL A   1      51.897  25.870  27.364  1.00  0.00     0.200 A 
ATOM     77  F   UNL A   1      52.131  25.857  29.713  1.00  0.00    -0.200 F 
ATOM     78  F   UNL A   1      53.190  25.546  27.220  1.00  0.00    -0.200 F 
ENDBRANCH  54  68
BRANCH  55  79
ATOM     79  C   UNL A   1      39.556  28.760  29.029  1.00  0.00     0.064 A 
ATOM     80  C   UNL A   1      38.946  28.622  30.283  1.00  0.00     0.173 A 
ATOM     81  C   UNL A   1      38.786  29.284  27.980  1.00  0.00     0.173 A 
ATOM     82  F   UNL A   1      39.637  28.109  31.311  1.00  0.00    -0.203 F 
ATOM     83  C   UNL A   1      37.623  29.009  30.482  1.00  0.00     0.198 A 
ATOM     84  C   UNL A   1      37.472  29.694  28.187  1.00  0.00     0.198 A 
ATOM     85  F   UNL A   1      39.330  29.441  26.764  1.00  0.00    -0.203 F 
ATOM     86  F   UNL A   1      37.058  28.857  31.688  1.00  0.00    -0.200 F 
ATOM     87  C   UNL A   1      36.891  29.556  29.439  1.00  0.00     0.200 A 
ATOM     88  F   UNL A   1      36.777  30.242  27.181  1.00  0.00    -0.200 F 
ATOM     89  F   UNL A   1      35.628  29.954  29.639  1.00  0.00    -0.200 F 
ENDBRANCH  55  79
BRANCH  67  90
ATOM     90  C   UNL A   1      45.478  32.425  29.507  1.00  0.00     0.064 A 
ATOM     91  C   UNL A   1      45.817  32.764  30.826  1.00  0.00     0.173 A 
ATOM     92  C   UNL A   1      45.487  33.443  28.542  1.00  0.00     0.173 A 
ATOM     93  F   UNL A   1      45.808  31.827  31.786  1.00  0.00    -0.203 F 
ATOM     94  C   UNL A   1      46.143  34.074  31.166  1.00  0.00     0.198 A 
ATOM     95  C   UNL A   1      45.838  34.747  28.881  1.00  0.00     0.198 A 
ATOM     96  F   UNL A   1      45.176  33.168  27.267  1.00  0.00    -0.203 F 
ATOM     97  F   UNL A   1      46.434  34.382  32.436  1.00  0.00    -0.200 F 
ATOM     98  C   UNL A   1      46.163  35.061  30.192  1.00  0.00     0.200 A 
ATOM     99  F   UNL A   1      45.869  35.698  27.936  1.00  0.00    -0.200 F 
ATOM    100  F   UNL A   1      46.490  36.319  30.519  1.00  0.00    -0.200 F 
ENDBRANCH  67  90
ENDBRANCH  41  42
ENDBRANCH  33  36
ENDBRANCH  31  32
ENDBRANCH  30  31
ENDBRANCH   1  30
TORSDOF 14
ENDMDL
MODEL 3
REMARK VINA RESULT:     -13.6      5.550     11.106
REMARK SMILES C[C@H]1Oc2ccccc2C=C1/C=C/C(=O)N[C@H](C(=O)NCCCNC(=O)c1ccc(-c2c3nc(c(-c4c(F)c(F)c(F)c(F)c4F)c4ccc([nH]4)c(-c4c(F)c(F)c(F)c(F)c4F)c4nc(c(-c5c(F)c(F)c(F)c(F)c5F)c5ccc2[nH]5)C=C4)C=C3)cc1)c1ccccc1
REMARK SMILES IDX 21 1 20 2 18 3 19 4 17 6 16 7 14 8 15 9 13 11 12 12 11 13
REMARK SMILES IDX 1 14 2 15 3 16 4 17 10 18 5 19 9 20 6 21 8 22 7 23 90 24
REMARK SMILES IDX 91 25 95 26 92 27 94 28 93 29 22 30 23 31 24 32 25 33 26 35
REMARK SMILES IDX 27 36 28 37 89 38 29 39 88 40 30 41 31 42 32 43 82 44 33 45
REMARK SMILES IDX 87 46 81 47 83 48 34 49 86 50 80 51 79 52 35 54 67 55 47 56
REMARK SMILES IDX 66 57 48 58 51 59 65 60 84 61 49 62 50 63 64 65 85 66 52 67
REMARK SMILES IDX 36 68 37 69 45 70 38 71 39 72 43 73 46 74 40 75 41 76 44 77
REMARK SMILES IDX 42 78 68 79 69 80 77 81 70 82 71 83 75 84 78 85 72 86 73 87
REMARK SMILES IDX 76 88 74 89 53 90 54 91 62 92 55 93 56 94 60 95 63 96 57 97
REMARK SMILES IDX 58 98 61 99 59 100
REMARK H PARENT 20 5 16 10 24 34 83 53 51 64
REMARK Flexibility Score: inf
ROOT
ATOM      1  C   UNL A   1      36.930  20.823  25.153  1.00  0.00     0.117 C 
ENDROOT
BRANCH   1   2
ATOM      2  N   UNL A   1      35.698  20.050  25.149  1.00  0.00    -0.354 N 
ATOM      3  C   UNL A   1      34.409  20.428  24.893  1.00  0.00     0.247 C 
ATOM      4  O   UNL A   1      33.569  19.529  25.018  1.00  0.00    -0.272 OA
ATOM      5  H   UNL A   1      35.810  19.096  25.367  1.00  0.00     0.163 HD
BRANCH   3   6
ATOM      6  C   UNL A   1      34.029  21.923  24.616  1.00  0.00     0.202 C 
BRANCH   6   7
ATOM      7  N   UNL A   1      33.963  22.231  23.185  1.00  0.00    -0.337 N 
ATOM      8  C   UNL A   1      33.748  23.354  22.467  1.00  0.00     0.244 C 
ATOM      9  O   UNL A   1      33.696  23.230  21.240  1.00  0.00    -0.270 OA
ATOM     10  H   UNL A   1      34.110  21.439  22.619  1.00  0.00     0.164 HD
BRANCH   8  11
ATOM     11  C   UNL A   1      33.596  24.722  23.025  1.00  0.00     0.071 C 
ATOM     12  C   UNL A   1      32.518  25.508  23.149  1.00  0.00     0.013 C 
BRANCH  12  13
ATOM     13  C   UNL A   1      32.428  26.780  23.864  1.00  0.00    -0.007 C 
ATOM     14  C   UNL A   1      29.923  26.807  24.346  1.00  0.00     0.058 C 
ATOM     15  C   UNL A   1      31.107  27.542  23.712  1.00  0.00     0.200 C 
ATOM     16  O   UNL A   1      31.086  28.888  24.226  1.00  0.00    -0.485 OA
ATOM     17  C   UNL A   1      31.978  29.190  25.214  1.00  0.00     0.127 A 
ATOM     18  C   UNL A   1      33.395  27.246  24.669  1.00  0.00     0.019 C 
ATOM     19  C   UNL A   1      31.702  30.325  25.976  1.00  0.00     0.047 A 
ATOM     20  C   UNL A   1      33.134  28.447  25.448  1.00  0.00     0.017 A 
ATOM     21  C   UNL A   1      32.581  30.717  26.985  1.00  0.00     0.004 A 
ATOM     22  C   UNL A   1      34.025  28.856  26.447  1.00  0.00     0.012 A 
ATOM     23  C   UNL A   1      33.745  29.987  27.216  1.00  0.00     0.001 A 
ENDBRANCH  12  13
ENDBRANCH   8  11
ENDBRANCH   6   7
BRANCH   6  24
ATOM     24  C   UNL A   1      32.865  22.494  25.436  1.00  0.00    -0.016 A 
ATOM     25  C   UNL A   1      31.583  21.917  25.350  1.00  0.00     0.006 A 
ATOM     26  C   UNL A   1      33.023  23.577  26.320  1.00  0.00     0.006 A 
ATOM     27  C   UNL A   1      30.495  22.457  26.042  1.00  0.00     0.000 A 
ATOM     28  C   UNL A   1      31.935  24.123  27.005  1.00  0.00     0.000 A 
ATOM     29  C   UNL A   1      30.668  23.571  26.856  1.00  0.00     0.000 A 
ENDBRANCH   6  24
ENDBRANCH   3   6
ENDBRANCH   1   2
BRANCH   1  30
ATOM     30  C   UNL A   1      38.146  19.959  24.855  1.00  0.00     0.042 C 
BRANCH  30  31
ATOM     31  C   UNL A   1      39.331  20.262  25.765  1.00  0.00     0.118 C 
BRANCH  31  32
ATOM     32  N   UNL A   1      40.281  19.162  25.865  1.00  0.00    -0.352 N 
ATOM     33  C   UNL A   1      41.638  19.161  26.114  1.00  0.00     0.251 C 
ATOM     34  H   UNL A   1      39.889  18.269  25.733  1.00  0.00     0.163 HD
ATOM     35  O   UNL A   1      42.276  18.123  26.031  1.00  0.00    -0.269 OA
BRANCH  33  36
ATOM     36  C   UNL A   1      42.339  20.430  26.429  1.00  0.00     0.039 A 
ATOM     37  C   UNL A   1      42.316  20.964  27.713  1.00  0.00     0.014 A 
ATOM     38  C   UNL A   1      43.009  21.109  25.407  1.00  0.00     0.014 A 
ATOM     39  C   UNL A   1      42.728  22.275  27.919  1.00  0.00     0.010 A 
ATOM     40  C   UNL A   1      43.541  22.381  25.648  1.00  0.00     0.010 A 
ATOM     41  C   UNL A   1      43.337  23.007  26.886  1.00  0.00    -0.014 A 
BRANCH  41  42
ATOM     42  C   UNL A   1      43.725  24.423  27.131  1.00  0.00     0.031 A 
ATOM     43  C   UNL A   1      42.715  25.431  27.614  1.00  0.00     0.074 A 
ATOM     44  C   UNL A   1      45.013  24.787  26.985  1.00  0.00     0.049 A 
ATOM     45  N   UNL A   1      42.889  26.696  27.911  1.00  0.00    -0.248 NA
ATOM     46  C   UNL A   1      41.329  24.968  27.777  1.00  0.00     0.031 C 
ATOM     47  C   UNL A   1      46.088  23.907  26.524  1.00  0.00     0.029 A 
ATOM     48  N   UNL A   1      45.646  25.977  27.243  1.00  0.00    -0.354 N 
ATOM     49  C   UNL A   1      41.635  27.183  28.258  1.00  0.00     0.074 A 
ATOM     50  C   UNL A   1      40.703  26.087  28.116  1.00  0.00     0.031 C 
ATOM     51  C   UNL A   1      47.254  24.562  26.597  1.00  0.00     0.029 A 
ATOM     52  C   UNL A   1      47.003  25.930  27.039  1.00  0.00     0.049 A 
ATOM     53  H   UNL A   1      45.174  26.787  27.544  1.00  0.00     0.167 HD
ATOM     54  C   UNL A   1      41.295  28.429  28.669  1.00  0.00     0.037 A 
ATOM     55  C   UNL A   1      47.946  26.881  27.177  1.00  0.00     0.037 A 
ATOM     56  C   UNL A   1      42.230  29.507  28.858  1.00  0.00     0.049 A 
ATOM     57  C   UNL A   1      47.544  28.254  27.627  1.00  0.00     0.074 A 
ATOM     58  C   UNL A   1      41.988  30.785  29.332  1.00  0.00     0.029 A 
ATOM     59  N   UNL A   1      43.587  29.434  28.583  1.00  0.00    -0.354 N 
ATOM     60  N   UNL A   1      46.358  28.695  27.966  1.00  0.00    -0.248 NA
ATOM     61  C   UNL A   1      48.607  29.266  27.699  1.00  0.00     0.031 C 
ATOM     62  C   UNL A   1      43.190  31.499  29.300  1.00  0.00     0.029 A 
ATOM     63  C   UNL A   1      44.190  30.654  28.848  1.00  0.00     0.049 A 
ATOM     64  H   UNL A   1      44.054  28.634  28.249  1.00  0.00     0.167 HD
ATOM     65  C   UNL A   1      46.526  30.034  28.285  1.00  0.00     0.074 A 
ATOM     66  C   UNL A   1      47.936  30.328  28.127  1.00  0.00     0.031 C 
ATOM     67  C   UNL A   1      45.592  30.939  28.667  1.00  0.00     0.037 A 
BRANCH  54  68
ATOM     68  C   UNL A   1      39.842  28.707  28.930  1.00  0.00     0.064 A 
ATOM     69  C   UNL A   1      39.270  28.530  30.198  1.00  0.00     0.173 A 
ATOM     70  C   UNL A   1      39.023  29.207  27.905  1.00  0.00     0.173 A 
ATOM     71  F   UNL A   1      40.006  28.044  31.209  1.00  0.00    -0.203 F 
ATOM     72  C   UNL A   1      37.926  28.821  30.425  1.00  0.00     0.198 A 
ATOM     73  C   UNL A   1      37.688  29.521  28.142  1.00  0.00     0.198 A 
ATOM     74  F   UNL A   1      39.523  29.402  26.675  1.00  0.00    -0.203 F 
ATOM     75  F   UNL A   1      37.391  28.605  31.634  1.00  0.00    -0.200 F 
ATOM     76  C   UNL A   1      37.139  29.323  29.399  1.00  0.00     0.200 A 
ATOM     77  F   UNL A   1      36.932  30.019  27.153  1.00  0.00    -0.200 F 
ATOM     78  F   UNL A   1      35.849  29.610  29.622  1.00  0.00    -0.200 F 
ENDBRANCH  54  68
BRANCH  55  79
ATOM     79  C   UNL A   1      49.359  26.542  26.879  1.00  0.00     0.064 A 
ATOM     80  C   UNL A   1      49.847  26.575  25.566  1.00  0.00     0.173 A 
ATOM     81  C   UNL A   1      50.268  26.256  27.909  1.00  0.00     0.173 A 
ATOM     82  F   UNL A   1      49.011  26.825  24.547  1.00  0.00    -0.203 F 
ATOM     83  C   UNL A   1      51.194  26.346  25.296  1.00  0.00     0.198 A 
ATOM     84  C   UNL A   1      51.619  26.053  27.640  1.00  0.00     0.198 A 
ATOM     85  F   UNL A   1      49.848  26.221  29.182  1.00  0.00    -0.203 F 
ATOM     86  F   UNL A   1      51.635  26.372  24.031  1.00  0.00    -0.200 F 
ATOM     87  C   UNL A   1      52.081  26.099  26.333  1.00  0.00     0.200 A 
ATOM     88  F   UNL A   1      52.475  25.836  28.648  1.00  0.00    -0.200 F 
ATOM     89  F   UNL A   1      53.382  25.908  26.076  1.00  0.00    -0.200 F 
ENDBRANCH  55  79
BRANCH  67  90
ATOM     90  C   UNL A   1      46.056  32.340  28.927  1.00  0.00     0.064 A 
ATOM     91  C   UNL A   1      46.523  32.727  30.192  1.00  0.00     0.173 A 
ATOM     92  C   UNL A   1      46.096  33.285  27.891  1.00  0.00     0.173 A 
ATOM     93  F   UNL A   1      46.490  31.862  31.217  1.00  0.00    -0.203 F 
ATOM     94  C   UNL A   1      47.004  34.015  30.413  1.00  0.00     0.198 A 
ATOM     95  C   UNL A   1      46.601  34.564  28.110  1.00  0.00     0.198 A 
ATOM     96  F   UNL A   1      45.666  32.961  26.663  1.00  0.00    -0.203 F 
ATOM     97  F   UNL A   1      47.417  34.373  31.635  1.00  0.00    -0.200 F 
ATOM     98  C   UNL A   1      47.051  34.928  29.370  1.00  0.00     0.200 A 
ATOM     99  F   UNL A   1      46.658  35.442  27.098  1.00  0.00    -0.200 F 
ATOM    100  F   UNL A   1      47.527  36.162  29.581  1.00  0.00    -0.200 F 
ENDBRANCH  67  90
ENDBRANCH  41  42
ENDBRANCH  33  36
ENDBRANCH  31  32
ENDBRANCH  30  31
ENDBRANCH   1  30
TORSDOF 14
ENDMDL
