MODEL 1
REMARK VINA RESULT:     -16.0      0.000      0.000
REMARK SMILES COc1ccc(/C=C2/C(=O)N(c3ccccc3)C(=O)[NH+]=C2NCCCNC(=O)c2ccc(-c3c4nc(c(-c5c(F)c(F)c(F)c(F)c5F)c5ccc([nH]5)c(-c5c(F)c(F)c(F)c(F)c5F)c5nc(c(-c6c(F)c(F)c(F)c(F)c6F)c6ccc3[nH]6)C=C5)C=C4)cc2)cc1C(=O)[O-]
REMARK SMILES IDX 24 1 23 2 22 3 7 4 8 5 9 6 21 7 10 8 11 9 20 10 18 11 19 14
REMARK SMILES IDX 6 15 3 16 4 17 93 18 5 19 92 20 2 21 1 22 94 23 95 24 96 25
REMARK SMILES IDX 12 26 13 27 17 28 14 29 16 30 15 31 25 32 26 33 27 34 28 36
REMARK SMILES IDX 29 37 30 38 91 39 31 40 90 41 32 42 33 43 34 44 84 45 35 46
REMARK SMILES IDX 89 47 83 48 85 49 36 50 88 51 82 52 81 53 37 55 69 56 49 57
REMARK SMILES IDX 68 58 50 59 53 60 67 61 86 62 51 63 52 64 66 66 87 67 54 68
REMARK SMILES IDX 38 69 39 70 47 71 40 72 41 73 45 74 48 75 42 76 43 77 46 78
REMARK SMILES IDX 44 79 70 80 71 81 79 82 72 83 73 84 77 85 80 86 74 87 75 88
REMARK SMILES IDX 78 89 76 90 55 91 56 92 64 93 57 94 58 95 62 96 65 97 59 98
REMARK SMILES IDX 60 99 63 100 61 101
REMARK H PARENT 20 12 22 13 26 35 85 54 53 65
REMARK Flexibility Score: inf
ROOT
ATOM      1  C   UNL A   1      32.247  29.404  25.614  1.00  0.00     0.059 C 
ENDROOT
BRANCH   1   2
ATOM      2  C   UNL A   1      32.344  27.371  24.808  1.00  0.00     0.195 C 
BRANCH   2   3
ATOM      3  N   UNL A   1      32.319  25.958  25.576  1.00  0.00    -0.305 N 
ATOM      4  C   UNL A   1      31.898  25.224  22.651  1.00  0.00     0.030 C 
ATOM      5  C   UNL A   1      32.341  24.373  23.592  1.00  0.00     0.129 C 
ATOM      6  C   UNL A   1      32.871  23.029  23.278  1.00  0.00     0.328 C 
ATOM      7  C   UNL A   1      32.239  24.689  25.044  1.00  0.00     0.236 C 
ATOM      8  O   UNL A   1      33.430  22.806  22.208  1.00  0.00    -0.249 OA
ATOM      9  N   UNL A   1      32.612  22.119  24.289  1.00  0.00    -0.155 N 
ATOM     10  N   UNL A   1      31.981  23.725  25.880  1.00  0.00    -0.209 N 
ATOM     11  C   UNL A   1      31.802  22.460  25.367  1.00  0.00     0.448 C 
ATOM     12  H   UNL A   1      31.916  23.896  26.848  1.00  0.00     0.270 HD
ATOM     13  H   UNL A   1      32.368  26.006  26.558  1.00  0.00     0.256 HD
ATOM     14  O   UNL A   1      30.960  21.705  25.845  1.00  0.00    -0.212 OA
BRANCH   4  15
ATOM     15  C   UNL A   1      31.433  26.534  23.114  1.00  0.00    -0.024 A 
ATOM     16  C   UNL A   1      29.515  29.542  22.555  1.00  0.00     0.127 A 
ATOM     17  C   UNL A   1      31.260  29.473  22.060  1.00  0.00     0.048 A 
ATOM     18  C   UNL A   1      28.729  28.090  23.256  1.00  0.00     0.040 A 
ATOM     19  C   UNL A   1      32.257  28.011  22.460  1.00  0.00     0.012 A 
ATOM     20  C   UNL A   1      29.697  26.614  23.589  1.00  0.00     0.022 A 
BRANCH  16  21
ATOM     21  O   UNL A   1      28.870  30.727  22.351  1.00  0.00    -0.496 OA
ATOM     22  C   UNL A   1      28.235  30.765  21.068  1.00  0.00     0.278 C 
ENDBRANCH  16  21
BRANCH  18  23
ATOM     23  C   UNL A   1      27.313  28.031  23.597  1.00  0.00     0.075 C 
ATOM     24  O   UNL A   1      26.467  28.828  23.255  1.00  0.00    -0.545 OA
ATOM     25  O   UNL A   1      27.041  26.871  24.211  1.00  0.00    -0.545 OA
ENDBRANCH  18  23
ENDBRANCH   4  15
BRANCH   9  26
ATOM     26  C   UNL A   1      32.992  20.771  24.120  1.00  0.00     0.111 A 
ATOM     27  C   UNL A   1      32.238  19.890  23.341  1.00  0.00     0.044 A 
ATOM     28  C   UNL A   1      34.114  20.308  24.817  1.00  0.00     0.044 A 
ATOM     29  C   UNL A   1      32.619  18.550  23.248  1.00  0.00     0.004 A 
ATOM     30  C   UNL A   1      34.475  18.964  24.743  1.00  0.00     0.004 A 
ATOM     31  C   UNL A   1      33.730  18.088  23.955  1.00  0.00     0.000 A 
ENDBRANCH   9  26
ENDBRANCH   2   3
ENDBRANCH   1   2
BRANCH   1  32
ATOM     32  C   UNL A   1      32.747  30.173  27.116  1.00  0.00     0.119 C 
BRANCH  32  33
ATOM     33  N   UNL A   1      32.861  31.638  27.219  1.00  0.00    -0.352 N 
ATOM     34  C   UNL A   1      33.845  32.456  27.673  1.00  0.00     0.251 C 
ATOM     35  H   UNL A   1      32.066  32.119  26.894  1.00  0.00     0.163 HD
ATOM     36  O   UNL A   1      33.702  33.674  27.645  1.00  0.00    -0.269 OA
BRANCH  34  37
ATOM     37  C   UNL A   1      35.036  31.877  28.272  1.00  0.00     0.039 A 
ATOM     38  C   UNL A   1      34.951  30.555  28.714  1.00  0.00     0.014 A 
ATOM     39  C   UNL A   1      36.211  32.623  28.381  1.00  0.00     0.014 A 
ATOM     40  C   UNL A   1      36.070  29.958  29.260  1.00  0.00     0.010 A 
ATOM     41  C   UNL A   1      37.345  32.008  28.868  1.00  0.00     0.010 A 
ATOM     42  C   UNL A   1      37.264  30.687  29.333  1.00  0.00    -0.014 A 
BRANCH  42  43
ATOM     43  C   UNL A   1      38.421  30.125  30.034  1.00  0.00     0.031 A 
ATOM     44  C   UNL A   1      38.665  30.569  31.441  1.00  0.00     0.074 A 
ATOM     45  C   UNL A   1      39.226  29.275  29.381  1.00  0.00     0.049 A 
ATOM     46  N   UNL A   1      39.659  30.287  32.236  1.00  0.00    -0.248 NA
ATOM     47  C   UNL A   1      37.668  31.487  32.023  1.00  0.00     0.031 C 
ATOM     48  C   UNL A   1      39.039  28.825  28.001  1.00  0.00     0.029 A 
ATOM     49  N   UNL A   1      40.366  28.646  29.790  1.00  0.00    -0.354 N 
ATOM     50  C   UNL A   1      39.416  31.005  33.398  1.00  0.00     0.074 A 
ATOM     51  C   UNL A   1      38.214  31.777  33.191  1.00  0.00     0.031 C 
ATOM     52  C   UNL A   1      40.032  27.981  27.678  1.00  0.00     0.029 A 
ATOM     53  C   UNL A   1      40.930  27.856  28.820  1.00  0.00     0.049 A 
ATOM     54  H   UNL A   1      40.747  28.748  30.692  1.00  0.00     0.167 HD
ATOM     55  C   UNL A   1      40.134  30.992  34.544  1.00  0.00     0.037 A 
ATOM     56  C   UNL A   1      42.055  27.121  28.872  1.00  0.00     0.037 A 
ATOM     57  C   UNL A   1      41.314  30.191  34.713  1.00  0.00     0.049 A 
ATOM     58  C   UNL A   1      42.823  27.111  30.166  1.00  0.00     0.074 A 
ATOM     59  C   UNL A   1      42.128  30.065  35.821  1.00  0.00     0.029 A 
ATOM     60  N   UNL A   1      41.840  29.365  33.726  1.00  0.00    -0.354 N 
ATOM     61  N   UNL A   1      42.576  27.763  31.279  1.00  0.00    -0.248 NA
ATOM     62  C   UNL A   1      44.013  26.254  30.220  1.00  0.00     0.031 C 
ATOM     63  C   UNL A   1      43.165  29.183  35.494  1.00  0.00     0.029 A 
ATOM     64  C   UNL A   1      42.972  28.726  34.197  1.00  0.00     0.049 A 
ATOM     65  H   UNL A   1      41.462  29.251  32.824  1.00  0.00     0.167 HD
ATOM     66  C   UNL A   1      43.560  27.378  32.175  1.00  0.00     0.074 A 
ATOM     67  C   UNL A   1      44.400  26.423  31.477  1.00  0.00     0.031 C 
ATOM     68  C   UNL A   1      43.762  27.773  33.458  1.00  0.00     0.037 A 
BRANCH  55  69
ATOM     69  C   UNL A   1      39.658  31.869  35.664  1.00  0.00     0.064 A 
ATOM     70  C   UNL A   1      38.669  31.443  36.565  1.00  0.00     0.173 A 
ATOM     71  C   UNL A   1      40.174  33.163  35.825  1.00  0.00     0.173 A 
ATOM     72  F   UNL A   1      38.122  30.223  36.439  1.00  0.00    -0.203 F 
ATOM     73  C   UNL A   1      38.191  32.289  37.562  1.00  0.00     0.198 A 
ATOM     74  C   UNL A   1      39.717  33.996  36.843  1.00  0.00     0.198 A 
ATOM     75  F   UNL A   1      41.115  33.625  34.988  1.00  0.00    -0.203 F 
ATOM     76  F   UNL A   1      37.203  31.880  38.369  1.00  0.00    -0.200 F 
ATOM     77  C   UNL A   1      38.719  33.563  37.704  1.00  0.00     0.200 A 
ATOM     78  F   UNL A   1      40.230  35.226  36.982  1.00  0.00    -0.200 F 
ATOM     79  F   UNL A   1      38.257  34.379  38.661  1.00  0.00    -0.200 F 
ENDBRANCH  55  69
BRANCH  56  80
ATOM     80  C   UNL A   1      42.476  26.321  27.695  1.00  0.00     0.064 A 
ATOM     81  C   UNL A   1      43.435  26.811  26.798  1.00  0.00     0.173 A 
ATOM     82  C   UNL A   1      41.956  25.041  27.455  1.00  0.00     0.173 A 
ATOM     83  F   UNL A   1      43.959  28.033  26.981  1.00  0.00    -0.203 F 
ATOM     84  C   UNL A   1      43.843  26.061  25.697  1.00  0.00     0.198 A 
ATOM     85  C   UNL A   1      42.383  24.281  26.368  1.00  0.00     0.198 A 
ATOM     86  F   UNL A   1      41.048  24.517  28.291  1.00  0.00    -0.203 F 
ATOM     87  F   UNL A   1      44.737  26.570  24.838  1.00  0.00    -0.200 F 
ATOM     88  C   UNL A   1      43.322  24.795  25.486  1.00  0.00     0.200 A 
ATOM     89  F   UNL A   1      41.890  23.049  26.179  1.00  0.00    -0.200 F 
ATOM     90  F   UNL A   1      43.721  24.071  24.431  1.00  0.00    -0.200 F 
ENDBRANCH  56  80
BRANCH  68  91
ATOM     91  C   UNL A   1      44.910  27.142  34.182  1.00  0.00     0.064 A 
ATOM     92  C   UNL A   1      46.178  27.737  34.200  1.00  0.00     0.173 A 
ATOM     93  C   UNL A   1      44.720  25.956  34.905  1.00  0.00     0.173 A 
ATOM     94  F   UNL A   1      46.405  28.864  33.510  1.00  0.00    -0.203 F 
ATOM     95  C   UNL A   1      47.226  27.152  34.903  1.00  0.00     0.198 A 
ATOM     96  C   UNL A   1      45.763  25.390  35.629  1.00  0.00     0.198 A 
ATOM     97  F   UNL A   1      43.520  25.357  34.920  1.00  0.00    -0.203 F 
ATOM     98  F   UNL A   1      48.443  27.713  34.874  1.00  0.00    -0.200 F 
ATOM     99  C   UNL A   1      47.016  25.984  35.621  1.00  0.00     0.200 A 
ATOM    100  F   UNL A   1      45.555  24.269  36.333  1.00  0.00    -0.200 F 
ATOM    101  F   UNL A   1      48.025  25.427  36.304  1.00  0.00    -0.200 F 
ENDBRANCH  68  91
ENDBRANCH  42  43
ENDBRANCH  34  37
ENDBRANCH  32  33
ENDBRANCH   1  32
TORSDOF 13
ENDMDL
MODEL 2
REMARK VINA RESULT:     -15.8      4.179     10.113
REMARK SMILES COc1ccc(/C=C2/C(=O)N(c3ccccc3)C(=O)[NH+]=C2NCCCNC(=O)c2ccc(-c3c4nc(c(-c5c(F)c(F)c(F)c(F)c5F)c5ccc([nH]5)c(-c5c(F)c(F)c(F)c(F)c5F)c5nc(c(-c6c(F)c(F)c(F)c(F)c6F)c6ccc3[nH]6)C=C5)C=C4)cc2)cc1C(=O)[O-]
REMARK SMILES IDX 24 1 23 2 22 3 7 4 8 5 9 6 21 7 10 8 11 9 20 10 18 11 19 14
REMARK SMILES IDX 6 15 3 16 4 17 93 18 5 19 92 20 2 21 1 22 94 23 95 24 96 25
REMARK SMILES IDX 12 26 13 27 17 28 14 29 16 30 15 31 25 32 26 33 27 34 28 36
REMARK SMILES IDX 29 37 30 38 91 39 31 40 90 41 32 42 33 43 34 44 84 45 35 46
REMARK SMILES IDX 89 47 83 48 85 49 36 50 88 51 82 52 81 53 37 55 69 56 49 57
REMARK SMILES IDX 68 58 50 59 53 60 67 61 86 62 51 63 52 64 66 66 87 67 54 68
REMARK SMILES IDX 38 69 39 70 47 71 40 72 41 73 45 74 48 75 42 76 43 77 46 78
REMARK SMILES IDX 44 79 70 80 71 81 79 82 72 83 73 84 77 85 80 86 74 87 75 88
REMARK SMILES IDX 78 89 76 90 55 91 56 92 64 93 57 94 58 95 62 96 65 97 59 98
REMARK SMILES IDX 60 99 63 100 61 101
REMARK H PARENT 20 12 22 13 26 35 85 54 53 65
REMARK Flexibility Score: inf
ROOT
ATOM      1  C   UNL A   1      36.000  21.905  24.944  1.00  0.00     0.059 C 
ENDROOT
BRANCH   1   2
ATOM      2  C   UNL A   1      34.239  23.205  24.911  1.00  0.00     0.195 C 
BRANCH   2   3
ATOM      3  N   UNL A   1      33.897  24.448  23.950  1.00  0.00    -0.305 N 
ATOM      4  C   UNL A   1      31.200  23.636  25.108  1.00  0.00     0.030 C 
ATOM      5  C   UNL A   1      31.470  24.844  24.583  1.00  0.00     0.129 C 
ATOM      6  C   UNL A   1      30.545  25.992  24.688  1.00  0.00     0.328 C 
ATOM      7  C   UNL A   1      32.689  25.087  23.763  1.00  0.00     0.236 C 
ATOM      8  O   UNL A   1      29.788  26.107  25.647  1.00  0.00    -0.249 OA
ATOM      9  N   UNL A   1      30.628  26.830  23.587  1.00  0.00    -0.155 N 
ATOM     10  N   UNL A   1      32.614  25.898  22.749  1.00  0.00    -0.209 N 
ATOM     11  C   UNL A   1      31.395  26.479  22.480  1.00  0.00     0.448 C 
ATOM     12  H   UNL A   1      33.403  26.090  22.191  1.00  0.00     0.270 HD
ATOM     13  H   UNL A   1      34.651  24.801  23.425  1.00  0.00     0.256 HD
ATOM     14  O   UNL A   1      31.027  26.653  21.322  1.00  0.00    -0.212 OA
BRANCH   4  15
ATOM     15  C   UNL A   1      32.229  22.605  24.951  1.00  0.00    -0.024 A 
ATOM     16  C   UNL A   1      33.187  19.124  24.957  1.00  0.00     0.127 A 
ATOM     17  C   UNL A   1      33.296  20.098  26.485  1.00  0.00     0.048 A 
ATOM     18  C   UNL A   1      32.534  19.876  23.465  1.00  0.00     0.040 A 
ATOM     19  C   UNL A   1      32.941  21.877  26.451  1.00  0.00     0.012 A 
ATOM     20  C   UNL A   1      32.115  21.622  23.446  1.00  0.00     0.022 A 
BRANCH  16  21
ATOM     21  O   UNL A   1      33.606  17.827  25.029  1.00  0.00    -0.496 OA
ATOM     22  C   UNL A   1      32.560  16.960  25.478  1.00  0.00     0.278 C 
ENDBRANCH  16  21
BRANCH  18  23
ATOM     23  C   UNL A   1      32.329  19.143  22.222  1.00  0.00     0.075 C 
ATOM     24  O   UNL A   1      32.422  17.943  22.081  1.00  0.00    -0.545 OA
ATOM     25  O   UNL A   1      31.856  19.970  21.278  1.00  0.00    -0.545 OA
ENDBRANCH  18  23
ENDBRANCH   4  15
BRANCH   9  26
ATOM     26  C   UNL A   1      29.764  27.941  23.496  1.00  0.00     0.111 A 
ATOM     27  C   UNL A   1      28.415  27.793  23.167  1.00  0.00     0.044 A 
ATOM     28  C   UNL A   1      30.309  29.218  23.672  1.00  0.00     0.044 A 
ATOM     29  C   UNL A   1      27.609  28.924  23.030  1.00  0.00     0.004 A 
ATOM     30  C   UNL A   1      29.507  30.345  23.507  1.00  0.00     0.004 A 
ATOM     31  C   UNL A   1      28.157  30.198  23.193  1.00  0.00     0.000 A 
ENDBRANCH   9  26
ENDBRANCH   2   3
ENDBRANCH   1   2
BRANCH   1  32
ATOM     32  C   UNL A   1      37.736  22.163  25.080  1.00  0.00     0.119 C 
BRANCH  32  33
ATOM     33  N   UNL A   1      38.604  21.167  25.730  1.00  0.00    -0.352 N 
ATOM     34  C   UNL A   1      39.653  21.277  26.585  1.00  0.00     0.251 C 
ATOM     35  H   UNL A   1      38.379  20.237  25.499  1.00  0.00     0.163 HD
ATOM     36  O   UNL A   1      40.220  20.274  27.006  1.00  0.00    -0.269 OA
BRANCH  34  37
ATOM     37  C   UNL A   1      40.153  22.597  26.936  1.00  0.00     0.039 A 
ATOM     38  C   UNL A   1      39.583  23.690  26.282  1.00  0.00     0.014 A 
ATOM     39  C   UNL A   1      41.155  22.744  27.896  1.00  0.00     0.014 A 
ATOM     40  C   UNL A   1      40.010  24.963  26.609  1.00  0.00     0.010 A 
ATOM     41  C   UNL A   1      41.537  24.017  28.268  1.00  0.00     0.010 A 
ATOM     42  C   UNL A   1      40.984  25.120  27.602  1.00  0.00    -0.014 A 
BRANCH  42  43
ATOM     43  C   UNL A   1      41.550  26.446  27.865  1.00  0.00     0.031 A 
ATOM     44  C   UNL A   1      42.930  26.725  27.359  1.00  0.00     0.074 A 
ATOM     45  C   UNL A   1      40.833  27.331  28.573  1.00  0.00     0.049 A 
ATOM     46  N   UNL A   1      43.677  27.778  27.536  1.00  0.00    -0.248 NA
ATOM     47  C   UNL A   1      43.570  25.655  26.573  1.00  0.00     0.031 C 
ATOM     48  C   UNL A   1      39.489  27.097  29.104  1.00  0.00     0.029 A 
ATOM     49  N   UNL A   1      41.140  28.598  28.974  1.00  0.00    -0.354 N 
ATOM     50  C   UNL A   1      44.877  27.489  26.902  1.00  0.00     0.074 A 
ATOM     51  C   UNL A   1      44.783  26.146  26.383  1.00  0.00     0.031 C 
ATOM     52  C   UNL A   1      39.081  28.196  29.758  1.00  0.00     0.029 A 
ATOM     53  C   UNL A   1      40.145  29.192  29.710  1.00  0.00     0.049 A 
ATOM     54  H   UNL A   1      41.990  29.044  28.757  1.00  0.00     0.167 HD
ATOM     55  C   UNL A   1      45.950  28.298  26.755  1.00  0.00     0.037 A 
ATOM     56  C   UNL A   1      40.121  30.411  30.276  1.00  0.00     0.037 A 
ATOM     57  C   UNL A   1      45.992  29.637  27.271  1.00  0.00     0.049 A 
ATOM     58  C   UNL A   1      41.322  31.296  30.078  1.00  0.00     0.074 A 
ATOM     59  C   UNL A   1      47.002  30.574  27.181  1.00  0.00     0.029 A 
ATOM     60  N   UNL A   1      44.950  30.230  27.977  1.00  0.00    -0.354 N 
ATOM     61  N   UNL A   1      42.445  31.037  29.450  1.00  0.00    -0.248 NA
ATOM     62  C   UNL A   1      41.249  32.644  30.653  1.00  0.00     0.031 C 
ATOM     63  C   UNL A   1      46.583  31.725  27.858  1.00  0.00     0.029 A 
ATOM     64  C   UNL A   1      45.294  31.521  28.332  1.00  0.00     0.049 A 
ATOM     65  H   UNL A   1      44.094  29.795  28.193  1.00  0.00     0.167 HD
ATOM     66  C   UNL A   1      43.204  32.195  29.526  1.00  0.00     0.074 A 
ATOM     67  C   UNL A   1      42.403  33.162  30.253  1.00  0.00     0.031 C 
ATOM     68  C   UNL A   1      44.448  32.444  29.047  1.00  0.00     0.037 A 
BRANCH  55  69
ATOM     69  C   UNL A   1      47.136  27.740  26.024  1.00  0.00     0.064 A 
ATOM     70  C   UNL A   1      48.239  27.205  26.707  1.00  0.00     0.173 A 
ATOM     71  C   UNL A   1      47.184  27.764  24.623  1.00  0.00     0.173 A 
ATOM     72  F   UNL A   1      48.255  27.183  28.050  1.00  0.00    -0.203 F 
ATOM     73  C   UNL A   1      49.360  26.748  26.018  1.00  0.00     0.198 A 
ATOM     74  C   UNL A   1      48.293  27.277  23.935  1.00  0.00     0.198 A 
ATOM     75  F   UNL A   1      46.161  28.271  23.919  1.00  0.00    -0.203 F 
ATOM     76  F   UNL A   1      50.426  26.301  26.697  1.00  0.00    -0.200 F 
ATOM     77  C   UNL A   1      49.383  26.779  24.633  1.00  0.00     0.200 A 
ATOM     78  F   UNL A   1      48.313  27.304  22.596  1.00  0.00    -0.200 F 
ATOM     79  F   UNL A   1      50.463  26.342  23.970  1.00  0.00    -0.200 F 
ENDBRANCH  55  69
BRANCH  56  80
ATOM     80  C   UNL A   1      38.921  30.860  31.024  1.00  0.00     0.064 A 
ATOM     81  C   UNL A   1      37.820  31.412  30.353  1.00  0.00     0.173 A 
ATOM     82  C   UNL A   1      38.829  30.722  32.416  1.00  0.00     0.173 A 
ATOM     83  F   UNL A   1      37.861  31.570  29.021  1.00  0.00    -0.203 F 
ATOM     84  C   UNL A   1      36.685  31.825  31.047  1.00  0.00     0.198 A 
ATOM     85  C   UNL A   1      37.684  31.113  33.107  1.00  0.00     0.198 A 
ATOM     86  F   UNL A   1      39.847  30.185  33.106  1.00  0.00    -0.203 F 
ATOM     87  F   UNL A   1      35.662  32.381  30.382  1.00  0.00    -0.200 F 
ATOM     88  C   UNL A   1      36.615  31.670  32.422  1.00  0.00     0.200 A 
ATOM     89  F   UNL A   1      37.613  30.942  34.434  1.00  0.00    -0.200 F 
ATOM     90  F   UNL A   1      35.520  32.061  33.088  1.00  0.00    -0.200 F 
ENDBRANCH  56  80
BRANCH  68  91
ATOM     91  C   UNL A   1      44.988  33.823  29.268  1.00  0.00     0.064 A 
ATOM     92  C   UNL A   1      45.757  34.134  30.396  1.00  0.00     0.173 A 
ATOM     93  C   UNL A   1      44.773  34.825  28.310  1.00  0.00     0.173 A 
ATOM     94  F   UNL A   1      45.974  33.209  31.342  1.00  0.00    -0.203 F 
ATOM     95  C   UNL A   1      46.276  35.413  30.571  1.00  0.00     0.198 A 
ATOM     96  C   UNL A   1      45.318  36.093  28.474  1.00  0.00     0.198 A 
ATOM     97  F   UNL A   1      44.049  34.567  27.211  1.00  0.00    -0.203 F 
ATOM     98  F   UNL A   1      46.973  35.705  31.677  1.00  0.00    -0.200 F 
ATOM     99  C   UNL A   1      46.062  36.388  29.607  1.00  0.00     0.200 A 
ATOM    100  F   UNL A   1      45.122  37.031  27.537  1.00  0.00    -0.200 F 
ATOM    101  F   UNL A   1      46.570  37.617  29.773  1.00  0.00    -0.200 F 
ENDBRANCH  68  91
ENDBRANCH  42  43
ENDBRANCH  34  37
ENDBRANCH  32  33
ENDBRANCH   1  32
TORSDOF 13
ENDMDL
MODEL 3
REMARK VINA RESULT:     -15.3      4.275      8.045
REMARK SMILES COc1ccc(/C=C2/C(=O)N(c3ccccc3)C(=O)[NH+]=C2NCCCNC(=O)c2ccc(-c3c4nc(c(-c5c(F)c(F)c(F)c(F)c5F)c5ccc([nH]5)c(-c5c(F)c(F)c(F)c(F)c5F)c5nc(c(-c6c(F)c(F)c(F)c(F)c6F)c6ccc3[nH]6)C=C5)C=C4)cc2)cc1C(=O)[O-]
REMARK SMILES IDX 24 1 23 2 22 3 7 4 8 5 9 6 21 7 10 8 11 9 20 10 18 11 19 14
REMARK SMILES IDX 6 15 3 16 4 17 93 18 5 19 92 20 2 21 1 22 94 23 95 24 96 25
REMARK SMILES IDX 12 26 13 27 17 28 14 29 16 30 15 31 25 32 26 33 27 34 28 36
REMARK SMILES IDX 29 37 30 38 91 39 31 40 90 41 32 42 33 43 34 44 84 45 35 46
REMARK SMILES IDX 89 47 83 48 85 49 36 50 88 51 82 52 81 53 37 55 69 56 49 57
REMARK SMILES IDX 68 58 50 59 53 60 67 61 86 62 51 63 52 64 66 66 87 67 54 68
REMARK SMILES IDX 38 69 39 70 47 71 40 72 41 73 45 74 48 75 42 76 43 77 46 78
REMARK SMILES IDX 44 79 70 80 71 81 79 82 72 83 73 84 77 85 80 86 74 87 75 88
REMARK SMILES IDX 78 89 76 90 55 91 56 92 64 93 57 94 58 95 62 96 65 97 59 98
REMARK SMILES IDX 60 99 63 100 61 101
REMARK H PARENT 20 12 22 13 26 35 85 54 53 65
REMARK Flexibility Score: inf
ROOT
ATOM      1  C   UNL A   1      36.102  22.386  25.890  1.00  0.00     0.059 C 
ENDROOT
BRANCH   1   2
ATOM      2  C   UNL A   1      34.229  23.049  24.970  1.00  0.00     0.195 C 
BRANCH   2   3
ATOM      3  N   UNL A   1      33.938  24.324  24.035  1.00  0.00    -0.305 N 
ATOM      4  C   UNL A   1      31.188  23.503  25.051  1.00  0.00     0.030 C 
ATOM      5  C   UNL A   1      31.489  24.723  24.576  1.00  0.00     0.129 C 
ATOM      6  C   UNL A   1      30.570  25.876  24.677  1.00  0.00     0.328 C 
ATOM      7  C   UNL A   1      32.745  24.980  23.816  1.00  0.00     0.236 C 
ATOM      8  O   UNL A   1      29.774  25.969  25.607  1.00  0.00    -0.249 OA
ATOM      9  N   UNL A   1      30.707  26.746  23.607  1.00  0.00    -0.155 N 
ATOM     10  N   UNL A   1      32.719  25.822  22.825  1.00  0.00    -0.209 N 
ATOM     11  C   UNL A   1      31.518  26.423  22.524  1.00  0.00     0.448 C 
ATOM     12  H   UNL A   1      33.532  26.024  22.308  1.00  0.00     0.270 HD
ATOM     13  H   UNL A   1      34.717  24.686  23.553  1.00  0.00     0.256 HD
ATOM     14  O   UNL A   1      31.201  26.635  21.356  1.00  0.00    -0.212 OA
BRANCH   4  15
ATOM     15  C   UNL A   1      32.214  22.468  24.906  1.00  0.00    -0.024 A 
ATOM     16  C   UNL A   1      33.162  18.983  24.947  1.00  0.00     0.127 A 
ATOM     17  C   UNL A   1      33.270  19.971  26.466  1.00  0.00     0.048 A 
ATOM     18  C   UNL A   1      32.516  19.724  23.446  1.00  0.00     0.040 A 
ATOM     19  C   UNL A   1      32.920  21.751  26.415  1.00  0.00     0.012 A 
ATOM     20  C   UNL A   1      32.101  21.471  23.410  1.00  0.00     0.022 A 
BRANCH  16  21
ATOM     21  O   UNL A   1      33.578  17.687  25.031  1.00  0.00    -0.496 OA
ATOM     22  C   UNL A   1      32.529  16.827  25.488  1.00  0.00     0.278 C 
ENDBRANCH  16  21
BRANCH  18  23
ATOM     23  C   UNL A   1      32.311  18.980  22.209  1.00  0.00     0.075 C 
ATOM     24  O   UNL A   1      32.293  17.773  22.101  1.00  0.00    -0.545 OA
ATOM     25  O   UNL A   1      31.980  19.823  21.220  1.00  0.00    -0.545 OA
ENDBRANCH  18  23
ENDBRANCH   4  15
BRANCH   9  26
ATOM     26  C   UNL A   1      29.857  27.868  23.514  1.00  0.00     0.111 A 
ATOM     27  C   UNL A   1      28.515  27.739  23.146  1.00  0.00     0.044 A 
ATOM     28  C   UNL A   1      30.409  29.136  23.728  1.00  0.00     0.044 A 
ATOM     29  C   UNL A   1      27.724  28.881  23.010  1.00  0.00     0.004 A 
ATOM     30  C   UNL A   1      29.623  30.274  23.563  1.00  0.00     0.004 A 
ATOM     31  C   UNL A   1      28.280  30.146  23.210  1.00  0.00     0.000 A 
ENDBRANCH   9  26
ENDBRANCH   2   3
ENDBRANCH   1   2
BRANCH   1  32
ATOM     32  C   UNL A   1      37.758  22.179  25.332  1.00  0.00     0.119 C 
BRANCH  32  33
ATOM     33  N   UNL A   1      38.626  21.131  25.898  1.00  0.00    -0.352 N 
ATOM     34  C   UNL A   1      39.752  21.177  26.654  1.00  0.00     0.251 C 
ATOM     35  H   UNL A   1      38.329  20.217  25.685  1.00  0.00     0.163 HD
ATOM     36  O   UNL A   1      40.299  20.140  27.017  1.00  0.00    -0.269 OA
BRANCH  34  37
ATOM     37  C   UNL A   1      40.355  22.464  26.961  1.00  0.00     0.039 A 
ATOM     38  C   UNL A   1      39.909  23.568  26.232  1.00  0.00     0.014 A 
ATOM     39  C   UNL A   1      41.330  22.572  27.954  1.00  0.00     0.014 A 
ATOM     40  C   UNL A   1      40.435  24.813  26.515  1.00  0.00     0.010 A 
ATOM     41  C   UNL A   1      41.809  23.824  28.280  1.00  0.00     0.010 A 
ATOM     42  C   UNL A   1      41.382  24.936  27.539  1.00  0.00    -0.014 A 
BRANCH  42  43
ATOM     43  C   UNL A   1      42.054  26.219  27.761  1.00  0.00     0.031 A 
ATOM     44  C   UNL A   1      41.318  27.264  28.538  1.00  0.00     0.074 A 
ATOM     45  C   UNL A   1      43.271  26.416  27.232  1.00  0.00     0.049 A 
ATOM     46  N   UNL A   1      41.658  28.497  28.792  1.00  0.00    -0.248 NA
ATOM     47  C   UNL A   1      40.001  26.877  29.076  1.00  0.00     0.031 C 
ATOM     48  C   UNL A   1      44.021  25.431  26.451  1.00  0.00     0.029 A 
ATOM     49  N   UNL A   1      44.083  27.512  27.266  1.00  0.00    -0.354 N 
ATOM     50  C   UNL A   1      40.592  29.034  29.498  1.00  0.00     0.074 A 
ATOM     51  C   UNL A   1      39.572  28.018  29.588  1.00  0.00     0.031 C 
ATOM     52  C   UNL A   1      45.195  25.969  26.084  1.00  0.00     0.029 A 
ATOM     53  C   UNL A   1      45.261  27.338  26.584  1.00  0.00     0.049 A 
ATOM     54  H   UNL A   1      43.848  28.345  27.734  1.00  0.00     0.167 HD
ATOM     55  C   UNL A   1      40.497  30.270  30.039  1.00  0.00     0.037 A 
ATOM     56  C   UNL A   1      46.268  28.207  26.394  1.00  0.00     0.037 A 
ATOM     57  C   UNL A   1      41.548  31.244  29.943  1.00  0.00     0.049 A 
ATOM     58  C   UNL A   1      46.144  29.567  27.026  1.00  0.00     0.074 A 
ATOM     59  C   UNL A   1      41.597  32.524  30.457  1.00  0.00     0.029 A 
ATOM     60  N   UNL A   1      42.752  31.025  29.281  1.00  0.00    -0.354 N 
ATOM     61  N   UNL A   1      45.150  30.067  27.724  1.00  0.00    -0.248 NA
ATOM     62  C   UNL A   1      47.281  30.479  26.858  1.00  0.00     0.031 C 
ATOM     63  C   UNL A   1      42.821  33.091  30.081  1.00  0.00     0.029 A 
ATOM     64  C   UNL A   1      43.551  32.149  29.370  1.00  0.00     0.049 A 
ATOM     65  H   UNL A   1      42.998  30.193  28.816  1.00  0.00     0.167 HD
ATOM     66  C   UNL A   1      45.549  31.339  28.104  1.00  0.00     0.074 A 
ATOM     67  C   UNL A   1      46.884  31.527  27.568  1.00  0.00     0.031 C 
ATOM     68  C   UNL A   1      44.881  32.273  28.826  1.00  0.00     0.037 A 
BRANCH  55  69
ATOM     69  C   UNL A   1      39.225  30.610  30.759  1.00  0.00     0.064 A 
ATOM     70  C   UNL A   1      39.084  30.412  32.141  1.00  0.00     0.173 A 
ATOM     71  C   UNL A   1      38.122  31.115  30.055  1.00  0.00     0.173 A 
ATOM     72  F   UNL A   1      40.100  29.905  32.857  1.00  0.00    -0.203 F 
ATOM     73  C   UNL A   1      37.878  30.673  32.786  1.00  0.00     0.198 A 
ATOM     74  C   UNL A   1      36.926  31.405  30.708  1.00  0.00     0.198 A 
ATOM     75  F   UNL A   1      38.199  31.316  28.731  1.00  0.00    -0.203 F 
ATOM     76  F   UNL A   1      37.749  30.415  34.095  1.00  0.00    -0.200 F 
ATOM     77  C   UNL A   1      36.802  31.174  32.070  1.00  0.00     0.200 A 
ATOM     78  F   UNL A   1      35.889  31.894  30.016  1.00  0.00    -0.200 F 
ATOM     79  F   UNL A   1      35.640  31.422  32.690  1.00  0.00    -0.200 F 
ENDBRANCH  55  69
BRANCH  56  80
ATOM     80  C   UNL A   1      47.470  27.798  25.626  1.00  0.00     0.064 A 
ATOM     81  C   UNL A   1      48.630  27.365  26.284  1.00  0.00     0.173 A 
ATOM     82  C   UNL A   1      47.479  27.797  24.224  1.00  0.00     0.173 A 
ATOM     83  F   UNL A   1      48.673  27.353  27.625  1.00  0.00    -0.203 F 
ATOM     84  C   UNL A   1      49.759  26.969  25.569  1.00  0.00     0.198 A 
ATOM     85  C   UNL A   1      48.599  27.376  23.510  1.00  0.00     0.198 A 
ATOM     86  F   UNL A   1      46.389  28.185  23.545  1.00  0.00    -0.203 F 
ATOM     87  F   UNL A   1      50.865  26.593  26.225  1.00  0.00    -0.200 F 
ATOM     88  C   UNL A   1      49.741  26.969  24.183  1.00  0.00     0.200 A 
ATOM     89  F   UNL A   1      48.570  27.359  22.170  1.00  0.00    -0.200 F 
ATOM     90  F   UNL A   1      50.824  26.579  23.497  1.00  0.00    -0.200 F 
ENDBRANCH  56  80
BRANCH  68  91
ATOM     91  C   UNL A   1      45.605  33.554  29.098  1.00  0.00     0.064 A 
ATOM     92  C   UNL A   1      45.492  34.655  28.239  1.00  0.00     0.173 A 
ATOM     93  C   UNL A   1      46.378  33.693  30.261  1.00  0.00     0.173 A 
ATOM     94  F   UNL A   1      44.775  34.560  27.110  1.00  0.00    -0.203 F 
ATOM     95  C   UNL A   1      46.148  35.848  28.524  1.00  0.00     0.198 A 
ATOM     96  C   UNL A   1      47.008  34.896  30.556  1.00  0.00     0.198 A 
ATOM     97  F   UNL A   1      46.506  32.667  31.115  1.00  0.00    -0.203 F 
ATOM     98  F   UNL A   1      46.064  36.876  27.668  1.00  0.00    -0.200 F 
ATOM     99  C   UNL A   1      46.899  35.969  29.684  1.00  0.00     0.200 A 
ATOM    100  F   UNL A   1      47.723  35.017  31.683  1.00  0.00    -0.200 F 
ATOM    101  F   UNL A   1      47.524  37.122  29.960  1.00  0.00    -0.200 F 
ENDBRANCH  68  91
ENDBRANCH  42  43
ENDBRANCH  34  37
ENDBRANCH  32  33
ENDBRANCH   1  32
TORSDOF 13
ENDMDL
