MODEL 1
REMARK VINA RESULT:     -12.3      0.000      0.000
REMARK SMILES CCC(C)(C)NC(=O)[C@@H](C)Oc1ccc(C)nc1C(=O)NCCCNC(=O)c1ccc(-c2c3nc(c(-c4c(F)c(F)c(F)c(F)c4F)c4ccc([nH]4)c(-c4c(F)c(F)c(F)c(F)c4F)c4nc(c(-c5c(F)c(F)c(F)c(F)c5F)c5ccc2[nH]5)C=C4)C=C3)cc1
REMARK SMILES IDX 19 1 20 2 21 3 18 5 12 6 13 7 14 8 17 9 15 10 16 11 11 12
REMARK SMILES IDX 9 13 10 14 7 15 6 16 8 18 3 19 4 20 5 21 2 22 1 23 22 24
REMARK SMILES IDX 23 25 24 26 25 27 26 28 27 30 28 31 29 32 90 33 30 34 89 35
REMARK SMILES IDX 31 36 32 37 33 38 83 39 34 40 88 41 82 42 84 43 35 44 87 45
REMARK SMILES IDX 81 46 80 47 36 49 68 50 48 51 67 52 49 53 52 54 66 55 85 56
REMARK SMILES IDX 50 57 51 58 65 60 86 61 53 62 37 63 38 64 46 65 39 66 40 67
REMARK SMILES IDX 44 68 47 69 41 70 42 71 45 72 43 73 69 74 70 75 78 76 71 77
REMARK SMILES IDX 72 78 76 79 79 80 73 81 74 82 77 83 75 84 54 85 55 86 63 87
REMARK SMILES IDX 56 88 57 89 61 90 64 91 58 92 59 93 62 94 60 95
REMARK H PARENT 21 4 6 17 25 29 84 48 52 59
REMARK Flexibility Score: inf
ROOT
ATOM      1  C   UNL A   1      32.052  29.328  24.361  1.00  0.00     0.273 C 
ATOM      2  O   UNL A   1      33.113  29.025  23.807  1.00  0.00    -0.267 OA
ATOM      3  N   UNL A   1      32.150  30.322  25.311  1.00  0.00    -0.351 N 
ATOM      4  H   UNL A   1      33.029  30.763  25.334  1.00  0.00     0.163 HD
ENDROOT
BRANCH   1   5
ATOM      5  C   UNL A   1      30.760  28.706  23.893  1.00  0.00     0.170 A 
ATOM      6  C   UNL A   1      30.387  27.363  23.998  1.00  0.00     0.151 A 
ATOM      7  C   UNL A   1      29.041  27.065  23.765  1.00  0.00     0.051 A 
ATOM      8  C   UNL A   1      28.224  27.996  23.125  1.00  0.00     0.027 A 
ATOM      9  N   UNL A   1      29.966  29.613  23.247  1.00  0.00    -0.244 NA
ATOM     10  C   UNL A   1      28.768  29.217  22.776  1.00  0.00     0.038 A 
ATOM     11  C   UNL A   1      28.087  30.119  21.793  1.00  0.00     0.067 C 
BRANCH   6  12
ATOM     12  O   UNL A   1      31.362  26.408  24.095  1.00  0.00    -0.478 OA
BRANCH  12  13
ATOM     13  C   UNL A   1      31.689  25.599  22.975  1.00  0.00     0.259 C 
ATOM     14  C   UNL A   1      31.026  24.216  23.138  1.00  0.00     0.064 C 
BRANCH  13  15
ATOM     15  C   UNL A   1      33.131  25.299  22.478  1.00  0.00     0.261 C 
ATOM     16  N   UNL A   1      33.764  24.122  22.750  1.00  0.00    -0.348 N 
ATOM     17  H   UNL A   1      33.740  23.468  22.014  1.00  0.00     0.164 HD
ATOM     18  O   UNL A   1      33.648  26.031  21.625  1.00  0.00    -0.271 OA
BRANCH  16  19
ATOM     19  C   UNL A   1      34.482  23.653  23.963  1.00  0.00     0.034 C 
ATOM     20  C   UNL A   1      34.617  24.853  24.933  1.00  0.00     0.034 C 
ATOM     21  C   UNL A   1      35.900  23.263  23.500  1.00  0.00     0.034 C 
BRANCH  19  22
ATOM     22  C   UNL A   1      33.883  22.476  24.764  1.00  0.00     0.024 C 
ATOM     23  C   UNL A   1      34.399  22.212  26.167  1.00  0.00     0.006 C 
ENDBRANCH  19  22
ENDBRANCH  16  19
ENDBRANCH  13  15
ENDBRANCH  12  13
ENDBRANCH   6  12
ENDBRANCH   1   5
BRANCH   3  24
ATOM     24  C   UNL A   1      31.212  30.847  26.283  1.00  0.00     0.118 C 
BRANCH  24  25
ATOM     25  C   UNL A   1      31.401  32.357  26.417  1.00  0.00     0.042 C 
BRANCH  25  26
ATOM     26  C   UNL A   1      32.541  32.774  27.339  1.00  0.00     0.118 C 
BRANCH  26  27
ATOM     27  N   UNL A   1      32.491  34.198  27.625  1.00  0.00    -0.352 N 
ATOM     28  C   UNL A   1      33.070  34.927  28.635  1.00  0.00     0.251 C 
ATOM     29  H   UNL A   1      31.954  34.726  26.991  1.00  0.00     0.163 HD
ATOM     30  O   UNL A   1      32.642  36.056  28.863  1.00  0.00    -0.269 OA
BRANCH  28  31
ATOM     31  C   UNL A   1      34.200  34.402  29.445  1.00  0.00     0.039 A 
ATOM     32  C   UNL A   1      35.489  34.461  28.900  1.00  0.00     0.014 A 
ATOM     33  C   UNL A   1      34.005  33.747  30.664  1.00  0.00     0.014 A 
ATOM     34  C   UNL A   1      36.571  33.880  29.571  1.00  0.00     0.010 A 
ATOM     35  C   UNL A   1      35.096  33.228  31.369  1.00  0.00     0.010 A 
ATOM     36  C   UNL A   1      36.385  33.264  30.818  1.00  0.00    -0.014 A 
BRANCH  36  37
ATOM     37  C   UNL A   1      37.515  32.604  31.525  1.00  0.00     0.031 A 
ATOM     38  C   UNL A   1      38.243  31.455  30.878  1.00  0.00     0.074 A 
ATOM     39  C   UNL A   1      37.866  33.007  32.760  1.00  0.00     0.049 A 
ATOM     40  N   UNL A   1      39.202  30.701  31.358  1.00  0.00    -0.248 NA
ATOM     41  C   UNL A   1      37.820  31.088  29.517  1.00  0.00     0.031 C 
ATOM     42  C   UNL A   1      37.226  34.087  33.510  1.00  0.00     0.029 A 
ATOM     43  N   UNL A   1      38.845  32.550  33.607  1.00  0.00    -0.354 N 
ATOM     44  C   UNL A   1      39.475  29.761  30.373  1.00  0.00     0.074 A 
ATOM     45  C   UNL A   1      38.556  30.011  29.285  1.00  0.00     0.031 C 
ATOM     46  C   UNL A   1      37.840  34.222  34.697  1.00  0.00     0.029 A 
ATOM     47  C   UNL A   1      38.894  33.218  34.806  1.00  0.00     0.049 A 
ATOM     48  H   UNL A   1      39.455  31.812  33.377  1.00  0.00     0.167 HD
ATOM     49  C   UNL A   1      40.420  28.789  30.366  1.00  0.00     0.037 A 
ATOM     50  C   UNL A   1      39.695  33.039  35.873  1.00  0.00     0.037 A 
ATOM     51  C   UNL A   1      41.363  28.565  31.431  1.00  0.00     0.049 A 
ATOM     52  C   UNL A   1      40.748  31.966  35.834  1.00  0.00     0.074 A 
ATOM     53  C   UNL A   1      42.391  27.641  31.496  1.00  0.00     0.029 A 
ATOM     54  N   UNL A   1      41.396  29.284  32.617  1.00  0.00    -0.354 N 
ATOM     55  N   UNL A   1      41.023  31.111  34.880  1.00  0.00    -0.248 NA
ATOM     56  C   UNL A   1      41.606  31.837  37.021  1.00  0.00     0.031 C 
ATOM     57  C   UNL A   1      43.027  27.779  32.735  1.00  0.00     0.029 A 
ATOM     58  C   UNL A   1      42.420  28.815  33.425  1.00  0.00     0.049 A 
ATOM     59  H   UNL A   1      40.782  30.017  32.851  1.00  0.00     0.167 HD
ATOM     60  C   UNL A   1      42.098  30.362  35.337  1.00  0.00     0.074 A 
ATOM     61  C   UNL A   1      42.436  30.871  36.650  1.00  0.00     0.031 C 
ATOM     62  C   UNL A   1      42.748  29.342  34.724  1.00  0.00     0.037 A 
BRANCH  49  63
ATOM     63  C   UNL A   1      40.484  27.891  29.164  1.00  0.00     0.064 A 
ATOM     64  C   UNL A   1      41.326  28.175  28.079  1.00  0.00     0.173 A 
ATOM     65  C   UNL A   1      39.718  26.716  29.110  1.00  0.00     0.173 A 
ATOM     66  F   UNL A   1      42.070  29.291  28.076  1.00  0.00    -0.203 F 
ATOM     67  C   UNL A   1      41.377  27.333  26.971  1.00  0.00     0.198 A 
ATOM     68  C   UNL A   1      39.794  25.861  28.013  1.00  0.00     0.198 A 
ATOM     69  F   UNL A   1      38.903  26.393  30.125  1.00  0.00    -0.203 F 
ATOM     70  F   UNL A   1      42.152  27.650  25.925  1.00  0.00    -0.200 F 
ATOM     71  C   UNL A   1      40.616  26.174  26.941  1.00  0.00     0.200 A 
ATOM     72  F   UNL A   1      39.067  24.735  27.992  1.00  0.00    -0.200 F 
ATOM     73  F   UNL A   1      40.670  25.362  25.877  1.00  0.00    -0.200 F 
ENDBRANCH  49  63
BRANCH  50  74
ATOM     74  C   UNL A   1      39.553  33.921  37.060  1.00  0.00     0.064 A 
ATOM     75  C   UNL A   1      40.181  35.174  37.103  1.00  0.00     0.173 A 
ATOM     76  C   UNL A   1      38.786  33.536  38.169  1.00  0.00     0.173 A 
ATOM     77  F   UNL A   1      40.943  35.575  36.074  1.00  0.00    -0.203 F 
ATOM     78  C   UNL A   1      40.059  36.002  38.216  1.00  0.00     0.198 A 
ATOM     79  C   UNL A   1      38.645  34.376  39.272  1.00  0.00     0.198 A 
ATOM     80  F   UNL A   1      38.161  32.349  38.175  1.00  0.00    -0.203 F 
ATOM     81  F   UNL A   1      40.702  37.176  38.246  1.00  0.00    -0.200 F 
ATOM     82  C   UNL A   1      39.287  35.605  39.297  1.00  0.00     0.200 A 
ATOM     83  F   UNL A   1      37.886  33.995  40.309  1.00  0.00    -0.200 F 
ATOM     84  F   UNL A   1      39.166  36.405  40.365  1.00  0.00    -0.200 F 
ENDBRANCH  50  74
BRANCH  62  85
ATOM     85  C   UNL A   1      43.910  28.734  35.451  1.00  0.00     0.064 A 
ATOM     86  C   UNL A   1      43.738  27.671  36.350  1.00  0.00     0.173 A 
ATOM     87  C   UNL A   1      45.214  29.194  35.217  1.00  0.00     0.173 A 
ATOM     88  F   UNL A   1      42.509  27.206  36.618  1.00  0.00    -0.203 F 
ATOM     89  C   UNL A   1      44.829  27.107  37.007  1.00  0.00     0.198 A 
ATOM     90  C   UNL A   1      46.304  28.612  35.856  1.00  0.00     0.198 A 
ATOM     91  F   UNL A   1      45.431  30.206  34.362  1.00  0.00    -0.203 F 
ATOM     92  F   UNL A   1      44.638  26.122  37.894  1.00  0.00    -0.200 F 
ATOM     93  C   UNL A   1      46.110  27.573  36.755  1.00  0.00     0.200 A 
ATOM     94  F   UNL A   1      47.543  29.057  35.604  1.00  0.00    -0.200 F 
ATOM     95  F   UNL A   1      47.160  27.026  37.384  1.00  0.00    -0.200 F 
ENDBRANCH  62  85
ENDBRANCH  36  37
ENDBRANCH  28  31
ENDBRANCH  26  27
ENDBRANCH  25  26
ENDBRANCH  24  25
ENDBRANCH   3  24
TORSDOF 15
ENDMDL
MODEL 2
REMARK VINA RESULT:     -12.2      2.294      7.958
REMARK SMILES CCC(C)(C)NC(=O)[C@@H](C)Oc1ccc(C)nc1C(=O)NCCCNC(=O)c1ccc(-c2c3nc(c(-c4c(F)c(F)c(F)c(F)c4F)c4ccc([nH]4)c(-c4c(F)c(F)c(F)c(F)c4F)c4nc(c(-c5c(F)c(F)c(F)c(F)c5F)c5ccc2[nH]5)C=C4)C=C3)cc1
REMARK SMILES IDX 19 1 20 2 21 3 18 5 12 6 13 7 14 8 17 9 15 10 16 11 11 12
REMARK SMILES IDX 9 13 10 14 7 15 6 16 8 18 3 19 4 20 5 21 2 22 1 23 22 24
REMARK SMILES IDX 23 25 24 26 25 27 26 28 27 30 28 31 29 32 90 33 30 34 89 35
REMARK SMILES IDX 31 36 32 37 33 38 83 39 34 40 88 41 82 42 84 43 35 44 87 45
REMARK SMILES IDX 81 46 80 47 36 49 68 50 48 51 67 52 49 53 52 54 66 55 85 56
REMARK SMILES IDX 50 57 51 58 65 60 86 61 53 62 37 63 38 64 46 65 39 66 40 67
REMARK SMILES IDX 44 68 47 69 41 70 42 71 45 72 43 73 69 74 70 75 78 76 71 77
REMARK SMILES IDX 72 78 76 79 79 80 73 81 74 82 77 83 75 84 54 85 55 86 63 87
REMARK SMILES IDX 56 88 57 89 61 90 64 91 58 92 59 93 62 94 60 95
REMARK H PARENT 21 4 6 17 25 29 84 48 52 59
REMARK Flexibility Score: inf
ROOT
ATOM      1  C   UNL A   1      30.902  26.174  25.896  1.00  0.00     0.273 C 
ATOM      2  O   UNL A   1      29.825  25.572  25.844  1.00  0.00    -0.267 OA
ATOM      3  N   UNL A   1      31.085  26.955  27.017  1.00  0.00    -0.351 N 
ATOM      4  H   UNL A   1      30.391  26.830  27.704  1.00  0.00     0.163 HD
ENDROOT
BRANCH   1   5
ATOM      5  C   UNL A   1      31.948  25.926  24.837  1.00  0.00     0.170 A 
ATOM      6  C   UNL A   1      32.612  24.723  24.577  1.00  0.00     0.151 A 
ATOM      7  C   UNL A   1      33.320  24.644  23.375  1.00  0.00     0.051 A 
ATOM      8  C   UNL A   1      33.627  25.808  22.672  1.00  0.00     0.027 A 
ATOM      9  N   UNL A   1      32.266  27.071  24.161  1.00  0.00    -0.244 NA
ATOM     10  C   UNL A   1      33.179  27.015  23.171  1.00  0.00     0.038 A 
ATOM     11  C   UNL A   1      33.749  28.315  22.693  1.00  0.00     0.067 C 
BRANCH   6  12
ATOM     12  O   UNL A   1      32.722  23.795  25.577  1.00  0.00    -0.478 OA
BRANCH  12  13
ATOM     13  C   UNL A   1      33.595  22.684  25.432  1.00  0.00     0.259 C 
ATOM     14  C   UNL A   1      32.756  21.397  25.286  1.00  0.00     0.064 C 
BRANCH  13  15
ATOM     15  C   UNL A   1      34.740  22.311  26.414  1.00  0.00     0.261 C 
ATOM     16  N   UNL A   1      35.875  23.060  26.526  1.00  0.00    -0.348 N 
ATOM     17  H   UNL A   1      35.879  23.679  27.293  1.00  0.00     0.164 HD
ATOM     18  O   UNL A   1      34.544  21.455  27.284  1.00  0.00    -0.271 OA
BRANCH  16  19
ATOM     19  C   UNL A   1      37.104  23.107  25.693  1.00  0.00     0.034 C 
ATOM     20  C   UNL A   1      37.645  21.663  25.557  1.00  0.00     0.034 C 
ATOM     21  C   UNL A   1      38.137  23.921  26.498  1.00  0.00     0.034 C 
BRANCH  19  22
ATOM     22  C   UNL A   1      37.007  23.702  24.271  1.00  0.00     0.024 C 
ATOM     23  C   UNL A   1      36.608  22.789  23.126  1.00  0.00     0.006 C 
ENDBRANCH  19  22
ENDBRANCH  16  19
ENDBRANCH  13  15
ENDBRANCH  12  13
ENDBRANCH   6  12
ENDBRANCH   1   5
BRANCH   3  24
ATOM     24  C   UNL A   1      32.098  27.923  27.384  1.00  0.00     0.118 C 
BRANCH  24  25
ATOM     25  C   UNL A   1      31.668  29.316  26.927  1.00  0.00     0.042 C 
BRANCH  25  26
ATOM     26  C   UNL A   1      32.712  30.065  26.108  1.00  0.00     0.118 C 
BRANCH  26  27
ATOM     27  N   UNL A   1      32.714  31.483  26.429  1.00  0.00    -0.352 N 
ATOM     28  C   UNL A   1      33.459  32.191  27.339  1.00  0.00     0.251 C 
ATOM     29  H   UNL A   1      32.076  32.023  25.910  1.00  0.00     0.163 HD
ATOM     30  O   UNL A   1      33.079  33.314  27.663  1.00  0.00    -0.269 OA
BRANCH  28  31
ATOM     31  C   UNL A   1      34.712  31.652  27.931  1.00  0.00     0.039 A 
ATOM     32  C   UNL A   1      34.713  30.327  28.383  1.00  0.00     0.014 A 
ATOM     33  C   UNL A   1      35.835  32.452  28.161  1.00  0.00     0.014 A 
ATOM     34  C   UNL A   1      35.827  29.805  29.050  1.00  0.00     0.010 A 
ATOM     35  C   UNL A   1      36.975  31.910  28.763  1.00  0.00     0.010 A 
ATOM     36  C   UNL A   1      36.974  30.591  29.239  1.00  0.00    -0.014 A 
BRANCH  36  37
ATOM     37  C   UNL A   1      38.151  30.067  29.982  1.00  0.00     0.031 A 
ATOM     38  C   UNL A   1      38.405  30.506  31.401  1.00  0.00     0.074 A 
ATOM     39  C   UNL A   1      39.013  29.229  29.377  1.00  0.00     0.049 A 
ATOM     40  N   UNL A   1      39.411  30.223  32.192  1.00  0.00    -0.248 NA
ATOM     41  C   UNL A   1      37.406  31.402  32.003  1.00  0.00     0.031 C 
ATOM     42  C   UNL A   1      38.899  28.749  28.000  1.00  0.00     0.029 A 
ATOM     43  N   UNL A   1      40.162  28.637  29.842  1.00  0.00    -0.354 N 
ATOM     44  C   UNL A   1      39.179  30.925  33.368  1.00  0.00     0.074 A 
ATOM     45  C   UNL A   1      37.959  31.679  33.175  1.00  0.00     0.031 C 
ATOM     46  C   UNL A   1      39.924  27.922  27.737  1.00  0.00     0.029 A 
ATOM     47  C   UNL A   1      40.785  27.840  28.913  1.00  0.00     0.049 A 
ATOM     48  H   UNL A   1      40.507  28.772  30.754  1.00  0.00     0.167 HD
ATOM     49  C   UNL A   1      39.904  30.927  34.512  1.00  0.00     0.037 A 
ATOM     50  C   UNL A   1      41.923  27.125  29.000  1.00  0.00     0.037 A 
ATOM     51  C   UNL A   1      41.095  30.145  34.721  1.00  0.00     0.049 A 
ATOM     52  C   UNL A   1      42.701  27.128  30.287  1.00  0.00     0.074 A 
ATOM     53  C   UNL A   1      41.871  30.038  35.862  1.00  0.00     0.029 A 
ATOM     54  N   UNL A   1      41.678  29.328  33.763  1.00  0.00    -0.354 N 
ATOM     55  N   UNL A   1      42.448  27.763  31.405  1.00  0.00    -0.248 NA
ATOM     56  C   UNL A   1      43.921  26.309  30.325  1.00  0.00     0.031 C 
ATOM     57  C   UNL A   1      42.942  29.180  35.584  1.00  0.00     0.029 A 
ATOM     58  C   UNL A   1      42.811  28.722  34.283  1.00  0.00     0.049 A 
ATOM     59  H   UNL A   1      41.338  29.198  32.848  1.00  0.00     0.167 HD
ATOM     60  C   UNL A   1      43.458  27.403  32.286  1.00  0.00     0.074 A 
ATOM     61  C   UNL A   1      44.323  26.482  31.578  1.00  0.00     0.031 C 
ATOM     62  C   UNL A   1      43.653  27.800  33.567  1.00  0.00     0.037 A 
BRANCH  49  63
ATOM     63  C   UNL A   1      39.427  31.801  35.636  1.00  0.00     0.064 A 
ATOM     64  C   UNL A   1      39.888  33.116  35.792  1.00  0.00     0.173 A 
ATOM     65  C   UNL A   1      38.472  31.328  36.550  1.00  0.00     0.173 A 
ATOM     66  F   UNL A   1      40.808  33.613  34.952  1.00  0.00    -0.203 F 
ATOM     67  C   UNL A   1      39.434  33.916  36.837  1.00  0.00     0.198 A 
ATOM     68  C   UNL A   1      37.999  32.141  37.577  1.00  0.00     0.198 A 
ATOM     69  F   UNL A   1      37.991  30.080  36.442  1.00  0.00    -0.203 F 
ATOM     70  F   UNL A   1      39.925  35.153  36.995  1.00  0.00    -0.200 F 
ATOM     71  C   UNL A   1      38.487  33.431  37.726  1.00  0.00     0.200 A 
ATOM     72  F   UNL A   1      37.073  31.673  38.428  1.00  0.00    -0.200 F 
ATOM     73  F   UNL A   1      38.047  34.203  38.729  1.00  0.00    -0.200 F 
ENDBRANCH  49  63
BRANCH  50  74
ATOM     74  C   UNL A   1      42.380  26.319  27.838  1.00  0.00     0.064 A 
ATOM     75  C   UNL A   1      41.849  25.045  27.597  1.00  0.00     0.173 A 
ATOM     76  C   UNL A   1      43.347  26.805  26.946  1.00  0.00     0.173 A 
ATOM     77  F   UNL A   1      40.938  24.529  28.436  1.00  0.00    -0.203 F 
ATOM     78  C   UNL A   1      42.280  24.279  26.516  1.00  0.00     0.198 A 
ATOM     79  C   UNL A   1      43.758  26.049  25.851  1.00  0.00     0.198 A 
ATOM     80  F   UNL A   1      43.882  28.021  27.131  1.00  0.00    -0.203 F 
ATOM     81  F   UNL A   1      41.785  23.048  26.331  1.00  0.00    -0.200 F 
ATOM     82  C   UNL A   1      43.229  24.784  25.640  1.00  0.00     0.200 A 
ATOM     83  F   UNL A   1      44.666  26.546  24.999  1.00  0.00    -0.200 F 
ATOM     84  F   UNL A   1      43.638  24.050  24.596  1.00  0.00    -0.200 F 
ENDBRANCH  50  74
BRANCH  62  85
ATOM     85  C   UNL A   1      44.825  27.214  34.296  1.00  0.00     0.064 A 
ATOM     86  C   UNL A   1      46.073  27.853  34.310  1.00  0.00     0.173 A 
ATOM     87  C   UNL A   1      44.687  26.020  35.020  1.00  0.00     0.173 A 
ATOM     88  F   UNL A   1      46.259  28.988  33.621  1.00  0.00    -0.203 F 
ATOM     89  C   UNL A   1      47.149  27.303  35.003  1.00  0.00     0.198 A 
ATOM     90  C   UNL A   1      45.757  25.488  35.732  1.00  0.00     0.198 A 
ATOM     91  F   UNL A   1      43.511  25.375  35.042  1.00  0.00    -0.203 F 
ATOM     92  F   UNL A   1      48.345  27.906  34.968  1.00  0.00    -0.200 F 
ATOM     93  C   UNL A   1      46.988  26.126  35.719  1.00  0.00     0.200 A 
ATOM     94  F   UNL A   1      45.597  24.355  36.431  1.00  0.00    -0.200 F 
ATOM     95  F   UNL A   1      48.023  25.601  36.389  1.00  0.00    -0.200 F 
ENDBRANCH  62  85
ENDBRANCH  36  37
ENDBRANCH  28  31
ENDBRANCH  26  27
ENDBRANCH  25  26
ENDBRANCH  24  25
ENDBRANCH   3  24
TORSDOF 15
ENDMDL
MODEL 3
REMARK VINA RESULT:     -12.2      5.457      9.970
REMARK SMILES CCC(C)(C)NC(=O)[C@@H](C)Oc1ccc(C)nc1C(=O)NCCCNC(=O)c1ccc(-c2c3nc(c(-c4c(F)c(F)c(F)c(F)c4F)c4ccc([nH]4)c(-c4c(F)c(F)c(F)c(F)c4F)c4nc(c(-c5c(F)c(F)c(F)c(F)c5F)c5ccc2[nH]5)C=C4)C=C3)cc1
REMARK SMILES IDX 19 1 20 2 21 3 18 5 12 6 13 7 14 8 17 9 15 10 16 11 11 12
REMARK SMILES IDX 9 13 10 14 7 15 6 16 8 18 3 19 4 20 5 21 2 22 1 23 22 24
REMARK SMILES IDX 23 25 24 26 25 27 26 28 27 30 28 31 29 32 90 33 30 34 89 35
REMARK SMILES IDX 31 36 32 37 33 38 83 39 34 40 88 41 82 42 84 43 35 44 87 45
REMARK SMILES IDX 81 46 80 47 36 49 68 50 48 51 67 52 49 53 52 54 66 55 85 56
REMARK SMILES IDX 50 57 51 58 65 60 86 61 53 62 37 63 38 64 46 65 39 66 40 67
REMARK SMILES IDX 44 68 47 69 41 70 42 71 45 72 43 73 69 74 70 75 78 76 71 77
REMARK SMILES IDX 72 78 76 79 79 80 73 81 74 82 77 83 75 84 54 85 55 86 63 87
REMARK SMILES IDX 56 88 57 89 61 90 64 91 58 92 59 93 62 94 60 95
REMARK H PARENT 21 4 6 17 25 29 84 48 52 59
REMARK Flexibility Score: inf
ROOT
ATOM      1  C   UNL A   1      35.073  21.444  25.898  1.00  0.00     0.273 C 
ATOM      2  O   UNL A   1      34.774  21.969  26.975  1.00  0.00    -0.267 OA
ATOM      3  N   UNL A   1      36.424  21.287  25.676  1.00  0.00    -0.351 N 
ATOM      4  H   UNL A   1      36.980  21.489  26.463  1.00  0.00     0.163 HD
ENDROOT
BRANCH   1   5
ATOM      5  C   UNL A   1      33.984  20.920  24.995  1.00  0.00     0.170 A 
ATOM      6  C   UNL A   1      33.126  21.673  24.188  1.00  0.00     0.151 A 
ATOM      7  C   UNL A   1      32.395  20.973  23.224  1.00  0.00     0.051 A 
ATOM      8  C   UNL A   1      32.274  19.587  23.315  1.00  0.00     0.027 A 
ATOM      9  N   UNL A   1      33.849  19.563  25.099  1.00  0.00    -0.244 NA
ATOM     10  C   UNL A   1      32.924  18.937  24.346  1.00  0.00     0.038 A 
ATOM     11  C   UNL A   1      32.570  17.532  24.725  1.00  0.00     0.067 C 
BRANCH   6  12
ATOM     12  O   UNL A   1      32.879  22.978  24.517  1.00  0.00    -0.478 OA
BRANCH  12  13
ATOM     13  C   UNL A   1      31.635  23.350  25.094  1.00  0.00     0.259 C 
ATOM     14  C   UNL A   1      30.771  24.050  24.024  1.00  0.00     0.064 C 
BRANCH  13  15
ATOM     15  C   UNL A   1      31.465  24.209  26.377  1.00  0.00     0.261 C 
ATOM     16  N   UNL A   1      31.111  25.526  26.329  1.00  0.00    -0.348 N 
ATOM     17  H   UNL A   1      30.156  25.697  26.499  1.00  0.00     0.164 HD
ATOM     18  O   UNL A   1      31.419  23.656  27.482  1.00  0.00    -0.271 OA
BRANCH  16  19
ATOM     19  C   UNL A   1      31.915  26.747  26.063  1.00  0.00     0.034 C 
ATOM     20  C   UNL A   1      31.775  27.688  27.285  1.00  0.00     0.034 C 
ATOM     21  C   UNL A   1      31.252  27.444  24.857  1.00  0.00     0.034 C 
BRANCH  19  22
ATOM     22  C   UNL A   1      33.423  26.587  25.772  1.00  0.00     0.024 C 
ATOM     23  C   UNL A   1      33.873  26.407  24.334  1.00  0.00     0.006 C 
ENDBRANCH  19  22
ENDBRANCH  16  19
ENDBRANCH  13  15
ENDBRANCH  12  13
ENDBRANCH   6  12
ENDBRANCH   1   5
BRANCH   3  24
ATOM     24  C   UNL A   1      37.188  20.884  24.513  1.00  0.00     0.118 C 
BRANCH  24  25
ATOM     25  C   UNL A   1      38.155  19.765  24.896  1.00  0.00     0.042 C 
BRANCH  25  26
ATOM     26  C   UNL A   1      39.101  20.108  26.040  1.00  0.00     0.118 C 
BRANCH  26  27
ATOM     27  N   UNL A   1      40.269  19.242  26.034  1.00  0.00    -0.352 N 
ATOM     28  C   UNL A   1      41.606  19.547  25.982  1.00  0.00     0.251 C 
ATOM     29  H   UNL A   1      40.067  18.280  26.074  1.00  0.00     0.163 HD
ATOM     30  O   UNL A   1      42.399  18.661  25.672  1.00  0.00    -0.269 OA
BRANCH  28  31
ATOM     31  C   UNL A   1      42.124  20.903  26.300  1.00  0.00     0.039 A 
ATOM     32  C   UNL A   1      42.302  21.246  27.646  1.00  0.00     0.014 A 
ATOM     33  C   UNL A   1      42.319  21.879  25.318  1.00  0.00     0.014 A 
ATOM     34  C   UNL A   1      42.678  22.545  28.006  1.00  0.00     0.010 A 
ATOM     35  C   UNL A   1      42.764  23.157  25.671  1.00  0.00     0.010 A 
ATOM     36  C   UNL A   1      42.921  23.512  27.019  1.00  0.00    -0.014 A 
BRANCH  36  37
ATOM     37  C   UNL A   1      43.280  24.908  27.384  1.00  0.00     0.031 A 
ATOM     38  C   UNL A   1      44.696  25.393  27.214  1.00  0.00     0.074 A 
ATOM     39  C   UNL A   1      42.349  25.732  27.902  1.00  0.00     0.049 A 
ATOM     40  N   UNL A   1      45.226  26.547  27.540  1.00  0.00    -0.248 NA
ATOM     41  C   UNL A   1      45.651  24.445  26.619  1.00  0.00     0.031 C 
ATOM     42  C   UNL A   1      40.951  25.379  28.144  1.00  0.00     0.029 A 
ATOM     43  N   UNL A   1      42.442  27.035  28.324  1.00  0.00    -0.354 N 
ATOM     44  C   UNL A   1      46.573  26.452  27.216  1.00  0.00     0.074 A 
ATOM     45  C   UNL A   1      46.791  25.117  26.705  1.00  0.00     0.031 C 
ATOM     46  C   UNL A   1      40.311  26.444  28.654  1.00  0.00     0.029 A 
ATOM     47  C   UNL A   1      41.260  27.543  28.806  1.00  0.00     0.049 A 
ATOM     48  H   UNL A   1      43.276  27.556  28.286  1.00  0.00     0.167 HD
ATOM     49  C   UNL A   1      47.539  27.398  27.316  1.00  0.00     0.037 A 
ATOM     50  C   UNL A   1      40.976  28.756  29.317  1.00  0.00     0.037 A 
ATOM     51  C   UNL A   1      47.315  28.740  27.786  1.00  0.00     0.049 A 
ATOM     52  C   UNL A   1      42.060  29.795  29.400  1.00  0.00     0.074 A 
ATOM     53  C   UNL A   1      48.217  29.786  27.875  1.00  0.00     0.029 A 
ATOM     54  N   UNL A   1      46.096  29.223  28.239  1.00  0.00    -0.354 N 
ATOM     55  N   UNL A   1      43.320  29.705  29.051  1.00  0.00    -0.248 NA
ATOM     56  C   UNL A   1      41.680  31.107  29.944  1.00  0.00     0.031 C 
ATOM     57  C   UNL A   1      47.550  30.894  28.412  1.00  0.00     0.029 A 
ATOM     58  C   UNL A   1      46.225  30.549  28.620  1.00  0.00     0.049 A 
ATOM     59  H   UNL A   1      45.263  28.700  28.285  1.00  0.00     0.167 HD
ATOM     60  C   UNL A   1      43.877  30.951  29.307  1.00  0.00     0.074 A 
ATOM     61  C   UNL A   1      42.814  31.785  29.829  1.00  0.00     0.031 C 
ATOM     62  C   UNL A   1      45.154  31.367  29.127  1.00  0.00     0.037 A 
BRANCH  49  63
ATOM     63  C   UNL A   1      48.931  27.015  26.904  1.00  0.00     0.064 A 
ATOM     64  C   UNL A   1      49.860  26.515  27.828  1.00  0.00     0.173 A 
ATOM     65  C   UNL A   1      49.331  27.120  25.563  1.00  0.00     0.173 A 
ATOM     66  F   UNL A   1      49.531  26.404  29.124  1.00  0.00    -0.203 F 
ATOM     67  C   UNL A   1      51.147  26.161  27.431  1.00  0.00     0.198 A 
ATOM     68  C   UNL A   1      50.610  26.738  25.165  1.00  0.00     0.198 A 
ATOM     69  F   UNL A   1      48.479  27.584  24.637  1.00  0.00    -0.203 F 
ATOM     70  F   UNL A   1      52.033  25.731  28.340  1.00  0.00    -0.200 F 
ATOM     71  C   UNL A   1      51.520  26.268  26.100  1.00  0.00     0.200 A 
ATOM     72  F   UNL A   1      50.964  26.830  23.875  1.00  0.00    -0.200 F 
ATOM     73  F   UNL A   1      52.757  25.923  25.718  1.00  0.00    -0.200 F 
ENDBRANCH  49  63
BRANCH  50  74
ATOM     74  C   UNL A   1      39.592  29.065  29.760  1.00  0.00     0.064 A 
ATOM     75  C   UNL A   1      39.198  28.844  31.087  1.00  0.00     0.173 A 
ATOM     76  C   UNL A   1      38.641  29.590  28.874  1.00  0.00     0.173 A 
ATOM     77  F   UNL A   1      40.068  28.322  31.965  1.00  0.00    -0.203 F 
ATOM     78  C   UNL A   1      37.900  29.122  31.508  1.00  0.00     0.198 A 
ATOM     79  C   UNL A   1      37.349  29.891  29.302  1.00  0.00     0.198 A 
ATOM     80  F   UNL A   1      38.970  29.824  27.595  1.00  0.00    -0.203 F 
ATOM     81  F   UNL A   1      37.539  28.864  32.772  1.00  0.00    -0.200 F 
ATOM     82  C   UNL A   1      36.978  29.651  30.617  1.00  0.00     0.200 A 
ATOM     83  F   UNL A   1      36.465  30.415  28.442  1.00  0.00    -0.200 F 
ATOM     84  F   UNL A   1      35.731  29.924  31.024  1.00  0.00    -0.200 F 
ENDBRANCH  50  74
BRANCH  62  85
ATOM     85  C   UNL A   1      45.465  32.795  29.464  1.00  0.00     0.064 A 
ATOM     86  C   UNL A   1      45.976  33.158  30.718  1.00  0.00     0.173 A 
ATOM     87  C   UNL A   1      45.284  33.805  28.508  1.00  0.00     0.173 A 
ATOM     88  F   UNL A   1      46.150  32.230  31.670  1.00  0.00    -0.203 F 
ATOM     89  C   UNL A   1      46.272  34.487  31.011  1.00  0.00     0.198 A 
ATOM     90  C   UNL A   1      45.606  35.128  28.795  1.00  0.00     0.198 A 
ATOM     91  F   UNL A   1      44.803  33.507  27.291  1.00  0.00    -0.203 F 
ATOM     92  F   UNL A   1      46.719  34.819  32.230  1.00  0.00    -0.200 F 
ATOM     93  C   UNL A   1      46.094  35.469  30.048  1.00  0.00     0.200 A 
ATOM     94  F   UNL A   1      45.442  36.074  27.860  1.00  0.00    -0.200 F 
ATOM     95  F   UNL A   1      46.384  36.746  30.330  1.00  0.00    -0.200 F 
ENDBRANCH  62  85
ENDBRANCH  36  37
ENDBRANCH  28  31
ENDBRANCH  26  27
ENDBRANCH  25  26
ENDBRANCH  24  25
ENDBRANCH   3  24
TORSDOF 15
ENDMDL
