MODEL 1
REMARK VINA RESULT:     -13.2      0.000      0.000
REMARK SMILES O=C(Cn1nc(C(=O)NCCCNC(=O)c2ccc(-c3c4nc(c(-c5c(F)c(F)c(F)c(F)c5F)c5ccc([nH]5)c(-c5c(F)c(F)c(F)c(F)c5F)c5nc(c(-c6c(F)c(F)c(F)c(F)c6F)c6ccc3[nH]6)C=C5)C=C4)cc2)c2ccccc2c1=O)NCc1ccc(F)cc1
REMARK SMILES IDX 10 1 9 2 7 3 8 4 6 6 4 7 5 8 85 9 84 10 86 11 79 12 83 13
REMARK SMILES IDX 80 14 82 15 81 16 3 17 2 18 1 19 87 20 88 22 89 23 90 24
REMARK SMILES IDX 95 25 91 26 94 27 92 28 93 29 11 30 12 31 13 32 14 33 15 35
REMARK SMILES IDX 16 36 17 37 78 38 18 39 77 40 19 41 20 42 21 43 71 44 22 45
REMARK SMILES IDX 76 46 70 47 72 48 23 49 75 50 69 51 68 52 24 54 56 55 36 56
REMARK SMILES IDX 55 57 37 58 40 59 54 60 73 61 38 62 39 63 53 65 74 66 41 67
REMARK SMILES IDX 25 68 26 69 34 70 27 71 28 72 32 73 35 74 29 75 30 76 33 77
REMARK SMILES IDX 31 78 57 79 58 80 66 81 59 82 60 83 64 84 67 85 61 86 62 87
REMARK SMILES IDX 65 88 63 89 42 90 43 91 51 92 44 93 45 94 49 95 52 96 46 97
REMARK SMILES IDX 47 98 50 99 48 100
REMARK H PARENT 9 5 87 21 13 34 72 53 40 64
REMARK Flexibility Score: inf
ROOT
ATOM      1  C   UNL A   1      33.569  29.385  24.999  1.00  0.00     0.118 C 
ENDROOT
BRANCH   1   2
ATOM      2  N   UNL A   1      33.842  29.036  23.611  1.00  0.00    -0.351 N 
ATOM      3  C   UNL A   1      33.148  28.283  22.691  1.00  0.00     0.272 C 
ATOM      4  O   UNL A   1      33.699  28.062  21.619  1.00  0.00    -0.267 OA
ATOM      5  H   UNL A   1      34.684  29.411  23.264  1.00  0.00     0.163 HD
BRANCH   3   6
ATOM      6  C   UNL A   1      31.730  27.745  22.981  1.00  0.00     0.156 A 
ATOM      7  N   UNL A   1      30.461  26.036  23.911  1.00  0.00    -0.219 N 
ATOM      8  N   UNL A   1      31.659  26.572  23.531  1.00  0.00    -0.163 NA
ATOM      9  C   UNL A   1      29.249  26.691  23.774  1.00  0.00     0.275 A 
ATOM     10  C   UNL A   1      29.289  27.998  23.088  1.00  0.00     0.051 A 
ATOM     11  O   UNL A   1      28.178  26.240  24.173  1.00  0.00    -0.267 OA
ATOM     12  C   UNL A   1      30.509  28.535  22.668  1.00  0.00     0.020 A 
ATOM     13  C   UNL A   1      28.084  28.680  22.852  1.00  0.00     0.014 A 
ATOM     14  C   UNL A   1      30.498  29.754  21.977  1.00  0.00     0.011 A 
ATOM     15  C   UNL A   1      28.090  29.893  22.170  1.00  0.00     0.001 A 
ATOM     16  C   UNL A   1      29.296  30.424  21.727  1.00  0.00     0.001 A 
BRANCH   7  17
ATOM     17  C   UNL A   1      30.541  24.778  24.658  1.00  0.00     0.248 C 
BRANCH  17  18
ATOM     18  C   UNL A   1      31.668  24.791  25.687  1.00  0.00     0.242 C 
ATOM     19  O   UNL A   1      31.450  24.924  26.891  1.00  0.00    -0.273 OA
ATOM     20  N   UNL A   1      32.918  24.490  25.188  1.00  0.00    -0.350 N 
ATOM     21  H   UNL A   1      33.008  24.277  24.231  1.00  0.00     0.163 HD
BRANCH  20  22
ATOM     22  C   UNL A   1      34.099  24.478  26.018  1.00  0.00     0.151 C 
BRANCH  22  23
ATOM     23  C   UNL A   1      35.102  23.420  25.623  1.00  0.00    -0.029 A 
ATOM     24  C   UNL A   1      34.704  22.126  25.248  1.00  0.00     0.008 A 
ATOM     25  C   UNL A   1      36.476  23.703  25.719  1.00  0.00     0.008 A 
ATOM     26  C   UNL A   1      35.655  21.150  24.940  1.00  0.00     0.039 A 
ATOM     27  C   UNL A   1      37.425  22.724  25.416  1.00  0.00     0.039 A 
ATOM     28  C   UNL A   1      37.006  21.460  25.022  1.00  0.00     0.123 A 
ATOM     29  F   UNL A   1      37.916  20.521  24.733  1.00  0.00    -0.207 F 
ENDBRANCH  22  23
ENDBRANCH  20  22
ENDBRANCH  17  18
ENDBRANCH   7  17
ENDBRANCH   3   6
ENDBRANCH   1   2
BRANCH   1  30
ATOM     30  C   UNL A   1      33.831  28.205  25.929  1.00  0.00     0.042 C 
BRANCH  30  31
ATOM     31  C   UNL A   1      33.559  28.528  27.398  1.00  0.00     0.118 C 
BRANCH  31  32
ATOM     32  N   UNL A   1      33.610  29.959  27.686  1.00  0.00    -0.352 N 
ATOM     33  C   UNL A   1      34.616  30.722  28.226  1.00  0.00     0.251 C 
ATOM     34  H   UNL A   1      32.792  30.456  27.457  1.00  0.00     0.163 HD
ATOM     35  O   UNL A   1      34.398  31.885  28.555  1.00  0.00    -0.269 OA
BRANCH  33  36
ATOM     36  C   UNL A   1      35.956  30.138  28.432  1.00  0.00     0.039 A 
ATOM     37  C   UNL A   1      36.283  29.531  29.644  1.00  0.00     0.014 A 
ATOM     38  C   UNL A   1      36.900  30.212  27.405  1.00  0.00     0.014 A 
ATOM     39  C   UNL A   1      37.601  29.182  29.901  1.00  0.00     0.010 A 
ATOM     40  C   UNL A   1      38.205  29.764  27.631  1.00  0.00     0.010 A 
ATOM     41  C   UNL A   1      38.580  29.301  28.902  1.00  0.00    -0.014 A 
BRANCH  41  42
ATOM     42  C   UNL A   1      39.990  28.954  29.219  1.00  0.00     0.031 A 
ATOM     43  C   UNL A   1      40.805  29.825  30.138  1.00  0.00     0.074 A 
ATOM     44  C   UNL A   1      40.513  27.812  28.732  1.00  0.00     0.049 A 
ATOM     45  N   UNL A   1      42.042  29.669  30.539  1.00  0.00    -0.248 NA
ATOM     46  C   UNL A   1      40.150  31.027  30.680  1.00  0.00     0.031 C 
ATOM     47  C   UNL A   1      39.811  26.875  27.852  1.00  0.00     0.029 A 
ATOM     48  N   UNL A   1      41.738  27.228  28.928  1.00  0.00    -0.354 N 
ATOM     49  C   UNL A   1      42.318  30.756  31.359  1.00  0.00     0.074 A 
ATOM     50  C   UNL A   1      41.131  31.583  31.376  1.00  0.00     0.031 C 
ATOM     51  C   UNL A   1      40.594  25.808  27.633  1.00  0.00     0.029 A 
ATOM     52  C   UNL A   1      41.878  26.017  28.293  1.00  0.00     0.049 A 
ATOM     53  H   UNL A   1      42.450  27.636  29.471  1.00  0.00     0.167 HD
ATOM     54  C   UNL A   1      43.451  31.027  32.047  1.00  0.00     0.037 A 
ATOM     55  C   UNL A   1      42.927  25.177  28.232  1.00  0.00     0.037 A 
ATOM     56  C   UNL A   1      44.621  30.187  32.047  1.00  0.00     0.049 A 
ATOM     57  C   UNL A   1      44.194  25.539  28.955  1.00  0.00     0.074 A 
ATOM     58  C   UNL A   1      45.813  30.371  32.728  1.00  0.00     0.029 A 
ATOM     59  N   UNL A   1      44.747  29.005  31.333  1.00  0.00    -0.354 N 
ATOM     60  N   UNL A   1      44.439  26.565  29.732  1.00  0.00    -0.248 NA
ATOM     61  C   UNL A   1      45.335  24.628  28.784  1.00  0.00     0.031 C 
ATOM     62  C   UNL A   1      46.676  29.327  32.387  1.00  0.00     0.029 A 
ATOM     63  C   UNL A   1      46.006  28.461  31.538  1.00  0.00     0.049 A 
ATOM     64  H   UNL A   1      44.047  28.610  30.764  1.00  0.00     0.167 HD
ATOM     65  C   UNL A   1      45.751  26.419  30.155  1.00  0.00     0.074 A 
ATOM     66  C   UNL A   1      46.245  25.190  29.568  1.00  0.00     0.031 C 
ATOM     67  C   UNL A   1      46.483  27.234  30.953  1.00  0.00     0.037 A 
BRANCH  54  68
ATOM     68  C   UNL A   1      43.496  32.287  32.864  1.00  0.00     0.064 A 
ATOM     69  C   UNL A   1      43.904  33.508  32.309  1.00  0.00     0.173 A 
ATOM     70  C   UNL A   1      43.039  32.290  34.191  1.00  0.00     0.173 A 
ATOM     71  F   UNL A   1      44.357  33.559  31.046  1.00  0.00    -0.203 F 
ATOM     72  C   UNL A   1      43.861  34.682  33.055  1.00  0.00     0.198 A 
ATOM     73  C   UNL A   1      42.974  33.471  34.926  1.00  0.00     0.198 A 
ATOM     74  F   UNL A   1      42.624  31.151  34.767  1.00  0.00    -0.203 F 
ATOM     75  F   UNL A   1      44.269  35.835  32.508  1.00  0.00    -0.200 F 
ATOM     76  C   UNL A   1      43.389  34.666  34.359  1.00  0.00     0.200 A 
ATOM     77  F   UNL A   1      42.496  33.455  36.179  1.00  0.00    -0.200 F 
ATOM     78  F   UNL A   1      43.329  35.802  35.067  1.00  0.00    -0.200 F 
ENDBRANCH  54  68
BRANCH  55  79
ATOM     79  C   UNL A   1      42.815  23.913  27.458  1.00  0.00     0.064 A 
ATOM     80  C   UNL A   1      43.129  23.875  26.093  1.00  0.00     0.173 A 
ATOM     81  C   UNL A   1      42.417  22.715  28.069  1.00  0.00     0.173 A 
ATOM     82  F   UNL A   1      43.495  24.999  25.459  1.00  0.00    -0.203 F 
ATOM     83  C   UNL A   1      43.043  22.689  25.368  1.00  0.00     0.198 A 
ATOM     84  C   UNL A   1      42.363  21.523  27.351  1.00  0.00     0.198 A 
ATOM     85  F   UNL A   1      42.107  22.696  29.374  1.00  0.00    -0.203 F 
ATOM     86  F   UNL A   1      43.315  22.688  24.056  1.00  0.00    -0.200 F 
ATOM     87  C   UNL A   1      42.670  21.512  26.000  1.00  0.00     0.200 A 
ATOM     88  F   UNL A   1      42.020  20.385  27.970  1.00  0.00    -0.200 F 
ATOM     89  F   UNL A   1      42.603  20.368  25.304  1.00  0.00    -0.200 F 
ENDBRANCH  55  79
BRANCH  67  90
ATOM     90  C   UNL A   1      47.893  26.821  31.261  1.00  0.00     0.064 A 
ATOM     91  C   UNL A   1      48.186  25.950  32.321  1.00  0.00     0.173 A 
ATOM     92  C   UNL A   1      48.953  27.244  30.445  1.00  0.00     0.173 A 
ATOM     93  F   UNL A   1      47.209  25.529  33.139  1.00  0.00    -0.203 F 
ATOM     94  C   UNL A   1      49.491  25.529  32.560  1.00  0.00     0.198 A 
ATOM     95  C   UNL A   1      50.251  26.794  30.667  1.00  0.00     0.198 A 
ATOM     96  F   UNL A   1      48.725  28.071  29.414  1.00  0.00    -0.203 F 
ATOM     97  F   UNL A   1      49.754  24.726  33.600  1.00  0.00    -0.200 F 
ATOM     98  C   UNL A   1      50.521  25.942  31.726  1.00  0.00     0.200 A 
ATOM     99  F   UNL A   1      51.241  27.181  29.851  1.00  0.00    -0.200 F 
ATOM    100  F   UNL A   1      51.772  25.521  31.948  1.00  0.00    -0.200 F 
ENDBRANCH  67  90
ENDBRANCH  41  42
ENDBRANCH  33  36
ENDBRANCH  31  32
ENDBRANCH  30  31
ENDBRANCH   1  30
TORSDOF 14
ENDMDL
MODEL 2
REMARK VINA RESULT:     -13.2      3.092      4.586
REMARK SMILES O=C(Cn1nc(C(=O)NCCCNC(=O)c2ccc(-c3c4nc(c(-c5c(F)c(F)c(F)c(F)c5F)c5ccc([nH]5)c(-c5c(F)c(F)c(F)c(F)c5F)c5nc(c(-c6c(F)c(F)c(F)c(F)c6F)c6ccc3[nH]6)C=C5)C=C4)cc2)c2ccccc2c1=O)NCc1ccc(F)cc1
REMARK SMILES IDX 10 1 9 2 7 3 8 4 6 6 4 7 5 8 85 9 84 10 86 11 79 12 83 13
REMARK SMILES IDX 80 14 82 15 81 16 3 17 2 18 1 19 87 20 88 22 89 23 90 24
REMARK SMILES IDX 95 25 91 26 94 27 92 28 93 29 11 30 12 31 13 32 14 33 15 35
REMARK SMILES IDX 16 36 17 37 78 38 18 39 77 40 19 41 20 42 21 43 71 44 22 45
REMARK SMILES IDX 76 46 70 47 72 48 23 49 75 50 69 51 68 52 24 54 56 55 36 56
REMARK SMILES IDX 55 57 37 58 40 59 54 60 73 61 38 62 39 63 53 65 74 66 41 67
REMARK SMILES IDX 25 68 26 69 34 70 27 71 28 72 32 73 35 74 29 75 30 76 33 77
REMARK SMILES IDX 31 78 57 79 58 80 66 81 59 82 60 83 64 84 67 85 61 86 62 87
REMARK SMILES IDX 65 88 63 89 42 90 43 91 51 92 44 93 45 94 49 95 52 96 46 97
REMARK SMILES IDX 47 98 50 99 48 100
REMARK H PARENT 9 5 87 21 13 34 72 53 40 64
REMARK Flexibility Score: inf
ROOT
ATOM      1  C   UNL A   1      31.735  30.442  26.415  1.00  0.00     0.118 C 
ENDROOT
BRANCH   1   2
ATOM      2  N   UNL A   1      32.617  30.161  25.291  1.00  0.00    -0.351 N 
ATOM      3  C   UNL A   1      32.535  29.262  24.250  1.00  0.00     0.272 C 
ATOM      4  O   UNL A   1      33.509  29.172  23.512  1.00  0.00    -0.267 OA
ATOM      5  H   UNL A   1      33.428  30.720  25.270  1.00  0.00     0.163 HD
BRANCH   3   6
ATOM      6  C   UNL A   1      31.271  28.411  24.007  1.00  0.00     0.156 A 
ATOM      7  N   UNL A   1      30.293  26.309  24.162  1.00  0.00    -0.219 N 
ATOM      8  N   UNL A   1      31.372  27.142  24.258  1.00  0.00    -0.163 NA
ATOM      9  C   UNL A   1      29.021  26.738  23.824  1.00  0.00     0.275 A 
ATOM     10  C   UNL A   1      28.888  28.164  23.465  1.00  0.00     0.051 A 
ATOM     11  O   UNL A   1      28.035  26.004  23.800  1.00  0.00    -0.267 OA
ATOM     12  C   UNL A   1      29.996  29.011  23.530  1.00  0.00     0.020 A 
ATOM     13  C   UNL A   1      27.637  28.644  23.042  1.00  0.00     0.014 A 
ATOM     14  C   UNL A   1      29.838  30.346  23.134  1.00  0.00     0.011 A 
ATOM     15  C   UNL A   1      27.495  29.974  22.657  1.00  0.00     0.001 A 
ATOM     16  C   UNL A   1      28.598  30.821  22.695  1.00  0.00     0.001 A 
BRANCH   7  17
ATOM     17  C   UNL A   1      30.512  24.935  24.623  1.00  0.00     0.248 C 
BRANCH  17  18
ATOM     18  C   UNL A   1      31.615  24.852  25.676  1.00  0.00     0.242 C 
ATOM     19  O   UNL A   1      31.364  24.810  26.880  1.00  0.00    -0.273 OA
ATOM     20  N   UNL A   1      32.887  24.671  25.176  1.00  0.00    -0.350 N 
ATOM     21  H   UNL A   1      33.008  24.594  24.202  1.00  0.00     0.163 HD
BRANCH  20  22
ATOM     22  C   UNL A   1      34.049  24.591  26.030  1.00  0.00     0.151 C 
BRANCH  22  23
ATOM     23  C   UNL A   1      35.039  23.536  25.602  1.00  0.00    -0.029 A 
ATOM     24  C   UNL A   1      34.641  22.218  25.319  1.00  0.00     0.008 A 
ATOM     25  C   UNL A   1      36.410  23.847  25.575  1.00  0.00     0.008 A 
ATOM     26  C   UNL A   1      35.585  21.247  24.978  1.00  0.00     0.039 A 
ATOM     27  C   UNL A   1      37.353  22.874  25.239  1.00  0.00     0.039 A 
ATOM     28  C   UNL A   1      36.932  21.584  24.937  1.00  0.00     0.123 A 
ATOM     29  F   UNL A   1      37.836  20.651  24.616  1.00  0.00    -0.207 F 
ENDBRANCH  22  23
ENDBRANCH  20  22
ENDBRANCH  17  18
ENDBRANCH   7  17
ENDBRANCH   3   6
ENDBRANCH   1   2
BRANCH   1  30
ATOM     30  C   UNL A   1      31.525  31.942  26.594  1.00  0.00     0.042 C 
BRANCH  30  31
ATOM     31  C   UNL A   1      32.718  32.640  27.245  1.00  0.00     0.118 C 
BRANCH  31  32
ATOM     32  N   UNL A   1      32.439  34.028  27.608  1.00  0.00    -0.352 N 
ATOM     33  C   UNL A   1      32.999  34.825  28.577  1.00  0.00     0.251 C 
ATOM     34  H   UNL A   1      31.736  34.461  27.072  1.00  0.00     0.163 HD
ATOM     35  O   UNL A   1      32.499  35.914  28.842  1.00  0.00    -0.269 OA
BRANCH  33  36
ATOM     36  C   UNL A   1      34.189  34.361  29.315  1.00  0.00     0.039 A 
ATOM     37  C   UNL A   1      35.467  34.573  28.799  1.00  0.00     0.014 A 
ATOM     38  C   UNL A   1      34.024  33.690  30.530  1.00  0.00     0.014 A 
ATOM     39  C   UNL A   1      36.556  33.947  29.387  1.00  0.00     0.010 A 
ATOM     40  C   UNL A   1      35.137  33.147  31.177  1.00  0.00     0.010 A 
ATOM     41  C   UNL A   1      36.405  33.220  30.579  1.00  0.00    -0.014 A 
BRANCH  41  42
ATOM     42  C   UNL A   1      37.584  32.530  31.166  1.00  0.00     0.031 A 
ATOM     43  C   UNL A   1      38.063  32.877  32.551  1.00  0.00     0.074 A 
ATOM     44  C   UNL A   1      38.179  31.540  30.473  1.00  0.00     0.049 A 
ATOM     45  N   UNL A   1      39.062  32.368  33.228  1.00  0.00    -0.248 NA
ATOM     46  C   UNL A   1      37.328  33.929  33.272  1.00  0.00     0.031 C 
ATOM     47  C   UNL A   1      37.788  31.098  29.134  1.00  0.00     0.029 A 
ATOM     48  N   UNL A   1      39.216  30.706  30.808  1.00  0.00    -0.354 N 
ATOM     49  C   UNL A   1      39.087  33.048  34.440  1.00  0.00     0.074 A 
ATOM     50  C   UNL A   1      38.024  34.028  34.396  1.00  0.00     0.031 C 
ATOM     51  C   UNL A   1      38.533  30.040  28.785  1.00  0.00     0.029 A 
ATOM     52  C   UNL A   1      39.504  29.774  29.841  1.00  0.00     0.049 A 
ATOM     53  H   UNL A   1      39.707  30.770  31.658  1.00  0.00     0.167 HD
ATOM     54  C   UNL A   1      39.910  32.857  35.497  1.00  0.00     0.037 A 
ATOM     55  C   UNL A   1      40.454  28.822  29.799  1.00  0.00     0.037 A 
ATOM     56  C   UNL A   1      40.951  31.863  35.545  1.00  0.00     0.049 A 
ATOM     57  C   UNL A   1      41.395  28.678  30.962  1.00  0.00     0.074 A 
ATOM     58  C   UNL A   1      41.826  31.584  36.582  1.00  0.00     0.029 A 
ATOM     59  N   UNL A   1      41.257  30.985  34.516  1.00  0.00    -0.354 N 
ATOM     60  N   UNL A   1      41.403  29.322  32.103  1.00  0.00    -0.248 NA
ATOM     61  C   UNL A   1      42.466  27.681  30.826  1.00  0.00     0.031 C 
ATOM     62  C   UNL A   1      42.693  30.572  36.160  1.00  0.00     0.029 A 
ATOM     63  C   UNL A   1      42.323  30.180  34.884  1.00  0.00     0.049 A 
ATOM     64  H   UNL A   1      40.786  30.940  33.653  1.00  0.00     0.167 HD
ATOM     65  C   UNL A   1      42.465  28.801  32.827  1.00  0.00     0.074 A 
ATOM     66  C   UNL A   1      43.064  27.769  32.006  1.00  0.00     0.031 C 
ATOM     67  C   UNL A   1      42.906  29.152  34.060  1.00  0.00     0.037 A 
BRANCH  54  68
ATOM     68  C   UNL A   1      39.732  33.740  36.699  1.00  0.00     0.064 A 
ATOM     69  C   UNL A   1      40.323  35.010  36.771  1.00  0.00     0.173 A 
ATOM     70  C   UNL A   1      38.885  33.351  37.748  1.00  0.00     0.173 A 
ATOM     71  F   UNL A   1      41.147  35.429  35.798  1.00  0.00    -0.203 F 
ATOM     72  C   UNL A   1      40.081  35.850  37.854  1.00  0.00     0.198 A 
ATOM     73  C   UNL A   1      38.626  34.204  38.817  1.00  0.00     0.198 A 
ATOM     74  F   UNL A   1      38.282  32.152  37.721  1.00  0.00    -0.203 F 
ATOM     75  F   UNL A   1      40.667  37.053  37.909  1.00  0.00    -0.200 F 
ATOM     76  C   UNL A   1      39.226  35.452  38.872  1.00  0.00     0.200 A 
ATOM     77  F   UNL A   1      37.782  33.825  39.788  1.00  0.00    -0.200 F 
ATOM     78  F   UNL A   1      38.979  36.272  39.902  1.00  0.00    -0.200 F 
ENDBRANCH  54  68
BRANCH  55  79
ATOM     79  C   UNL A   1      40.554  27.933  28.612  1.00  0.00     0.064 A 
ATOM     80  C   UNL A   1      39.869  26.711  28.568  1.00  0.00     0.173 A 
ATOM     81  C   UNL A   1      41.313  28.295  27.489  1.00  0.00     0.173 A 
ATOM     82  F   UNL A   1      39.147  26.311  29.625  1.00  0.00    -0.203 F 
ATOM     83  C   UNL A   1      39.946  25.883  27.451  1.00  0.00     0.198 A 
ATOM     84  C   UNL A   1      41.362  27.482  26.359  1.00  0.00     0.198 A 
ATOM     85  F   UNL A   1      41.986  29.455  27.478  1.00  0.00    -0.203 F 
ATOM     86  F   UNL A   1      39.310  24.704  27.450  1.00  0.00    -0.200 F 
ATOM     87  C   UNL A   1      40.683  26.274  26.343  1.00  0.00     0.200 A 
ATOM     88  F   UNL A   1      42.061  27.874  25.284  1.00  0.00    -0.200 F 
ATOM     89  F   UNL A   1      40.742  25.484  25.262  1.00  0.00    -0.200 F 
ENDBRANCH  55  79
BRANCH  67  90
ATOM     90  C   UNL A   1      44.084  28.404  34.614  1.00  0.00     0.064 A 
ATOM     91  C   UNL A   1      43.924  27.199  35.312  1.00  0.00     0.173 A 
ATOM     92  C   UNL A   1      45.391  28.861  34.381  1.00  0.00     0.173 A 
ATOM     93  F   UNL A   1      42.696  26.727  35.573  1.00  0.00    -0.203 F 
ATOM     94  C   UNL A   1      45.028  26.485  35.770  1.00  0.00     0.198 A 
ATOM     95  C   UNL A   1      46.493  28.129  34.812  1.00  0.00     0.198 A 
ATOM     96  F   UNL A   1      45.598  30.005  33.712  1.00  0.00    -0.203 F 
ATOM     97  F   UNL A   1      44.852  25.355  36.468  1.00  0.00    -0.200 F 
ATOM     98  C   UNL A   1      46.312  26.945  35.510  1.00  0.00     0.200 A 
ATOM     99  F   UNL A   1      47.731  28.566  34.545  1.00  0.00    -0.200 F 
ATOM    100  F   UNL A   1      47.373  26.248  35.936  1.00  0.00    -0.200 F 
ENDBRANCH  67  90
ENDBRANCH  41  42
ENDBRANCH  33  36
ENDBRANCH  31  32
ENDBRANCH  30  31
ENDBRANCH   1  30
TORSDOF 14
ENDMDL
MODEL 3
REMARK VINA RESULT:     -13.1      3.646      8.898
REMARK SMILES O=C(Cn1nc(C(=O)NCCCNC(=O)c2ccc(-c3c4nc(c(-c5c(F)c(F)c(F)c(F)c5F)c5ccc([nH]5)c(-c5c(F)c(F)c(F)c(F)c5F)c5nc(c(-c6c(F)c(F)c(F)c(F)c6F)c6ccc3[nH]6)C=C5)C=C4)cc2)c2ccccc2c1=O)NCc1ccc(F)cc1
REMARK SMILES IDX 10 1 9 2 7 3 8 4 6 6 4 7 5 8 85 9 84 10 86 11 79 12 83 13
REMARK SMILES IDX 80 14 82 15 81 16 3 17 2 18 1 19 87 20 88 22 89 23 90 24
REMARK SMILES IDX 95 25 91 26 94 27 92 28 93 29 11 30 12 31 13 32 14 33 15 35
REMARK SMILES IDX 16 36 17 37 78 38 18 39 77 40 19 41 20 42 21 43 71 44 22 45
REMARK SMILES IDX 76 46 70 47 72 48 23 49 75 50 69 51 68 52 24 54 56 55 36 56
REMARK SMILES IDX 55 57 37 58 40 59 54 60 73 61 38 62 39 63 53 65 74 66 41 67
REMARK SMILES IDX 25 68 26 69 34 70 27 71 28 72 32 73 35 74 29 75 30 76 33 77
REMARK SMILES IDX 31 78 57 79 58 80 66 81 59 82 60 83 64 84 67 85 61 86 62 87
REMARK SMILES IDX 65 88 63 89 42 90 43 91 51 92 44 93 45 94 49 95 52 96 46 97
REMARK SMILES IDX 47 98 50 99 48 100
REMARK H PARENT 9 5 87 21 13 34 72 53 40 64
REMARK Flexibility Score: inf
ROOT
ATOM      1  C   UNL A   1      37.009  20.992  24.859  1.00  0.00     0.118 C 
ENDROOT
BRANCH   1   2
ATOM      2  N   UNL A   1      36.174  21.133  26.044  1.00  0.00    -0.351 N 
ATOM      3  C   UNL A   1      34.814  21.278  26.208  1.00  0.00     0.272 C 
ATOM      4  O   UNL A   1      34.408  21.501  27.343  1.00  0.00    -0.267 OA
ATOM      5  H   UNL A   1      36.677  21.123  26.891  1.00  0.00     0.163 HD
BRANCH   3   6
ATOM      6  C   UNL A   1      33.833  21.155  25.022  1.00  0.00     0.156 A 
ATOM      7  N   UNL A   1      32.515  22.280  23.474  1.00  0.00    -0.219 N 
ATOM      8  N   UNL A   1      33.326  22.262  24.574  1.00  0.00    -0.163 NA
ATOM      9  C   UNL A   1      32.193  21.152  22.741  1.00  0.00     0.275 A 
ATOM     10  C   UNL A   1      32.696  19.867  23.267  1.00  0.00     0.051 A 
ATOM     11  O   UNL A   1      31.517  21.172  21.715  1.00  0.00    -0.267 OA
ATOM     12  C   UNL A   1      33.499  19.841  24.410  1.00  0.00     0.020 A 
ATOM     13  C   UNL A   1      32.342  18.678  22.609  1.00  0.00     0.014 A 
ATOM     14  C   UNL A   1      33.915  18.598  24.904  1.00  0.00     0.011 A 
ATOM     15  C   UNL A   1      32.768  17.451  23.108  1.00  0.00     0.001 A 
ATOM     16  C   UNL A   1      33.547  17.412  24.260  1.00  0.00     0.001 A 
BRANCH   7  17
ATOM     17  C   UNL A   1      32.142  23.611  22.987  1.00  0.00     0.248 C 
BRANCH  17  18
ATOM     18  C   UNL A   1      33.198  24.663  23.321  1.00  0.00     0.242 C 
ATOM     19  O   UNL A   1      33.948  25.128  22.464  1.00  0.00    -0.273 OA
ATOM     20  N   UNL A   1      33.141  25.158  24.607  1.00  0.00    -0.350 N 
ATOM     21  H   UNL A   1      32.439  24.828  25.212  1.00  0.00     0.163 HD
BRANCH  20  22
ATOM     22  C   UNL A   1      34.076  26.144  25.097  1.00  0.00     0.151 C 
BRANCH  22  23
ATOM     23  C   UNL A   1      33.423  27.439  25.513  1.00  0.00    -0.029 A 
ATOM     24  C   UNL A   1      33.928  28.218  26.568  1.00  0.00     0.008 A 
ATOM     25  C   UNL A   1      32.223  27.836  24.897  1.00  0.00     0.008 A 
ATOM     26  C   UNL A   1      33.273  29.384  26.969  1.00  0.00     0.039 A 
ATOM     27  C   UNL A   1      31.566  28.998  25.303  1.00  0.00     0.039 A 
ATOM     28  C   UNL A   1      32.100  29.765  26.331  1.00  0.00     0.123 A 
ATOM     29  F   UNL A   1      31.469  30.880  26.721  1.00  0.00    -0.207 F 
ENDBRANCH  22  23
ENDBRANCH  20  22
ENDBRANCH  17  18
ENDBRANCH   7  17
ENDBRANCH   3   6
ENDBRANCH   1   2
BRANCH   1  30
ATOM     30  C   UNL A   1      38.001  19.844  25.012  1.00  0.00     0.042 C 
BRANCH  30  31
ATOM     31  C   UNL A   1      39.235  20.223  25.831  1.00  0.00     0.118 C 
BRANCH  31  32
ATOM     32  N   UNL A   1      40.252  19.174  25.848  1.00  0.00    -0.352 N 
ATOM     33  C   UNL A   1      41.608  19.253  26.052  1.00  0.00     0.251 C 
ATOM     34  H   UNL A   1      39.911  18.265  25.686  1.00  0.00     0.163 HD
ATOM     35  O   UNL A   1      42.319  18.273  25.850  1.00  0.00    -0.269 OA
BRANCH  33  36
ATOM     36  C   UNL A   1      42.214  20.524  26.495  1.00  0.00     0.039 A 
ATOM     37  C   UNL A   1      42.219  20.870  27.845  1.00  0.00     0.014 A 
ATOM     38  C   UNL A   1      42.767  21.387  25.545  1.00  0.00     0.014 A 
ATOM     39  C   UNL A   1      42.592  22.153  28.222  1.00  0.00     0.010 A 
ATOM     40  C   UNL A   1      43.239  22.642  25.941  1.00  0.00     0.010 A 
ATOM     41  C   UNL A   1      43.099  23.057  27.275  1.00  0.00    -0.014 A 
BRANCH  41  42
ATOM     42  C   UNL A   1      43.455  24.435  27.702  1.00  0.00     0.031 A 
ATOM     43  C   UNL A   1      44.893  24.882  27.728  1.00  0.00     0.074 A 
ATOM     44  C   UNL A   1      42.472  25.308  27.999  1.00  0.00     0.049 A 
ATOM     45  N   UNL A   1      45.388  26.049  28.057  1.00  0.00    -0.248 NA
ATOM     46  C   UNL A   1      45.910  23.893  27.335  1.00  0.00     0.031 C 
ATOM     47  C   UNL A   1      41.041  24.998  27.984  1.00  0.00     0.029 A 
ATOM     48  N   UNL A   1      42.521  26.635  28.340  1.00  0.00    -0.354 N 
ATOM     49  C   UNL A   1      46.766  25.929  27.929  1.00  0.00     0.074 A 
ATOM     50  C   UNL A   1      47.036  24.567  27.524  1.00  0.00     0.031 C 
ATOM     51  C   UNL A   1      40.348  26.116  28.243  1.00  0.00     0.029 A 
ATOM     52  C   UNL A   1      41.282  27.202  28.517  1.00  0.00     0.049 A 
ATOM     53  H   UNL A   1      43.362  27.134  28.450  1.00  0.00     0.167 HD
ATOM     54  C   UNL A   1      47.716  26.875  28.117  1.00  0.00     0.037 A 
ATOM     55  C   UNL A   1      40.934  28.452  28.876  1.00  0.00     0.037 A 
ATOM     56  C   UNL A   1      47.441  28.236  28.496  1.00  0.00     0.049 A 
ATOM     57  C   UNL A   1      42.015  29.462  29.140  1.00  0.00     0.074 A 
ATOM     58  C   UNL A   1      48.338  29.273  28.694  1.00  0.00     0.029 A 
ATOM     59  N   UNL A   1      46.175  28.753  28.735  1.00  0.00    -0.354 N 
ATOM     60  N   UNL A   1      43.313  29.338  29.009  1.00  0.00    -0.248 NA
ATOM     61  C   UNL A   1      41.583  30.785  29.612  1.00  0.00     0.031 C 
ATOM     62  C   UNL A   1      47.620  30.401  29.099  1.00  0.00     0.029 A 
ATOM     63  C   UNL A   1      46.271  30.086  29.101  1.00  0.00     0.049 A 
ATOM     64  H   UNL A   1      45.335  28.247  28.656  1.00  0.00     0.167 HD
ATOM     65  C   UNL A   1      43.852  30.565  29.365  1.00  0.00     0.074 A 
ATOM     66  C   UNL A   1      42.738  31.430  29.695  1.00  0.00     0.031 C 
ATOM     67  C   UNL A   1      45.154  30.938  29.420  1.00  0.00     0.037 A 
BRANCH  54  68
ATOM     68  C   UNL A   1      49.152  26.482  27.919  1.00  0.00     0.064 A 
ATOM     69  C   UNL A   1      49.724  26.407  26.641  1.00  0.00     0.173 A 
ATOM     70  C   UNL A   1      49.989  26.268  29.025  1.00  0.00     0.173 A 
ATOM     71  F   UNL A   1      48.966  26.597  25.549  1.00  0.00    -0.203 F 
ATOM     72  C   UNL A   1      51.077  26.123  26.478  1.00  0.00     0.198 A 
ATOM     73  C   UNL A   1      51.347  26.008  28.859  1.00  0.00     0.198 A 
ATOM     74  F   UNL A   1      49.496  26.341  30.271  1.00  0.00    -0.203 F 
ATOM     75  F   UNL A   1      51.598  26.043  25.247  1.00  0.00    -0.200 F 
ATOM     76  C   UNL A   1      51.890  25.932  27.585  1.00  0.00     0.200 A 
ATOM     77  F   UNL A   1      52.134  25.846  29.932  1.00  0.00    -0.200 F 
ATOM     78  F   UNL A   1      53.195  25.680  27.426  1.00  0.00    -0.200 F 
ENDBRANCH  54  68
BRANCH  55  79
ATOM     79  C   UNL A   1      39.497  28.810  29.001  1.00  0.00     0.064 A 
ATOM     80  C   UNL A   1      38.840  28.724  30.236  1.00  0.00     0.173 A 
ATOM     81  C   UNL A   1      38.759  29.268  27.900  1.00  0.00     0.173 A 
ATOM     82  F   UNL A   1      39.497  28.272  31.314  1.00  0.00    -0.203 F 
ATOM     83  C   UNL A   1      37.498  29.075  30.362  1.00  0.00     0.198 A 
ATOM     84  C   UNL A   1      37.426  29.651  28.034  1.00  0.00     0.198 A 
ATOM     85  F   UNL A   1      39.341  29.371  26.697  1.00  0.00    -0.203 F 
ATOM     86  F   UNL A   1      36.884  28.950  31.547  1.00  0.00    -0.200 F 
ATOM     87  C   UNL A   1      36.796  29.548  29.264  1.00  0.00     0.200 A 
ATOM     88  F   UNL A   1      36.758  30.125  26.974  1.00  0.00    -0.200 F 
ATOM     89  F   UNL A   1      35.509  29.902  29.391  1.00  0.00    -0.200 F 
ENDBRANCH  55  79
BRANCH  67  90
ATOM     90  C   UNL A   1      45.454  32.350  29.833  1.00  0.00     0.064 A 
ATOM     91  C   UNL A   1      45.439  33.402  28.907  1.00  0.00     0.173 A 
ATOM     92  C   UNL A   1      45.689  32.663  31.181  1.00  0.00     0.173 A 
ATOM     93  F   UNL A   1      45.233  33.154  27.605  1.00  0.00    -0.203 F 
ATOM     94  C   UNL A   1      45.661  34.715  29.313  1.00  0.00     0.198 A 
ATOM     95  C   UNL A   1      45.879  33.979  31.588  1.00  0.00     0.198 A 
ATOM     96  F   UNL A   1      45.707  31.693  32.107  1.00  0.00    -0.203 F 
ATOM     97  F   UNL A   1      45.680  35.702  28.406  1.00  0.00    -0.200 F 
ATOM     98  C   UNL A   1      45.870  35.004  30.654  1.00  0.00     0.200 A 
ATOM     99  F   UNL A   1      46.064  34.258  32.885  1.00  0.00    -0.200 F 
ATOM    100  F   UNL A   1      46.067  36.270  31.044  1.00  0.00    -0.200 F 
ENDBRANCH  67  90
ENDBRANCH  41  42
ENDBRANCH  33  36
ENDBRANCH  31  32
ENDBRANCH  30  31
ENDBRANCH   1  30
TORSDOF 14
ENDMDL
