MODEL 1
REMARK VINA RESULT:     -11.8      0.000      0.000
REMARK SMILES C[C@H](C[N@H+](C)[C@H]1CC[C@H]([NH3+])CC1)C(=O)NCCCNC(=O)c1ccc(-c2c3nc(c(-c4c(F)c(F)c(F)c(F)c4F)c4ccc([nH]4)c(-c4c(F)c(F)c(F)c(F)c4F)c4nc(c(-c5c(F)c(F)c(F)c(F)c5F)c5ccc2[nH]5)C=C4)C=C3)cc1
REMARK SMILES IDX 16 1 15 2 13 3 14 4 2 6 1 7 3 8 4 9 5 10 6 12 7 13 12 14
REMARK SMILES IDX 8 15 11 16 9 17 10 18 17 22 18 23 19 24 20 25 21 27 22 28
REMARK SMILES IDX 23 29 84 30 24 31 83 32 25 33 26 34 27 35 77 36 28 37 82 38
REMARK SMILES IDX 76 39 78 40 29 41 81 42 75 43 74 44 30 46 62 47 42 48 61 49
REMARK SMILES IDX 43 50 46 51 60 52 79 53 44 54 45 55 59 57 80 58 47 59 31 60
REMARK SMILES IDX 32 61 40 62 33 63 34 64 38 65 41 66 35 67 36 68 39 69 37 70
REMARK SMILES IDX 63 71 64 72 72 73 65 74 66 75 70 76 73 77 67 78 68 79 71 80
REMARK SMILES IDX 69 81 48 82 49 83 57 84 50 85 51 86 55 87 58 88 52 89 53 90
REMARK SMILES IDX 56 91 54 92
REMARK H PARENT 15 5 4 11 10 19 10 20 10 21 19 26 78 45 46 56
REMARK Flexibility Score: inf
ROOT
ATOM      1  C   UNL A   1      31.690  30.654  26.276  1.00  0.00     0.117 C 
ENDROOT
BRANCH   1   2
ATOM      2  N   UNL A   1      33.040  30.230  26.598  1.00  0.00    -0.356 N 
ATOM      3  C   UNL A   1      33.698  29.075  26.331  1.00  0.00     0.228 C 
ATOM      4  O   UNL A   1      34.833  28.953  26.802  1.00  0.00    -0.275 OA
ATOM      5  H   UNL A   1      33.569  30.894  27.096  1.00  0.00     0.163 HD
BRANCH   3   6
ATOM      6  C   UNL A   1      33.082  27.965  25.498  1.00  0.00     0.130 C 
ATOM      7  C   UNL A   1      33.605  26.578  25.882  1.00  0.00     0.024 C 
BRANCH   6   8
ATOM      8  C   UNL A   1      33.164  28.282  23.991  1.00  0.00     0.275 C 
BRANCH   8   9
ATOM      9  N   UNL A   1      32.450  27.268  23.191  1.00  0.00    -0.334 N 
ATOM     10  C   UNL A   1      33.274  26.755  22.101  1.00  0.00     0.332 C 
ATOM     11  H   UNL A   1      32.280  26.461  23.793  1.00  0.00     0.348 HD
BRANCH   9  12
ATOM     12  C   UNL A   1      31.102  27.719  22.789  1.00  0.00     0.184 C 
ATOM     13  C   UNL A   1      31.102  29.241  22.551  1.00  0.00     0.071 C 
ATOM     14  C   UNL A   1      29.951  27.310  23.727  1.00  0.00     0.071 C 
ATOM     15  C   UNL A   1      29.753  29.709  22.004  1.00  0.00     0.071 C 
ATOM     16  C   UNL A   1      28.604  27.782  23.174  1.00  0.00     0.071 C 
ATOM     17  C   UNL A   1      28.604  29.295  22.932  1.00  0.00     0.181 C 
BRANCH  17  18
ATOM     18  N   UNL A   1      27.320  29.703  22.367  1.00  0.00    -0.355 N 
ATOM     19  H   UNL A   1      26.660  29.887  23.122  1.00  0.00     0.344 HD
ATOM     20  H   UNL A   1      26.958  28.957  21.773  1.00  0.00     0.344 HD
ATOM     21  H   UNL A   1      27.446  30.548  21.812  1.00  0.00     0.344 HD
ENDBRANCH  17  18
ENDBRANCH   9  12
ENDBRANCH   8   9
ENDBRANCH   6   8
ENDBRANCH   3   6
ENDBRANCH   1   2
BRANCH   1  22
ATOM     22  C   UNL A   1      31.475  32.120  26.624  1.00  0.00     0.042 C 
BRANCH  22  23
ATOM     23  C   UNL A   1      32.662  32.754  27.340  1.00  0.00     0.118 C 
BRANCH  23  24
ATOM     24  N   UNL A   1      32.446  34.167  27.626  1.00  0.00    -0.352 N 
ATOM     25  C   UNL A   1      33.006  34.967  28.589  1.00  0.00     0.251 C 
ATOM     26  H   UNL A   1      31.800  34.618  27.036  1.00  0.00     0.163 HD
ATOM     27  O   UNL A   1      32.528  36.075  28.823  1.00  0.00    -0.269 OA
BRANCH  25  28
ATOM     28  C   UNL A   1      34.170  34.490  29.358  1.00  0.00     0.039 A 
ATOM     29  C   UNL A   1      33.967  33.939  30.624  1.00  0.00     0.014 A 
ATOM     30  C   UNL A   1      35.460  34.586  28.828  1.00  0.00     0.014 A 
ATOM     31  C   UNL A   1      35.050  33.411  31.327  1.00  0.00     0.010 A 
ATOM     32  C   UNL A   1      36.523  33.984  29.490  1.00  0.00     0.010 A 
ATOM     33  C   UNL A   1      36.328  33.386  30.744  1.00  0.00    -0.014 A 
BRANCH  33  34
ATOM     34  C   UNL A   1      37.469  32.718  31.417  1.00  0.00     0.031 A 
ATOM     35  C   UNL A   1      38.154  31.551  30.765  1.00  0.00     0.074 A 
ATOM     36  C   UNL A   1      37.831  33.116  32.651  1.00  0.00     0.049 A 
ATOM     37  N   UNL A   1      39.110  30.787  31.230  1.00  0.00    -0.248 NA
ATOM     38  C   UNL A   1      37.686  31.175  29.421  1.00  0.00     0.031 C 
ATOM     39  C   UNL A   1      37.207  34.206  33.404  1.00  0.00     0.029 A 
ATOM     40  N   UNL A   1      38.802  32.643  33.496  1.00  0.00    -0.354 N 
ATOM     41  C   UNL A   1      39.350  29.839  30.245  1.00  0.00     0.074 A 
ATOM     42  C   UNL A   1      38.402  30.087  29.180  1.00  0.00     0.031 C 
ATOM     43  C   UNL A   1      37.826  34.333  34.588  1.00  0.00     0.029 A 
ATOM     44  C   UNL A   1      38.855  33.305  34.699  1.00  0.00     0.049 A 
ATOM     45  H   UNL A   1      39.406  31.901  33.263  1.00  0.00     0.167 HD
ATOM     46  C   UNL A   1      40.290  28.865  30.223  1.00  0.00     0.037 A 
ATOM     47  C   UNL A   1      39.633  33.094  35.776  1.00  0.00     0.037 A 
ATOM     48  C   UNL A   1      41.237  28.634  31.283  1.00  0.00     0.049 A 
ATOM     49  C   UNL A   1      40.649  31.985  35.737  1.00  0.00     0.074 A 
ATOM     50  C   UNL A   1      42.268  27.713  31.331  1.00  0.00     0.029 A 
ATOM     51  N   UNL A   1      41.261  29.325  32.486  1.00  0.00    -0.354 N 
ATOM     52  N   UNL A   1      40.919  31.142  34.770  1.00  0.00    -0.248 NA
ATOM     53  C   UNL A   1      41.472  31.799  36.940  1.00  0.00     0.031 C 
ATOM     54  C   UNL A   1      42.878  27.805  32.587  1.00  0.00     0.029 A 
ATOM     55  C   UNL A   1      42.268  28.826  33.298  1.00  0.00     0.049 A 
ATOM     56  H   UNL A   1      40.653  30.061  32.727  1.00  0.00     0.167 HD
ATOM     57  C   UNL A   1      41.954  30.344  35.235  1.00  0.00     0.074 A 
ATOM     58  C   UNL A   1      42.280  30.819  36.565  1.00  0.00     0.031 C 
ATOM     59  C   UNL A   1      42.578  29.309  34.620  1.00  0.00     0.037 A 
BRANCH  46  60
ATOM     60  C   UNL A   1      40.340  27.972  29.016  1.00  0.00     0.064 A 
ATOM     61  C   UNL A   1      39.622  26.767  28.960  1.00  0.00     0.173 A 
ATOM     62  C   UNL A   1      41.084  28.343  27.886  1.00  0.00     0.173 A 
ATOM     63  F   UNL A   1      38.903  26.358  30.017  1.00  0.00    -0.203 F 
ATOM     64  C   UNL A   1      39.671  25.954  27.830  1.00  0.00     0.198 A 
ATOM     65  C   UNL A   1      41.103  27.544  26.745  1.00  0.00     0.198 A 
ATOM     66  F   UNL A   1      41.786  29.486  27.883  1.00  0.00    -0.203 F 
ATOM     67  F   UNL A   1      39.017  24.785  27.820  1.00  0.00    -0.200 F 
ATOM     68  C   UNL A   1      40.403  26.348  26.721  1.00  0.00     0.200 A 
ATOM     69  F   UNL A   1      41.800  27.934  25.669  1.00  0.00    -0.200 F 
ATOM     70  F   UNL A   1      40.441  25.570  25.631  1.00  0.00    -0.200 F 
ENDBRANCH  46  60
BRANCH  47  71
ATOM     71  C   UNL A   1      39.489  33.956  36.980  1.00  0.00     0.064 A 
ATOM     72  C   UNL A   1      38.722  33.537  38.078  1.00  0.00     0.173 A 
ATOM     73  C   UNL A   1      40.105  35.213  37.058  1.00  0.00     0.173 A 
ATOM     74  F   UNL A   1      38.097  32.351  38.043  1.00  0.00    -0.203 F 
ATOM     75  C   UNL A   1      38.559  34.352  39.195  1.00  0.00     0.198 A 
ATOM     76  C   UNL A   1      39.969  36.013  38.190  1.00  0.00     0.198 A 
ATOM     77  F   UNL A   1      40.855  35.659  36.039  1.00  0.00    -0.203 F 
ATOM     78  F   UNL A   1      37.780  33.950  40.207  1.00  0.00    -0.200 F 
ATOM     79  C   UNL A   1      39.187  35.588  39.253  1.00  0.00     0.200 A 
ATOM     80  F   UNL A   1      40.592  37.199  38.249  1.00  0.00    -0.200 F 
ATOM     81  F   UNL A   1      39.034  36.370  40.330  1.00  0.00    -0.200 F 
ENDBRANCH  47  71
BRANCH  59  82
ATOM     82  C   UNL A   1      43.691  28.635  35.370  1.00  0.00     0.064 A 
ATOM     83  C   UNL A   1      43.450  27.557  36.236  1.00  0.00     0.173 A 
ATOM     84  C   UNL A   1      45.020  29.049  35.194  1.00  0.00     0.173 A 
ATOM     85  F   UNL A   1      42.196  27.132  36.452  1.00  0.00    -0.203 F 
ATOM     86  C   UNL A   1      44.494  26.939  36.919  1.00  0.00     0.198 A 
ATOM     87  C   UNL A   1      46.065  28.407  35.850  1.00  0.00     0.198 A 
ATOM     88  F   UNL A   1      45.307  30.071  34.372  1.00  0.00    -0.203 F 
ATOM     89  F   UNL A   1      44.233  25.949  37.782  1.00  0.00    -0.200 F 
ATOM     90  C   UNL A   1      45.801  27.358  36.719  1.00  0.00     0.200 A 
ATOM     91  F   UNL A   1      47.329  28.802  35.644  1.00  0.00    -0.200 F 
ATOM     92  F   UNL A   1      46.806  26.758  37.371  1.00  0.00    -0.200 F 
ENDBRANCH  59  82
ENDBRANCH  33  34
ENDBRANCH  25  28
ENDBRANCH  23  24
ENDBRANCH  22  23
ENDBRANCH   1  22
TORSDOF 14
ENDMDL
MODEL 2
REMARK VINA RESULT:     -11.8      0.134      2.012
REMARK SMILES C[C@H](C[N@H+](C)[C@H]1CC[C@H]([NH3+])CC1)C(=O)NCCCNC(=O)c1ccc(-c2c3nc(c(-c4c(F)c(F)c(F)c(F)c4F)c4ccc([nH]4)c(-c4c(F)c(F)c(F)c(F)c4F)c4nc(c(-c5c(F)c(F)c(F)c(F)c5F)c5ccc2[nH]5)C=C4)C=C3)cc1
REMARK SMILES IDX 16 1 15 2 13 3 14 4 2 6 1 7 3 8 4 9 5 10 6 12 7 13 12 14
REMARK SMILES IDX 8 15 11 16 9 17 10 18 17 22 18 23 19 24 20 25 21 27 22 28
REMARK SMILES IDX 23 29 84 30 24 31 83 32 25 33 26 34 27 35 77 36 28 37 82 38
REMARK SMILES IDX 76 39 78 40 29 41 81 42 75 43 74 44 30 46 62 47 42 48 61 49
REMARK SMILES IDX 43 50 46 51 60 52 79 53 44 54 45 55 59 57 80 58 47 59 31 60
REMARK SMILES IDX 32 61 40 62 33 63 34 64 38 65 41 66 35 67 36 68 39 69 37 70
REMARK SMILES IDX 63 71 64 72 72 73 65 74 66 75 70 76 73 77 67 78 68 79 71 80
REMARK SMILES IDX 69 81 48 82 49 83 57 84 50 85 51 86 55 87 58 88 52 89 53 90
REMARK SMILES IDX 56 91 54 92
REMARK H PARENT 15 5 4 11 10 19 10 20 10 21 19 26 78 45 46 56
REMARK Flexibility Score: inf
ROOT
ATOM      1  C   UNL A   1      31.705  30.669  26.322  1.00  0.00     0.117 C 
ENDROOT
BRANCH   1   2
ATOM      2  N   UNL A   1      33.050  30.249  26.669  1.00  0.00    -0.356 N 
ATOM      3  C   UNL A   1      33.712  29.091  26.426  1.00  0.00     0.228 C 
ATOM      4  O   UNL A   1      34.839  28.974  26.915  1.00  0.00    -0.275 OA
ATOM      5  H   UNL A   1      33.571  30.919  27.167  1.00  0.00     0.163 HD
BRANCH   3   6
ATOM      6  C   UNL A   1      33.109  27.972  25.597  1.00  0.00     0.130 C 
ATOM      7  C   UNL A   1      33.645  26.591  25.987  1.00  0.00     0.024 C 
BRANCH   6   8
ATOM      8  C   UNL A   1      33.189  28.282  24.089  1.00  0.00     0.275 C 
BRANCH   8   9
ATOM      9  N   UNL A   1      32.507  27.245  23.291  1.00  0.00    -0.334 N 
ATOM     10  C   UNL A   1      33.354  26.741  22.214  1.00  0.00     0.332 C 
ATOM     11  H   UNL A   1      32.348  26.440  23.898  1.00  0.00     0.348 HD
BRANCH   9  12
ATOM     12  C   UNL A   1      31.153  27.662  22.870  1.00  0.00     0.184 C 
ATOM     13  C   UNL A   1      31.128  29.176  22.589  1.00  0.00     0.071 C 
ATOM     14  C   UNL A   1      30.004  27.261  23.815  1.00  0.00     0.071 C 
ATOM     15  C   UNL A   1      29.775  29.605  22.023  1.00  0.00     0.071 C 
ATOM     16  C   UNL A   1      28.653  27.694  23.242  1.00  0.00     0.071 C 
ATOM     17  C   UNL A   1      28.628  29.199  22.957  1.00  0.00     0.181 C 
BRANCH  17  18
ATOM     18  N   UNL A   1      27.341  29.569  22.375  1.00  0.00    -0.355 N 
ATOM     19  H   UNL A   1      26.757  28.737  22.285  1.00  0.00     0.344 HD
ATOM     20  H   UNL A   1      27.490  29.982  21.454  1.00  0.00     0.344 HD
ATOM     21  H   UNL A   1      26.876  30.246  22.980  1.00  0.00     0.344 HD
ENDBRANCH  17  18
ENDBRANCH   9  12
ENDBRANCH   8   9
ENDBRANCH   6   8
ENDBRANCH   3   6
ENDBRANCH   1   2
BRANCH   1  22
ATOM     22  C   UNL A   1      31.462  32.119  26.715  1.00  0.00     0.042 C 
BRANCH  22  23
ATOM     23  C   UNL A   1      32.692  32.805  27.297  1.00  0.00     0.118 C 
BRANCH  23  24
ATOM     24  N   UNL A   1      32.444  34.203  27.626  1.00  0.00    -0.352 N 
ATOM     25  C   UNL A   1      32.987  34.986  28.612  1.00  0.00     0.251 C 
ATOM     26  H   UNL A   1      31.786  34.657  27.051  1.00  0.00     0.163 HD
ATOM     27  O   UNL A   1      32.484  36.075  28.880  1.00  0.00    -0.269 OA
BRANCH  25  28
ATOM     28  C   UNL A   1      34.165  34.513  29.364  1.00  0.00     0.039 A 
ATOM     29  C   UNL A   1      33.983  33.971  30.637  1.00  0.00     0.014 A 
ATOM     30  C   UNL A   1      35.445  34.606  28.812  1.00  0.00     0.014 A 
ATOM     31  C   UNL A   1      35.077  33.447  31.325  1.00  0.00     0.010 A 
ATOM     32  C   UNL A   1      36.519  34.007  29.460  1.00  0.00     0.010 A 
ATOM     33  C   UNL A   1      36.345  33.418  30.721  1.00  0.00    -0.014 A 
BRANCH  33  34
ATOM     34  C   UNL A   1      37.496  32.753  31.378  1.00  0.00     0.031 A 
ATOM     35  C   UNL A   1      38.168  31.580  30.724  1.00  0.00     0.074 A 
ATOM     36  C   UNL A   1      37.882  33.162  32.603  1.00  0.00     0.049 A 
ATOM     37  N   UNL A   1      39.132  30.819  31.178  1.00  0.00    -0.248 NA
ATOM     38  C   UNL A   1      37.676  31.194  29.392  1.00  0.00     0.031 C 
ATOM     39  C   UNL A   1      37.273  34.258  33.358  1.00  0.00     0.029 A 
ATOM     40  N   UNL A   1      38.867  32.694  33.434  1.00  0.00    -0.354 N 
ATOM     41  C   UNL A   1      39.352  29.862  30.197  1.00  0.00     0.074 A 
ATOM     42  C   UNL A   1      38.386  30.102  29.147  1.00  0.00     0.031 C 
ATOM     43  C   UNL A   1      37.912  34.394  34.529  1.00  0.00     0.029 A 
ATOM     44  C   UNL A   1      38.942  33.365  34.631  1.00  0.00     0.049 A 
ATOM     45  H   UNL A   1      39.465  31.949  33.196  1.00  0.00     0.167 HD
ATOM     46  C   UNL A   1      40.291  28.887  30.167  1.00  0.00     0.037 A 
ATOM     47  C   UNL A   1      39.740  33.162  35.695  1.00  0.00     0.037 A 
ATOM     48  C   UNL A   1      41.256  28.663  31.211  1.00  0.00     0.049 A 
ATOM     49  C   UNL A   1      40.753  32.051  35.647  1.00  0.00     0.074 A 
ATOM     50  C   UNL A   1      42.287  27.741  31.249  1.00  0.00     0.029 A 
ATOM     51  N   UNL A   1      41.302  29.363  32.408  1.00  0.00    -0.354 N 
ATOM     52  N   UNL A   1      41.004  31.200  34.682  1.00  0.00    -0.248 NA
ATOM     53  C   UNL A   1      41.596  31.874  36.837  1.00  0.00     0.031 C 
ATOM     54  C   UNL A   1      42.919  27.842  32.492  1.00  0.00     0.029 A 
ATOM     55  C   UNL A   1      42.324  28.870  33.206  1.00  0.00     0.049 A 
ATOM     56  H   UNL A   1      40.701  30.102  32.654  1.00  0.00     0.167 HD
ATOM     57  C   UNL A   1      42.046  30.404  35.136  1.00  0.00     0.074 A 
ATOM     58  C   UNL A   1      42.397  30.890  36.455  1.00  0.00     0.031 C 
ATOM     59  C   UNL A   1      42.657  29.363  34.518  1.00  0.00     0.037 A 
BRANCH  46  60
ATOM     60  C   UNL A   1      40.318  27.983  28.967  1.00  0.00     0.064 A 
ATOM     61  C   UNL A   1      41.064  28.300  27.821  1.00  0.00     0.173 A 
ATOM     62  C   UNL A   1      39.620  26.765  28.977  1.00  0.00     0.173 A 
ATOM     63  F   UNL A   1      41.741  29.457  27.754  1.00  0.00    -0.203 F 
ATOM     64  C   UNL A   1      41.087  27.447  26.720  1.00  0.00     0.198 A 
ATOM     65  C   UNL A   1      39.673  25.899  27.887  1.00  0.00     0.198 A 
ATOM     66  F   UNL A   1      38.895  26.409  30.047  1.00  0.00    -0.203 F 
ATOM     67  F   UNL A   1      41.766  27.795  25.619  1.00  0.00    -0.200 F 
ATOM     68  C   UNL A   1      40.400  26.244  26.758  1.00  0.00     0.200 A 
ATOM     69  F   UNL A   1      39.020  24.730  27.932  1.00  0.00    -0.200 F 
ATOM     70  F   UNL A   1      40.431  25.419  25.702  1.00  0.00    -0.200 F 
ENDBRANCH  46  60
BRANCH  47  71
ATOM     71  C   UNL A   1      39.618  34.034  36.894  1.00  0.00     0.064 A 
ATOM     72  C   UNL A   1      40.292  35.262  36.964  1.00  0.00     0.173 A 
ATOM     73  C   UNL A   1      38.832  33.659  37.994  1.00  0.00     0.173 A 
ATOM     74  F   UNL A   1      41.070  35.655  35.946  1.00  0.00    -0.203 F 
ATOM     75  C   UNL A   1      40.205  36.068  38.097  1.00  0.00     0.198 A 
ATOM     76  C   UNL A   1      38.719  34.482  39.113  1.00  0.00     0.198 A 
ATOM     77  F   UNL A   1      38.160  32.498  37.976  1.00  0.00    -0.203 F 
ATOM     78  F   UNL A   1      40.901  37.211  38.158  1.00  0.00    -0.200 F 
ATOM     79  C   UNL A   1      39.413  35.680  39.168  1.00  0.00     0.200 A 
ATOM     80  F   UNL A   1      37.939  34.111  40.138  1.00  0.00    -0.200 F 
ATOM     81  F   UNL A   1      39.326  36.458  40.255  1.00  0.00    -0.200 F 
ENDBRANCH  47  71
BRANCH  59  82
ATOM     82  C   UNL A   1      43.783  28.694  35.253  1.00  0.00     0.064 A 
ATOM     83  C   UNL A   1      45.108  29.140  35.138  1.00  0.00     0.173 A 
ATOM     84  C   UNL A   1      43.529  27.614  36.113  1.00  0.00     0.173 A 
ATOM     85  F   UNL A   1      45.408  30.159  34.317  1.00  0.00    -0.203 F 
ATOM     86  C   UNL A   1      46.139  28.512  35.830  1.00  0.00     0.198 A 
ATOM     87  C   UNL A   1      44.556  27.011  36.832  1.00  0.00     0.198 A 
ATOM     88  F   UNL A   1      42.278  27.151  36.265  1.00  0.00    -0.203 F 
ATOM     89  F   UNL A   1      47.404  28.921  35.661  1.00  0.00    -0.200 F 
ATOM     90  C   UNL A   1      45.862  27.454  36.683  1.00  0.00     0.200 A 
ATOM     91  F   UNL A   1      44.284  25.999  37.667  1.00  0.00    -0.200 F 
ATOM     92  F   UNL A   1      46.854  26.855  37.356  1.00  0.00    -0.200 F 
ENDBRANCH  59  82
ENDBRANCH  33  34
ENDBRANCH  25  28
ENDBRANCH  23  24
ENDBRANCH  22  23
ENDBRANCH   1  22
TORSDOF 14
ENDMDL
MODEL 3
REMARK VINA RESULT:     -11.7      1.354      3.001
REMARK SMILES C[C@H](C[N@H+](C)[C@H]1CC[C@H]([NH3+])CC1)C(=O)NCCCNC(=O)c1ccc(-c2c3nc(c(-c4c(F)c(F)c(F)c(F)c4F)c4ccc([nH]4)c(-c4c(F)c(F)c(F)c(F)c4F)c4nc(c(-c5c(F)c(F)c(F)c(F)c5F)c5ccc2[nH]5)C=C4)C=C3)cc1
REMARK SMILES IDX 16 1 15 2 13 3 14 4 2 6 1 7 3 8 4 9 5 10 6 12 7 13 12 14
REMARK SMILES IDX 8 15 11 16 9 17 10 18 17 22 18 23 19 24 20 25 21 27 22 28
REMARK SMILES IDX 23 29 84 30 24 31 83 32 25 33 26 34 27 35 77 36 28 37 82 38
REMARK SMILES IDX 76 39 78 40 29 41 81 42 75 43 74 44 30 46 62 47 42 48 61 49
REMARK SMILES IDX 43 50 46 51 60 52 79 53 44 54 45 55 59 57 80 58 47 59 31 60
REMARK SMILES IDX 32 61 40 62 33 63 34 64 38 65 41 66 35 67 36 68 39 69 37 70
REMARK SMILES IDX 63 71 64 72 72 73 65 74 66 75 70 76 73 77 67 78 68 79 71 80
REMARK SMILES IDX 69 81 48 82 49 83 57 84 50 85 51 86 55 87 58 88 52 89 53 90
REMARK SMILES IDX 56 91 54 92
REMARK H PARENT 15 5 4 11 10 19 10 20 10 21 19 26 78 45 46 56
REMARK Flexibility Score: inf
ROOT
ATOM      1  C   UNL A   1      31.520  30.699  26.449  1.00  0.00     0.117 C 
ENDROOT
BRANCH   1   2
ATOM      2  N   UNL A   1      31.848  30.281  25.099  1.00  0.00    -0.356 N 
ATOM      3  C   UNL A   1      32.369  29.121  24.628  1.00  0.00     0.228 C 
ATOM      4  O   UNL A   1      32.623  29.068  23.421  1.00  0.00    -0.275 OA
ATOM      5  H   UNL A   1      31.660  30.954  24.406  1.00  0.00     0.163 HD
BRANCH   3   6
ATOM      6  C   UNL A   1      32.643  27.931  25.529  1.00  0.00     0.130 C 
ATOM      7  C   UNL A   1      34.040  27.972  26.155  1.00  0.00     0.024 C 
BRANCH   6   8
ATOM      8  C   UNL A   1      32.300  26.602  24.826  1.00  0.00     0.275 C 
BRANCH   8   9
ATOM      9  N   UNL A   1      33.508  25.963  24.270  1.00  0.00    -0.334 N 
ATOM     10  C   UNL A   1      33.488  25.937  22.811  1.00  0.00     0.332 C 
ATOM     11  H   UNL A   1      34.309  26.548  24.511  1.00  0.00     0.348 HD
BRANCH   9  12
ATOM     12  C   UNL A   1      33.797  24.661  24.908  1.00  0.00     0.184 C 
ATOM     13  C   UNL A   1      32.748  24.359  25.994  1.00  0.00     0.071 C 
ATOM     14  C   UNL A   1      35.224  24.489  25.461  1.00  0.00     0.071 C 
ATOM     15  C   UNL A   1      32.948  22.959  26.574  1.00  0.00     0.071 C 
ATOM     16  C   UNL A   1      35.417  23.085  26.039  1.00  0.00     0.071 C 
ATOM     17  C   UNL A   1      34.371  22.781  27.116  1.00  0.00     0.181 C 
BRANCH  17  18
ATOM     18  N   UNL A   1      34.560  21.421  27.616  1.00  0.00    -0.355 N 
ATOM     19  H   UNL A   1      33.659  20.944  27.653  1.00  0.00     0.344 HD
ATOM     20  H   UNL A   1      34.964  21.456  28.552  1.00  0.00     0.344 HD
ATOM     21  H   UNL A   1      35.188  20.914  26.994  1.00  0.00     0.344 HD
ENDBRANCH  17  18
ENDBRANCH   9  12
ENDBRANCH   8   9
ENDBRANCH   6   8
ENDBRANCH   3   6
ENDBRANCH   1   2
BRANCH   1  22
ATOM     22  C   UNL A   1      31.469  32.216  26.559  1.00  0.00     0.042 C 
BRANCH  22  23
ATOM     23  C   UNL A   1      32.590  32.802  27.412  1.00  0.00     0.118 C 
BRANCH  23  24
ATOM     24  N   UNL A   1      32.394  34.220  27.687  1.00  0.00    -0.352 N 
ATOM     25  C   UNL A   1      32.983  35.024  28.629  1.00  0.00     0.251 C 
ATOM     26  H   UNL A   1      31.739  34.671  27.107  1.00  0.00     0.163 HD
ATOM     27  O   UNL A   1      32.522  36.139  28.862  1.00  0.00    -0.269 OA
BRANCH  25  28
ATOM     28  C   UNL A   1      34.161  34.543  29.376  1.00  0.00     0.039 A 
ATOM     29  C   UNL A   1      33.983  34.022  30.658  1.00  0.00     0.014 A 
ATOM     30  C   UNL A   1      35.437  34.607  28.809  1.00  0.00     0.014 A 
ATOM     31  C   UNL A   1      35.077  33.491  31.343  1.00  0.00     0.010 A 
ATOM     32  C   UNL A   1      36.508  34.001  29.455  1.00  0.00     0.010 A 
ATOM     33  C   UNL A   1      36.338  33.433  30.726  1.00  0.00    -0.014 A 
BRANCH  33  34
ATOM     34  C   UNL A   1      37.485  32.759  31.382  1.00  0.00     0.031 A 
ATOM     35  C   UNL A   1      38.153  31.587  30.722  1.00  0.00     0.074 A 
ATOM     36  C   UNL A   1      37.870  33.159  32.609  1.00  0.00     0.049 A 
ATOM     37  N   UNL A   1      39.113  30.819  31.173  1.00  0.00    -0.248 NA
ATOM     38  C   UNL A   1      37.661  31.211  29.387  1.00  0.00     0.031 C 
ATOM     39  C   UNL A   1      37.265  34.254  33.370  1.00  0.00     0.029 A 
ATOM     40  N   UNL A   1      38.852  32.682  33.440  1.00  0.00    -0.354 N 
ATOM     41  C   UNL A   1      39.330  29.867  30.187  1.00  0.00     0.074 A 
ATOM     42  C   UNL A   1      38.367  30.118  29.137  1.00  0.00     0.031 C 
ATOM     43  C   UNL A   1      37.903  34.380  34.543  1.00  0.00     0.029 A 
ATOM     44  C   UNL A   1      38.928  33.346  34.640  1.00  0.00     0.049 A 
ATOM     45  H   UNL A   1      39.447  31.936  33.198  1.00  0.00     0.167 HD
ATOM     46  C   UNL A   1      40.265  28.888  30.152  1.00  0.00     0.037 A 
ATOM     47  C   UNL A   1      39.723  33.134  35.705  1.00  0.00     0.037 A 
ATOM     48  C   UNL A   1      41.228  28.654  31.197  1.00  0.00     0.049 A 
ATOM     49  C   UNL A   1      40.732  32.019  35.652  1.00  0.00     0.074 A 
ATOM     50  C   UNL A   1      42.254  27.728  31.231  1.00  0.00     0.029 A 
ATOM     51  N   UNL A   1      41.275  29.347  32.398  1.00  0.00    -0.354 N 
ATOM     52  N   UNL A   1      40.981  31.173  34.682  1.00  0.00    -0.248 NA
ATOM     53  C   UNL A   1      41.572  31.832  36.842  1.00  0.00     0.031 C 
ATOM     54  C   UNL A   1      42.885  27.819  32.476  1.00  0.00     0.029 A 
ATOM     55  C   UNL A   1      42.293  28.845  33.195  1.00  0.00     0.049 A 
ATOM     56  H   UNL A   1      40.676  30.087  32.647  1.00  0.00     0.167 HD
ATOM     57  C   UNL A   1      42.019  30.369  35.133  1.00  0.00     0.074 A 
ATOM     58  C   UNL A   1      42.369  30.846  36.455  1.00  0.00     0.031 C 
ATOM     59  C   UNL A   1      42.626  29.329  34.510  1.00  0.00     0.037 A 
BRANCH  46  60
ATOM     60  C   UNL A   1      40.290  27.991  28.947  1.00  0.00     0.064 A 
ATOM     61  C   UNL A   1      41.027  28.319  27.799  1.00  0.00     0.173 A 
ATOM     62  C   UNL A   1      39.600  26.769  28.955  1.00  0.00     0.173 A 
ATOM     63  F   UNL A   1      41.697  29.480  27.734  1.00  0.00    -0.203 F 
ATOM     64  C   UNL A   1      41.049  27.472  26.693  1.00  0.00     0.198 A 
ATOM     65  C   UNL A   1      39.651  25.909  27.860  1.00  0.00     0.198 A 
ATOM     66  F   UNL A   1      38.883  26.403  30.027  1.00  0.00    -0.203 F 
ATOM     67  F   UNL A   1      41.719  27.831  25.589  1.00  0.00    -0.200 F 
ATOM     68  C   UNL A   1      40.369  26.265  26.728  1.00  0.00     0.200 A 
ATOM     69  F   UNL A   1      39.005  24.736  27.902  1.00  0.00    -0.200 F 
ATOM     70  F   UNL A   1      40.398  25.446  25.668  1.00  0.00    -0.200 F 
ENDBRANCH  46  60
BRANCH  47  71
ATOM     71  C   UNL A   1      39.603  33.999  36.909  1.00  0.00     0.064 A 
ATOM     72  C   UNL A   1      38.831  33.599  38.009  1.00  0.00     0.173 A 
ATOM     73  C   UNL A   1      40.249  35.242  36.984  1.00  0.00     0.173 A 
ATOM     74  F   UNL A   1      38.178  32.429  37.977  1.00  0.00    -0.203 F 
ATOM     75  C   UNL A   1      38.690  34.419  39.126  1.00  0.00     0.198 A 
ATOM     76  C   UNL A   1      40.136  36.046  38.116  1.00  0.00     0.198 A 
ATOM     77  F   UNL A   1      41.006  35.669  35.962  1.00  0.00    -0.203 F 
ATOM     78  F   UNL A   1      37.906  34.035  40.141  1.00  0.00    -0.200 F 
ATOM     79  C   UNL A   1      39.348  35.639  39.182  1.00  0.00     0.200 A 
ATOM     80  F   UNL A   1      40.787  37.216  38.172  1.00  0.00    -0.200 F 
ATOM     81  F   UNL A   1      39.217  36.425  40.258  1.00  0.00    -0.200 F 
ENDBRANCH  47  71
BRANCH  59  82
ATOM     82  C   UNL A   1      43.748  28.651  35.243  1.00  0.00     0.064 A 
ATOM     83  C   UNL A   1      45.077  29.082  35.120  1.00  0.00     0.173 A 
ATOM     84  C   UNL A   1      43.486  27.577  36.108  1.00  0.00     0.173 A 
ATOM     85  F   UNL A   1      45.384  30.094  34.294  1.00  0.00    -0.203 F 
ATOM     86  C   UNL A   1      46.105  28.446  35.811  1.00  0.00     0.198 A 
ATOM     87  C   UNL A   1      44.510  26.966  36.826  1.00  0.00     0.198 A 
ATOM     88  F   UNL A   1      42.231  27.129  36.269  1.00  0.00    -0.203 F 
ATOM     89  F   UNL A   1      47.373  28.840  35.634  1.00  0.00    -0.200 F 
ATOM     90  C   UNL A   1      45.819  27.395  36.669  1.00  0.00     0.200 A 
ATOM     91  F   UNL A   1      44.231  25.961  37.667  1.00  0.00    -0.200 F 
ATOM     92  F   UNL A   1      46.809  26.788  37.340  1.00  0.00    -0.200 F 
ENDBRANCH  59  82
ENDBRANCH  33  34
ENDBRANCH  25  28
ENDBRANCH  23  24
ENDBRANCH  22  23
ENDBRANCH   1  22
TORSDOF 14
ENDMDL
