MODEL 1
REMARK VINA RESULT:     -10.9      0.000      0.000
REMARK SMILES COc1ccc(/C=C2\SC(=O)N(CC(=O)N[C@H](C)C(=O)NCCCNC(=O)c3ccc(-c4c5nc(c(-c6c(F)c(F)c(F)c(F)c6F)c6ccc([nH]6)c(-c6c(F)c(F)c(F)c(F)c6F)c6nc(c(-c7c(F)c(F)c(F)c(F)c7F)c7ccc4[nH]7)C=C6)C=C5)cc3)C2=O)cc1OC
REMARK SMILES IDX 19 1 20 2 21 3 17 5 18 6 16 7 14 8 15 9 13 11 12 12 7 13
REMARK SMILES IDX 8 14 9 15 91 16 10 17 92 18 11 19 6 20 3 21 4 22 94 23 5 24
REMARK SMILES IDX 93 25 2 26 1 27 95 28 96 29 22 30 23 31 24 32 25 33 26 34
REMARK SMILES IDX 27 36 28 37 29 38 90 39 30 40 89 41 31 42 32 43 33 44 83 45
REMARK SMILES IDX 34 46 88 47 82 48 84 49 35 50 87 51 81 52 80 53 36 55 68 56
REMARK SMILES IDX 48 57 67 58 49 59 52 60 66 61 85 62 50 63 51 64 65 66 86 67
REMARK SMILES IDX 53 68 37 69 38 70 46 71 39 72 40 73 44 74 47 75 41 76 42 77
REMARK SMILES IDX 45 78 43 79 69 80 70 81 78 82 71 83 72 84 76 85 79 86 73 87
REMARK SMILES IDX 74 88 77 89 75 90 54 91 55 92 63 93 56 94 57 95 61 96 64 97
REMARK SMILES IDX 58 98 59 99 62 100 60 101
REMARK H PARENT 21 4 16 10 25 35 84 54 52 65
REMARK Flexibility Score: inf
ROOT
ATOM      1  C   UNL A   1      44.274  19.546  24.509  1.00  0.00     0.242 C 
ATOM      2  O   UNL A   1      44.291  18.975  23.415  1.00  0.00    -0.273 OA
ATOM      3  N   UNL A   1      43.083  19.618  25.165  1.00  0.00    -0.354 N 
ATOM      4  H   UNL A   1      42.369  19.062  24.777  1.00  0.00     0.163 HD
ENDROOT
BRANCH   1   5
ATOM      5  C   UNL A   1      45.550  20.167  25.089  1.00  0.00     0.168 C 
ATOM      6  C   UNL A   1      46.688  19.170  25.258  1.00  0.00     0.041 C 
BRANCH   5   7
ATOM      7  N   UNL A   1      45.939  21.331  24.296  1.00  0.00    -0.343 N 
ATOM      8  C   UNL A   1      46.012  22.647  24.618  1.00  0.00     0.240 C 
ATOM      9  O   UNL A   1      46.659  23.371  23.856  1.00  0.00    -0.273 OA
ATOM     10  H   UNL A   1      46.193  21.124  23.367  1.00  0.00     0.164 HD
BRANCH   8  11
ATOM     11  C   UNL A   1      45.450  23.191  25.927  1.00  0.00     0.229 C 
BRANCH  11  12
ATOM     12  N   UNL A   1      45.162  24.611  25.872  1.00  0.00    -0.259 N 
ATOM     13  C   UNL A   1      46.044  27.976  26.846  1.00  0.00     0.029 C 
ATOM     14  C   UNL A   1      45.440  26.898  26.320  1.00  0.00     0.083 C 
ATOM     15  S   UNL A   1      43.936  26.824  25.480  1.00  0.00    -0.022 SA
ATOM     16  C   UNL A   1      46.009  25.530  26.446  1.00  0.00     0.268 C 
ATOM     17  C   UNL A   1      43.988  25.082  25.352  1.00  0.00     0.294 C 
ATOM     18  O   UNL A   1      47.069  25.280  27.002  1.00  0.00    -0.268 OA
ATOM     19  O   UNL A   1      43.098  24.423  24.842  1.00  0.00    -0.261 OA
BRANCH  13  20
ATOM     20  C   UNL A   1      45.463  29.325  26.890  1.00  0.00    -0.020 A 
ATOM     21  C   UNL A   1      44.482  31.955  27.049  1.00  0.00     0.160 A 
ATOM     22  C   UNL A   1      43.713  30.875  27.512  1.00  0.00     0.051 A 
ATOM     23  C   UNL A   1      45.733  31.723  26.474  1.00  0.00     0.161 A 
ATOM     24  C   UNL A   1      44.198  29.563  27.428  1.00  0.00     0.012 A 
ATOM     25  C   UNL A   1      46.191  30.405  26.377  1.00  0.00     0.058 A 
BRANCH  21  26
ATOM     26  O   UNL A   1      44.035  33.218  27.325  1.00  0.00    -0.493 OA
ATOM     27  C   UNL A   1      44.023  33.498  28.723  1.00  0.00     0.278 C 
ENDBRANCH  21  26
BRANCH  23  28
ATOM     28  O   UNL A   1      46.659  32.617  26.014  1.00  0.00    -0.493 OA
ATOM     29  C   UNL A   1      47.504  33.263  26.947  1.00  0.00     0.278 C 
ENDBRANCH  23  28
ENDBRANCH  13  20
ENDBRANCH  11  12
ENDBRANCH   8  11
ENDBRANCH   5   7
ENDBRANCH   1   5
BRANCH   3  30
ATOM     30  C   UNL A   1      42.687  20.375  26.337  1.00  0.00     0.117 C 
BRANCH  30  31
ATOM     31  C   UNL A   1      41.183  20.606  26.369  1.00  0.00     0.042 C 
BRANCH  31  32
ATOM     32  C   UNL A   1      40.795  22.047  26.671  1.00  0.00     0.118 C 
BRANCH  32  33
ATOM     33  N   UNL A   1      39.584  22.456  25.972  1.00  0.00    -0.352 N 
ATOM     34  C   UNL A   1      38.809  23.575  26.131  1.00  0.00     0.251 C 
ATOM     35  H   UNL A   1      39.275  21.830  25.278  1.00  0.00     0.163 HD
ATOM     36  O   UNL A   1      37.706  23.632  25.596  1.00  0.00    -0.269 OA
BRANCH  34  37
ATOM     37  C   UNL A   1      39.288  24.703  26.954  1.00  0.00     0.039 A 
ATOM     38  C   UNL A   1      40.084  25.684  26.356  1.00  0.00     0.014 A 
ATOM     39  C   UNL A   1      38.978  24.787  28.314  1.00  0.00     0.014 A 
ATOM     40  C   UNL A   1      40.516  26.776  27.110  1.00  0.00     0.010 A 
ATOM     41  C   UNL A   1      39.325  25.924  29.037  1.00  0.00     0.010 A 
ATOM     42  C   UNL A   1      40.110  26.923  28.446  1.00  0.00    -0.014 A 
BRANCH  42  43
ATOM     43  C   UNL A   1      40.507  28.113  29.241  1.00  0.00     0.031 A 
ATOM     44  C   UNL A   1      41.882  28.197  29.843  1.00  0.00     0.074 A 
ATOM     45  C   UNL A   1      39.609  29.093  29.461  1.00  0.00     0.049 A 
ATOM     46  N   UNL A   1      42.399  29.134  30.600  1.00  0.00    -0.248 NA
ATOM     47  C   UNL A   1      42.790  27.068  29.587  1.00  0.00     0.031 C 
ATOM     48  C   UNL A   1      38.229  29.101  28.974  1.00  0.00     0.029 A 
ATOM     49  N   UNL A   1      39.722  30.271  30.157  1.00  0.00    -0.354 N 
ATOM     50  C   UNL A   1      43.680  28.700  30.915  1.00  0.00     0.074 A 
ATOM     51  C   UNL A   1      43.842  27.390  30.324  1.00  0.00     0.031 C 
ATOM     52  C   UNL A   1      37.634  30.239  29.358  1.00  0.00     0.029 A 
ATOM     53  C   UNL A   1      38.573  31.022  30.156  1.00  0.00     0.049 A 
ATOM     54  H   UNL A   1      40.548  30.550  30.614  1.00  0.00     0.167 HD
ATOM     55  C   UNL A   1      44.643  29.347  31.613  1.00  0.00     0.037 A 
ATOM     56  C   UNL A   1      38.304  32.206  30.739  1.00  0.00     0.037 A 
ATOM     57  C   UNL A   1      44.481  30.658  32.185  1.00  0.00     0.049 A 
ATOM     58  C   UNL A   1      39.389  32.898  31.520  1.00  0.00     0.074 A 
ATOM     59  C   UNL A   1      45.415  31.426  32.861  1.00  0.00     0.029 A 
ATOM     60  N   UNL A   1      43.306  31.394  32.156  1.00  0.00    -0.354 N 
ATOM     61  N   UNL A   1      40.621  32.513  31.748  1.00  0.00    -0.248 NA
ATOM     62  C   UNL A   1      39.046  34.195  32.119  1.00  0.00     0.031 C 
ATOM     63  C   UNL A   1      44.786  32.597  33.295  1.00  0.00     0.029 A 
ATOM     64  C   UNL A   1      43.481  32.594  32.828  1.00  0.00     0.049 A 
ATOM     65  H   UNL A   1      42.470  31.106  31.722  1.00  0.00     0.167 HD
ATOM     66  C   UNL A   1      41.210  33.533  32.484  1.00  0.00     0.074 A 
ATOM     67  C   UNL A   1      40.204  34.560  32.649  1.00  0.00     0.031 C 
ATOM     68  C   UNL A   1      42.470  33.611  32.980  1.00  0.00     0.037 A 
BRANCH  55  69
ATOM     69  C   UNL A   1      45.960  28.645  31.800  1.00  0.00     0.064 A 
ATOM     70  C   UNL A   1      46.198  27.799  32.896  1.00  0.00     0.173 A 
ATOM     71  C   UNL A   1      46.984  28.789  30.853  1.00  0.00     0.173 A 
ATOM     72  F   UNL A   1      45.257  27.633  33.838  1.00  0.00    -0.203 F 
ATOM     73  C   UNL A   1      47.421  27.152  33.051  1.00  0.00     0.198 A 
ATOM     74  C   UNL A   1      48.193  28.113  30.992  1.00  0.00     0.198 A 
ATOM     75  F   UNL A   1      46.810  29.581  29.783  1.00  0.00    -0.203 F 
ATOM     76  F   UNL A   1      47.644  26.394  34.134  1.00  0.00    -0.200 F 
ATOM     77  C   UNL A   1      48.414  27.302  32.095  1.00  0.00     0.200 A 
ATOM     78  F   UNL A   1      49.145  28.246  30.059  1.00  0.00    -0.200 F 
ATOM     79  F   UNL A   1      49.588  26.671  32.240  1.00  0.00    -0.200 F 
ENDBRANCH  55  69
BRANCH  56  80
ATOM     80  C   UNL A   1      36.958  32.821  30.592  1.00  0.00     0.064 A 
ATOM     81  C   UNL A   1      36.615  33.542  29.440  1.00  0.00     0.173 A 
ATOM     82  C   UNL A   1      35.991  32.712  31.604  1.00  0.00     0.173 A 
ATOM     83  F   UNL A   1      37.511  33.691  28.453  1.00  0.00    -0.203 F 
ATOM     84  C   UNL A   1      35.370  34.156  29.317  1.00  0.00     0.198 A 
ATOM     85  C   UNL A   1      34.734  33.296  31.465  1.00  0.00     0.198 A 
ATOM     86  F   UNL A   1      36.264  32.026  32.723  1.00  0.00    -0.203 F 
ATOM     87  F   UNL A   1      35.091  34.888  28.230  1.00  0.00    -0.200 F 
ATOM     88  C   UNL A   1      34.429  34.028  30.327  1.00  0.00     0.200 A 
ATOM     89  F   UNL A   1      33.821  33.154  32.435  1.00  0.00    -0.200 F 
ATOM     90  F   UNL A   1      33.230  34.615  30.208  1.00  0.00    -0.200 F 
ENDBRANCH  56  80
BRANCH  68  91
ATOM     91  C   UNL A   1      42.844  34.870  33.711  1.00  0.00     0.064 A 
ATOM     92  C   UNL A   1      42.760  34.970  35.108  1.00  0.00     0.173 A 
ATOM     93  C   UNL A   1      43.318  35.985  33.002  1.00  0.00     0.173 A 
ATOM     94  F   UNL A   1      42.301  33.939  35.833  1.00  0.00    -0.203 F 
ATOM     95  C   UNL A   1      43.098  36.152  35.763  1.00  0.00     0.198 A 
ATOM     96  C   UNL A   1      43.693  37.151  33.663  1.00  0.00     0.198 A 
ATOM     97  F   UNL A   1      43.429  35.940  31.665  1.00  0.00    -0.203 F 
ATOM     98  F   UNL A   1      42.947  36.245  37.091  1.00  0.00    -0.200 F 
ATOM     99  C   UNL A   1      43.571  37.238  35.041  1.00  0.00     0.200 A 
ATOM    100  F   UNL A   1      44.167  38.192  32.966  1.00  0.00    -0.200 F 
ATOM    101  F   UNL A   1      43.900  38.372  35.675  1.00  0.00    -0.200 F 
ENDBRANCH  68  91
ENDBRANCH  42  43
ENDBRANCH  34  37
ENDBRANCH  32  33
ENDBRANCH  31  32
ENDBRANCH  30  31
ENDBRANCH   3  30
TORSDOF 16
ENDMDL
MODEL 2
REMARK VINA RESULT:     -10.8      4.313     11.326
REMARK SMILES COc1ccc(/C=C2\SC(=O)N(CC(=O)N[C@H](C)C(=O)NCCCNC(=O)c3ccc(-c4c5nc(c(-c6c(F)c(F)c(F)c(F)c6F)c6ccc([nH]6)c(-c6c(F)c(F)c(F)c(F)c6F)c6nc(c(-c7c(F)c(F)c(F)c(F)c7F)c7ccc4[nH]7)C=C6)C=C5)cc3)C2=O)cc1OC
REMARK SMILES IDX 19 1 20 2 21 3 17 5 18 6 16 7 14 8 15 9 13 11 12 12 7 13
REMARK SMILES IDX 8 14 9 15 91 16 10 17 92 18 11 19 6 20 3 21 4 22 94 23 5 24
REMARK SMILES IDX 93 25 2 26 1 27 95 28 96 29 22 30 23 31 24 32 25 33 26 34
REMARK SMILES IDX 27 36 28 37 29 38 90 39 30 40 89 41 31 42 32 43 33 44 83 45
REMARK SMILES IDX 34 46 88 47 82 48 84 49 35 50 87 51 81 52 80 53 36 55 68 56
REMARK SMILES IDX 48 57 67 58 49 59 52 60 66 61 85 62 50 63 51 64 65 66 86 67
REMARK SMILES IDX 53 68 37 69 38 70 46 71 39 72 40 73 44 74 47 75 41 76 42 77
REMARK SMILES IDX 45 78 43 79 69 80 70 81 78 82 71 83 72 84 76 85 79 86 73 87
REMARK SMILES IDX 74 88 77 89 75 90 54 91 55 92 63 93 56 94 57 95 61 96 64 97
REMARK SMILES IDX 58 98 59 99 62 100 60 101
REMARK H PARENT 21 4 16 10 25 35 84 54 52 65
REMARK Flexibility Score: inf
ROOT
ATOM      1  C   UNL A   1      32.767  35.672  31.705  1.00  0.00     0.242 C 
ATOM      2  O   UNL A   1      31.645  35.663  32.219  1.00  0.00    -0.273 OA
ATOM      3  N   UNL A   1      32.866  35.302  30.399  1.00  0.00    -0.354 N 
ATOM      4  H   UNL A   1      32.004  35.215  29.932  1.00  0.00     0.163 HD
ENDROOT
BRANCH   1   5
ATOM      5  C   UNL A   1      34.001  36.066  32.525  1.00  0.00     0.168 C 
ATOM      6  C   UNL A   1      33.986  37.516  32.987  1.00  0.00     0.041 C 
BRANCH   5   7
ATOM      7  N   UNL A   1      34.181  35.128  33.632  1.00  0.00    -0.343 N 
ATOM      8  C   UNL A   1      34.962  34.025  33.749  1.00  0.00     0.240 C 
ATOM      9  O   UNL A   1      35.152  33.597  34.891  1.00  0.00    -0.273 OA
ATOM     10  H   UNL A   1      33.642  35.333  34.430  1.00  0.00     0.164 HD
BRANCH   8  11
ATOM     11  C   UNL A   1      35.692  33.420  32.555  1.00  0.00     0.229 C 
BRANCH  11  12
ATOM     12  N   UNL A   1      37.010  32.920  32.892  1.00  0.00    -0.259 N 
ATOM     13  C   UNL A   1      39.151  30.094  33.588  1.00  0.00     0.029 C 
ATOM     14  C   UNL A   1      38.662  31.330  33.396  1.00  0.00     0.083 C 
ATOM     15  S   UNL A   1      39.453  32.840  33.654  1.00  0.00    -0.022 SA
ATOM     16  C   UNL A   1      37.263  31.569  32.950  1.00  0.00     0.268 C 
ATOM     17  C   UNL A   1      38.019  33.762  33.273  1.00  0.00     0.294 C 
ATOM     18  O   UNL A   1      36.465  30.679  32.698  1.00  0.00    -0.268 OA
ATOM     19  O   UNL A   1      37.972  34.979  33.328  1.00  0.00    -0.261 OA
BRANCH  13  20
ATOM     20  C   UNL A   1      40.465  29.794  34.171  1.00  0.00    -0.020 A 
ATOM     21  C   UNL A   1      42.970  29.072  35.225  1.00  0.00     0.160 A 
ATOM     22  C   UNL A   1      41.978  29.625  36.051  1.00  0.00     0.051 A 
ATOM     23  C   UNL A   1      42.726  28.907  33.860  1.00  0.00     0.161 A 
ATOM     24  C   UNL A   1      40.731  29.990  35.526  1.00  0.00     0.012 A 
ATOM     25  C   UNL A   1      41.486  29.299  33.350  1.00  0.00     0.058 A 
BRANCH  21  26
ATOM     26  O   UNL A   1      44.091  28.569  35.827  1.00  0.00    -0.493 OA
ATOM     27  C   UNL A   1      45.004  29.593  36.218  1.00  0.00     0.278 C 
ENDBRANCH  21  26
BRANCH  23  28
ATOM     28  O   UNL A   1      43.518  28.346  32.897  1.00  0.00    -0.493 OA
ATOM     29  C   UNL A   1      43.666  26.940  32.869  1.00  0.00     0.278 C 
ENDBRANCH  23  28
ENDBRANCH  13  20
ENDBRANCH  11  12
ENDBRANCH   8  11
ENDBRANCH   5   7
ENDBRANCH   1   5
BRANCH   3  30
ATOM     30  C   UNL A   1      34.027  35.015  29.577  1.00  0.00     0.117 C 
BRANCH  30  31
ATOM     31  C   UNL A   1      33.723  33.941  28.542  1.00  0.00     0.042 C 
BRANCH  31  32
ATOM     32  C   UNL A   1      34.548  32.674  28.719  1.00  0.00     0.118 C 
BRANCH  32  33
ATOM     33  N   UNL A   1      33.838  31.481  28.278  1.00  0.00    -0.352 N 
ATOM     34  C   UNL A   1      34.322  30.251  27.914  1.00  0.00     0.251 C 
ATOM     35  H   UNL A   1      32.859  31.573  28.233  1.00  0.00     0.163 HD
ATOM     36  O   UNL A   1      33.579  29.444  27.362  1.00  0.00    -0.269 OA
BRANCH  34  37
ATOM     37  C   UNL A   1      35.733  29.899  28.167  1.00  0.00     0.039 A 
ATOM     38  C   UNL A   1      36.664  30.067  27.140  1.00  0.00     0.014 A 
ATOM     39  C   UNL A   1      36.138  29.384  29.401  1.00  0.00     0.014 A 
ATOM     40  C   UNL A   1      38.009  29.774  27.372  1.00  0.00     0.010 A 
ATOM     41  C   UNL A   1      37.490  29.187  29.662  1.00  0.00     0.010 A 
ATOM     42  C   UNL A   1      38.438  29.366  28.646  1.00  0.00    -0.014 A 
BRANCH  42  43
ATOM     43  C   UNL A   1      39.874  29.114  28.927  1.00  0.00     0.031 A 
ATOM     44  C   UNL A   1      40.702  30.153  29.631  1.00  0.00     0.074 A 
ATOM     45  C   UNL A   1      40.442  27.968  28.502  1.00  0.00     0.049 A 
ATOM     46  N   UNL A   1      41.978  30.133  29.928  1.00  0.00    -0.248 NA
ATOM     47  C   UNL A   1      40.015  31.392  30.029  1.00  0.00     0.031 C 
ATOM     48  C   UNL A   1      39.755  26.907  27.763  1.00  0.00     0.029 A 
ATOM     49  N   UNL A   1      41.728  27.507  28.625  1.00  0.00    -0.354 N 
ATOM     50  C   UNL A   1      42.243  31.354  30.535  1.00  0.00     0.074 A 
ATOM     51  C   UNL A   1      41.015  32.117  30.506  1.00  0.00     0.031 C 
ATOM     52  C   UNL A   1      40.617  25.908  27.526  1.00  0.00     0.029 A 
ATOM     53  C   UNL A   1      41.928  26.273  28.056  1.00  0.00     0.049 A 
ATOM     54  H   UNL A   1      42.441  28.012  29.079  1.00  0.00     0.167 HD
ATOM     55  C   UNL A   1      43.400  31.788  31.089  1.00  0.00     0.037 A 
ATOM     56  C   UNL A   1      43.043  25.525  27.964  1.00  0.00     0.037 A 
ATOM     57  C   UNL A   1      44.615  31.017  31.129  1.00  0.00     0.049 A 
ATOM     58  C   UNL A   1      44.319  26.038  28.576  1.00  0.00     0.074 A 
ATOM     59  C   UNL A   1      45.825  31.342  31.717  1.00  0.00     0.029 A 
ATOM     60  N   UNL A   1      44.777  29.766  30.550  1.00  0.00    -0.354 N 
ATOM     61  N   UNL A   1      44.539  27.162  29.215  1.00  0.00    -0.248 NA
ATOM     62  C   UNL A   1      45.500  25.171  28.463  1.00  0.00     0.031 C 
ATOM     63  C   UNL A   1      46.735  30.319  31.439  1.00  0.00     0.029 A 
ATOM     64  C   UNL A   1      46.075  29.321  30.740  1.00  0.00     0.049 A 
ATOM     65  H   UNL A   1      44.073  29.270  30.073  1.00  0.00     0.167 HD
ATOM     66  C   UNL A   1      45.871  27.123  29.608  1.00  0.00     0.074 A 
ATOM     67  C   UNL A   1      46.401  25.856  29.152  1.00  0.00     0.031 C 
ATOM     68  C   UNL A   1      46.589  28.053  30.284  1.00  0.00     0.037 A 
BRANCH  55  69
ATOM     69  C   UNL A   1      43.409  33.164  31.694  1.00  0.00     0.064 A 
ATOM     70  C   UNL A   1      43.649  34.312  30.921  1.00  0.00     0.173 A 
ATOM     71  C   UNL A   1      43.137  33.343  33.059  1.00  0.00     0.173 A 
ATOM     72  F   UNL A   1      43.926  34.198  29.613  1.00  0.00    -0.203 F 
ATOM     73  C   UNL A   1      43.648  35.579  31.497  1.00  0.00     0.198 A 
ATOM     74  C   UNL A   1      43.101  34.615  33.625  1.00  0.00     0.198 A 
ATOM     75  F   UNL A   1      42.894  32.283  33.845  1.00  0.00    -0.203 F 
ATOM     76  F   UNL A   1      43.936  36.654  30.748  1.00  0.00    -0.200 F 
ATOM     77  C   UNL A   1      43.366  35.731  32.845  1.00  0.00     0.200 A 
ATOM     78  F   UNL A   1      42.812  34.760  34.925  1.00  0.00    -0.200 F 
ATOM     79  F   UNL A   1      43.356  36.952  33.397  1.00  0.00    -0.200 F 
ENDBRANCH  55  69
BRANCH  56  80
ATOM     80  C   UNL A   1      43.000  24.205  27.281  1.00  0.00     0.064 A 
ATOM     81  C   UNL A   1      42.592  23.050  27.965  1.00  0.00     0.173 A 
ATOM     82  C   UNL A   1      43.379  24.065  25.937  1.00  0.00     0.173 A 
ATOM     83  F   UNL A   1      42.238  23.128  29.257  1.00  0.00    -0.203 F 
ATOM     84  C   UNL A   1      42.592  21.804  27.341  1.00  0.00     0.198 A 
ATOM     85  C   UNL A   1      43.345  22.824  25.304  1.00  0.00     0.198 A 
ATOM     86  F   UNL A   1      43.770  25.137  25.234  1.00  0.00    -0.203 F 
ATOM     87  F   UNL A   1      42.252  20.710  28.036  1.00  0.00    -0.200 F 
ATOM     88  C   UNL A   1      42.963  21.693  26.010  1.00  0.00     0.200 A 
ATOM     89  F   UNL A   1      43.686  22.724  24.013  1.00  0.00    -0.200 F 
ATOM     90  F   UNL A   1      42.960  20.496  25.409  1.00  0.00    -0.200 F 
ENDBRANCH  56  80
BRANCH  68  91
ATOM     91  C   UNL A   1      48.017  27.715  30.611  1.00  0.00     0.064 A 
ATOM     92  C   UNL A   1      49.078  28.082  29.769  1.00  0.00     0.173 A 
ATOM     93  C   UNL A   1      48.329  27.034  31.798  1.00  0.00     0.173 A 
ATOM     94  F   UNL A   1      48.834  28.722  28.615  1.00  0.00    -0.203 F 
ATOM     95  C   UNL A   1      50.392  27.745  30.084  1.00  0.00     0.198 A 
ATOM     96  C   UNL A   1      49.647  26.734  32.129  1.00  0.00     0.198 A 
ATOM     97  F   UNL A   1      47.354  26.669  32.645  1.00  0.00    -0.203 F 
ATOM     98  F   UNL A   1      51.381  28.048  29.232  1.00  0.00    -0.200 F 
ATOM     99  C   UNL A   1      50.675  27.079  31.266  1.00  0.00     0.200 A 
ATOM    100  F   UNL A   1      49.921  26.108  33.281  1.00  0.00    -0.200 F 
ATOM    101  F   UNL A   1      51.942  26.760  31.570  1.00  0.00    -0.200 F 
ENDBRANCH  68  91
ENDBRANCH  42  43
ENDBRANCH  34  37
ENDBRANCH  32  33
ENDBRANCH  31  32
ENDBRANCH  30  31
ENDBRANCH   3  30
TORSDOF 16
ENDMDL
MODEL 3
REMARK VINA RESULT:     -10.7      4.395     11.273
REMARK SMILES COc1ccc(/C=C2\SC(=O)N(CC(=O)N[C@H](C)C(=O)NCCCNC(=O)c3ccc(-c4c5nc(c(-c6c(F)c(F)c(F)c(F)c6F)c6ccc([nH]6)c(-c6c(F)c(F)c(F)c(F)c6F)c6nc(c(-c7c(F)c(F)c(F)c(F)c7F)c7ccc4[nH]7)C=C6)C=C5)cc3)C2=O)cc1OC
REMARK SMILES IDX 19 1 20 2 21 3 17 5 18 6 16 7 14 8 15 9 13 11 12 12 7 13
REMARK SMILES IDX 8 14 9 15 91 16 10 17 92 18 11 19 6 20 3 21 4 22 94 23 5 24
REMARK SMILES IDX 93 25 2 26 1 27 95 28 96 29 22 30 23 31 24 32 25 33 26 34
REMARK SMILES IDX 27 36 28 37 29 38 90 39 30 40 89 41 31 42 32 43 33 44 83 45
REMARK SMILES IDX 34 46 88 47 82 48 84 49 35 50 87 51 81 52 80 53 36 55 68 56
REMARK SMILES IDX 48 57 67 58 49 59 52 60 66 61 85 62 50 63 51 64 65 66 86 67
REMARK SMILES IDX 53 68 37 69 38 70 46 71 39 72 40 73 44 74 47 75 41 76 42 77
REMARK SMILES IDX 45 78 43 79 69 80 70 81 78 82 71 83 72 84 76 85 79 86 73 87
REMARK SMILES IDX 74 88 77 89 75 90 54 91 55 92 63 93 56 94 57 95 61 96 64 97
REMARK SMILES IDX 58 98 59 99 62 100 60 101
REMARK H PARENT 21 4 16 10 25 35 84 54 52 65
REMARK Flexibility Score: inf
ROOT
ATOM      1  C   UNL A   1      32.808  35.383  31.931  1.00  0.00     0.242 C 
ATOM      2  O   UNL A   1      31.697  35.336  32.466  1.00  0.00    -0.273 OA
ATOM      3  N   UNL A   1      32.898  35.006  30.627  1.00  0.00    -0.354 N 
ATOM      4  H   UNL A   1      32.031  34.881  30.177  1.00  0.00     0.163 HD
ENDROOT
BRANCH   1   5
ATOM      5  C   UNL A   1      34.041  35.833  32.725  1.00  0.00     0.168 C 
ATOM      6  C   UNL A   1      33.875  37.195  33.384  1.00  0.00     0.041 C 
BRANCH   5   7
ATOM      7  N   UNL A   1      34.423  34.792  33.677  1.00  0.00    -0.343 N 
ATOM      8  C   UNL A   1      35.592  34.122  33.845  1.00  0.00     0.240 C 
ATOM      9  O   UNL A   1      35.738  33.520  34.912  1.00  0.00    -0.273 OA
ATOM     10  H   UNL A   1      33.711  34.533  34.304  1.00  0.00     0.164 HD
BRANCH   8  11
ATOM     11  C   UNL A   1      36.732  34.219  32.838  1.00  0.00     0.229 C 
BRANCH  11  12
ATOM     12  N   UNL A   1      37.915  33.491  33.251  1.00  0.00    -0.259 N 
ATOM     13  C   UNL A   1      39.654  30.336  33.531  1.00  0.00     0.029 C 
ATOM     14  C   UNL A   1      39.309  31.633  33.592  1.00  0.00     0.083 C 
ATOM     15  S   UNL A   1      40.146  32.923  34.372  1.00  0.00    -0.022 SA
ATOM     16  C   UNL A   1      38.048  32.147  32.991  1.00  0.00     0.268 C 
ATOM     17  C   UNL A   1      38.889  34.081  34.009  1.00  0.00     0.294 C 
ATOM     18  O   UNL A   1      37.250  31.452  32.380  1.00  0.00    -0.268 OA
ATOM     19  O   UNL A   1      38.926  35.243  34.375  1.00  0.00    -0.261 OA
BRANCH  13  20
ATOM     20  C   UNL A   1      40.801  29.740  34.230  1.00  0.00    -0.020 A 
ATOM     21  C   UNL A   1      42.974  28.469  35.480  1.00  0.00     0.160 A 
ATOM     22  C   UNL A   1      41.942  29.038  36.244  1.00  0.00     0.051 A 
ATOM     23  C   UNL A   1      42.942  28.562  34.087  1.00  0.00     0.161 A 
ATOM     24  C   UNL A   1      40.861  29.676  35.622  1.00  0.00     0.012 A 
ATOM     25  C   UNL A   1      41.868  29.224  33.485  1.00  0.00     0.058 A 
BRANCH  21  26
ATOM     26  O   UNL A   1      43.901  27.704  36.134  1.00  0.00    -0.493 OA
ATOM     27  C   UNL A   1      44.466  28.376  37.258  1.00  0.00     0.278 C 
ENDBRANCH  21  26
BRANCH  23  28
ATOM     28  O   UNL A   1      43.800  28.040  33.160  1.00  0.00    -0.493 OA
ATOM     29  C   UNL A   1      43.570  26.730  32.679  1.00  0.00     0.278 C 
ENDBRANCH  23  28
ENDBRANCH  13  20
ENDBRANCH  11  12
ENDBRANCH   8  11
ENDBRANCH   5   7
ENDBRANCH   1   5
BRANCH   3  30
ATOM     30  C   UNL A   1      34.053  34.755  29.786  1.00  0.00     0.117 C 
BRANCH  30  31
ATOM     31  C   UNL A   1      33.772  33.661  28.766  1.00  0.00     0.042 C 
BRANCH  31  32
ATOM     32  C   UNL A   1      34.696  32.458  28.893  1.00  0.00     0.118 C 
BRANCH  32  33
ATOM     33  N   UNL A   1      34.094  31.236  28.378  1.00  0.00    -0.352 N 
ATOM     34  C   UNL A   1      34.681  30.065  27.975  1.00  0.00     0.251 C 
ATOM     35  H   UNL A   1      33.112  31.255  28.309  1.00  0.00     0.163 HD
ATOM     36  O   UNL A   1      34.019  29.230  27.367  1.00  0.00    -0.269 OA
BRANCH  34  37
ATOM     37  C   UNL A   1      36.108  29.811  28.255  1.00  0.00     0.039 A 
ATOM     38  C   UNL A   1      36.472  29.319  29.511  1.00  0.00     0.014 A 
ATOM     39  C   UNL A   1      37.090  30.078  27.297  1.00  0.00     0.014 A 
ATOM     40  C   UNL A   1      37.812  29.040  29.781  1.00  0.00     0.010 A 
ATOM     41  C   UNL A   1      38.410  29.707  27.533  1.00  0.00     0.010 A 
ATOM     42  C   UNL A   1      38.787  29.196  28.782  1.00  0.00    -0.014 A 
BRANCH  42  43
ATOM     43  C   UNL A   1      40.207  28.841  29.034  1.00  0.00     0.031 A 
ATOM     44  C   UNL A   1      41.122  29.816  29.721  1.00  0.00     0.074 A 
ATOM     45  C   UNL A   1      40.681  27.658  28.598  1.00  0.00     0.049 A 
ATOM     46  N   UNL A   1      42.399  29.704  29.992  1.00  0.00    -0.248 NA
ATOM     47  C   UNL A   1      40.534  31.101  30.134  1.00  0.00     0.031 C 
ATOM     48  C   UNL A   1      39.905  26.651  27.873  1.00  0.00     0.029 A 
ATOM     49  N   UNL A   1      41.934  27.105  28.694  1.00  0.00    -0.354 N 
ATOM     50  C   UNL A   1      42.763  30.902  30.593  1.00  0.00     0.074 A 
ATOM     51  C   UNL A   1      41.594  31.752  30.589  1.00  0.00     0.031 C 
ATOM     52  C   UNL A   1      40.687  25.592  27.618  1.00  0.00     0.029 A 
ATOM     53  C   UNL A   1      42.032  25.861  28.121  1.00  0.00     0.049 A 
ATOM     54  H   UNL A   1      42.690  27.557  29.133  1.00  0.00     0.167 HD
ATOM     55  C   UNL A   1      43.960  31.251  31.123  1.00  0.00     0.037 A 
ATOM     56  C   UNL A   1      43.088  25.034  28.006  1.00  0.00     0.037 A 
ATOM     57  C   UNL A   1      45.116  30.394  31.138  1.00  0.00     0.049 A 
ATOM     58  C   UNL A   1      44.410  25.453  28.592  1.00  0.00     0.074 A 
ATOM     59  C   UNL A   1      46.359  30.630  31.701  1.00  0.00     0.029 A 
ATOM     60  N   UNL A   1      45.176  29.136  30.556  1.00  0.00    -0.354 N 
ATOM     61  N   UNL A   1      44.724  26.557  29.226  1.00  0.00    -0.248 NA
ATOM     62  C   UNL A   1      45.522  24.504  28.454  1.00  0.00     0.031 C 
ATOM     63  C   UNL A   1      47.187  29.544  31.405  1.00  0.00     0.029 A 
ATOM     64  C   UNL A   1      46.443  28.597  30.720  1.00  0.00     0.049 A 
ATOM     65  H   UNL A   1      44.428  28.692  30.094  1.00  0.00     0.167 HD
ATOM     66  C   UNL A   1      46.057  26.422  29.591  1.00  0.00     0.074 A 
ATOM     67  C   UNL A   1      46.485  25.120  29.124  1.00  0.00     0.031 C 
ATOM     68  C   UNL A   1      46.854  27.297  30.253  1.00  0.00     0.037 A 
BRANCH  55  69
ATOM     69  C   UNL A   1      44.081  32.622  31.728  1.00  0.00     0.064 A 
ATOM     70  C   UNL A   1      43.957  32.834  33.112  1.00  0.00     0.173 A 
ATOM     71  C   UNL A   1      44.362  33.734  30.921  1.00  0.00     0.173 A 
ATOM     72  F   UNL A   1      43.678  31.807  33.929  1.00  0.00    -0.203 F 
ATOM     73  C   UNL A   1      44.077  34.109  33.656  1.00  0.00     0.198 A 
ATOM     74  C   UNL A   1      44.517  35.003  31.474  1.00  0.00     0.198 A 
ATOM     75  F   UNL A   1      44.496  33.591  29.594  1.00  0.00    -0.203 F 
ATOM     76  F   UNL A   1      43.899  34.294  34.972  1.00  0.00    -0.200 F 
ATOM     77  C   UNL A   1      44.366  35.191  32.839  1.00  0.00     0.200 A 
ATOM     78  F   UNL A   1      44.812  36.044  30.684  1.00  0.00    -0.200 F 
ATOM     79  F   UNL A   1      44.490  36.417  33.366  1.00  0.00    -0.200 F 
ENDBRANCH  55  69
BRANCH  56  80
ATOM     80  C   UNL A   1      42.936  23.722  27.324  1.00  0.00     0.064 A 
ATOM     81  C   UNL A   1      43.342  23.547  25.994  1.00  0.00     0.173 A 
ATOM     82  C   UNL A   1      42.371  22.618  27.982  1.00  0.00     0.173 A 
ATOM     83  F   UNL A   1      43.871  24.576  25.315  1.00  0.00    -0.203 F 
ATOM     84  C   UNL A   1      43.162  22.330  25.338  1.00  0.00     0.198 A 
ATOM     85  C   UNL A   1      42.224  21.392  27.337  1.00  0.00     0.198 A 
ATOM     86  F   UNL A   1      41.973  22.729  29.258  1.00  0.00    -0.203 F 
ATOM     87  F   UNL A   1      43.507  22.209  24.049  1.00  0.00    -0.200 F 
ATOM     88  C   UNL A   1      42.608  21.253  26.012  1.00  0.00     0.200 A 
ATOM     89  F   UNL A   1      41.706  20.349  27.998  1.00  0.00    -0.200 F 
ATOM     90  F   UNL A   1      42.438  20.082  25.383  1.00  0.00    -0.200 F 
ENDBRANCH  56  80
BRANCH  68  91
ATOM     91  C   UNL A   1      48.260  26.856  30.550  1.00  0.00     0.064 A 
ATOM     92  C   UNL A   1      48.573  26.084  31.679  1.00  0.00     0.173 A 
ATOM     93  C   UNL A   1      49.307  27.192  29.677  1.00  0.00     0.173 A 
ATOM     94  F   UNL A   1      47.613  25.746  32.553  1.00  0.00    -0.203 F 
ATOM     95  C   UNL A   1      49.885  25.700  31.943  1.00  0.00     0.198 A 
ATOM     96  C   UNL A   1      50.611  26.773  29.922  1.00  0.00     0.198 A 
ATOM     97  F   UNL A   1      49.062  27.921  28.576  1.00  0.00    -0.203 F 
ATOM     98  F   UNL A   1      50.169  25.018  33.061  1.00  0.00    -0.200 F 
ATOM     99  C   UNL A   1      50.901  26.038  31.061  1.00  0.00     0.200 A 
ATOM    100  F   UNL A   1      51.587  27.085  29.060  1.00  0.00    -0.200 F 
ATOM    101  F   UNL A   1      52.162  25.662  31.315  1.00  0.00    -0.200 F 
ENDBRANCH  68  91
ENDBRANCH  42  43
ENDBRANCH  34  37
ENDBRANCH  32  33
ENDBRANCH  31  32
ENDBRANCH  30  31
ENDBRANCH   3  30
TORSDOF 16
ENDMDL
