MODEL 1
REMARK VINA RESULT:     -11.2      0.000      0.000
REMARK SMILES C[NH+](C)CCNC(=O)NC1(CC(=O)NCCCNC(=O)c2ccc(-c3c4nc(c(-c5c(F)c(F)c(F)c(F)c5F)c5ccc([nH]5)c(-c5c(F)c(F)c(F)c(F)c5F)c5nc(c(-c6c(F)c(F)c(F)c(F)c6F)c6ccc3[nH]6)C=C5)C=C4)cc2)CCC1
REMARK SMILES IDX 12 1 13 2 14 3 11 5 10 6 84 7 86 8 85 9 9 10 6 11 7 12 8 14
REMARK SMILES IDX 5 16 4 17 2 18 1 19 3 20 15 22 16 23 17 24 18 25 19 26 20 28
REMARK SMILES IDX 21 29 22 30 83 31 23 32 82 33 24 34 25 35 26 36 76 37 27 38
REMARK SMILES IDX 81 39 75 40 77 41 28 42 80 43 74 44 73 45 29 47 61 48 41 49
REMARK SMILES IDX 60 50 42 51 45 52 59 53 78 54 43 55 44 56 58 58 79 59 46 60
REMARK SMILES IDX 30 61 31 62 39 63 32 64 33 65 37 66 40 67 34 68 35 69 38 70
REMARK SMILES IDX 36 71 62 72 63 73 71 74 64 75 65 76 69 77 72 78 66 79 67 80
REMARK SMILES IDX 70 81 68 82 47 83 48 84 56 85 49 86 50 87 54 88 57 89 51 90
REMARK SMILES IDX 52 91 55 92 53 93
REMARK H PARENT 14 4 6 13 9 15 2 21 18 27 77 46 45 57
REMARK Flexibility Score: inf
ROOT
ATOM      1  C   UNL A   1      32.970  29.087  26.960  1.00  0.00     0.222 C 
ATOM      2  O   UNL A   1      34.015  28.907  27.582  1.00  0.00    -0.275 OA
ATOM      3  N   UNL A   1      32.657  30.373  26.645  1.00  0.00    -0.356 N 
ATOM      4  H   UNL A   1      33.401  31.014  26.711  1.00  0.00     0.163 HD
ENDROOT
BRANCH   1   5
ATOM      5  C   UNL A   1      32.097  27.951  26.469  1.00  0.00     0.128 C 
BRANCH   5   6
ATOM      6  C   UNL A   1      32.630  27.083  25.324  1.00  0.00     0.051 C 
ATOM      7  C   UNL A   1      31.666  25.987  24.747  1.00  0.00     0.029 C 
ATOM      8  C   UNL A   1      33.468  25.858  25.859  1.00  0.00     0.029 C 
ATOM      9  C   UNL A   1      32.178  25.023  25.829  1.00  0.00     0.005 C 
BRANCH   6  10
ATOM     10  N   UNL A   1      33.384  27.812  24.291  1.00  0.00    -0.332 N 
ATOM     11  N   UNL A   1      31.905  29.140  22.978  1.00  0.00    -0.332 N 
ATOM     12  C   UNL A   1      33.114  28.687  23.310  1.00  0.00     0.315 C 
ATOM     13  H   UNL A   1      31.942  29.801  22.250  1.00  0.00     0.165 HD
ATOM     14  O   UNL A   1      34.072  29.089  22.641  1.00  0.00    -0.249 OA
ATOM     15  H   UNL A   1      34.345  27.603  24.331  1.00  0.00     0.165 HD
BRANCH  11  16
ATOM     16  C   UNL A   1      30.550  28.899  23.428  1.00  0.00     0.179 C 
BRANCH  16  17
ATOM     17  C   UNL A   1      29.459  29.464  22.487  1.00  0.00     0.283 C 
BRANCH  17  18
ATOM     18  N   UNL A   1      29.326  30.919  22.326  1.00  0.00    -0.338 N 
ATOM     19  C   UNL A   1      28.486  31.292  21.196  1.00  0.00     0.332 C 
ATOM     20  C   UNL A   1      28.930  31.600  23.551  1.00  0.00     0.332 C 
ATOM     21  H   UNL A   1      30.267  31.250  22.111  1.00  0.00     0.347 HD
ENDBRANCH  17  18
ENDBRANCH  16  17
ENDBRANCH  11  16
ENDBRANCH   6  10
ENDBRANCH   5   6
ENDBRANCH   1   5
BRANCH   3  22
ATOM     22  C   UNL A   1      31.391  30.938  26.224  1.00  0.00     0.117 C 
BRANCH  22  23
ATOM     23  C   UNL A   1      31.367  32.434  26.510  1.00  0.00     0.042 C 
BRANCH  23  24
ATOM     24  C   UNL A   1      32.589  32.900  27.289  1.00  0.00     0.118 C 
BRANCH  24  25
ATOM     25  N   UNL A   1      32.475  34.299  27.667  1.00  0.00    -0.352 N 
ATOM     26  C   UNL A   1      33.049  34.962  28.720  1.00  0.00     0.251 C 
ATOM     27  H   UNL A   1      31.906  34.850  27.082  1.00  0.00     0.163 HD
ATOM     28  O   UNL A   1      32.594  36.047  29.082  1.00  0.00    -0.269 OA
BRANCH  26  29
ATOM     29  C   UNL A   1      34.209  34.378  29.423  1.00  0.00     0.039 A 
ATOM     30  C   UNL A   1      35.491  34.569  28.903  1.00  0.00     0.014 A 
ATOM     31  C   UNL A   1      34.026  33.595  30.566  1.00  0.00     0.014 A 
ATOM     32  C   UNL A   1      36.591  34.004  29.552  1.00  0.00     0.010 A 
ATOM     33  C   UNL A   1      35.127  33.119  31.266  1.00  0.00     0.010 A 
ATOM     34  C   UNL A   1      36.418  33.290  30.748  1.00  0.00    -0.014 A 
BRANCH  34  35
ATOM     35  C   UNL A   1      37.562  32.654  31.445  1.00  0.00     0.031 A 
ATOM     36  C   UNL A   1      38.288  31.511  30.785  1.00  0.00     0.074 A 
ATOM     37  C   UNL A   1      37.902  33.055  32.683  1.00  0.00     0.049 A 
ATOM     38  N   UNL A   1      39.247  30.756  31.257  1.00  0.00    -0.248 NA
ATOM     39  C   UNL A   1      37.851  31.145  29.428  1.00  0.00     0.031 C 
ATOM     40  C   UNL A   1      37.240  34.118  33.441  1.00  0.00     0.029 A 
ATOM     41  N   UNL A   1      38.887  32.609  33.527  1.00  0.00    -0.354 N 
ATOM     42  C   UNL A   1      39.507  29.816  30.267  1.00  0.00     0.074 A 
ATOM     43  C   UNL A   1      38.567  30.057  29.194  1.00  0.00     0.031 C 
ATOM     44  C   UNL A   1      37.853  34.258  34.628  1.00  0.00     0.029 A 
ATOM     45  C   UNL A   1      38.926  33.274  34.728  1.00  0.00     0.049 A 
ATOM     46  H   UNL A   1      39.507  31.879  33.294  1.00  0.00     0.167 HD
ATOM     47  C   UNL A   1      40.462  28.857  30.241  1.00  0.00     0.037 A 
ATOM     48  C   UNL A   1      39.739  33.104  35.787  1.00  0.00     0.037 A 
ATOM     49  C   UNL A   1      41.423  28.654  31.291  1.00  0.00     0.049 A 
ATOM     50  C   UNL A   1      40.807  32.046  35.725  1.00  0.00     0.074 A 
ATOM     51  C   UNL A   1      42.472  27.754  31.341  1.00  0.00     0.029 A 
ATOM     52  N   UNL A   1      41.454  29.373  32.477  1.00  0.00    -0.354 N 
ATOM     53  N   UNL A   1      41.081  31.202  34.760  1.00  0.00    -0.248 NA
ATOM     54  C   UNL A   1      41.684  31.922  36.897  1.00  0.00     0.031 C 
ATOM     55  C   UNL A   1      43.119  27.906  32.571  1.00  0.00     0.029 A 
ATOM     56  C   UNL A   1      42.498  28.929  33.271  1.00  0.00     0.049 A 
ATOM     57  H   UNL A   1      40.826  30.093  32.718  1.00  0.00     0.167 HD
ATOM     58  C   UNL A   1      42.175  30.468  35.194  1.00  0.00     0.074 A 
ATOM     59  C   UNL A   1      42.525  30.975  36.504  1.00  0.00     0.031 C 
ATOM     60  C   UNL A   1      42.833  29.462  34.566  1.00  0.00     0.037 A 
BRANCH  47  61
ATOM     61  C   UNL A   1      40.521  27.968  29.034  1.00  0.00     0.064 A 
ATOM     62  C   UNL A   1      39.759  26.792  28.949  1.00  0.00     0.173 A 
ATOM     63  C   UNL A   1      41.328  28.307  27.938  1.00  0.00     0.173 A 
ATOM     64  F   UNL A   1      38.982  26.416  29.975  1.00  0.00    -0.203 F 
ATOM     65  C   UNL A   1      39.827  25.974  27.824  1.00  0.00     0.198 A 
ATOM     66  C   UNL A   1      41.369  27.501  26.802  1.00  0.00     0.198 A 
ATOM     67  F   UNL A   1      42.073  29.421  27.964  1.00  0.00    -0.203 F 
ATOM     68  F   UNL A   1      39.129  24.830  27.789  1.00  0.00    -0.200 F 
ATOM     69  C   UNL A   1      40.626  26.332  26.749  1.00  0.00     0.200 A 
ATOM     70  F   UNL A   1      42.134  27.854  25.759  1.00  0.00    -0.200 F 
ATOM     71  F   UNL A   1      40.685  25.545  25.666  1.00  0.00    -0.200 F 
ENDBRANCH  47  61
BRANCH  48  72
ATOM     72  C   UNL A   1      39.598  33.979  36.978  1.00  0.00     0.064 A 
ATOM     73  C   UNL A   1      38.831  33.572  38.078  1.00  0.00     0.173 A 
ATOM     74  C   UNL A   1      40.223  35.233  37.046  1.00  0.00     0.173 A 
ATOM     75  F   UNL A   1      38.199  32.388  38.052  1.00  0.00    -0.203 F 
ATOM     76  C   UNL A   1      38.676  34.393  39.193  1.00  0.00     0.198 A 
ATOM     77  C   UNL A   1      40.089  36.042  38.173  1.00  0.00     0.198 A 
ATOM     78  F   UNL A   1      40.974  35.665  36.024  1.00  0.00    -0.203 F 
ATOM     79  F   UNL A   1      37.902  33.996  40.212  1.00  0.00    -0.200 F 
ATOM     80  C   UNL A   1      39.309  35.625  39.242  1.00  0.00     0.200 A 
ATOM     81  F   UNL A   1      40.716  37.225  38.223  1.00  0.00    -0.200 F 
ATOM     82  F   UNL A   1      39.164  36.414  40.315  1.00  0.00    -0.200 F 
ENDBRANCH  48  72
BRANCH  60  83
ATOM     83  C   UNL A   1      44.015  28.871  35.274  1.00  0.00     0.064 A 
ATOM     84  C   UNL A   1      45.311  29.372  35.083  1.00  0.00     0.173 A 
ATOM     85  C   UNL A   1      43.841  27.818  36.185  1.00  0.00     0.173 A 
ATOM     86  F   UNL A   1      45.527  30.367  34.211  1.00  0.00    -0.203 F 
ATOM     87  C   UNL A   1      46.394  28.825  35.764  1.00  0.00     0.198 A 
ATOM     88  C   UNL A   1      44.922  27.292  36.884  1.00  0.00     0.198 A 
ATOM     89  F   UNL A   1      42.620  27.310  36.406  1.00  0.00    -0.203 F 
ATOM     90  F   UNL A   1      47.630  29.289  35.535  1.00  0.00    -0.200 F 
ATOM     91  C   UNL A   1      46.199  27.791  36.668  1.00  0.00     0.200 A 
ATOM     92  F   UNL A   1      44.731  26.302  37.766  1.00  0.00    -0.200 F 
ATOM     93  F   UNL A   1      47.243  27.270  37.327  1.00  0.00    -0.200 F 
ENDBRANCH  60  83
ENDBRANCH  34  35
ENDBRANCH  26  29
ENDBRANCH  24  25
ENDBRANCH  23  24
ENDBRANCH  22  23
ENDBRANCH   3  22
TORSDOF 15
ENDMDL
MODEL 2
REMARK VINA RESULT:     -11.1      6.309     11.702
REMARK SMILES C[NH+](C)CCNC(=O)NC1(CC(=O)NCCCNC(=O)c2ccc(-c3c4nc(c(-c5c(F)c(F)c(F)c(F)c5F)c5ccc([nH]5)c(-c5c(F)c(F)c(F)c(F)c5F)c5nc(c(-c6c(F)c(F)c(F)c(F)c6F)c6ccc3[nH]6)C=C5)C=C4)cc2)CCC1
REMARK SMILES IDX 12 1 13 2 14 3 11 5 10 6 84 7 86 8 85 9 9 10 6 11 7 12 8 14
REMARK SMILES IDX 5 16 4 17 2 18 1 19 3 20 15 22 16 23 17 24 18 25 19 26 20 28
REMARK SMILES IDX 21 29 22 30 83 31 23 32 82 33 24 34 25 35 26 36 76 37 27 38
REMARK SMILES IDX 81 39 75 40 77 41 28 42 80 43 74 44 73 45 29 47 61 48 41 49
REMARK SMILES IDX 60 50 42 51 45 52 59 53 78 54 43 55 44 56 58 58 79 59 46 60
REMARK SMILES IDX 30 61 31 62 39 63 32 64 33 65 37 66 40 67 34 68 35 69 38 70
REMARK SMILES IDX 36 71 62 72 63 73 71 74 64 75 65 76 69 77 72 78 66 79 67 80
REMARK SMILES IDX 70 81 68 82 47 83 48 84 56 85 49 86 50 87 54 88 57 89 51 90
REMARK SMILES IDX 52 91 55 92 53 93
REMARK H PARENT 14 4 6 13 9 15 2 21 18 27 77 46 45 57
REMARK Flexibility Score: inf
ROOT
ATOM      1  C   UNL A   1      36.667  22.762  25.453  1.00  0.00     0.222 C 
ATOM      2  O   UNL A   1      37.226  23.671  26.066  1.00  0.00    -0.275 OA
ATOM      3  N   UNL A   1      37.061  21.493  25.744  1.00  0.00    -0.356 N 
ATOM      4  H   UNL A   1      37.562  21.393  26.585  1.00  0.00     0.163 HD
ENDROOT
BRANCH   1   5
ATOM      5  C   UNL A   1      35.529  23.001  24.484  1.00  0.00     0.128 C 
BRANCH   5   6
ATOM      6  C   UNL A   1      34.240  23.623  25.034  1.00  0.00     0.051 C 
ATOM      7  C   UNL A   1      32.975  23.588  24.106  1.00  0.00     0.029 C 
ATOM      8  C   UNL A   1      34.194  25.181  24.795  1.00  0.00     0.029 C 
ATOM      9  C   UNL A   1      33.447  24.911  23.480  1.00  0.00     0.005 C 
BRANCH   6  10
ATOM     10  N   UNL A   1      33.951  23.308  26.443  1.00  0.00    -0.332 N 
ATOM     11  N   UNL A   1      33.398  21.002  26.671  1.00  0.00    -0.332 N 
ATOM     12  C   UNL A   1      33.613  22.225  27.158  1.00  0.00     0.315 C 
ATOM     13  H   UNL A   1      33.195  20.350  27.380  1.00  0.00     0.165 HD
ATOM     14  O   UNL A   1      33.464  22.383  28.375  1.00  0.00    -0.249 OA
ATOM     15  H   UNL A   1      34.027  24.106  27.014  1.00  0.00     0.165 HD
BRANCH  11  16
ATOM     16  C   UNL A   1      33.394  20.397  25.356  1.00  0.00     0.179 C 
BRANCH  16  17
ATOM     17  C   UNL A   1      32.701  19.016  25.294  1.00  0.00     0.283 C 
BRANCH  17  18
ATOM     18  N   UNL A   1      33.517  17.795  25.344  1.00  0.00    -0.338 N 
ATOM     19  C   UNL A   1      32.721  16.583  25.482  1.00  0.00     0.332 C 
ATOM     20  C   UNL A   1      34.476  17.698  24.251  1.00  0.00     0.332 C 
ATOM     21  H   UNL A   1      34.070  17.879  26.197  1.00  0.00     0.347 HD
ENDBRANCH  17  18
ENDBRANCH  16  17
ENDBRANCH  11  16
ENDBRANCH   6  10
ENDBRANCH   5   6
ENDBRANCH   1   5
BRANCH   3  22
ATOM     22  C   UNL A   1      36.849  20.268  25.001  1.00  0.00     0.117 C 
BRANCH  22  23
ATOM     23  C   UNL A   1      38.130  19.445  24.976  1.00  0.00     0.042 C 
BRANCH  23  24
ATOM     24  C   UNL A   1      39.208  20.014  25.889  1.00  0.00     0.118 C 
BRANCH  24  25
ATOM     25  N   UNL A   1      40.295  19.067  26.080  1.00  0.00    -0.352 N 
ATOM     26  C   UNL A   1      41.644  19.298  26.149  1.00  0.00     0.251 C 
ATOM     27  H   UNL A   1      40.024  18.125  26.174  1.00  0.00     0.163 HD
ATOM     28  O   UNL A   1      42.434  18.370  25.983  1.00  0.00    -0.269 OA
BRANCH  26  29
ATOM     29  C   UNL A   1      42.152  20.658  26.420  1.00  0.00     0.039 A 
ATOM     30  C   UNL A   1      42.346  21.065  27.742  1.00  0.00     0.014 A 
ATOM     31  C   UNL A   1      42.383  21.551  25.370  1.00  0.00     0.014 A 
ATOM     32  C   UNL A   1      42.809  22.357  28.006  1.00  0.00     0.010 A 
ATOM     33  C   UNL A   1      42.938  22.799  25.629  1.00  0.00     0.010 A 
ATOM     34  C   UNL A   1      43.125  23.226  26.950  1.00  0.00    -0.014 A 
BRANCH  34  35
ATOM     35  C   UNL A   1      43.590  24.612  27.198  1.00  0.00     0.031 A 
ATOM     36  C   UNL A   1      42.621  25.634  27.731  1.00  0.00     0.074 A 
ATOM     37  C   UNL A   1      44.850  24.963  26.888  1.00  0.00     0.049 A 
ATOM     38  N   UNL A   1      42.793  26.916  27.928  1.00  0.00    -0.248 NA
ATOM     39  C   UNL A   1      41.265  25.157  28.049  1.00  0.00     0.031 C 
ATOM     40  C   UNL A   1      45.864  24.072  26.321  1.00  0.00     0.029 A 
ATOM     41  N   UNL A   1      45.494  26.171  26.997  1.00  0.00    -0.354 N 
ATOM     42  C   UNL A   1      41.566  27.397  28.365  1.00  0.00     0.074 A 
ATOM     43  C   UNL A   1      40.641  26.285  28.350  1.00  0.00     0.031 C 
ATOM     44  C   UNL A   1      47.008  24.756  26.155  1.00  0.00     0.029 A 
ATOM     45  C   UNL A   1      46.799  26.139  26.571  1.00  0.00     0.049 A 
ATOM     46  H   UNL A   1      45.059  26.982  27.347  1.00  0.00     0.167 HD
ATOM     47  C   UNL A   1      41.244  28.648  28.772  1.00  0.00     0.037 A 
ATOM     48  C   UNL A   1      47.718  27.121  26.523  1.00  0.00     0.037 A 
ATOM     49  C   UNL A   1      42.180  29.739  28.830  1.00  0.00     0.049 A 
ATOM     50  C   UNL A   1      47.343  28.496  27.001  1.00  0.00     0.074 A 
ATOM     51  C   UNL A   1      41.978  31.029  29.284  1.00  0.00     0.029 A 
ATOM     52  N   UNL A   1      43.504  29.658  28.424  1.00  0.00    -0.354 N 
ATOM     53  N   UNL A   1      46.196  28.926  27.469  1.00  0.00    -0.248 NA
ATOM     54  C   UNL A   1      48.394  29.523  26.953  1.00  0.00     0.031 C 
ATOM     55  C   UNL A   1      43.171  31.740  29.123  1.00  0.00     0.029 A 
ATOM     56  C   UNL A   1      44.129  30.881  28.607  1.00  0.00     0.049 A 
ATOM     57  H   UNL A   1      43.936  28.852  28.059  1.00  0.00     0.167 HD
ATOM     58  C   UNL A   1      46.392  30.261  27.795  1.00  0.00     0.074 A 
ATOM     59  C   UNL A   1      47.774  30.567  27.486  1.00  0.00     0.031 C 
ATOM     60  C   UNL A   1      45.510  31.155  28.304  1.00  0.00     0.037 A 
BRANCH  47  61
ATOM     61  C   UNL A   1      39.827  28.897  29.201  1.00  0.00     0.064 A 
ATOM     62  C   UNL A   1      38.848  29.320  28.289  1.00  0.00     0.173 A 
ATOM     63  C   UNL A   1      39.437  28.685  30.531  1.00  0.00     0.173 A 
ATOM     64  F   UNL A   1      39.173  29.551  27.008  1.00  0.00    -0.203 F 
ATOM     65  C   UNL A   1      37.538  29.552  28.701  1.00  0.00     0.198 A 
ATOM     66  C   UNL A   1      38.119  28.888  30.932  1.00  0.00     0.198 A 
ATOM     67  F   UNL A   1      40.332  28.276  31.442  1.00  0.00    -0.203 F 
ATOM     68  F   UNL A   1      36.633  30.005  27.822  1.00  0.00    -0.200 F 
ATOM     69  C   UNL A   1      37.172  29.329  30.019  1.00  0.00     0.200 A 
ATOM     70  F   UNL A   1      37.765  28.663  32.205  1.00  0.00    -0.200 F 
ATOM     71  F   UNL A   1      35.910  29.547  30.412  1.00  0.00    -0.200 F 
ENDBRANCH  47  61
BRANCH  48  72
ATOM     72  C   UNL A   1      49.091  26.828  26.037  1.00  0.00     0.064 A 
ATOM     73  C   UNL A   1      50.073  26.346  26.915  1.00  0.00     0.173 A 
ATOM     74  C   UNL A   1      49.452  27.021  24.696  1.00  0.00     0.173 A 
ATOM     75  F   UNL A   1      49.780  26.162  28.211  1.00  0.00    -0.203 F 
ATOM     76  C   UNL A   1      51.369  26.086  26.474  1.00  0.00     0.198 A 
ATOM     77  C   UNL A   1      50.742  26.736  24.251  1.00  0.00     0.198 A 
ATOM     78  F   UNL A   1      48.548  27.473  23.816  1.00  0.00    -0.203 F 
ATOM     79  F   UNL A   1      52.298  25.666  27.342  1.00  0.00    -0.200 F 
ATOM     80  C   UNL A   1      51.701  26.277  25.142  1.00  0.00     0.200 A 
ATOM     81  F   UNL A   1      51.054  26.906  22.959  1.00  0.00    -0.200 F 
ATOM     82  F   UNL A   1      52.946  26.024  24.716  1.00  0.00    -0.200 F 
ENDBRANCH  48  72
BRANCH  60  83
ATOM     83  C   UNL A   1      46.021  32.534  28.590  1.00  0.00     0.064 A 
ATOM     84  C   UNL A   1      46.010  33.540  27.613  1.00  0.00     0.173 A 
ATOM     85  C   UNL A   1      46.489  32.864  29.872  1.00  0.00     0.173 A 
ATOM     86  F   UNL A   1      45.586  33.267  26.370  1.00  0.00    -0.203 F 
ATOM     87  C   UNL A   1      46.468  34.821  27.903  1.00  0.00     0.198 A 
ATOM     88  C   UNL A   1      46.921  34.153  30.165  1.00  0.00     0.198 A 
ATOM     89  F   UNL A   1      46.512  31.938  30.842  1.00  0.00    -0.203 F 
ATOM     90  F   UNL A   1      46.490  35.755  26.942  1.00  0.00    -0.200 F 
ATOM     91  C   UNL A   1      46.917  35.128  29.179  1.00  0.00     0.200 A 
ATOM     92  F   UNL A   1      47.342  34.452  31.401  1.00  0.00    -0.200 F 
ATOM     93  F   UNL A   1      47.353  36.365  29.456  1.00  0.00    -0.200 F 
ENDBRANCH  60  83
ENDBRANCH  34  35
ENDBRANCH  26  29
ENDBRANCH  24  25
ENDBRANCH  23  24
ENDBRANCH  22  23
ENDBRANCH   3  22
TORSDOF 15
ENDMDL
MODEL 3
REMARK VINA RESULT:     -11.0      3.750      9.193
REMARK SMILES C[NH+](C)CCNC(=O)NC1(CC(=O)NCCCNC(=O)c2ccc(-c3c4nc(c(-c5c(F)c(F)c(F)c(F)c5F)c5ccc([nH]5)c(-c5c(F)c(F)c(F)c(F)c5F)c5nc(c(-c6c(F)c(F)c(F)c(F)c6F)c6ccc3[nH]6)C=C5)C=C4)cc2)CCC1
REMARK SMILES IDX 12 1 13 2 14 3 11 5 10 6 84 7 86 8 85 9 9 10 6 11 7 12 8 14
REMARK SMILES IDX 5 16 4 17 2 18 1 19 3 20 15 22 16 23 17 24 18 25 19 26 20 28
REMARK SMILES IDX 21 29 22 30 83 31 23 32 82 33 24 34 25 35 26 36 76 37 27 38
REMARK SMILES IDX 81 39 75 40 77 41 28 42 80 43 74 44 73 45 29 47 61 48 41 49
REMARK SMILES IDX 60 50 42 51 45 52 59 53 78 54 43 55 44 56 58 58 79 59 46 60
REMARK SMILES IDX 30 61 31 62 39 63 32 64 33 65 37 66 40 67 34 68 35 69 38 70
REMARK SMILES IDX 36 71 62 72 63 73 71 74 64 75 65 76 69 77 72 78 66 79 67 80
REMARK SMILES IDX 70 81 68 82 47 83 48 84 56 85 49 86 50 87 54 88 57 89 51 90
REMARK SMILES IDX 52 91 55 92 53 93
REMARK H PARENT 14 4 6 13 9 15 2 21 18 27 77 46 45 57
REMARK Flexibility Score: inf
ROOT
ATOM      1  C   UNL A   1      31.686  24.468  26.626  1.00  0.00     0.222 C 
ATOM      2  O   UNL A   1      30.813  23.804  27.182  1.00  0.00    -0.275 OA
ATOM      3  N   UNL A   1      31.589  25.821  26.733  1.00  0.00    -0.356 N 
ATOM      4  H   UNL A   1      30.991  26.143  27.446  1.00  0.00     0.163 HD
ENDROOT
BRANCH   1   5
ATOM      5  C   UNL A   1      32.876  23.845  25.928  1.00  0.00     0.128 C 
BRANCH   5   6
ATOM      6  C   UNL A   1      32.618  23.056  24.640  1.00  0.00     0.051 C 
ATOM      7  C   UNL A   1      33.591  23.311  23.435  1.00  0.00     0.029 C 
ATOM      8  C   UNL A   1      31.538  23.757  23.730  1.00  0.00     0.029 C 
ATOM      9  C   UNL A   1      32.685  24.476  23.003  1.00  0.00     0.005 C 
BRANCH   6  10
ATOM     10  N   UNL A   1      32.282  21.636  24.839  1.00  0.00    -0.332 N 
ATOM     11  N   UNL A   1      34.088  20.506  25.904  1.00  0.00    -0.332 N 
ATOM     12  C   UNL A   1      32.865  20.554  25.375  1.00  0.00     0.315 C 
ATOM     13  H   UNL A   1      34.301  19.618  26.270  1.00  0.00     0.165 HD
ATOM     14  O   UNL A   1      32.217  19.501  25.354  1.00  0.00    -0.249 OA
ATOM     15  H   UNL A   1      31.388  21.424  24.485  1.00  0.00     0.165 HD
BRANCH  11  16
ATOM     16  C   UNL A   1      35.180  21.442  26.074  1.00  0.00     0.179 C 
BRANCH  16  17
ATOM     17  C   UNL A   1      36.240  21.392  24.949  1.00  0.00     0.283 C 
BRANCH  17  18
ATOM     18  N   UNL A   1      37.368  22.333  24.977  1.00  0.00    -0.338 N 
ATOM     19  C   UNL A   1      36.978  23.677  25.381  1.00  0.00     0.332 C 
ATOM     20  C   UNL A   1      38.509  21.843  25.739  1.00  0.00     0.332 C 
ATOM     21  H   UNL A   1      37.683  22.401  24.009  1.00  0.00     0.347 HD
ENDBRANCH  17  18
ENDBRANCH  16  17
ENDBRANCH  11  16
ENDBRANCH   6  10
ENDBRANCH   5   6
ENDBRANCH   1   5
BRANCH   3  22
ATOM     22  C   UNL A   1      32.238  26.857  25.956  1.00  0.00     0.117 C 
BRANCH  22  23
ATOM     23  C   UNL A   1      33.131  27.702  26.855  1.00  0.00     0.042 C 
BRANCH  23  24
ATOM     24  C   UNL A   1      34.004  28.669  26.069  1.00  0.00     0.118 C 
BRANCH  24  25
ATOM     25  N   UNL A   1      33.826  30.037  26.529  1.00  0.00    -0.352 N 
ATOM     26  C   UNL A   1      34.494  30.713  27.516  1.00  0.00     0.251 C 
ATOM     27  H   UNL A   1      33.128  30.552  26.064  1.00  0.00     0.163 HD
ATOM     28  O   UNL A   1      34.006  31.736  27.996  1.00  0.00    -0.269 OA
BRANCH  26  29
ATOM     29  C   UNL A   1      35.795  30.217  28.008  1.00  0.00     0.039 A 
ATOM     30  C   UNL A   1      35.864  29.604  29.261  1.00  0.00     0.014 A 
ATOM     31  C   UNL A   1      36.957  30.407  27.256  1.00  0.00     0.014 A 
ATOM     32  C   UNL A   1      37.094  29.149  29.741  1.00  0.00     0.010 A 
ATOM     33  C   UNL A   1      38.161  29.865  27.688  1.00  0.00     0.010 A 
ATOM     34  C   UNL A   1      38.248  29.260  28.949  1.00  0.00    -0.014 A 
BRANCH  34  35
ATOM     35  C   UNL A   1      39.573  28.813  29.442  1.00  0.00     0.031 A 
ATOM     36  C   UNL A   1      40.309  29.652  30.453  1.00  0.00     0.074 A 
ATOM     37  C   UNL A   1      40.137  27.701  28.939  1.00  0.00     0.049 A 
ATOM     38  N   UNL A   1      41.513  29.496  30.942  1.00  0.00    -0.248 NA
ATOM     39  C   UNL A   1      39.611  30.849  30.953  1.00  0.00     0.031 C 
ATOM     40  C   UNL A   1      39.541  26.835  27.920  1.00  0.00     0.029 A 
ATOM     41  N   UNL A   1      41.346  27.111  29.210  1.00  0.00    -0.354 N 
ATOM     42  C   UNL A   1      41.722  30.582  31.782  1.00  0.00     0.074 A 
ATOM     43  C   UNL A   1      40.548  31.422  31.693  1.00  0.00     0.031 C 
ATOM     44  C   UNL A   1      40.375  25.812  27.670  1.00  0.00     0.029 A 
ATOM     45  C   UNL A   1      41.576  25.968  28.484  1.00  0.00     0.049 A 
ATOM     46  H   UNL A   1      41.988  27.474  29.863  1.00  0.00     0.167 HD
ATOM     47  C   UNL A   1      42.785  30.843  32.579  1.00  0.00     0.037 A 
ATOM     48  C   UNL A   1      42.640  25.144  28.479  1.00  0.00     0.037 A 
ATOM     49  C   UNL A   1      43.929  29.980  32.698  1.00  0.00     0.049 A 
ATOM     50  C   UNL A   1      43.799  25.443  29.390  1.00  0.00     0.074 A 
ATOM     51  C   UNL A   1      45.032  30.115  33.521  1.00  0.00     0.029 A 
ATOM     52  N   UNL A   1      44.109  28.811  31.973  1.00  0.00    -0.354 N 
ATOM     53  N   UNL A   1      43.960  26.442  30.224  1.00  0.00    -0.248 NA
ATOM     54  C   UNL A   1      44.921  24.495  29.365  1.00  0.00     0.031 C 
ATOM     55  C   UNL A   1      45.896  29.044  33.271  1.00  0.00     0.029 A 
ATOM     56  C   UNL A   1      45.312  28.220  32.322  1.00  0.00     0.049 A 
ATOM     57  H   UNL A   1      43.475  28.454  31.309  1.00  0.00     0.167 HD
ATOM     58  C   UNL A   1      45.185  26.230  30.841  1.00  0.00     0.074 A 
ATOM     59  C   UNL A   1      45.719  24.999  30.297  1.00  0.00     0.031 C 
ATOM     60  C   UNL A   1      45.813  26.986  31.775  1.00  0.00     0.037 A 
BRANCH  47  61
ATOM     61  C   UNL A   1      42.750  32.103  33.393  1.00  0.00     0.064 A 
ATOM     62  C   UNL A   1      42.195  32.130  34.682  1.00  0.00     0.173 A 
ATOM     63  C   UNL A   1      43.301  33.292  32.892  1.00  0.00     0.173 A 
ATOM     64  F   UNL A   1      41.642  31.024  35.202  1.00  0.00    -0.203 F 
ATOM     65  C   UNL A   1      42.165  33.307  35.425  1.00  0.00     0.198 A 
ATOM     66  C   UNL A   1      43.297  34.460  33.651  1.00  0.00     0.198 A 
ATOM     67  F   UNL A   1      43.848  33.321  31.668  1.00  0.00    -0.203 F 
ATOM     68  F   UNL A   1      41.583  33.319  36.632  1.00  0.00    -0.200 F 
ATOM     69  C   UNL A   1      42.722  34.469  34.913  1.00  0.00     0.200 A 
ATOM     70  F   UNL A   1      43.845  35.580  33.158  1.00  0.00    -0.200 F 
ATOM     71  F   UNL A   1      42.697  35.599  35.632  1.00  0.00    -0.200 F 
ENDBRANCH  47  61
BRANCH  48  72
ATOM     72  C   UNL A   1      42.641  23.939  27.611  1.00  0.00     0.064 A 
ATOM     73  C   UNL A   1      42.226  22.696  28.110  1.00  0.00     0.173 A 
ATOM     74  C   UNL A   1      43.052  24.000  26.272  1.00  0.00     0.173 A 
ATOM     75  F   UNL A   1      41.842  22.584  29.391  1.00  0.00    -0.203 F 
ATOM     76  C   UNL A   1      42.242  21.556  27.310  1.00  0.00     0.198 A 
ATOM     77  C   UNL A   1      43.042  22.864  25.464  1.00  0.00     0.198 A 
ATOM     78  F   UNL A   1      43.451  25.166  25.744  1.00  0.00    -0.203 F 
ATOM     79  F   UNL A   1      41.881  20.373  27.825  1.00  0.00    -0.200 F 
ATOM     80  C   UNL A   1      42.645  21.642  25.986  1.00  0.00     0.200 A 
ATOM     81  F   UNL A   1      43.417  22.954  24.181  1.00  0.00    -0.200 F 
ATOM     82  F   UNL A   1      42.657  20.546  25.214  1.00  0.00    -0.200 F 
ENDBRANCH  48  72
BRANCH  60  83
ATOM     83  C   UNL A   1      47.128  26.484  32.290  1.00  0.00     0.064 A 
ATOM     84  C   UNL A   1      48.344  26.894  31.725  1.00  0.00     0.173 A 
ATOM     85  C   UNL A   1      47.172  25.614  33.390  1.00  0.00     0.173 A 
ATOM     86  F   UNL A   1      48.351  27.713  30.662  1.00  0.00    -0.203 F 
ATOM     87  C   UNL A   1      49.556  26.435  32.229  1.00  0.00     0.198 A 
ATOM     88  C   UNL A   1      48.387  25.178  33.909  1.00  0.00     0.198 A 
ATOM     89  F   UNL A   1      46.036  25.199  33.970  1.00  0.00    -0.203 F 
ATOM     90  F   UNL A   1      50.705  26.805  31.646  1.00  0.00    -0.200 F 
ATOM     91  C   UNL A   1      49.577  25.583  33.324  1.00  0.00     0.200 A 
ATOM     92  F   UNL A   1      48.406  24.366  34.975  1.00  0.00    -0.200 F 
ATOM     93  F   UNL A   1      50.747  25.147  33.812  1.00  0.00    -0.200 F 
ENDBRANCH  60  83
ENDBRANCH  34  35
ENDBRANCH  26  29
ENDBRANCH  24  25
ENDBRANCH  23  24
ENDBRANCH  22  23
ENDBRANCH   3  22
TORSDOF 15
ENDMDL
