MODEL 1
REMARK VINA RESULT:     -12.6      0.000      0.000
REMARK SMILES CC[C@@H]1CCCN1C(=O)N[C@H]1C=C[C@@H](C(=O)NCCCNC(=O)c2ccc(-c3c4nc(c(-c5c(F)c(F)c(F)c(F)c5F)c5ccc([nH]5)c(-c5c(F)c(F)c(F)c(F)c5F)c5nc(c(-c6c(F)c(F)c(F)c(F)c6F)c6ccc3[nH]6)C=C5)C=C4)cc2)C1
REMARK SMILES IDX 18 1 17 2 15 3 16 4 14 6 11 7 12 8 87 9 13 10 10 11 8 12
REMARK SMILES IDX 9 13 7 15 3 16 4 17 5 18 6 19 2 20 1 21 19 22 20 23 21 24
REMARK SMILES IDX 22 25 23 27 24 28 25 29 86 30 26 31 85 32 27 33 28 34 29 35
REMARK SMILES IDX 79 36 30 37 84 38 78 39 80 40 31 41 83 42 77 43 76 44 32 46
REMARK SMILES IDX 64 47 44 48 63 49 45 50 48 51 62 52 81 53 46 54 47 55 61 57
REMARK SMILES IDX 82 58 49 59 33 60 34 61 42 62 35 63 36 64 40 65 43 66 37 67
REMARK SMILES IDX 38 68 41 69 39 70 65 71 66 72 74 73 67 74 68 75 72 76 75 77
REMARK SMILES IDX 69 78 70 79 73 80 71 81 50 82 51 83 59 84 52 85 53 86 57 87
REMARK SMILES IDX 60 88 54 89 55 90 58 91 56 92
REMARK H PARENT 17 5 10 14 21 26 80 45 48 56
REMARK Flexibility Score: inf
ROOT
ATOM      1  C   UNL A   1      31.972  30.632  26.180  1.00  0.00     0.117 C 
ENDROOT
BRANCH   1   2
ATOM      2  N   UNL A   1      31.773  29.629  27.209  1.00  0.00    -0.356 N 
ATOM      3  C   UNL A   1      31.737  28.273  27.158  1.00  0.00     0.227 C 
ATOM      4  O   UNL A   1      31.466  27.689  28.213  1.00  0.00    -0.274 OA
ATOM      5  H   UNL A   1      31.639  30.000  28.111  1.00  0.00     0.163 HD
BRANCH   3   6
ATOM      6  C   UNL A   1      32.037  27.460  25.893  1.00  0.00     0.103 C 
ATOM      7  C   UNL A   1      32.108  25.065  25.194  1.00  0.00     0.107 C 
ATOM      8  C   UNL A   1      30.871  25.774  24.766  1.00  0.00    -0.006 C 
ATOM      9  C   UNL A   1      32.805  26.147  26.073  1.00  0.00     0.047 C 
ATOM     10  C   UNL A   1      30.813  27.054  25.150  1.00  0.00    -0.016 C 
BRANCH   7  11
ATOM     11  N   UNL A   1      31.838  23.884  26.006  1.00  0.00    -0.332 N 
ATOM     12  C   UNL A   1      32.611  23.002  26.658  1.00  0.00     0.318 C 
ATOM     13  O   UNL A   1      32.255  22.789  27.825  1.00  0.00    -0.249 OA
ATOM     14  H   UNL A   1      30.876  23.692  26.094  1.00  0.00     0.165 HD
BRANCH  12  15
ATOM     15  N   UNL A   1      33.637  22.311  26.106  1.00  0.00    -0.322 N 
ATOM     16  C   UNL A   1      35.099  22.404  26.233  1.00  0.00     0.086 C 
ATOM     17  C   UNL A   1      35.641  21.292  25.292  1.00  0.00     0.027 C 
ATOM     18  C   UNL A   1      34.469  20.365  25.046  1.00  0.00     0.024 C 
ATOM     19  C   UNL A   1      33.284  21.304  25.111  1.00  0.00     0.122 C 
BRANCH  16  20
ATOM     20  C   UNL A   1      35.789  23.734  25.834  1.00  0.00     0.022 C 
ATOM     21  C   UNL A   1      37.219  23.666  25.332  1.00  0.00     0.006 C 
ENDBRANCH  16  20
ENDBRANCH  12  15
ENDBRANCH   7  11
ENDBRANCH   3   6
ENDBRANCH   1   2
BRANCH   1  22
ATOM     22  C   UNL A   1      31.574  32.021  26.664  1.00  0.00     0.042 C 
BRANCH  22  23
ATOM     23  C   UNL A   1      32.687  32.770  27.387  1.00  0.00     0.118 C 
BRANCH  23  24
ATOM     24  N   UNL A   1      32.353  34.157  27.685  1.00  0.00    -0.352 N 
ATOM     25  C   UNL A   1      32.935  35.005  28.598  1.00  0.00     0.251 C 
ATOM     26  H   UNL A   1      31.610  34.538  27.162  1.00  0.00     0.163 HD
ATOM     27  O   UNL A   1      32.449  36.110  28.821  1.00  0.00    -0.269 OA
BRANCH  25  28
ATOM     28  C   UNL A   1      34.136  34.562  29.338  1.00  0.00     0.039 A 
ATOM     29  C   UNL A   1      33.985  33.977  30.597  1.00  0.00     0.014 A 
ATOM     30  C   UNL A   1      35.404  34.691  28.768  1.00  0.00     0.014 A 
ATOM     31  C   UNL A   1      35.101  33.444  31.251  1.00  0.00     0.010 A 
ATOM     32  C   UNL A   1      36.496  34.088  29.380  1.00  0.00     0.010 A 
ATOM     33  C   UNL A   1      36.359  33.458  30.628  1.00  0.00    -0.014 A 
BRANCH  33  34
ATOM     34  C   UNL A   1      37.562  32.850  31.254  1.00  0.00     0.031 A 
ATOM     35  C   UNL A   1      38.232  31.685  30.577  1.00  0.00     0.074 A 
ATOM     36  C   UNL A   1      37.981  33.262  32.468  1.00  0.00     0.049 A 
ATOM     37  N   UNL A   1      39.157  30.880  31.032  1.00  0.00    -0.248 NA
ATOM     38  C   UNL A   1      37.773  31.363  29.215  1.00  0.00     0.031 C 
ATOM     39  C   UNL A   1      37.401  34.362  33.240  1.00  0.00     0.029 A 
ATOM     40  N   UNL A   1      38.978  32.779  33.281  1.00  0.00    -0.354 N 
ATOM     41  C   UNL A   1      39.359  29.937  30.032  1.00  0.00     0.074 A 
ATOM     42  C   UNL A   1      38.439  30.246  28.961  1.00  0.00     0.031 C 
ATOM     43  C   UNL A   1      38.051  34.470  34.409  1.00  0.00     0.029 A 
ATOM     44  C   UNL A   1      39.059  33.416  34.496  1.00  0.00     0.049 A 
ATOM     45  H   UNL A   1      39.579  32.044  33.017  1.00  0.00     0.167 HD
ATOM     46  C   UNL A   1      40.245  28.914  30.007  1.00  0.00     0.037 A 
ATOM     47  C   UNL A   1      39.834  33.159  35.568  1.00  0.00     0.037 A 
ATOM     48  C   UNL A   1      41.192  28.643  31.054  1.00  0.00     0.049 A 
ATOM     49  C   UNL A   1      40.809  32.010  35.511  1.00  0.00     0.074 A 
ATOM     50  C   UNL A   1      42.180  27.673  31.089  1.00  0.00     0.029 A 
ATOM     51  N   UNL A   1      41.274  29.344  32.246  1.00  0.00    -0.354 N 
ATOM     52  N   UNL A   1      41.033  31.161  34.537  1.00  0.00    -0.248 NA
ATOM     53  C   UNL A   1      41.642  31.782  36.701  1.00  0.00     0.031 C 
ATOM     54  C   UNL A   1      42.825  27.755  32.325  1.00  0.00     0.029 A 
ATOM     55  C   UNL A   1      42.283  28.816  33.033  1.00  0.00     0.049 A 
ATOM     56  H   UNL A   1      40.701  30.104  32.497  1.00  0.00     0.167 HD
ATOM     57  C   UNL A   1      42.061  30.337  34.976  1.00  0.00     0.074 A 
ATOM     58  C   UNL A   1      42.418  30.783  36.304  1.00  0.00     0.031 C 
ATOM     59  C   UNL A   1      42.658  29.305  34.333  1.00  0.00     0.037 A 
BRANCH  46  60
ATOM     60  C   UNL A   1      40.244  28.006  28.813  1.00  0.00     0.064 A 
ATOM     61  C   UNL A   1      40.972  28.311  27.654  1.00  0.00     0.173 A 
ATOM     62  C   UNL A   1      39.572  26.775  28.862  1.00  0.00     0.173 A 
ATOM     63  F   UNL A   1      41.623  29.480  27.552  1.00  0.00    -0.203 F 
ATOM     64  C   UNL A   1      41.016  27.423  26.582  1.00  0.00     0.198 A 
ATOM     65  C   UNL A   1      39.644  25.877  27.802  1.00  0.00     0.198 A 
ATOM     66  F   UNL A   1      38.866  26.433  29.951  1.00  0.00    -0.203 F 
ATOM     67  F   UNL A   1      41.690  27.750  25.471  1.00  0.00    -0.200 F 
ATOM     68  C   UNL A   1      40.362  26.203  26.661  1.00  0.00     0.200 A 
ATOM     69  F   UNL A   1      39.025  24.691  27.888  1.00  0.00    -0.200 F 
ATOM     70  F   UNL A   1      40.424  25.340  25.638  1.00  0.00    -0.200 F 
ENDBRANCH  46  60
BRANCH  47  71
ATOM     71  C   UNL A   1      39.729  33.993  36.796  1.00  0.00     0.064 A 
ATOM     72  C   UNL A   1      38.923  33.594  37.873  1.00  0.00     0.173 A 
ATOM     73  C   UNL A   1      40.385  35.229  36.901  1.00  0.00     0.173 A 
ATOM     74  F   UNL A   1      38.256  32.432  37.812  1.00  0.00    -0.203 F 
ATOM     75  C   UNL A   1      38.745  34.414  38.985  1.00  0.00     0.198 A 
ATOM     76  C   UNL A   1      40.234  36.033  38.030  1.00  0.00     0.198 A 
ATOM     77  F   UNL A   1      41.171  35.660  35.904  1.00  0.00    -0.203 F 
ATOM     78  F   UNL A   1      37.911  34.038  39.964  1.00  0.00    -0.200 F 
ATOM     79  C   UNL A   1      39.402  35.632  39.064  1.00  0.00     0.200 A 
ATOM     80  F   UNL A   1      40.882  37.204  38.108  1.00  0.00    -0.200 F 
ATOM     81  F   UNL A   1      39.222  36.425  40.129  1.00  0.00    -0.200 F 
ENDBRANCH  47  71
BRANCH  59  82
ATOM     82  C   UNL A   1      43.819  28.634  35.007  1.00  0.00     0.064 A 
ATOM     83  C   UNL A   1      45.138  29.069  34.823  1.00  0.00     0.173 A 
ATOM     84  C   UNL A   1      43.589  27.595  35.923  1.00  0.00     0.173 A 
ATOM     85  F   UNL A   1      45.410  30.050  33.949  1.00  0.00    -0.203 F 
ATOM     86  C   UNL A   1      46.187  28.481  35.523  1.00  0.00     0.198 A 
ATOM     87  C   UNL A   1      44.636  27.031  36.644  1.00  0.00     0.198 A 
ATOM     88  F   UNL A   1      42.343  27.149  36.140  1.00  0.00    -0.203 F 
ATOM     89  F   UNL A   1      47.446  28.891  35.310  1.00  0.00    -0.200 F 
ATOM     90  C   UNL A   1      45.935  27.473  36.442  1.00  0.00     0.200 A 
ATOM     91  F   UNL A   1      44.387  26.070  37.544  1.00  0.00    -0.200 F 
ATOM     92  F   UNL A   1      46.944  26.925  37.133  1.00  0.00    -0.200 F 
ENDBRANCH  59  82
ENDBRANCH  33  34
ENDBRANCH  25  28
ENDBRANCH  23  24
ENDBRANCH  22  23
ENDBRANCH   1  22
TORSDOF 13
ENDMDL
MODEL 2
REMARK VINA RESULT:     -12.5      0.184      1.621
REMARK SMILES CC[C@@H]1CCCN1C(=O)N[C@H]1C=C[C@@H](C(=O)NCCCNC(=O)c2ccc(-c3c4nc(c(-c5c(F)c(F)c(F)c(F)c5F)c5ccc([nH]5)c(-c5c(F)c(F)c(F)c(F)c5F)c5nc(c(-c6c(F)c(F)c(F)c(F)c6F)c6ccc3[nH]6)C=C5)C=C4)cc2)C1
REMARK SMILES IDX 18 1 17 2 15 3 16 4 14 6 11 7 12 8 87 9 13 10 10 11 8 12
REMARK SMILES IDX 9 13 7 15 3 16 4 17 5 18 6 19 2 20 1 21 19 22 20 23 21 24
REMARK SMILES IDX 22 25 23 27 24 28 25 29 86 30 26 31 85 32 27 33 28 34 29 35
REMARK SMILES IDX 79 36 30 37 84 38 78 39 80 40 31 41 83 42 77 43 76 44 32 46
REMARK SMILES IDX 64 47 44 48 63 49 45 50 48 51 62 52 81 53 46 54 47 55 61 57
REMARK SMILES IDX 82 58 49 59 33 60 34 61 42 62 35 63 36 64 40 65 43 66 37 67
REMARK SMILES IDX 38 68 41 69 39 70 65 71 66 72 74 73 67 74 68 75 72 76 75 77
REMARK SMILES IDX 69 78 70 79 73 80 71 81 50 82 51 83 59 84 52 85 53 86 57 87
REMARK SMILES IDX 60 88 54 89 55 90 58 91 56 92
REMARK H PARENT 17 5 10 14 21 26 80 45 48 56
REMARK Flexibility Score: inf
ROOT
ATOM      1  C   UNL A   1      32.165  30.470  26.169  1.00  0.00     0.117 C 
ENDROOT
BRANCH   1   2
ATOM      2  N   UNL A   1      31.907  29.494  27.212  1.00  0.00    -0.356 N 
ATOM      3  C   UNL A   1      31.759  28.146  27.174  1.00  0.00     0.227 C 
ATOM      4  O   UNL A   1      31.464  27.594  28.241  1.00  0.00    -0.274 OA
ATOM      5  H   UNL A   1      31.823  29.882  28.112  1.00  0.00     0.163 HD
BRANCH   3   6
ATOM      6  C   UNL A   1      31.964  27.301  25.912  1.00  0.00     0.103 C 
ATOM      7  C   UNL A   1      32.025  24.888  25.277  1.00  0.00     0.107 C 
ATOM      8  C   UNL A   1      30.739  25.560  24.941  1.00  0.00    -0.006 C 
ATOM      9  C   UNL A   1      32.773  26.009  26.060  1.00  0.00     0.047 C 
ATOM     10  C   UNL A   1      30.688  26.849  25.292  1.00  0.00    -0.016 C 
BRANCH   7  11
ATOM     11  N   UNL A   1      31.853  23.727  26.143  1.00  0.00    -0.332 N 
ATOM     12  C   UNL A   1      32.700  22.885  26.755  1.00  0.00     0.318 C 
ATOM     13  O   UNL A   1      32.447  22.699  27.953  1.00  0.00    -0.249 OA
ATOM     14  H   UNL A   1      30.908  23.515  26.316  1.00  0.00     0.165 HD
BRANCH  12  15
ATOM     15  N   UNL A   1      33.695  22.200  26.141  1.00  0.00    -0.322 N 
ATOM     16  C   UNL A   1      35.159  22.214  26.274  1.00  0.00     0.086 C 
ATOM     17  C   UNL A   1      35.653  21.170  25.235  1.00  0.00     0.027 C 
ATOM     18  C   UNL A   1      34.440  20.325  24.904  1.00  0.00     0.024 C 
ATOM     19  C   UNL A   1      33.300  21.307  25.057  1.00  0.00     0.122 C 
BRANCH  16  20
ATOM     20  C   UNL A   1      35.911  23.542  25.999  1.00  0.00     0.022 C 
ATOM     21  C   UNL A   1      37.122  23.494  25.087  1.00  0.00     0.006 C 
ENDBRANCH  16  20
ENDBRANCH  12  15
ENDBRANCH   7  11
ENDBRANCH   3   6
ENDBRANCH   1   2
BRANCH   1  22
ATOM     22  C   UNL A   1      31.753  31.873  26.597  1.00  0.00     0.042 C 
BRANCH  22  23
ATOM     23  C   UNL A   1      32.839  32.640  27.343  1.00  0.00     0.118 C 
BRANCH  23  24
ATOM     24  N   UNL A   1      32.477  34.020  27.633  1.00  0.00    -0.352 N 
ATOM     25  C   UNL A   1      33.025  34.877  28.559  1.00  0.00     0.251 C 
ATOM     26  H   UNL A   1      31.740  34.391  27.094  1.00  0.00     0.163 HD
ATOM     27  O   UNL A   1      32.517  35.974  28.772  1.00  0.00    -0.269 OA
BRANCH  25  28
ATOM     28  C   UNL A   1      34.215  34.452  29.326  1.00  0.00     0.039 A 
ATOM     29  C   UNL A   1      34.045  33.855  30.578  1.00  0.00     0.014 A 
ATOM     30  C   UNL A   1      35.495  34.610  28.789  1.00  0.00     0.014 A 
ATOM     31  C   UNL A   1      35.154  33.339  31.255  1.00  0.00     0.010 A 
ATOM     32  C   UNL A   1      36.583  34.024  29.424  1.00  0.00     0.010 A 
ATOM     33  C   UNL A   1      36.427  33.382  30.664  1.00  0.00    -0.014 A 
BRANCH  33  34
ATOM     34  C   UNL A   1      37.625  32.794  31.316  1.00  0.00     0.031 A 
ATOM     35  C   UNL A   1      38.323  31.633  30.659  1.00  0.00     0.074 A 
ATOM     36  C   UNL A   1      38.017  33.218  32.534  1.00  0.00     0.049 A 
ATOM     37  N   UNL A   1      39.249  30.842  31.136  1.00  0.00    -0.248 NA
ATOM     38  C   UNL A   1      37.893  31.296  29.291  1.00  0.00     0.031 C 
ATOM     39  C   UNL A   1      37.410  34.315  33.288  1.00  0.00     0.029 A 
ATOM     40  N   UNL A   1      39.006  32.753  33.368  1.00  0.00    -0.354 N 
ATOM     41  C   UNL A   1      39.481  29.896  30.145  1.00  0.00     0.074 A 
ATOM     42  C   UNL A   1      38.577  30.186  29.056  1.00  0.00     0.031 C 
ATOM     43  C   UNL A   1      38.037  34.439  34.469  1.00  0.00     0.029 A 
ATOM     44  C   UNL A   1      39.055  33.398  34.581  1.00  0.00     0.049 A 
ATOM     45  H   UNL A   1      39.620  32.024  33.121  1.00  0.00     0.167 HD
ATOM     46  C   UNL A   1      40.380  28.885  30.143  1.00  0.00     0.037 A 
ATOM     47  C   UNL A   1      39.814  33.158  35.668  1.00  0.00     0.037 A 
ATOM     48  C   UNL A   1      41.312  28.631  31.209  1.00  0.00     0.049 A 
ATOM     49  C   UNL A   1      40.805  32.021  35.636  1.00  0.00     0.074 A 
ATOM     50  C   UNL A   1      42.311  27.675  31.268  1.00  0.00     0.029 A 
ATOM     51  N   UNL A   1      41.363  29.341  32.398  1.00  0.00    -0.354 N 
ATOM     52  N   UNL A   1      41.057  31.169  34.672  1.00  0.00    -0.248 NA
ATOM     53  C   UNL A   1      41.619  31.810  36.843  1.00  0.00     0.031 C 
ATOM     54  C   UNL A   1      42.932  27.772  32.516  1.00  0.00     0.029 A 
ATOM     55  C   UNL A   1      42.364  28.830  33.206  1.00  0.00     0.049 A 
ATOM     56  H   UNL A   1      40.775  30.095  32.633  1.00  0.00     0.167 HD
ATOM     57  C   UNL A   1      42.087  30.361  35.135  1.00  0.00     0.074 A 
ATOM     58  C   UNL A   1      42.414  30.819  36.466  1.00  0.00     0.031 C 
ATOM     59  C   UNL A   1      42.708  29.332  34.510  1.00  0.00     0.037 A 
BRANCH  46  60
ATOM     60  C   UNL A   1      40.413  27.969  28.955  1.00  0.00     0.064 A 
ATOM     61  C   UNL A   1      39.641  26.800  28.904  1.00  0.00     0.173 A 
ATOM     62  C   UNL A   1      41.163  28.312  27.819  1.00  0.00     0.173 A 
ATOM     63  F   UNL A   1      38.915  26.422  29.967  1.00  0.00    -0.203 F 
ATOM     64  C   UNL A   1      39.631  25.998  27.765  1.00  0.00     0.198 A 
ATOM     65  C   UNL A   1      41.125  27.526  26.672  1.00  0.00     0.198 A 
ATOM     66  F   UNL A   1      41.913  29.424  27.814  1.00  0.00    -0.203 F 
ATOM     67  F   UNL A   1      38.912  24.867  27.751  1.00  0.00    -0.200 F 
ATOM     68  C   UNL A   1      40.363  26.368  26.646  1.00  0.00     0.200 A 
ATOM     69  F   UNL A   1      41.820  27.894  25.586  1.00  0.00    -0.200 F 
ATOM     70  F   UNL A   1      40.332  25.608  25.544  1.00  0.00    -0.200 F 
ENDBRANCH  46  60
BRANCH  47  71
ATOM     71  C   UNL A   1      39.676  33.998  36.889  1.00  0.00     0.064 A 
ATOM     72  C   UNL A   1      38.884  33.579  37.968  1.00  0.00     0.173 A 
ATOM     73  C   UNL A   1      40.287  35.258  36.984  1.00  0.00     0.173 A 
ATOM     74  F   UNL A   1      38.259  32.393  37.916  1.00  0.00    -0.203 F 
ATOM     75  C   UNL A   1      38.673  34.401  39.072  1.00  0.00     0.198 A 
ATOM     76  C   UNL A   1      40.104  36.065  38.106  1.00  0.00     0.198 A 
ATOM     77  F   UNL A   1      41.058  35.709  35.985  1.00  0.00    -0.203 F 
ATOM     78  F   UNL A   1      37.852  34.003  40.054  1.00  0.00    -0.200 F 
ATOM     79  C   UNL A   1      39.285  35.643  39.143  1.00  0.00     0.200 A 
ATOM     80  F   UNL A   1      40.708  37.260  38.175  1.00  0.00    -0.200 F 
ATOM     81  F   UNL A   1      39.074  36.438  40.200  1.00  0.00    -0.200 F 
ENDBRANCH  47  71
BRANCH  59  82
ATOM     82  C   UNL A   1      43.865  28.680  35.209  1.00  0.00     0.064 A 
ATOM     83  C   UNL A   1      43.693  27.582  36.064  1.00  0.00     0.173 A 
ATOM     84  C   UNL A   1      45.174  29.110  34.943  1.00  0.00     0.173 A 
ATOM     85  F   UNL A   1      42.461  27.142  36.360  1.00  0.00    -0.203 F 
ATOM     86  C   UNL A   1      44.792  26.945  36.634  1.00  0.00     0.198 A 
ATOM     87  C   UNL A   1      46.271  28.451  35.490  1.00  0.00     0.198 A 
ATOM     88  F   UNL A   1      45.391  30.151  34.125  1.00  0.00    -0.203 F 
ATOM     89  F   UNL A   1      44.605  25.916  37.473  1.00  0.00    -0.200 F 
ATOM     90  C   UNL A   1      46.078  27.371  36.337  1.00  0.00     0.200 A 
ATOM     91  F   UNL A   1      47.512  28.853  35.187  1.00  0.00    -0.200 F 
ATOM     92  F   UNL A   1      47.134  26.740  36.869  1.00  0.00    -0.200 F 
ENDBRANCH  59  82
ENDBRANCH  33  34
ENDBRANCH  25  28
ENDBRANCH  23  24
ENDBRANCH  22  23
ENDBRANCH   1  22
TORSDOF 13
ENDMDL
MODEL 3
REMARK VINA RESULT:     -12.4      1.156      1.836
REMARK SMILES CC[C@@H]1CCCN1C(=O)N[C@H]1C=C[C@@H](C(=O)NCCCNC(=O)c2ccc(-c3c4nc(c(-c5c(F)c(F)c(F)c(F)c5F)c5ccc([nH]5)c(-c5c(F)c(F)c(F)c(F)c5F)c5nc(c(-c6c(F)c(F)c(F)c(F)c6F)c6ccc3[nH]6)C=C5)C=C4)cc2)C1
REMARK SMILES IDX 18 1 17 2 15 3 16 4 14 6 11 7 12 8 87 9 13 10 10 11 8 12
REMARK SMILES IDX 9 13 7 15 3 16 4 17 5 18 6 19 2 20 1 21 19 22 20 23 21 24
REMARK SMILES IDX 22 25 23 27 24 28 25 29 86 30 26 31 85 32 27 33 28 34 29 35
REMARK SMILES IDX 79 36 30 37 84 38 78 39 80 40 31 41 83 42 77 43 76 44 32 46
REMARK SMILES IDX 64 47 44 48 63 49 45 50 48 51 62 52 81 53 46 54 47 55 61 57
REMARK SMILES IDX 82 58 49 59 33 60 34 61 42 62 35 63 36 64 40 65 43 66 37 67
REMARK SMILES IDX 38 68 41 69 39 70 65 71 66 72 74 73 67 74 68 75 72 76 75 77
REMARK SMILES IDX 69 78 70 79 73 80 71 81 50 82 51 83 59 84 52 85 53 86 57 87
REMARK SMILES IDX 60 88 54 89 55 90 58 91 56 92
REMARK H PARENT 17 5 10 14 21 26 80 45 48 56
REMARK Flexibility Score: inf
ROOT
ATOM      1  C   UNL A   1      31.875  30.438  26.521  1.00  0.00     0.117 C 
ENDROOT
BRANCH   1   2
ATOM      2  N   UNL A   1      32.273  30.112  25.165  1.00  0.00    -0.356 N 
ATOM      3  C   UNL A   1      32.594  28.933  24.574  1.00  0.00     0.227 C 
ATOM      4  O   UNL A   1      32.975  28.992  23.399  1.00  0.00    -0.274 OA
ATOM      5  H   UNL A   1      32.320  30.889  24.562  1.00  0.00     0.163 HD
BRANCH   3   6
ATOM      6  C   UNL A   1      32.480  27.573  25.270  1.00  0.00     0.103 C 
ATOM      7  C   UNL A   1      32.964  25.177  24.763  1.00  0.00     0.107 C 
ATOM      8  C   UNL A   1      33.998  25.825  25.615  1.00  0.00    -0.006 C 
ATOM      9  C   UNL A   1      32.042  26.383  24.411  1.00  0.00     0.047 C 
ATOM     10  C   UNL A   1      33.759  27.114  25.879  1.00  0.00    -0.016 C 
BRANCH   7  11
ATOM     11  N   UNL A   1      33.508  24.611  23.534  1.00  0.00    -0.332 N 
ATOM     12  C   UNL A   1      33.914  23.384  23.171  1.00  0.00     0.318 C 
ATOM     13  O   UNL A   1      33.451  23.002  22.088  1.00  0.00    -0.249 OA
ATOM     14  H   UNL A   1      33.596  25.275  22.813  1.00  0.00     0.165 HD
BRANCH  12  15
ATOM     15  N   UNL A   1      34.822  22.635  23.843  1.00  0.00    -0.322 N 
ATOM     16  C   UNL A   1      34.712  21.436  24.687  1.00  0.00     0.086 C 
ATOM     17  C   UNL A   1      36.170  21.141  25.132  1.00  0.00     0.027 C 
ATOM     18  C   UNL A   1      37.050  21.908  24.167  1.00  0.00     0.024 C 
ATOM     19  C   UNL A   1      36.200  23.113  23.829  1.00  0.00     0.122 C 
BRANCH  16  20
ATOM     20  C   UNL A   1      33.837  21.514  25.965  1.00  0.00     0.022 C 
ATOM     21  C   UNL A   1      34.300  22.427  27.085  1.00  0.00     0.006 C 
ENDBRANCH  16  20
ENDBRANCH  12  15
ENDBRANCH   7  11
ENDBRANCH   3   6
ENDBRANCH   1   2
BRANCH   1  22
ATOM     22  C   UNL A   1      31.605  31.929  26.685  1.00  0.00     0.042 C 
BRANCH  22  23
ATOM     23  C   UNL A   1      32.728  32.692  27.379  1.00  0.00     0.118 C 
BRANCH  23  24
ATOM     24  N   UNL A   1      32.391  34.079  27.670  1.00  0.00    -0.352 N 
ATOM     25  C   UNL A   1      32.974  34.934  28.577  1.00  0.00     0.251 C 
ATOM     26  H   UNL A   1      31.647  34.456  27.147  1.00  0.00     0.163 HD
ATOM     27  O   UNL A   1      32.486  36.038  28.796  1.00  0.00    -0.269 OA
BRANCH  25  28
ATOM     28  C   UNL A   1      34.177  34.497  29.317  1.00  0.00     0.039 A 
ATOM     29  C   UNL A   1      34.028  33.873  30.558  1.00  0.00     0.014 A 
ATOM     30  C   UNL A   1      35.448  34.670  28.764  1.00  0.00     0.014 A 
ATOM     31  C   UNL A   1      35.149  33.347  31.208  1.00  0.00     0.010 A 
ATOM     32  C   UNL A   1      36.547  34.075  29.370  1.00  0.00     0.010 A 
ATOM     33  C   UNL A   1      36.412  33.407  30.598  1.00  0.00    -0.014 A 
BRANCH  33  34
ATOM     34  C   UNL A   1      37.623  32.809  31.220  1.00  0.00     0.031 A 
ATOM     35  C   UNL A   1      38.308  31.658  30.533  1.00  0.00     0.074 A 
ATOM     36  C   UNL A   1      38.037  33.216  32.436  1.00  0.00     0.049 A 
ATOM     37  N   UNL A   1      39.242  30.860  30.981  1.00  0.00    -0.248 NA
ATOM     38  C   UNL A   1      37.852  31.341  29.168  1.00  0.00     0.031 C 
ATOM     39  C   UNL A   1      37.443  34.302  33.218  1.00  0.00     0.029 A 
ATOM     40  N   UNL A   1      39.040  32.738  33.246  1.00  0.00    -0.354 N 
ATOM     41  C   UNL A   1      39.456  29.929  29.973  1.00  0.00     0.074 A 
ATOM     42  C   UNL A   1      38.532  30.235  28.905  1.00  0.00     0.031 C 
ATOM     43  C   UNL A   1      38.092  34.408  34.388  1.00  0.00     0.029 A 
ATOM     44  C   UNL A   1      39.112  33.366  34.466  1.00  0.00     0.049 A 
ATOM     45  H   UNL A   1      39.650  32.014  32.976  1.00  0.00     0.167 HD
ATOM     46  C   UNL A   1      40.355  28.918  29.940  1.00  0.00     0.037 A 
ATOM     47  C   UNL A   1      39.891  33.110  35.536  1.00  0.00     0.037 A 
ATOM     48  C   UNL A   1      41.305  28.649  30.985  1.00  0.00     0.049 A 
ATOM     49  C   UNL A   1      40.880  31.974  35.469  1.00  0.00     0.074 A 
ATOM     50  C   UNL A   1      42.305  27.692  31.012  1.00  0.00     0.029 A 
ATOM     51  N   UNL A   1      41.378  29.342  32.183  1.00  0.00    -0.354 N 
ATOM     52  N   UNL A   1      41.115  31.136  34.488  1.00  0.00    -0.248 NA
ATOM     53  C   UNL A   1      41.716  31.746  36.657  1.00  0.00     0.031 C 
ATOM     54  C   UNL A   1      42.949  27.771  32.249  1.00  0.00     0.029 A 
ATOM     55  C   UNL A   1      42.394  28.819  32.965  1.00  0.00     0.049 A 
ATOM     56  H   UNL A   1      40.795  30.092  32.440  1.00  0.00     0.167 HD
ATOM     57  C   UNL A   1      42.153  30.321  34.921  1.00  0.00     0.074 A 
ATOM     58  C   UNL A   1      42.505  30.761  36.252  1.00  0.00     0.031 C 
ATOM     59  C   UNL A   1      42.763  29.302  34.270  1.00  0.00     0.037 A 
BRANCH  46  60
ATOM     60  C   UNL A   1      40.365  28.019  28.738  1.00  0.00     0.064 A 
ATOM     61  C   UNL A   1      41.113  28.328  27.594  1.00  0.00     0.173 A 
ATOM     62  C   UNL A   1      39.683  26.793  28.766  1.00  0.00     0.173 A 
ATOM     63  F   UNL A   1      41.775  29.493  27.512  1.00  0.00    -0.203 F 
ATOM     64  C   UNL A   1      41.167  27.449  26.515  1.00  0.00     0.198 A 
ATOM     65  C   UNL A   1      39.764  25.904  27.700  1.00  0.00     0.198 A 
ATOM     66  F   UNL A   1      38.957  26.448  29.841  1.00  0.00    -0.203 F 
ATOM     67  F   UNL A   1      41.861  27.779  25.417  1.00  0.00    -0.200 F 
ATOM     68  C   UNL A   1      40.502  26.233  26.573  1.00  0.00     0.200 A 
ATOM     69  F   UNL A   1      39.134  24.722  27.766  1.00  0.00    -0.200 F 
ATOM     70  F   UNL A   1      40.574  25.379  25.544  1.00  0.00    -0.200 F 
ENDBRANCH  46  60
BRANCH  47  71
ATOM     71  C   UNL A   1      39.776  33.933  36.771  1.00  0.00     0.064 A 
ATOM     72  C   UNL A   1      38.946  33.533  37.829  1.00  0.00     0.173 A 
ATOM     73  C   UNL A   1      40.446  35.159  36.901  1.00  0.00     0.173 A 
ATOM     74  F   UNL A   1      38.264  32.381  37.745  1.00  0.00    -0.203 F 
ATOM     75  C   UNL A   1      38.759  34.343  38.947  1.00  0.00     0.198 A 
ATOM     76  C   UNL A   1      40.286  35.952  38.035  1.00  0.00     0.198 A 
ATOM     77  F   UNL A   1      41.255  35.589  35.922  1.00  0.00    -0.203 F 
ATOM     78  F   UNL A   1      37.904  33.968  39.908  1.00  0.00    -0.200 F 
ATOM     79  C   UNL A   1      39.431  35.551  39.051  1.00  0.00     0.200 A 
ATOM     80  F   UNL A   1      40.947  37.114  38.137  1.00  0.00    -0.200 F 
ATOM     81  F   UNL A   1      39.243  36.336  40.121  1.00  0.00    -0.200 F 
ENDBRANCH  47  71
BRANCH  59  82
ATOM     82  C   UNL A   1      43.932  28.640  34.938  1.00  0.00     0.064 A 
ATOM     83  C   UNL A   1      43.784  27.491  35.727  1.00  0.00     0.173 A 
ATOM     84  C   UNL A   1      45.231  29.117  34.705  1.00  0.00     0.173 A 
ATOM     85  F   UNL A   1      42.562  27.004  35.989  1.00  0.00    -0.203 F 
ATOM     86  C   UNL A   1      44.895  26.850  36.267  1.00  0.00     0.198 A 
ATOM     87  C   UNL A   1      46.341  28.455  35.221  1.00  0.00     0.198 A 
ATOM     88  F   UNL A   1      45.426  30.208  33.949  1.00  0.00    -0.203 F 
ATOM     89  F   UNL A   1      44.730  25.770  37.044  1.00  0.00    -0.200 F 
ATOM     90  C   UNL A   1      46.171  27.324  36.004  1.00  0.00     0.200 A 
ATOM     91  F   UNL A   1      47.574  28.905  34.950  1.00  0.00    -0.200 F 
ATOM     92  F   UNL A   1      47.241  26.691  36.506  1.00  0.00    -0.200 F 
ENDBRANCH  59  82
ENDBRANCH  33  34
ENDBRANCH  25  28
ENDBRANCH  23  24
ENDBRANCH  22  23
ENDBRANCH   1  22
TORSDOF 13
ENDMDL
