MODEL 1
REMARK VINA RESULT:     -12.2      0.000      0.000
REMARK SMILES CC(C)[NH2+][C@]1(C(=O)NCCCNC(=O)c2ccc(-c3c4nc(c(-c5c(F)c(F)c(F)c(F)c5F)c5ccc([nH]5)c(-c5c(F)c(F)c(F)c(F)c5F)c5nc(c(-c6c(F)c(F)c(F)c(F)c6F)c6ccc3[nH]6)C=C5)C=C4)cc2)CC[C@H]([N@H+](C)C2CCCC2)C1
REMARK SMILES IDX 10 1 9 2 8 3 6 4 7 5 5 7 78 8 88 9 79 10 80 11 4 12 2 15
REMARK SMILES IDX 1 16 3 17 81 18 82 19 83 21 84 22 87 23 85 24 86 25 11 26
REMARK SMILES IDX 12 27 13 28 14 30 15 31 16 32 77 33 17 34 76 35 18 36 19 37
REMARK SMILES IDX 20 38 70 39 21 40 75 41 69 42 71 43 22 44 74 45 68 46 67 47
REMARK SMILES IDX 23 49 55 50 35 51 54 52 36 53 39 54 53 55 72 56 37 57 38 58
REMARK SMILES IDX 52 60 73 61 40 62 24 63 25 64 33 65 26 66 27 67 31 68 34 69
REMARK SMILES IDX 28 70 29 71 32 72 30 73 56 74 57 75 65 76 58 77 59 78 63 79
REMARK SMILES IDX 66 80 60 81 61 82 64 83 62 84 41 85 42 86 50 87 43 88 44 89
REMARK SMILES IDX 48 90 51 91 45 92 46 93 49 94 47 95
REMARK H PARENT 8 6 4 13 4 14 81 20 12 29 71 48 39 59
REMARK Flexibility Score: inf
ROOT
ATOM      1  C   UNL A   1      31.435  32.211  26.506  1.00  0.00     0.042 C 
ENDROOT
BRANCH   1   2
ATOM      2  C   UNL A   1      31.554  30.745  26.103  1.00  0.00     0.118 C 
BRANCH   2   3
ATOM      3  N   UNL A   1      31.018  30.412  24.787  1.00  0.00    -0.351 N 
ATOM      4  C   UNL A   1      30.762  29.249  24.121  1.00  0.00     0.281 C 
ATOM      5  O   UNL A   1      30.135  29.380  23.061  1.00  0.00    -0.268 OA
ATOM      6  H   UNL A   1      30.787  31.210  24.259  1.00  0.00     0.163 HD
BRANCH   4   7
ATOM      7  C   UNL A   1      31.293  27.850  24.558  1.00  0.00     0.181 C 
ATOM      8  C   UNL A   1      31.045  27.501  26.040  1.00  0.00     0.085 C 
ATOM      9  C   UNL A   1      30.429  26.758  23.859  1.00  0.00     0.144 C 
ATOM     10  C   UNL A   1      30.422  26.105  26.143  1.00  0.00     0.072 C 
ATOM     11  C   UNL A   1      30.467  25.497  24.743  1.00  0.00     0.191 C 
BRANCH   7  12
ATOM     12  N   UNL A   1      32.693  27.605  24.123  1.00  0.00    -0.331 N 
ATOM     13  H   UNL A   1      33.250  28.379  24.487  1.00  0.00     0.347 HD
ATOM     14  H   UNL A   1      32.878  26.667  24.480  1.00  0.00     0.347 HD
BRANCH  12  15
ATOM     15  C   UNL A   1      33.030  27.482  22.711  1.00  0.00     0.176 C 
ATOM     16  C   UNL A   1      34.063  28.569  22.398  1.00  0.00     0.075 C 
ATOM     17  C   UNL A   1      33.633  26.119  22.358  1.00  0.00     0.075 C 
ENDBRANCH  12  15
ENDBRANCH   7  12
BRANCH  11  18
ATOM     18  N   UNL A   1      31.504  24.465  24.547  1.00  0.00    -0.332 N 
ATOM     19  C   UNL A   1      31.174  23.317  23.708  1.00  0.00     0.333 C 
ATOM     20  H   UNL A   1      32.167  24.981  23.968  1.00  0.00     0.348 HD
BRANCH  18  21
ATOM     21  C   UNL A   1      32.197  24.072  25.781  1.00  0.00     0.184 C 
ATOM     22  C   UNL A   1      31.943  22.630  26.244  1.00  0.00     0.065 C 
ATOM     23  C   UNL A   1      33.726  24.079  25.665  1.00  0.00     0.065 C 
ATOM     24  C   UNL A   1      33.017  22.409  27.300  1.00  0.00     0.006 C 
ATOM     25  C   UNL A   1      34.220  23.222  26.830  1.00  0.00     0.006 C 
ENDBRANCH  18  21
ENDBRANCH  11  18
ENDBRANCH   4   7
ENDBRANCH   2   3
ENDBRANCH   1   2
BRANCH   1  26
ATOM     26  C   UNL A   1      32.626  32.752  27.278  1.00  0.00     0.118 C 
BRANCH  26  27
ATOM     27  N   UNL A   1      32.459  34.158  27.607  1.00  0.00    -0.352 N 
ATOM     28  C   UNL A   1      33.001  34.892  28.629  1.00  0.00     0.251 C 
ATOM     29  H   UNL A   1      31.866  34.661  27.003  1.00  0.00     0.163 HD
ATOM     30  O   UNL A   1      32.516  35.993  28.903  1.00  0.00    -0.269 OA
BRANCH  28  31
ATOM     31  C   UNL A   1      34.157  34.394  29.407  1.00  0.00     0.039 A 
ATOM     32  C   UNL A   1      35.440  34.512  28.862  1.00  0.00     0.014 A 
ATOM     33  C   UNL A   1      33.983  33.730  30.625  1.00  0.00     0.014 A 
ATOM     34  C   UNL A   1      36.541  33.979  29.539  1.00  0.00     0.010 A 
ATOM     35  C   UNL A   1      35.089  33.281  31.343  1.00  0.00     0.010 A 
ATOM     36  C   UNL A   1      36.374  33.363  30.790  1.00  0.00    -0.014 A 
BRANCH  36  37
ATOM     37  C   UNL A   1      37.512  32.710  31.487  1.00  0.00     0.031 A 
ATOM     38  C   UNL A   1      38.254  31.588  30.807  1.00  0.00     0.074 A 
ATOM     39  C   UNL A   1      37.854  33.089  32.732  1.00  0.00     0.049 A 
ATOM     40  N   UNL A   1      39.222  30.835  31.264  1.00  0.00    -0.248 NA
ATOM     41  C   UNL A   1      37.825  31.245  29.442  1.00  0.00     0.031 C 
ATOM     42  C   UNL A   1      37.190  34.131  33.513  1.00  0.00     0.029 A 
ATOM     43  N   UNL A   1      38.846  32.629  33.562  1.00  0.00    -0.354 N 
ATOM     44  C   UNL A   1      39.492  29.915  30.259  1.00  0.00     0.074 A 
ATOM     45  C   UNL A   1      38.553  30.169  29.189  1.00  0.00     0.031 C 
ATOM     46  C   UNL A   1      37.807  34.250  34.700  1.00  0.00     0.029 A 
ATOM     47  C   UNL A   1      38.892  33.275  34.773  1.00  0.00     0.049 A 
ATOM     48  H   UNL A   1      39.465  31.906  33.314  1.00  0.00     0.167 HD
ATOM     49  C   UNL A   1      40.453  28.961  30.216  1.00  0.00     0.037 A 
ATOM     50  C   UNL A   1      39.722  33.100  35.820  1.00  0.00     0.037 A 
ATOM     51  C   UNL A   1      41.421  28.745  31.257  1.00  0.00     0.049 A 
ATOM     52  C   UNL A   1      40.813  32.067  35.730  1.00  0.00     0.074 A 
ATOM     53  C   UNL A   1      42.466  27.840  31.292  1.00  0.00     0.029 A 
ATOM     54  N   UNL A   1      41.469  29.460  32.446  1.00  0.00    -0.354 N 
ATOM     55  N   UNL A   1      41.087  31.235  34.755  1.00  0.00    -0.248 NA
ATOM     56  C   UNL A   1      41.720  31.961  36.881  1.00  0.00     0.031 C 
ATOM     57  C   UNL A   1      43.134  27.990  32.513  1.00  0.00     0.029 A 
ATOM     58  C   UNL A   1      42.528  29.015  33.220  1.00  0.00     0.049 A 
ATOM     59  H   UNL A   1      40.843  30.176  32.700  1.00  0.00     0.167 HD
ATOM     60  C   UNL A   1      42.215  30.533  35.158  1.00  0.00     0.074 A 
ATOM     61  C   UNL A   1      42.580  31.043  36.463  1.00  0.00     0.031 C 
ATOM     62  C   UNL A   1      42.888  29.555  34.506  1.00  0.00     0.037 A 
BRANCH  49  63
ATOM     63  C   UNL A   1      40.508  28.089  28.997  1.00  0.00     0.064 A 
ATOM     64  C   UNL A   1      41.289  28.432  27.882  1.00  0.00     0.173 A 
ATOM     65  C   UNL A   1      39.789  26.886  28.947  1.00  0.00     0.173 A 
ATOM     66  F   UNL A   1      41.984  29.580  27.873  1.00  0.00    -0.203 F 
ATOM     67  C   UNL A   1      41.320  27.620  26.751  1.00  0.00     0.198 A 
ATOM     68  C   UNL A   1      39.847  26.061  27.826  1.00  0.00     0.198 A 
ATOM     69  F   UNL A   1      39.030  26.507  29.987  1.00  0.00    -0.203 F 
ATOM     70  F   UNL A   1      42.030  27.997  25.678  1.00  0.00    -0.200 F 
ATOM     71  C   UNL A   1      40.605  26.433  26.726  1.00  0.00     0.200 A 
ATOM     72  F   UNL A   1      39.162  24.909  27.808  1.00  0.00    -0.200 F 
ATOM     73  F   UNL A   1      40.638  25.651  25.639  1.00  0.00    -0.200 F 
ENDBRANCH  49  63
BRANCH  50  74
ATOM     74  C   UNL A   1      39.585  33.959  37.023  1.00  0.00     0.064 A 
ATOM     75  C   UNL A   1      38.845  33.525  38.132  1.00  0.00     0.173 A 
ATOM     76  C   UNL A   1      40.184  35.225  37.091  1.00  0.00     0.173 A 
ATOM     77  F   UNL A   1      38.238  32.329  38.105  1.00  0.00    -0.203 F 
ATOM     78  C   UNL A   1      38.692  34.333  39.257  1.00  0.00     0.198 A 
ATOM     79  C   UNL A   1      40.051  36.021  38.227  1.00  0.00     0.198 A 
ATOM     80  F   UNL A   1      40.906  35.682  36.059  1.00  0.00    -0.203 F 
ATOM     81  F   UNL A   1      37.945  33.910  40.286  1.00  0.00    -0.200 F 
ATOM     82  C   UNL A   1      39.300  35.578  39.305  1.00  0.00     0.200 A 
ATOM     83  F   UNL A   1      40.648  37.220  38.275  1.00  0.00    -0.200 F 
ATOM     84  F   UNL A   1      39.154  36.355  40.387  1.00  0.00    -0.200 F 
ENDBRANCH  50  74
BRANCH  62  85
ATOM     85  C   UNL A   1      44.118  29.010  35.167  1.00  0.00     0.064 A 
ATOM     86  C   UNL A   1      44.060  27.918  36.046  1.00  0.00     0.173 A 
ATOM     87  C   UNL A   1      45.376  29.564  34.886  1.00  0.00     0.173 A 
ATOM     88  F   UNL A   1      42.879  27.363  36.355  1.00  0.00    -0.203 F 
ATOM     89  C   UNL A   1      45.216  27.417  36.639  1.00  0.00     0.198 A 
ATOM     90  C   UNL A   1      46.532  29.044  35.460  1.00  0.00     0.198 A 
ATOM     91  F   UNL A   1      45.483  30.604  34.046  1.00  0.00    -0.203 F 
ATOM     92  F   UNL A   1      45.134  26.402  37.509  1.00  0.00    -0.200 F 
ATOM     93  C   UNL A   1      46.450  27.976  36.342  1.00  0.00     0.200 A 
ATOM     94  F   UNL A   1      47.725  29.578  35.163  1.00  0.00    -0.200 F 
ATOM     95  F   UNL A   1      47.561  27.490  36.910  1.00  0.00    -0.200 F 
ENDBRANCH  62  85
ENDBRANCH  36  37
ENDBRANCH  28  31
ENDBRANCH  26  27
ENDBRANCH   1  26
TORSDOF 14
ENDMDL
MODEL 2
REMARK VINA RESULT:     -12.1      5.818     11.069
REMARK SMILES CC(C)[NH2+][C@]1(C(=O)NCCCNC(=O)c2ccc(-c3c4nc(c(-c5c(F)c(F)c(F)c(F)c5F)c5ccc([nH]5)c(-c5c(F)c(F)c(F)c(F)c5F)c5nc(c(-c6c(F)c(F)c(F)c(F)c6F)c6ccc3[nH]6)C=C5)C=C4)cc2)CC[C@H]([N@H+](C)C2CCCC2)C1
REMARK SMILES IDX 10 1 9 2 8 3 6 4 7 5 5 7 78 8 88 9 79 10 80 11 4 12 2 15
REMARK SMILES IDX 1 16 3 17 81 18 82 19 83 21 84 22 87 23 85 24 86 25 11 26
REMARK SMILES IDX 12 27 13 28 14 30 15 31 16 32 77 33 17 34 76 35 18 36 19 37
REMARK SMILES IDX 20 38 70 39 21 40 75 41 69 42 71 43 22 44 74 45 68 46 67 47
REMARK SMILES IDX 23 49 55 50 35 51 54 52 36 53 39 54 53 55 72 56 37 57 38 58
REMARK SMILES IDX 52 60 73 61 40 62 24 63 25 64 33 65 26 66 27 67 31 68 34 69
REMARK SMILES IDX 28 70 29 71 32 72 30 73 56 74 57 75 65 76 58 77 59 78 63 79
REMARK SMILES IDX 66 80 60 81 61 82 64 83 62 84 41 85 42 86 50 87 43 88 44 89
REMARK SMILES IDX 48 90 51 91 45 92 46 93 49 94 47 95
REMARK H PARENT 8 6 4 13 4 14 81 20 12 29 71 48 39 59
REMARK Flexibility Score: inf
ROOT
ATOM      1  C   UNL A   1      37.783  19.742  24.919  1.00  0.00     0.042 C 
ENDROOT
BRANCH   1   2
ATOM      2  C   UNL A   1      36.573  20.669  24.902  1.00  0.00     0.118 C 
BRANCH   2   3
ATOM      3  N   UNL A   1      35.313  20.063  25.322  1.00  0.00    -0.351 N 
ATOM      4  C   UNL A   1      34.001  20.436  25.262  1.00  0.00     0.281 C 
ATOM      5  O   UNL A   1      33.192  19.554  25.581  1.00  0.00    -0.268 OA
ATOM      6  H   UNL A   1      35.438  19.184  25.745  1.00  0.00     0.163 HD
BRANCH   4   7
ATOM      7  C   UNL A   1      33.512  21.878  24.934  1.00  0.00     0.181 C 
ATOM      8  C   UNL A   1      33.525  22.239  23.434  1.00  0.00     0.085 C 
ATOM      9  C   UNL A   1      31.985  21.957  25.234  1.00  0.00     0.144 C 
ATOM     10  C   UNL A   1      32.175  22.846  23.039  1.00  0.00     0.072 C 
ATOM     11  C   UNL A   1      31.388  23.054  24.331  1.00  0.00     0.191 C 
BRANCH   7  12
ATOM     12  N   UNL A   1      34.150  22.911  25.792  1.00  0.00    -0.331 N 
ATOM     13  H   UNL A   1      33.391  23.430  26.235  1.00  0.00     0.347 HD
ATOM     14  H   UNL A   1      34.768  22.358  26.386  1.00  0.00     0.347 HD
BRANCH  12  15
ATOM     15  C   UNL A   1      35.054  23.903  25.226  1.00  0.00     0.176 C 
ATOM     16  C   UNL A   1      34.417  25.278  25.458  1.00  0.00     0.075 C 
ATOM     17  C   UNL A   1      36.439  23.892  25.880  1.00  0.00     0.075 C 
ENDBRANCH  12  15
ENDBRANCH   7  12
BRANCH  11  18
ATOM     18  N   UNL A   1      31.309  24.454  24.792  1.00  0.00    -0.332 N 
ATOM     19  C   UNL A   1      30.955  24.695  26.187  1.00  0.00     0.333 C 
ATOM     20  H   UNL A   1      32.296  24.711  24.764  1.00  0.00     0.348 HD
BRANCH  18  21
ATOM     21  C   UNL A   1      30.588  25.345  23.873  1.00  0.00     0.184 C 
ATOM     22  C   UNL A   1      29.508  26.222  24.523  1.00  0.00     0.065 C 
ATOM     23  C   UNL A   1      31.474  26.410  23.215  1.00  0.00     0.065 C 
ATOM     24  C   UNL A   1      29.190  27.244  23.442  1.00  0.00     0.006 C 
ATOM     25  C   UNL A   1      30.507  27.478  22.706  1.00  0.00     0.006 C 
ENDBRANCH  18  21
ENDBRANCH  11  18
ENDBRANCH   4   7
ENDBRANCH   2   3
ENDBRANCH   1   2
BRANCH   1  26
ATOM     26  C   UNL A   1      38.984  20.285  25.674  1.00  0.00     0.118 C 
BRANCH  26  27
ATOM     27  N   UNL A   1      39.988  19.258  25.895  1.00  0.00    -0.352 N 
ATOM     28  C   UNL A   1      41.346  19.373  26.042  1.00  0.00     0.251 C 
ATOM     29  H   UNL A   1      39.641  18.338  25.947  1.00  0.00     0.163 HD
ATOM     30  O   UNL A   1      42.051  18.365  25.937  1.00  0.00    -0.269 OA
BRANCH  28  31
ATOM     31  C   UNL A   1      41.982  20.678  26.331  1.00  0.00     0.039 A 
ATOM     32  C   UNL A   1      42.232  21.028  27.662  1.00  0.00     0.014 A 
ATOM     33  C   UNL A   1      42.249  21.597  25.313  1.00  0.00     0.014 A 
ATOM     34  C   UNL A   1      42.759  22.286  27.968  1.00  0.00     0.010 A 
ATOM     35  C   UNL A   1      42.860  22.814  25.609  1.00  0.00     0.010 A 
ATOM     36  C   UNL A   1      43.082  23.188  26.941  1.00  0.00    -0.014 A 
BRANCH  36  37
ATOM     37  C   UNL A   1      43.558  24.563  27.243  1.00  0.00     0.031 A 
ATOM     38  C   UNL A   1      42.600  25.568  27.830  1.00  0.00     0.074 A 
ATOM     39  C   UNL A   1      44.823  24.923  26.958  1.00  0.00     0.049 A 
ATOM     40  N   UNL A   1      42.786  26.836  28.097  1.00  0.00    -0.248 NA
ATOM     41  C   UNL A   1      41.239  25.090  28.123  1.00  0.00     0.031 C 
ATOM     42  C   UNL A   1      45.834  24.058  26.351  1.00  0.00     0.029 A 
ATOM     43  N   UNL A   1      45.470  26.120  27.136  1.00  0.00    -0.354 N 
ATOM     44  C   UNL A   1      41.563  27.309  28.557  1.00  0.00     0.074 A 
ATOM     45  C   UNL A   1      40.629  26.207  28.484  1.00  0.00     0.031 C 
ATOM     46  C   UNL A   1      46.982  24.744  26.229  1.00  0.00     0.029 A 
ATOM     47  C   UNL A   1      46.780  26.103  26.724  1.00  0.00     0.049 A 
ATOM     48  H   UNL A   1      45.038  26.915  27.522  1.00  0.00     0.167 HD
ATOM     49  C   UNL A   1      41.250  28.541  29.023  1.00  0.00     0.037 A 
ATOM     50  C   UNL A   1      47.711  27.076  26.750  1.00  0.00     0.037 A 
ATOM     51  C   UNL A   1      42.194  29.619  29.147  1.00  0.00     0.049 A 
ATOM     52  C   UNL A   1      47.354  28.423  27.319  1.00  0.00     0.074 A 
ATOM     53  C   UNL A   1      41.992  30.891  29.654  1.00  0.00     0.029 A 
ATOM     54  N   UNL A   1      43.527  29.544  28.771  1.00  0.00    -0.354 N 
ATOM     55  N   UNL A   1      46.207  28.843  27.794  1.00  0.00    -0.248 NA
ATOM     56  C   UNL A   1      48.427  29.425  27.371  1.00  0.00     0.031 C 
ATOM     57  C   UNL A   1      43.199  31.594  29.563  1.00  0.00     0.029 A 
ATOM     58  C   UNL A   1      44.160  30.747  29.036  1.00  0.00     0.049 A 
ATOM     59  H   UNL A   1      43.958  28.752  28.375  1.00  0.00     0.167 HD
ATOM     60  C   UNL A   1      46.428  30.142  28.231  1.00  0.00     0.074 A 
ATOM     61  C   UNL A   1      47.821  30.438  27.973  1.00  0.00     0.031 C 
ATOM     62  C   UNL A   1      45.555  31.011  28.795  1.00  0.00     0.037 A 
BRANCH  49  63
ATOM     63  C   UNL A   1      39.831  28.781  29.447  1.00  0.00     0.064 A 
ATOM     64  C   UNL A   1      39.399  28.516  30.756  1.00  0.00     0.173 A 
ATOM     65  C   UNL A   1      38.895  29.300  28.540  1.00  0.00     0.173 A 
ATOM     66  F   UNL A   1      40.252  28.004  31.657  1.00  0.00    -0.203 F 
ATOM     67  C   UNL A   1      38.075  28.730  31.131  1.00  0.00     0.198 A 
ATOM     68  C   UNL A   1      37.579  29.542  28.928  1.00  0.00     0.198 A 
ATOM     69  F   UNL A   1      39.255  29.576  27.278  1.00  0.00    -0.203 F 
ATOM     70  F   UNL A   1      37.674  28.417  32.371  1.00  0.00    -0.200 F 
ATOM     71  C   UNL A   1      37.168  29.248  30.220  1.00  0.00     0.200 A 
ATOM     72  F   UNL A   1      36.706  30.052  28.049  1.00  0.00    -0.200 F 
ATOM     73  F   UNL A   1      35.895  29.457  30.583  1.00  0.00    -0.200 F 
ENDBRANCH  49  63
BRANCH  50  74
ATOM     74  C   UNL A   1      49.087  26.795  26.268  1.00  0.00     0.064 A 
ATOM     75  C   UNL A   1      49.444  27.044  24.935  1.00  0.00     0.173 A 
ATOM     76  C   UNL A   1      50.069  26.271  27.121  1.00  0.00     0.173 A 
ATOM     77  F   UNL A   1      48.532  27.526  24.078  1.00  0.00    -0.203 F 
ATOM     78  C   UNL A   1      50.726  26.763  24.468  1.00  0.00     0.198 A 
ATOM     79  C   UNL A   1      51.358  26.014  26.658  1.00  0.00     0.198 A 
ATOM     80  F   UNL A   1      49.779  26.021  28.405  1.00  0.00    -0.203 F 
ATOM     81  F   UNL A   1      51.028  26.972  23.179  1.00  0.00    -0.200 F 
ATOM     82  C   UNL A   1      51.684  26.253  25.331  1.00  0.00     0.200 A 
ATOM     83  F   UNL A   1      52.285  25.531  27.497  1.00  0.00    -0.200 F 
ATOM     84  F   UNL A   1      52.917  25.984  24.882  1.00  0.00    -0.200 F 
ENDBRANCH  50  74
BRANCH  62  85
ATOM     85  C   UNL A   1      46.092  32.344  29.222  1.00  0.00     0.064 A 
ATOM     86  C   UNL A   1      46.628  32.546  30.503  1.00  0.00     0.173 A 
ATOM     87  C   UNL A   1      46.105  33.421  28.324  1.00  0.00     0.173 A 
ATOM     88  F   UNL A   1      46.626  31.549  31.400  1.00  0.00    -0.203 F 
ATOM     89  C   UNL A   1      47.135  33.788  30.876  1.00  0.00     0.198 A 
ATOM     90  C   UNL A   1      46.636  34.654  28.692  1.00  0.00     0.198 A 
ATOM     91  F   UNL A   1      45.610  33.275  27.086  1.00  0.00    -0.203 F 
ATOM     92  F   UNL A   1      47.603  33.972  32.118  1.00  0.00    -0.200 F 
ATOM     93  C   UNL A   1      47.144  34.838  29.970  1.00  0.00     0.200 A 
ATOM     94  F   UNL A   1      46.654  35.664  27.812  1.00  0.00    -0.200 F 
ATOM     95  F   UNL A   1      47.637  36.030  30.329  1.00  0.00    -0.200 F 
ENDBRANCH  62  85
ENDBRANCH  36  37
ENDBRANCH  28  31
ENDBRANCH  26  27
ENDBRANCH   1  26
TORSDOF 14
ENDMDL
MODEL 3
REMARK VINA RESULT:     -12.1      1.127      7.488
REMARK SMILES CC(C)[NH2+][C@]1(C(=O)NCCCNC(=O)c2ccc(-c3c4nc(c(-c5c(F)c(F)c(F)c(F)c5F)c5ccc([nH]5)c(-c5c(F)c(F)c(F)c(F)c5F)c5nc(c(-c6c(F)c(F)c(F)c(F)c6F)c6ccc3[nH]6)C=C5)C=C4)cc2)CC[C@H]([N@H+](C)C2CCCC2)C1
REMARK SMILES IDX 10 1 9 2 8 3 6 4 7 5 5 7 78 8 88 9 79 10 80 11 4 12 2 15
REMARK SMILES IDX 1 16 3 17 81 18 82 19 83 21 84 22 87 23 85 24 86 25 11 26
REMARK SMILES IDX 12 27 13 28 14 30 15 31 16 32 77 33 17 34 76 35 18 36 19 37
REMARK SMILES IDX 20 38 70 39 21 40 75 41 69 42 71 43 22 44 74 45 68 46 67 47
REMARK SMILES IDX 23 49 55 50 35 51 54 52 36 53 39 54 53 55 72 56 37 57 38 58
REMARK SMILES IDX 52 60 73 61 40 62 24 63 25 64 33 65 26 66 27 67 31 68 34 69
REMARK SMILES IDX 28 70 29 71 32 72 30 73 56 74 57 75 65 76 58 77 59 78 63 79
REMARK SMILES IDX 66 80 60 81 61 82 64 83 62 84 41 85 42 86 50 87 43 88 44 89
REMARK SMILES IDX 48 90 51 91 45 92 46 93 49 94 47 95
REMARK H PARENT 8 6 4 13 4 14 81 20 12 29 71 48 39 59
REMARK Flexibility Score: inf
ROOT
ATOM      1  C   UNL A   1      31.299  31.835  26.434  1.00  0.00     0.042 C 
ENDROOT
BRANCH   1   2
ATOM      2  C   UNL A   1      31.370  30.407  25.904  1.00  0.00     0.118 C 
BRANCH   2   3
ATOM      3  N   UNL A   1      31.028  30.244  24.495  1.00  0.00    -0.351 N 
ATOM      4  C   UNL A   1      30.880  29.175  23.659  1.00  0.00     0.281 C 
ATOM      5  O   UNL A   1      30.408  29.442  22.546  1.00  0.00    -0.268 OA
ATOM      6  H   UNL A   1      30.866  31.103  24.042  1.00  0.00     0.163 HD
BRANCH   4   7
ATOM      7  C   UNL A   1      31.358  27.729  23.990  1.00  0.00     0.181 C 
ATOM      8  C   UNL A   1      30.447  26.956  24.965  1.00  0.00     0.085 C 
ATOM      9  C   UNL A   1      31.209  26.858  22.707  1.00  0.00     0.144 C 
ATOM     10  C   UNL A   1      30.137  25.570  24.391  1.00  0.00     0.072 C 
ATOM     11  C   UNL A   1      31.018  25.396  23.156  1.00  0.00     0.191 C 
BRANCH   7  12
ATOM     12  N   UNL A   1      32.797  27.669  24.359  1.00  0.00    -0.331 N 
ATOM     13  H   UNL A   1      33.224  26.973  23.748  1.00  0.00     0.347 HD
ATOM     14  H   UNL A   1      33.094  28.641  24.265  1.00  0.00     0.347 HD
BRANCH  12  15
ATOM     15  C   UNL A   1      33.212  27.339  25.716  1.00  0.00     0.176 C 
ATOM     16  C   UNL A   1      34.028  26.044  25.635  1.00  0.00     0.075 C 
ATOM     17  C   UNL A   1      34.082  28.425  26.357  1.00  0.00     0.075 C 
ENDBRANCH  12  15
ENDBRANCH   7  12
BRANCH  11  18
ATOM     18  N   UNL A   1      32.178  24.503  23.339  1.00  0.00    -0.332 N 
ATOM     19  C   UNL A   1      33.270  24.596  22.376  1.00  0.00     0.333 C 
ATOM     20  H   UNL A   1      32.587  24.907  24.181  1.00  0.00     0.348 HD
BRANCH  18  21
ATOM     21  C   UNL A   1      31.817  23.110  23.639  1.00  0.00     0.184 C 
ATOM     22  C   UNL A   1      32.526  22.051  22.784  1.00  0.00     0.065 C 
ATOM     23  C   UNL A   1      32.209  22.657  25.051  1.00  0.00     0.065 C 
ATOM     24  C   UNL A   1      32.235  20.753  23.522  1.00  0.00     0.006 C 
ATOM     25  C   UNL A   1      32.193  21.130  25.001  1.00  0.00     0.006 C 
ENDBRANCH  18  21
ENDBRANCH  11  18
ENDBRANCH   4   7
ENDBRANCH   2   3
ENDBRANCH   1   2
BRANCH   1  26
ATOM     26  C   UNL A   1      32.630  32.407  26.889  1.00  0.00     0.118 C 
BRANCH  26  27
ATOM     27  N   UNL A   1      32.501  33.788  27.323  1.00  0.00    -0.352 N 
ATOM     28  C   UNL A   1      33.072  34.430  28.390  1.00  0.00     0.251 C 
ATOM     29  H   UNL A   1      31.914  34.348  26.765  1.00  0.00     0.163 HD
ATOM     30  O   UNL A   1      32.617  35.520  28.751  1.00  0.00    -0.269 OA
BRANCH  28  31
ATOM     31  C   UNL A   1      34.224  33.849  29.114  1.00  0.00     0.039 A 
ATOM     32  C   UNL A   1      35.516  34.257  28.766  1.00  0.00     0.014 A 
ATOM     33  C   UNL A   1      34.051  32.840  30.065  1.00  0.00     0.014 A 
ATOM     34  C   UNL A   1      36.626  33.666  29.379  1.00  0.00     0.010 A 
ATOM     35  C   UNL A   1      35.151  32.318  30.741  1.00  0.00     0.010 A 
ATOM     36  C   UNL A   1      36.451  32.694  30.377  1.00  0.00    -0.014 A 
BRANCH  36  37
ATOM     37  C   UNL A   1      37.611  31.988  30.977  1.00  0.00     0.031 A 
ATOM     38  C   UNL A   1      38.049  32.334  32.377  1.00  0.00     0.074 A 
ATOM     39  C   UNL A   1      38.293  31.072  30.265  1.00  0.00     0.049 A 
ATOM     40  N   UNL A   1      39.076  31.896  33.060  1.00  0.00    -0.248 NA
ATOM     41  C   UNL A   1      37.242  33.337  33.092  1.00  0.00     0.031 C 
ATOM     42  C   UNL A   1      37.997  30.677  28.888  1.00  0.00     0.029 A 
ATOM     43  N   UNL A   1      39.386  30.313  30.602  1.00  0.00    -0.354 N 
ATOM     44  C   UNL A   1      39.054  32.589  34.264  1.00  0.00     0.074 A 
ATOM     45  C   UNL A   1      37.944  33.514  34.199  1.00  0.00     0.031 C 
ATOM     46  C   UNL A   1      38.870  29.731  28.506  1.00  0.00     0.029 A 
ATOM     47  C   UNL A   1      39.802  29.472  29.600  1.00  0.00     0.049 A 
ATOM     48  H   UNL A   1      39.829  30.365  31.480  1.00  0.00     0.167 HD
ATOM     49  C   UNL A   1      39.866  32.451  35.339  1.00  0.00     0.037 A 
ATOM     50  C   UNL A   1      40.820  28.590  29.572  1.00  0.00     0.037 A 
ATOM     51  C   UNL A   1      40.935  31.492  35.423  1.00  0.00     0.049 A 
ATOM     52  C   UNL A   1      41.678  28.418  30.797  1.00  0.00     0.074 A 
ATOM     53  C   UNL A   1      41.786  31.236  36.484  1.00  0.00     0.029 A 
ATOM     54  N   UNL A   1      41.290  30.619  34.405  1.00  0.00    -0.354 N 
ATOM     55  N   UNL A   1      41.618  29.047  31.945  1.00  0.00    -0.248 NA
ATOM     56  C   UNL A   1      42.737  27.402  30.724  1.00  0.00     0.031 C 
ATOM     57  C   UNL A   1      42.671  30.223  36.099  1.00  0.00     0.029 A 
ATOM     58  C   UNL A   1      42.345  29.822  34.814  1.00  0.00     0.049 A 
ATOM     59  H   UNL A   1      40.854  30.573  33.523  1.00  0.00     0.167 HD
ATOM     60  C   UNL A   1      42.604  28.481  32.742  1.00  0.00     0.074 A 
ATOM     61  C   UNL A   1      43.242  27.452  31.949  1.00  0.00     0.031 C 
ATOM     62  C   UNL A   1      42.949  28.786  34.017  1.00  0.00     0.037 A 
BRANCH  49  63
ATOM     63  C   UNL A   1      39.619  33.351  36.514  1.00  0.00     0.064 A 
ATOM     64  C   UNL A   1      38.760  32.976  37.558  1.00  0.00     0.173 A 
ATOM     65  C   UNL A   1      40.263  34.593  36.608  1.00  0.00     0.173 A 
ATOM     66  F   UNL A   1      38.108  31.805  37.509  1.00  0.00    -0.203 F 
ATOM     67  C   UNL A   1      38.528  33.827  38.636  1.00  0.00     0.198 A 
ATOM     68  C   UNL A   1      40.052  35.429  37.702  1.00  0.00     0.198 A 
ATOM     69  F   UNL A   1      41.098  34.998  35.640  1.00  0.00    -0.203 F 
ATOM     70  F   UNL A   1      37.661  33.471  39.593  1.00  0.00    -0.200 F 
ATOM     71  C   UNL A   1      39.179  35.049  38.711  1.00  0.00     0.200 A 
ATOM     72  F   UNL A   1      40.690  36.605  37.778  1.00  0.00    -0.200 F 
ATOM     73  F   UNL A   1      38.958  35.866  39.750  1.00  0.00    -0.200 F 
ENDBRANCH  49  63
BRANCH  50  74
ATOM     74  C   UNL A   1      41.049  27.763  28.361  1.00  0.00     0.064 A 
ATOM     75  C   UNL A   1      40.402  26.530  28.203  1.00  0.00     0.173 A 
ATOM     76  C   UNL A   1      41.917  28.182  27.342  1.00  0.00     0.173 A 
ATOM     77  F   UNL A   1      39.578  26.080  29.161  1.00  0.00    -0.203 F 
ATOM     78  C   UNL A   1      40.628  25.736  27.080  1.00  0.00     0.198 A 
ATOM     79  C   UNL A   1      42.123  27.398  26.208  1.00  0.00     0.198 A 
ATOM     80  F   UNL A   1      42.555  29.356  27.444  1.00  0.00    -0.203 F 
ATOM     81  F   UNL A   1      40.027  24.542  26.975  1.00  0.00    -0.200 F 
ATOM     82  C   UNL A   1      41.484  26.174  26.081  1.00  0.00     0.200 A 
ATOM     83  F   UNL A   1      42.942  27.828  25.239  1.00  0.00    -0.200 F 
ATOM     84  F   UNL A   1      41.700  25.411  25.001  1.00  0.00    -0.200 F 
ENDBRANCH  50  74
BRANCH  62  85
ATOM     85  C   UNL A   1      44.028  27.962  34.652  1.00  0.00     0.064 A 
ATOM     86  C   UNL A   1      43.742  26.764  35.323  1.00  0.00     0.173 A 
ATOM     87  C   UNL A   1      45.370  28.358  34.553  1.00  0.00     0.173 A 
ATOM     88  F   UNL A   1      42.473  26.351  35.455  1.00  0.00    -0.203 F 
ATOM     89  C   UNL A   1      44.760  26.006  35.895  1.00  0.00     0.198 A 
ATOM     90  C   UNL A   1      46.388  27.585  35.102  1.00  0.00     0.198 A 
ATOM     91  F   UNL A   1      45.694  29.492  33.914  1.00  0.00    -0.203 F 
ATOM     92  F   UNL A   1      44.462  24.887  36.569  1.00  0.00    -0.200 F 
ATOM     93  C   UNL A   1      46.081  26.413  35.779  1.00  0.00     0.200 A 
ATOM     94  F   UNL A   1      47.664  27.973  34.980  1.00  0.00    -0.200 F 
ATOM     95  F   UNL A   1      47.060  25.679  36.325  1.00  0.00    -0.200 F 
ENDBRANCH  62  85
ENDBRANCH  36  37
ENDBRANCH  28  31
ENDBRANCH  26  27
ENDBRANCH   1  26
TORSDOF 14
ENDMDL
