MODEL 1
REMARK VINA RESULT:     -14.6      0.000      0.000
REMARK SMILES Cc1ccc(-c2cc([C@@H](C)C(=O)NCCCNC(=O)c3ccc(-c4c5nc(c(-c6c(F)c(F)c(F)c(F)c6F)c6ccc([nH]6)c(-c6c(F)c(F)c(F)c(F)c6F)c6nc(c(-c7c(F)c(F)c(F)c(F)c7F)c7ccc4[nH]7)C=C6)C=C5)cc3)ccc2C[C@H]2CCCC2=O)cc1
REMARK SMILES IDX 14 1 13 2 11 3 12 4 9 6 10 7 8 8 6 9 7 10 85 11 84 12 83 13
REMARK SMILES IDX 5 14 1 15 2 16 3 17 94 18 4 19 93 20 86 21 87 22 88 23 91 24
REMARK SMILES IDX 89 25 90 26 92 27 15 28 16 29 17 30 18 31 19 33 20 34 21 35
REMARK SMILES IDX 82 36 22 37 81 38 23 39 24 40 25 41 75 42 26 43 80 44 74 45
REMARK SMILES IDX 76 46 27 47 79 48 73 49 72 50 28 52 60 53 40 54 59 55 41 56
REMARK SMILES IDX 44 57 58 58 77 59 42 60 43 61 57 63 78 64 45 65 29 66 30 67
REMARK SMILES IDX 38 68 31 69 32 70 36 71 39 72 33 73 34 74 37 75 35 76 61 77
REMARK SMILES IDX 62 78 70 79 63 80 64 81 68 82 71 83 65 84 66 85 69 86 67 87
REMARK SMILES IDX 46 88 47 89 55 90 48 91 49 92 53 93 56 94 50 95 51 96 54 97
REMARK SMILES IDX 52 98
REMARK H PARENT 13 5 17 32 76 51 44 62
REMARK Flexibility Score: inf
ROOT
ATOM      1  C   UNL A   1      32.129  29.717  25.525  1.00  0.00     0.117 C 
ENDROOT
BRANCH   1   2
ATOM      2  N   UNL A   1      33.189  29.606  24.536  1.00  0.00    -0.356 N 
ATOM      3  C   UNL A   1      33.290  28.910  23.370  1.00  0.00     0.227 C 
ATOM      4  O   UNL A   1      34.399  28.946  22.820  1.00  0.00    -0.274 OA
ATOM      5  H   UNL A   1      33.989  30.137  24.752  1.00  0.00     0.163 HD
BRANCH   3   6
ATOM      6  C   UNL A   1      32.145  28.106  22.723  1.00  0.00     0.105 C 
ATOM      7  C   UNL A   1      30.768  28.761  22.823  1.00  0.00     0.023 C 
BRANCH   6   8
ATOM      8  C   UNL A   1      32.187  26.621  23.049  1.00  0.00    -0.035 A 
ATOM      9  C   UNL A   1      33.356  24.702  24.066  1.00  0.00    -0.015 A 
ATOM     10  C   UNL A   1      33.309  26.062  23.683  1.00  0.00     0.013 A 
ATOM     11  C   UNL A   1      32.177  23.932  23.956  1.00  0.00    -0.039 A 
ATOM     12  C   UNL A   1      31.098  24.460  23.236  1.00  0.00     0.004 A 
ATOM     13  C   UNL A   1      31.138  25.761  22.734  1.00  0.00     0.005 A 
BRANCH   9  14
ATOM     14  C   UNL A   1      34.658  24.100  24.408  1.00  0.00    -0.018 A 
ATOM     15  C   UNL A   1      38.411  22.319  25.630  1.00  0.00     0.044 C 
ATOM     16  C   UNL A   1      37.107  22.920  25.195  1.00  0.00    -0.051 A 
ATOM     17  C   UNL A   1      36.293  23.546  26.140  1.00  0.00     0.004 A 
ATOM     18  C   UNL A   1      36.688  22.876  23.860  1.00  0.00     0.004 A 
ATOM     19  C   UNL A   1      35.081  24.114  25.751  1.00  0.00     0.009 A 
ATOM     20  C   UNL A   1      35.473  23.457  23.470  1.00  0.00     0.009 A 
ENDBRANCH   9  14
BRANCH  11  21
ATOM     21  C   UNL A   1      32.018  22.554  24.575  1.00  0.00     0.047 C 
BRANCH  21  22
ATOM     22  C   UNL A   1      32.954  21.456  24.052  1.00  0.00     0.060 C 
ATOM     23  C   UNL A   1      33.523  20.475  25.086  1.00  0.00     0.012 C 
ATOM     24  C   UNL A   1      32.298  20.524  23.056  1.00  0.00     0.136 C 
ATOM     25  C   UNL A   1      32.708  19.194  24.949  1.00  0.00     0.009 C 
ATOM     26  C   UNL A   1      32.405  19.080  23.465  1.00  0.00     0.076 C 
ATOM     27  O   UNL A   1      31.779  20.891  22.009  1.00  0.00    -0.299 OA
ENDBRANCH  21  22
ENDBRANCH  11  21
ENDBRANCH   6   8
ENDBRANCH   3   6
ENDBRANCH   1   2
BRANCH   1  28
ATOM     28  C   UNL A   1      32.496  30.679  26.651  1.00  0.00     0.042 C 
BRANCH  28  29
ATOM     29  C   UNL A   1      33.520  30.143  27.637  1.00  0.00     0.118 C 
BRANCH  29  30
ATOM     30  N   UNL A   1      34.228  31.207  28.352  1.00  0.00    -0.352 N 
ATOM     31  C   UNL A   1      35.480  31.177  28.946  1.00  0.00     0.251 C 
ATOM     32  H   UNL A   1      33.747  32.062  28.422  1.00  0.00     0.163 HD
ATOM     33  O   UNL A   1      35.974  32.177  29.432  1.00  0.00    -0.269 OA
BRANCH  31  34
ATOM     34  C   UNL A   1      36.255  29.921  28.850  1.00  0.00     0.039 A 
ATOM     35  C   UNL A   1      36.685  29.335  30.042  1.00  0.00     0.014 A 
ATOM     36  C   UNL A   1      36.795  29.543  27.625  1.00  0.00     0.014 A 
ATOM     37  C   UNL A   1      37.845  28.570  30.029  1.00  0.00     0.010 A 
ATOM     38  C   UNL A   1      38.007  28.880  27.627  1.00  0.00     0.010 A 
ATOM     39  C   UNL A   1      38.570  28.462  28.839  1.00  0.00    -0.014 A 
BRANCH  39  40
ATOM     40  C   UNL A   1      39.983  28.095  28.821  1.00  0.00     0.031 A 
ATOM     41  C   UNL A   1      40.428  26.778  28.321  1.00  0.00     0.074 A 
ATOM     42  C   UNL A   1      40.918  28.983  29.233  1.00  0.00     0.049 A 
ATOM     43  N   UNL A   1      41.488  26.175  28.751  1.00  0.00    -0.248 NA
ATOM     44  C   UNL A   1      39.697  26.015  27.315  1.00  0.00     0.031 C 
ATOM     45  C   UNL A   1      42.365  28.887  29.044  1.00  0.00     0.029 A 
ATOM     46  N   UNL A   1      40.753  30.090  30.086  1.00  0.00    -0.354 N 
ATOM     47  C   UNL A   1      41.724  25.112  27.917  1.00  0.00     0.074 A 
ATOM     48  C   UNL A   1      40.550  25.012  27.080  1.00  0.00     0.031 C 
ATOM     49  C   UNL A   1      42.976  29.666  29.948  1.00  0.00     0.029 A 
ATOM     50  C   UNL A   1      41.951  30.187  30.832  1.00  0.00     0.049 A 
ATOM     51  H   UNL A   1      39.965  30.677  30.149  1.00  0.00     0.167 HD
ATOM     52  C   UNL A   1      42.943  24.503  27.916  1.00  0.00     0.037 A 
ATOM     53  C   UNL A   1      41.976  30.107  32.193  1.00  0.00     0.037 A 
ATOM     54  C   UNL A   1      43.869  25.117  28.855  1.00  0.00     0.049 A 
ATOM     55  C   UNL A   1      42.874  29.025  32.737  1.00  0.00     0.074 A 
ATOM     56  C   UNL A   1      44.862  26.068  28.694  1.00  0.00     0.029 A 
ATOM     57  N   UNL A   1      43.647  25.007  30.223  1.00  0.00    -0.354 N 
ATOM     58  N   UNL A   1      43.290  28.012  32.032  1.00  0.00    -0.248 NA
ATOM     59  C   UNL A   1      43.315  28.956  34.128  1.00  0.00     0.031 C 
ATOM     60  C   UNL A   1      45.239  26.537  29.971  1.00  0.00     0.029 A 
ATOM     61  C   UNL A   1      44.474  25.872  30.912  1.00  0.00     0.049 A 
ATOM     62  H   UNL A   1      42.994  24.401  30.640  1.00  0.00     0.167 HD
ATOM     63  C   UNL A   1      43.979  27.146  32.841  1.00  0.00     0.074 A 
ATOM     64  C   UNL A   1      43.994  27.796  34.137  1.00  0.00     0.031 C 
ATOM     65  C   UNL A   1      44.446  25.955  32.363  1.00  0.00     0.037 A 
BRANCH  52  66
ATOM     66  C   UNL A   1      43.356  23.547  26.828  1.00  0.00     0.064 A 
ATOM     67  C   UNL A   1      42.994  22.184  26.870  1.00  0.00     0.173 A 
ATOM     68  C   UNL A   1      44.158  23.923  25.737  1.00  0.00     0.173 A 
ATOM     69  F   UNL A   1      42.168  21.703  27.807  1.00  0.00    -0.203 F 
ATOM     70  C   UNL A   1      43.491  21.253  25.957  1.00  0.00     0.198 A 
ATOM     71  C   UNL A   1      44.696  22.984  24.853  1.00  0.00     0.198 A 
ATOM     72  F   UNL A   1      44.433  25.215  25.502  1.00  0.00    -0.203 F 
ATOM     73  F   UNL A   1      43.128  19.966  26.055  1.00  0.00    -0.200 F 
ATOM     74  C   UNL A   1      44.372  21.646  24.971  1.00  0.00     0.200 A 
ATOM     75  F   UNL A   1      45.546  23.382  23.895  1.00  0.00    -0.200 F 
ATOM     76  F   UNL A   1      44.896  20.743  24.132  1.00  0.00    -0.200 F 
ENDBRANCH  52  66
BRANCH  53  77
ATOM     77  C   UNL A   1      40.712  30.541  32.837  1.00  0.00     0.064 A 
ATOM     78  C   UNL A   1      40.404  31.913  32.862  1.00  0.00     0.173 A 
ATOM     79  C   UNL A   1      39.672  29.636  33.077  1.00  0.00     0.173 A 
ATOM     80  F   UNL A   1      41.367  32.821  32.629  1.00  0.00    -0.203 F 
ATOM     81  C   UNL A   1      39.093  32.357  33.008  1.00  0.00     0.198 A 
ATOM     82  C   UNL A   1      38.361  30.084  33.232  1.00  0.00     0.198 A 
ATOM     83  F   UNL A   1      39.901  28.315  33.043  1.00  0.00    -0.203 F 
ATOM     84  F   UNL A   1      38.815  33.665  32.914  1.00  0.00    -0.200 F 
ATOM     85  C   UNL A   1      38.068  31.439  33.165  1.00  0.00     0.200 A 
ATOM     86  F   UNL A   1      37.363  29.195  33.349  1.00  0.00    -0.200 F 
ATOM     87  F   UNL A   1      36.795  31.855  33.206  1.00  0.00    -0.200 F 
ENDBRANCH  53  77
BRANCH  65  88
ATOM     88  C   UNL A   1      44.998  24.805  33.172  1.00  0.00     0.064 A 
ATOM     89  C   UNL A   1      44.295  23.621  33.445  1.00  0.00     0.173 A 
ATOM     90  C   UNL A   1      46.357  24.809  33.582  1.00  0.00     0.173 A 
ATOM     91  F   UNL A   1      43.041  23.438  33.013  1.00  0.00    -0.203 F 
ATOM     92  C   UNL A   1      44.883  22.549  34.126  1.00  0.00     0.198 A 
ATOM     93  C   UNL A   1      46.956  23.717  34.209  1.00  0.00     0.198 A 
ATOM     94  F   UNL A   1      47.154  25.865  33.361  1.00  0.00    -0.203 F 
ATOM     95  F   UNL A   1      44.155  21.457  34.396  1.00  0.00    -0.200 F 
ATOM     96  C   UNL A   1      46.214  22.592  34.495  1.00  0.00     0.200 A 
ATOM     97  F   UNL A   1      48.261  23.757  34.512  1.00  0.00    -0.200 F 
ATOM     98  F   UNL A   1      46.785  21.543  35.102  1.00  0.00    -0.200 F 
ENDBRANCH  65  88
ENDBRANCH  39  40
ENDBRANCH  31  34
ENDBRANCH  29  30
ENDBRANCH  28  29
ENDBRANCH   1  28
TORSDOF 14
ENDMDL
MODEL 2
REMARK VINA RESULT:     -14.5      3.664      9.940
REMARK SMILES Cc1ccc(-c2cc([C@@H](C)C(=O)NCCCNC(=O)c3ccc(-c4c5nc(c(-c6c(F)c(F)c(F)c(F)c6F)c6ccc([nH]6)c(-c6c(F)c(F)c(F)c(F)c6F)c6nc(c(-c7c(F)c(F)c(F)c(F)c7F)c7ccc4[nH]7)C=C6)C=C5)cc3)ccc2C[C@H]2CCCC2=O)cc1
REMARK SMILES IDX 14 1 13 2 11 3 12 4 9 6 10 7 8 8 6 9 7 10 85 11 84 12 83 13
REMARK SMILES IDX 5 14 1 15 2 16 3 17 94 18 4 19 93 20 86 21 87 22 88 23 91 24
REMARK SMILES IDX 89 25 90 26 92 27 15 28 16 29 17 30 18 31 19 33 20 34 21 35
REMARK SMILES IDX 82 36 22 37 81 38 23 39 24 40 25 41 75 42 26 43 80 44 74 45
REMARK SMILES IDX 76 46 27 47 79 48 73 49 72 50 28 52 60 53 40 54 59 55 41 56
REMARK SMILES IDX 44 57 58 58 77 59 42 60 43 61 57 63 78 64 45 65 29 66 30 67
REMARK SMILES IDX 38 68 31 69 32 70 36 71 39 72 33 73 34 74 37 75 35 76 61 77
REMARK SMILES IDX 62 78 70 79 63 80 64 81 68 82 71 83 65 84 66 85 69 86 67 87
REMARK SMILES IDX 46 88 47 89 55 90 48 91 49 92 53 93 56 94 50 95 51 96 54 97
REMARK SMILES IDX 52 98
REMARK H PARENT 13 5 17 32 76 51 44 62
REMARK Flexibility Score: inf
ROOT
ATOM      1  C   UNL A   1      37.451  21.924  24.652  1.00  0.00     0.117 C 
ENDROOT
BRANCH   1   2
ATOM      2  N   UNL A   1      36.350  20.984  24.781  1.00  0.00    -0.356 N 
ATOM      3  C   UNL A   1      35.180  21.028  25.479  1.00  0.00     0.227 C 
ATOM      4  O   UNL A   1      34.509  19.987  25.462  1.00  0.00    -0.274 OA
ATOM      5  H   UNL A   1      36.473  20.156  24.265  1.00  0.00     0.163 HD
BRANCH   3   6
ATOM      6  C   UNL A   1      34.668  22.252  26.262  1.00  0.00     0.105 C 
ATOM      7  C   UNL A   1      33.880  21.918  27.528  1.00  0.00     0.023 C 
BRANCH   6   8
ATOM      8  C   UNL A   1      34.056  23.326  25.376  1.00  0.00    -0.035 A 
ATOM      9  C   UNL A   1      33.517  25.700  24.980  1.00  0.00    -0.015 A 
ATOM     10  C   UNL A   1      34.012  24.664  25.803  1.00  0.00     0.013 A 
ATOM     11  C   UNL A   1      33.214  25.402  23.633  1.00  0.00    -0.039 A 
ATOM     12  C   UNL A   1      33.164  24.058  23.241  1.00  0.00     0.004 A 
ATOM     13  C   UNL A   1      33.514  23.039  24.126  1.00  0.00     0.005 A 
BRANCH   9  14
ATOM     14  C   UNL A   1      33.182  27.000  25.589  1.00  0.00    -0.018 A 
ATOM     15  C   UNL A   1      32.290  30.921  27.197  1.00  0.00     0.044 C 
ATOM     16  C   UNL A   1      32.579  29.558  26.640  1.00  0.00    -0.051 A 
ATOM     17  C   UNL A   1      33.554  29.417  25.651  1.00  0.00     0.004 A 
ATOM     18  C   UNL A   1      31.901  28.421  27.093  1.00  0.00     0.004 A 
ATOM     19  C   UNL A   1      33.838  28.157  25.126  1.00  0.00     0.009 A 
ATOM     20  C   UNL A   1      32.197  27.154  26.570  1.00  0.00     0.009 A 
ENDBRANCH   9  14
BRANCH  11  21
ATOM     21  C   UNL A   1      32.935  26.463  22.583  1.00  0.00     0.047 C 
BRANCH  21  22
ATOM     22  C   UNL A   1      31.459  26.767  22.292  1.00  0.00     0.060 C 
ATOM     23  C   UNL A   1      30.417  25.856  22.954  1.00  0.00     0.012 C 
ATOM     24  C   UNL A   1      31.021  28.140  22.754  1.00  0.00     0.136 C 
ATOM     25  C   UNL A   1      29.860  26.638  24.138  1.00  0.00     0.009 C 
ATOM     26  C   UNL A   1      29.831  28.084  23.673  1.00  0.00     0.076 C 
ATOM     27  O   UNL A   1      31.540  29.188  22.388  1.00  0.00    -0.299 OA
ENDBRANCH  21  22
ENDBRANCH  11  21
ENDBRANCH   6   8
ENDBRANCH   3   6
ENDBRANCH   1   2
BRANCH   1  28
ATOM     28  C   UNL A   1      38.663  21.499  25.476  1.00  0.00     0.042 C 
BRANCH  28  29
ATOM     29  C   UNL A   1      39.142  22.531  26.484  1.00  0.00     0.118 C 
BRANCH  29  30
ATOM     30  N   UNL A   1      40.581  22.786  26.393  1.00  0.00    -0.352 N 
ATOM     31  C   UNL A   1      41.258  23.994  26.437  1.00  0.00     0.251 C 
ATOM     32  H   UNL A   1      41.146  21.988  26.285  1.00  0.00     0.163 HD
ATOM     33  O   UNL A   1      42.474  24.039  26.437  1.00  0.00    -0.269 OA
BRANCH  31  34
ATOM     34  C   UNL A   1      40.457  25.223  26.623  1.00  0.00     0.039 A 
ATOM     35  C   UNL A   1      40.932  26.398  26.035  1.00  0.00     0.014 A 
ATOM     36  C   UNL A   1      39.470  25.255  27.602  1.00  0.00     0.014 A 
ATOM     37  C   UNL A   1      40.613  27.616  26.624  1.00  0.00     0.010 A 
ATOM     38  C   UNL A   1      39.244  26.451  28.256  1.00  0.00     0.010 A 
ATOM     39  C   UNL A   1      39.878  27.619  27.814  1.00  0.00    -0.014 A 
BRANCH  39  40
ATOM     40  C   UNL A   1      39.889  28.755  28.731  1.00  0.00     0.031 A 
ATOM     41  C   UNL A   1      38.847  29.800  28.669  1.00  0.00     0.074 A 
ATOM     42  C   UNL A   1      40.846  28.846  29.684  1.00  0.00     0.049 A 
ATOM     43  N   UNL A   1      39.053  31.031  29.009  1.00  0.00    -0.248 NA
ATOM     44  C   UNL A   1      37.491  29.552  28.192  1.00  0.00     0.031 C 
ATOM     45  C   UNL A   1      40.861  29.756  30.829  1.00  0.00     0.029 A 
ATOM     46  N   UNL A   1      42.115  28.241  29.705  1.00  0.00    -0.354 N 
ATOM     47  C   UNL A   1      37.833  31.656  29.054  1.00  0.00     0.074 A 
ATOM     48  C   UNL A   1      36.899  30.717  28.475  1.00  0.00     0.031 C 
ATOM     49  C   UNL A   1      42.122  29.883  31.267  1.00  0.00     0.029 A 
ATOM     50  C   UNL A   1      42.976  29.167  30.340  1.00  0.00     0.049 A 
ATOM     51  H   UNL A   1      42.356  27.354  29.350  1.00  0.00     0.167 HD
ATOM     52  C   UNL A   1      37.700  32.848  29.701  1.00  0.00     0.037 A 
ATOM     53  C   UNL A   1      44.076  29.688  29.725  1.00  0.00     0.037 A 
ATOM     54  C   UNL A   1      38.952  33.301  30.286  1.00  0.00     0.049 A 
ATOM     55  C   UNL A   1      44.100  31.194  29.663  1.00  0.00     0.074 A 
ATOM     56  C   UNL A   1      39.472  33.196  31.565  1.00  0.00     0.029 A 
ATOM     57  N   UNL A   1      40.003  33.692  29.465  1.00  0.00    -0.354 N 
ATOM     58  N   UNL A   1      43.042  31.938  29.815  1.00  0.00    -0.248 NA
ATOM     59  C   UNL A   1      45.295  31.977  29.359  1.00  0.00     0.031 C 
ATOM     60  C   UNL A   1      40.845  33.521  31.515  1.00  0.00     0.029 A 
ATOM     61  C   UNL A   1      41.163  33.823  30.204  1.00  0.00     0.049 A 
ATOM     62  H   UNL A   1      39.932  33.851  28.497  1.00  0.00     0.167 HD
ATOM     63  C   UNL A   1      43.370  33.249  29.579  1.00  0.00     0.074 A 
ATOM     64  C   UNL A   1      44.797  33.225  29.329  1.00  0.00     0.031 C 
ATOM     65  C   UNL A   1      42.416  34.225  29.585  1.00  0.00     0.037 A 
BRANCH  52  66
ATOM     66  C   UNL A   1      36.352  33.424  30.043  1.00  0.00     0.064 A 
ATOM     67  C   UNL A   1      35.525  34.000  29.055  1.00  0.00     0.173 A 
ATOM     68  C   UNL A   1      35.847  33.474  31.354  1.00  0.00     0.173 A 
ATOM     69  F   UNL A   1      35.842  33.952  27.756  1.00  0.00    -0.203 F 
ATOM     70  C   UNL A   1      34.344  34.673  29.372  1.00  0.00     0.198 A 
ATOM     71  C   UNL A   1      34.692  34.190  31.678  1.00  0.00     0.198 A 
ATOM     72  F   UNL A   1      36.464  32.821  32.351  1.00  0.00    -0.203 F 
ATOM     73  F   UNL A   1      33.607  35.218  28.395  1.00  0.00    -0.200 F 
ATOM     74  C   UNL A   1      33.946  34.801  30.687  1.00  0.00     0.200 A 
ATOM     75  F   UNL A   1      34.313  34.300  32.959  1.00  0.00    -0.200 F 
ATOM     76  F   UNL A   1      32.846  35.498  30.996  1.00  0.00    -0.200 F 
ENDBRANCH  52  66
BRANCH  53  77
ATOM     77  C   UNL A   1      44.647  28.804  28.679  1.00  0.00     0.064 A 
ATOM     78  C   UNL A   1      45.389  27.678  29.080  1.00  0.00     0.173 A 
ATOM     79  C   UNL A   1      44.172  28.837  27.363  1.00  0.00     0.173 A 
ATOM     80  F   UNL A   1      45.859  27.596  30.336  1.00  0.00    -0.203 F 
ATOM     81  C   UNL A   1      45.553  26.583  28.236  1.00  0.00     0.198 A 
ATOM     82  C   UNL A   1      44.347  27.742  26.517  1.00  0.00     0.198 A 
ATOM     83  F   UNL A   1      43.440  29.873  26.932  1.00  0.00    -0.203 F 
ATOM     84  F   UNL A   1      46.167  25.479  28.684  1.00  0.00    -0.200 F 
ATOM     85  C   UNL A   1      45.006  26.606  26.963  1.00  0.00     0.200 A 
ATOM     86  F   UNL A   1      43.788  27.748  25.298  1.00  0.00    -0.200 F 
ATOM     87  F   UNL A   1      45.076  25.518  26.184  1.00  0.00    -0.200 F 
ENDBRANCH  53  77
BRANCH  65  88
ATOM     88  C   UNL A   1      42.572  35.652  29.111  1.00  0.00     0.064 A 
ATOM     89  C   UNL A   1      41.949  36.177  27.968  1.00  0.00     0.173 A 
ATOM     90  C   UNL A   1      43.264  36.597  29.912  1.00  0.00     0.173 A 
ATOM     91  F   UNL A   1      41.170  35.420  27.186  1.00  0.00    -0.203 F 
ATOM     92  C   UNL A   1      42.056  37.529  27.621  1.00  0.00     0.198 A 
ATOM     93  C   UNL A   1      43.321  37.953  29.593  1.00  0.00     0.198 A 
ATOM     94  F   UNL A   1      43.883  36.237  31.046  1.00  0.00    -0.203 F 
ATOM     95  F   UNL A   1      41.474  37.972  26.497  1.00  0.00    -0.200 F 
ATOM     96  C   UNL A   1      42.729  38.417  28.438  1.00  0.00     0.200 A 
ATOM     97  F   UNL A   1      43.933  38.807  30.425  1.00  0.00    -0.200 F 
ATOM     98  F   UNL A   1      42.787  39.719  28.125  1.00  0.00    -0.200 F 
ENDBRANCH  65  88
ENDBRANCH  39  40
ENDBRANCH  31  34
ENDBRANCH  29  30
ENDBRANCH  28  29
ENDBRANCH   1  28
TORSDOF 14
ENDMDL
MODEL 3
REMARK VINA RESULT:     -14.1      1.359      2.031
REMARK SMILES Cc1ccc(-c2cc([C@@H](C)C(=O)NCCCNC(=O)c3ccc(-c4c5nc(c(-c6c(F)c(F)c(F)c(F)c6F)c6ccc([nH]6)c(-c6c(F)c(F)c(F)c(F)c6F)c6nc(c(-c7c(F)c(F)c(F)c(F)c7F)c7ccc4[nH]7)C=C6)C=C5)cc3)ccc2C[C@H]2CCCC2=O)cc1
REMARK SMILES IDX 14 1 13 2 11 3 12 4 9 6 10 7 8 8 6 9 7 10 85 11 84 12 83 13
REMARK SMILES IDX 5 14 1 15 2 16 3 17 94 18 4 19 93 20 86 21 87 22 88 23 91 24
REMARK SMILES IDX 89 25 90 26 92 27 15 28 16 29 17 30 18 31 19 33 20 34 21 35
REMARK SMILES IDX 82 36 22 37 81 38 23 39 24 40 25 41 75 42 26 43 80 44 74 45
REMARK SMILES IDX 76 46 27 47 79 48 73 49 72 50 28 52 60 53 40 54 59 55 41 56
REMARK SMILES IDX 44 57 58 58 77 59 42 60 43 61 57 63 78 64 45 65 29 66 30 67
REMARK SMILES IDX 38 68 31 69 32 70 36 71 39 72 33 73 34 74 37 75 35 76 61 77
REMARK SMILES IDX 62 78 70 79 63 80 64 81 68 82 71 83 65 84 66 85 69 86 67 87
REMARK SMILES IDX 46 88 47 89 55 90 48 91 49 92 53 93 56 94 50 95 51 96 54 97
REMARK SMILES IDX 52 98
REMARK H PARENT 13 5 17 32 76 51 44 62
REMARK Flexibility Score: inf
ROOT
ATOM      1  C   UNL A   1      34.131  29.209  26.912  1.00  0.00     0.117 C 
ENDROOT
BRANCH   1   2
ATOM      2  N   UNL A   1      32.807  28.732  26.547  1.00  0.00    -0.356 N 
ATOM      3  C   UNL A   1      32.249  28.393  25.351  1.00  0.00     0.227 C 
ATOM      4  O   UNL A   1      31.038  28.134  25.380  1.00  0.00    -0.274 OA
ATOM      5  H   UNL A   1      32.196  28.636  27.312  1.00  0.00     0.163 HD
BRANCH   3   6
ATOM      6  C   UNL A   1      33.012  28.320  24.014  1.00  0.00     0.105 C 
ATOM      7  C   UNL A   1      32.559  29.332  22.964  1.00  0.00     0.023 C 
BRANCH   6   8
ATOM      8  C   UNL A   1      33.213  26.900  23.508  1.00  0.00    -0.035 A 
ATOM      9  C   UNL A   1      34.205  24.661  23.802  1.00  0.00    -0.015 A 
ATOM     10  C   UNL A   1      34.048  26.007  24.201  1.00  0.00     0.013 A 
ATOM     11  C   UNL A   1      33.369  24.161  22.779  1.00  0.00    -0.039 A 
ATOM     12  C   UNL A   1      32.614  25.071  22.029  1.00  0.00     0.004 A 
ATOM     13  C   UNL A   1      32.597  26.428  22.352  1.00  0.00     0.005 A 
BRANCH   9  14
ATOM     14  C   UNL A   1      35.331  23.879  24.346  1.00  0.00    -0.018 A 
ATOM     15  C   UNL A   1      38.706  21.547  25.731  1.00  0.00     0.044 C 
ATOM     16  C   UNL A   1      37.544  22.371  25.261  1.00  0.00    -0.051 A 
ATOM     17  C   UNL A   1      37.085  22.222  23.951  1.00  0.00     0.004 A 
ATOM     18  C   UNL A   1      36.901  23.283  26.107  1.00  0.00     0.004 A 
ATOM     19  C   UNL A   1      36.003  22.977  23.501  1.00  0.00     0.009 A 
ATOM     20  C   UNL A   1      35.807  24.033  25.653  1.00  0.00     0.009 A 
ENDBRANCH   9  14
BRANCH  11  21
ATOM     21  C   UNL A   1      33.246  22.684  22.446  1.00  0.00     0.047 C 
BRANCH  21  22
ATOM     22  C   UNL A   1      32.374  21.840  23.387  1.00  0.00     0.060 C 
ATOM     23  C   UNL A   1      33.103  20.891  24.347  1.00  0.00     0.012 C 
ATOM     24  C   UNL A   1      31.531  22.666  24.334  1.00  0.00     0.136 C 
ATOM     25  C   UNL A   1      33.092  21.574  25.710  1.00  0.00     0.009 C 
ATOM     26  C   UNL A   1      31.756  22.295  25.775  1.00  0.00     0.076 C 
ATOM     27  O   UNL A   1      30.718  23.510  23.975  1.00  0.00    -0.299 OA
ENDBRANCH  21  22
ENDBRANCH  11  21
ENDBRANCH   6   8
ENDBRANCH   3   6
ENDBRANCH   1   2
BRANCH   1  28
ATOM     28  C   UNL A   1      34.143  30.712  27.178  1.00  0.00     0.042 C 
BRANCH  28  29
ATOM     29  C   UNL A   1      34.405  31.100  28.623  1.00  0.00     0.118 C 
BRANCH  29  30
ATOM     30  N   UNL A   1      35.473  32.093  28.758  1.00  0.00    -0.352 N 
ATOM     31  C   UNL A   1      36.845  31.901  28.788  1.00  0.00     0.251 C 
ATOM     32  H   UNL A   1      35.174  33.027  28.838  1.00  0.00     0.163 HD
ATOM     33  O   UNL A   1      37.615  32.842  28.817  1.00  0.00    -0.269 OA
BRANCH  31  34
ATOM     34  C   UNL A   1      37.347  30.518  28.647  1.00  0.00     0.039 A 
ATOM     35  C   UNL A   1      37.655  29.820  29.817  1.00  0.00     0.014 A 
ATOM     36  C   UNL A   1      37.793  30.075  27.406  1.00  0.00     0.014 A 
ATOM     37  C   UNL A   1      38.634  28.835  29.770  1.00  0.00     0.010 A 
ATOM     38  C   UNL A   1      38.845  29.179  27.376  1.00  0.00     0.010 A 
ATOM     39  C   UNL A   1      39.317  28.618  28.570  1.00  0.00    -0.014 A 
BRANCH  39  40
ATOM     40  C   UNL A   1      40.625  27.973  28.526  1.00  0.00     0.031 A 
ATOM     41  C   UNL A   1      40.758  26.526  28.259  1.00  0.00     0.074 A 
ATOM     42  C   UNL A   1      41.749  28.708  28.695  1.00  0.00     0.049 A 
ATOM     43  N   UNL A   1      41.725  25.803  28.723  1.00  0.00    -0.248 NA
ATOM     44  C   UNL A   1      39.795  25.765  27.469  1.00  0.00     0.031 C 
ATOM     45  C   UNL A   1      43.124  28.286  28.429  1.00  0.00     0.029 A 
ATOM     46  N   UNL A   1      41.886  29.956  29.328  1.00  0.00    -0.354 N 
ATOM     47  C   UNL A   1      41.667  24.585  28.094  1.00  0.00     0.074 A 
ATOM     48  C   UNL A   1      40.414  24.584  27.374  1.00  0.00     0.031 C 
ATOM     49  C   UNL A   1      43.962  29.069  29.123  1.00  0.00     0.029 A 
ATOM     50  C   UNL A   1      43.153  29.934  29.959  1.00  0.00     0.049 A 
ATOM     51  H   UNL A   1      41.234  30.695  29.332  1.00  0.00     0.167 HD
ATOM     52  C   UNL A   1      42.742  23.748  28.126  1.00  0.00     0.037 A 
ATOM     53  C   UNL A   1      43.305  30.090  31.305  1.00  0.00     0.037 A 
ATOM     54  C   UNL A   1      43.860  24.314  28.865  1.00  0.00     0.049 A 
ATOM     55  C   UNL A   1      44.034  28.958  31.984  1.00  0.00     0.074 A 
ATOM     56  C   UNL A   1      44.993  24.998  28.457  1.00  0.00     0.029 A 
ATOM     57  N   UNL A   1      43.767  24.491  30.240  1.00  0.00    -0.354 N 
ATOM     58  N   UNL A   1      44.176  27.775  31.459  1.00  0.00    -0.248 NA
ATOM     59  C   UNL A   1      44.598  29.044  33.329  1.00  0.00     0.031 C 
ATOM     60  C   UNL A   1      45.584  25.595  29.592  1.00  0.00     0.029 A 
ATOM     61  C   UNL A   1      44.810  25.276  30.692  1.00  0.00     0.049 A 
ATOM     62  H   UNL A   1      43.059  24.114  30.809  1.00  0.00     0.167 HD
ATOM     63  C   UNL A   1      44.770  26.940  32.371  1.00  0.00     0.074 A 
ATOM     64  C   UNL A   1      45.043  27.789  33.513  1.00  0.00     0.031 C 
ATOM     65  C   UNL A   1      44.950  25.614  32.099  1.00  0.00     0.037 A 
BRANCH  52  66
ATOM     66  C   UNL A   1      42.850  22.553  27.216  1.00  0.00     0.064 A 
ATOM     67  C   UNL A   1      42.052  21.406  27.410  1.00  0.00     0.173 A 
ATOM     68  C   UNL A   1      43.771  22.474  26.157  1.00  0.00     0.173 A 
ATOM     69  F   UNL A   1      41.080  21.372  28.329  1.00  0.00    -0.203 F 
ATOM     70  C   UNL A   1      42.242  20.234  26.677  1.00  0.00     0.198 A 
ATOM     71  C   UNL A   1      43.996  21.286  25.457  1.00  0.00     0.198 A 
ATOM     72  F   UNL A   1      44.470  23.553  25.774  1.00  0.00    -0.203 F 
ATOM     73  F   UNL A   1      41.467  19.167  26.916  1.00  0.00    -0.200 F 
ATOM     74  C   UNL A   1      43.239  20.161  25.725  1.00  0.00     0.200 A 
ATOM     75  F   UNL A   1      44.963  21.232  24.530  1.00  0.00    -0.200 F 
ATOM     76  F   UNL A   1      43.461  19.018  25.064  1.00  0.00    -0.200 F 
ENDBRANCH  52  66
BRANCH  53  77
ATOM     77  C   UNL A   1      42.220  30.879  31.939  1.00  0.00     0.064 A 
ATOM     78  C   UNL A   1      41.143  30.192  32.528  1.00  0.00     0.173 A 
ATOM     79  C   UNL A   1      42.409  32.220  32.292  1.00  0.00     0.173 A 
ATOM     80  F   UNL A   1      40.926  28.900  32.227  1.00  0.00    -0.203 F 
ATOM     81  C   UNL A   1      40.359  30.786  33.513  1.00  0.00     0.198 A 
ATOM     82  C   UNL A   1      41.615  32.815  33.272  1.00  0.00     0.198 A 
ATOM     83  F   UNL A   1      43.432  32.918  31.780  1.00  0.00    -0.203 F 
ATOM     84  F   UNL A   1      39.413  30.071  34.137  1.00  0.00    -0.200 F 
ATOM     85  C   UNL A   1      40.615  32.091  33.903  1.00  0.00     0.200 A 
ATOM     86  F   UNL A   1      41.884  34.066  33.676  1.00  0.00    -0.200 F 
ATOM     87  F   UNL A   1      39.928  32.634  34.918  1.00  0.00    -0.200 F 
ENDBRANCH  53  77
BRANCH  65  88
ATOM     88  C   UNL A   1      45.358  24.534  33.073  1.00  0.00     0.064 A 
ATOM     89  C   UNL A   1      44.560  23.427  33.405  1.00  0.00     0.173 A 
ATOM     90  C   UNL A   1      46.673  24.513  33.606  1.00  0.00     0.173 A 
ATOM     91  F   UNL A   1      43.340  23.263  32.880  1.00  0.00    -0.203 F 
ATOM     92  C   UNL A   1      45.019  22.408  34.247  1.00  0.00     0.198 A 
ATOM     93  C   UNL A   1      47.146  23.468  34.398  1.00  0.00     0.198 A 
ATOM     94  F   UNL A   1      47.551  25.494  33.349  1.00  0.00    -0.203 F 
ATOM     95  F   UNL A   1      44.203  21.393  34.563  1.00  0.00    -0.200 F 
ATOM     96  C   UNL A   1      46.313  22.422  34.732  1.00  0.00     0.200 A 
ATOM     97  F   UNL A   1      48.420  23.473  34.816  1.00  0.00    -0.200 F 
ATOM     98  F   UNL A   1      46.763  21.419  35.498  1.00  0.00    -0.200 F 
ENDBRANCH  65  88
ENDBRANCH  39  40
ENDBRANCH  31  34
ENDBRANCH  29  30
ENDBRANCH  28  29
ENDBRANCH   1  28
TORSDOF 14
ENDMDL
