MODEL 1
REMARK VINA RESULT:     -13.2      0.000      0.000
REMARK SMILES CCn1ncc(CNc2ccccc2C(=O)NCCCNC(=O)c2ccc(-c3c4nc(c(-c5c(F)c(F)c(F)c(F)c5F)c5ccc([nH]5)c(-c5c(F)c(F)c(F)c(F)c5F)c5nc(c(-c6c(F)c(F)c(F)c(F)c6F)c6ccc3[nH]6)C=C5)C=C4)cc2)c1C
REMARK SMILES IDX 18 1 17 2 15 3 16 4 14 6 9 7 10 8 11 9 13 10 12 11 8 12 7 14
REMARK SMILES IDX 6 15 3 16 4 17 87 18 5 19 88 20 2 21 1 22 19 23 20 24 21 25
REMARK SMILES IDX 22 26 23 28 24 29 25 30 86 31 26 32 85 33 27 34 28 35 29 36
REMARK SMILES IDX 79 37 30 38 84 39 78 40 80 41 31 42 83 43 77 44 76 45 32 47
REMARK SMILES IDX 64 48 44 49 63 50 45 51 48 52 62 53 81 54 46 55 47 56 61 58
REMARK SMILES IDX 82 59 49 60 33 61 34 62 42 63 35 64 36 65 40 66 43 67 37 68
REMARK SMILES IDX 38 69 41 70 39 71 65 72 66 73 74 74 67 75 68 76 72 77 75 78
REMARK SMILES IDX 69 79 70 80 73 81 71 82 50 83 51 84 59 85 52 86 53 87 57 88
REMARK SMILES IDX 60 89 54 90 55 91 58 92 56 93
REMARK H PARENT 17 5 8 13 21 27 80 46 48 57
REMARK Flexibility Score: inf
ROOT
ATOM      1  C   UNL A   1      37.356  22.935  25.524  1.00  0.00     0.118 C 
ENDROOT
BRANCH   1   2
ATOM      2  N   UNL A   1      36.322  22.797  26.540  1.00  0.00    -0.352 N 
ATOM      3  C   UNL A   1      34.985  23.118  26.453  1.00  0.00     0.253 C 
ATOM      4  O   UNL A   1      34.257  22.899  27.419  1.00  0.00    -0.269 OA
ATOM      5  H   UNL A   1      36.617  22.428  27.403  1.00  0.00     0.163 HD
BRANCH   3   6
ATOM      6  C   UNL A   1      34.433  23.815  25.264  1.00  0.00     0.062 A 
ATOM      7  C   UNL A   1      34.080  23.195  24.053  1.00  0.00     0.047 A 
ATOM      8  C   UNL A   1      33.758  24.035  22.968  1.00  0.00     0.026 A 
ATOM      9  C   UNL A   1      33.701  25.425  23.094  1.00  0.00     0.002 A 
ATOM     10  C   UNL A   1      34.329  25.216  25.401  1.00  0.00     0.016 A 
ATOM     11  C   UNL A   1      33.957  26.016  24.322  1.00  0.00     0.001 A 
BRANCH   7  12
ATOM     12  N   UNL A   1      33.941  21.836  23.831  1.00  0.00    -0.380 N 
ATOM     13  H   UNL A   1      34.757  21.285  23.847  1.00  0.00     0.160 HD
BRANCH  12  14
ATOM     14  C   UNL A   1      32.673  21.161  23.572  1.00  0.00     0.152 C 
BRANCH  14  15
ATOM     15  C   UNL A   1      32.588  19.879  24.332  1.00  0.00     0.012 A 
ATOM     16  N   UNL A   1      32.599  17.751  24.890  1.00  0.00    -0.270 N 
ATOM     17  N   UNL A   1      32.686  18.397  26.063  1.00  0.00    -0.181 NA
ATOM     18  C   UNL A   1      32.532  18.596  23.811  1.00  0.00     0.040 A 
ATOM     19  C   UNL A   1      32.659  19.683  25.725  1.00  0.00     0.141 A 
ATOM     20  C   UNL A   1      32.479  18.163  22.394  1.00  0.00     0.067 C 
BRANCH  16  21
ATOM     21  C   UNL A   1      32.655  16.303  24.901  1.00  0.00     0.141 C 
ATOM     22  C   UNL A   1      34.060  15.796  25.172  1.00  0.00     0.029 C 
ENDBRANCH  16  21
ENDBRANCH  14  15
ENDBRANCH  12  14
ENDBRANCH   7  12
ENDBRANCH   3   6
ENDBRANCH   1   2
BRANCH   1  23
ATOM     23  C   UNL A   1      38.381  21.805  25.486  1.00  0.00     0.042 C 
BRANCH  23  24
ATOM     24  C   UNL A   1      39.486  21.924  26.529  1.00  0.00     0.118 C 
BRANCH  24  25
ATOM     25  N   UNL A   1      40.831  22.173  26.011  1.00  0.00    -0.352 N 
ATOM     26  C   UNL A   1      41.614  23.304  26.252  1.00  0.00     0.251 C 
ATOM     27  H   UNL A   1      41.224  21.475  25.438  1.00  0.00     0.163 HD
ATOM     28  O   UNL A   1      42.637  23.544  25.652  1.00  0.00    -0.269 OA
BRANCH  26  29
ATOM     29  C   UNL A   1      41.113  24.235  27.279  1.00  0.00     0.039 A 
ATOM     30  C   UNL A   1      41.960  24.622  28.317  1.00  0.00     0.014 A 
ATOM     31  C   UNL A   1      39.988  24.966  26.936  1.00  0.00     0.014 A 
ATOM     32  C   UNL A   1      41.776  25.880  28.887  1.00  0.00     0.010 A 
ATOM     33  C   UNL A   1      39.924  26.268  27.380  1.00  0.00     0.010 A 
ATOM     34  C   UNL A   1      40.812  26.749  28.349  1.00  0.00    -0.014 A 
BRANCH  34  35
ATOM     35  C   UNL A   1      40.843  28.185  28.679  1.00  0.00     0.031 A 
ATOM     36  C   UNL A   1      41.933  29.014  28.069  1.00  0.00     0.074 A 
ATOM     37  C   UNL A   1      39.861  28.840  29.336  1.00  0.00     0.049 A 
ATOM     38  N   UNL A   1      42.897  29.617  28.689  1.00  0.00    -0.248 NA
ATOM     39  C   UNL A   1      41.985  29.174  26.608  1.00  0.00     0.031 C 
ATOM     40  C   UNL A   1      38.578  28.322  29.827  1.00  0.00     0.029 A 
ATOM     41  N   UNL A   1      39.786  30.170  29.645  1.00  0.00    -0.354 N 
ATOM     42  C   UNL A   1      43.596  30.353  27.733  1.00  0.00     0.074 A 
ATOM     43  C   UNL A   1      43.053  29.963  26.455  1.00  0.00     0.031 C 
ATOM     44  C   UNL A   1      37.763  29.345  30.151  1.00  0.00     0.029 A 
ATOM     45  C   UNL A   1      38.549  30.562  30.119  1.00  0.00     0.049 A 
ATOM     46  H   UNL A   1      40.544  30.790  29.539  1.00  0.00     0.167 HD
ATOM     47  C   UNL A   1      44.442  31.361  28.091  1.00  0.00     0.037 A 
ATOM     48  C   UNL A   1      38.175  31.776  30.566  1.00  0.00     0.037 A 
ATOM     49  C   UNL A   1      44.706  31.342  29.506  1.00  0.00     0.049 A 
ATOM     50  C   UNL A   1      39.386  32.457  31.064  1.00  0.00     0.074 A 
ATOM     51  C   UNL A   1      45.436  30.565  30.376  1.00  0.00     0.029 A 
ATOM     52  N   UNL A   1      43.859  32.105  30.263  1.00  0.00    -0.354 N 
ATOM     53  N   UNL A   1      40.076  32.040  32.091  1.00  0.00    -0.248 NA
ATOM     54  C   UNL A   1      40.040  33.465  30.241  1.00  0.00     0.031 C 
ATOM     55  C   UNL A   1      44.773  30.667  31.637  1.00  0.00     0.029 A 
ATOM     56  C   UNL A   1      43.672  31.510  31.482  1.00  0.00     0.049 A 
ATOM     57  H   UNL A   1      43.446  32.951  29.975  1.00  0.00     0.167 HD
ATOM     58  C   UNL A   1      41.376  32.404  31.803  1.00  0.00     0.074 A 
ATOM     59  C   UNL A   1      41.264  33.429  30.775  1.00  0.00     0.031 C 
ATOM     60  C   UNL A   1      42.425  31.631  32.204  1.00  0.00     0.037 A 
BRANCH  47  61
ATOM     61  C   UNL A   1      44.749  32.607  27.287  1.00  0.00     0.064 A 
ATOM     62  C   UNL A   1      45.996  32.716  26.627  1.00  0.00     0.173 A 
ATOM     63  C   UNL A   1      44.024  33.808  27.410  1.00  0.00     0.173 A 
ATOM     64  F   UNL A   1      46.781  31.641  26.465  1.00  0.00    -0.203 F 
ATOM     65  C   UNL A   1      46.504  33.946  26.197  1.00  0.00     0.198 A 
ATOM     66  C   UNL A   1      44.514  35.027  26.935  1.00  0.00     0.198 A 
ATOM     67  F   UNL A   1      42.874  33.868  28.093  1.00  0.00    -0.203 F 
ATOM     68  F   UNL A   1      47.742  34.017  25.688  1.00  0.00    -0.200 F 
ATOM     69  C   UNL A   1      45.765  35.103  26.358  1.00  0.00     0.200 A 
ATOM     70  F   UNL A   1      43.794  36.143  27.118  1.00  0.00    -0.200 F 
ATOM     71  F   UNL A   1      46.274  36.291  26.005  1.00  0.00    -0.200 F 
ENDBRANCH  47  61
BRANCH  48  72
ATOM     72  C   UNL A   1      36.831  32.374  30.528  1.00  0.00     0.064 A 
ATOM     73  C   UNL A   1      35.965  32.322  31.627  1.00  0.00     0.173 A 
ATOM     74  C   UNL A   1      36.466  33.225  29.466  1.00  0.00     0.173 A 
ATOM     75  F   UNL A   1      36.261  31.554  32.683  1.00  0.00    -0.203 F 
ATOM     76  C   UNL A   1      34.810  33.106  31.675  1.00  0.00     0.198 A 
ATOM     77  C   UNL A   1      35.312  34.004  29.514  1.00  0.00     0.198 A 
ATOM     78  F   UNL A   1      37.272  33.375  28.403  1.00  0.00    -0.203 F 
ATOM     79  F   UNL A   1      34.031  33.078  32.765  1.00  0.00    -0.200 F 
ATOM     80  C   UNL A   1      34.492  33.956  30.626  1.00  0.00     0.200 A 
ATOM     81  F   UNL A   1      35.033  34.844  28.507  1.00  0.00    -0.200 F 
ATOM     82  F   UNL A   1      33.419  34.755  30.703  1.00  0.00    -0.200 F 
ENDBRANCH  48  72
BRANCH  60  83
ATOM     83  C   UNL A   1      42.177  30.676  33.332  1.00  0.00     0.064 A 
ATOM     84  C   UNL A   1      42.222  31.034  34.688  1.00  0.00     0.173 A 
ATOM     85  C   UNL A   1      41.797  29.365  33.023  1.00  0.00     0.173 A 
ATOM     86  F   UNL A   1      42.490  32.291  35.056  1.00  0.00    -0.203 F 
ATOM     87  C   UNL A   1      41.950  30.108  35.691  1.00  0.00     0.198 A 
ATOM     88  C   UNL A   1      41.493  28.449  34.024  1.00  0.00     0.198 A 
ATOM     89  F   UNL A   1      41.685  28.983  31.741  1.00  0.00    -0.203 F 
ATOM     90  F   UNL A   1      42.021  30.471  36.980  1.00  0.00    -0.200 F 
ATOM     91  C   UNL A   1      41.582  28.815  35.358  1.00  0.00     0.200 A 
ATOM     92  F   UNL A   1      41.094  27.211  33.696  1.00  0.00    -0.200 F 
ATOM     93  F   UNL A   1      41.291  27.928  36.321  1.00  0.00    -0.200 F 
ENDBRANCH  60  83
ENDBRANCH  34  35
ENDBRANCH  26  29
ENDBRANCH  24  25
ENDBRANCH  23  24
ENDBRANCH   1  23
TORSDOF 14
ENDMDL
MODEL 2
REMARK VINA RESULT:     -13.0      4.308      9.759
REMARK SMILES CCn1ncc(CNc2ccccc2C(=O)NCCCNC(=O)c2ccc(-c3c4nc(c(-c5c(F)c(F)c(F)c(F)c5F)c5ccc([nH]5)c(-c5c(F)c(F)c(F)c(F)c5F)c5nc(c(-c6c(F)c(F)c(F)c(F)c6F)c6ccc3[nH]6)C=C5)C=C4)cc2)c1C
REMARK SMILES IDX 18 1 17 2 15 3 16 4 14 6 9 7 10 8 11 9 13 10 12 11 8 12 7 14
REMARK SMILES IDX 6 15 3 16 4 17 87 18 5 19 88 20 2 21 1 22 19 23 20 24 21 25
REMARK SMILES IDX 22 26 23 28 24 29 25 30 86 31 26 32 85 33 27 34 28 35 29 36
REMARK SMILES IDX 79 37 30 38 84 39 78 40 80 41 31 42 83 43 77 44 76 45 32 47
REMARK SMILES IDX 64 48 44 49 63 50 45 51 48 52 62 53 81 54 46 55 47 56 61 58
REMARK SMILES IDX 82 59 49 60 33 61 34 62 42 63 35 64 36 65 40 66 43 67 37 68
REMARK SMILES IDX 38 69 41 70 39 71 65 72 66 73 74 74 67 75 68 76 72 77 75 78
REMARK SMILES IDX 69 79 70 80 73 81 71 82 50 83 51 84 59 85 52 86 53 87 57 88
REMARK SMILES IDX 60 89 54 90 55 91 58 92 56 93
REMARK H PARENT 17 5 8 13 21 27 80 46 48 57
REMARK Flexibility Score: inf
ROOT
ATOM      1  C   UNL A   1      33.082  29.484  26.726  1.00  0.00     0.118 C 
ENDROOT
BRANCH   1   2
ATOM      2  N   UNL A   1      33.572  29.354  25.361  1.00  0.00    -0.352 N 
ATOM      3  C   UNL A   1      33.560  28.243  24.546  1.00  0.00     0.253 C 
ATOM      4  O   UNL A   1      33.999  28.341  23.402  1.00  0.00    -0.269 OA
ATOM      5  H   UNL A   1      33.965  30.167  24.969  1.00  0.00     0.163 HD
BRANCH   3   6
ATOM      6  C   UNL A   1      33.131  26.916  25.055  1.00  0.00     0.062 A 
ATOM      7  C   UNL A   1      31.815  26.573  25.410  1.00  0.00     0.047 A 
ATOM      8  C   UNL A   1      31.625  25.335  26.057  1.00  0.00     0.026 A 
ATOM      9  C   UNL A   1      32.671  24.435  26.266  1.00  0.00     0.002 A 
ATOM     10  C   UNL A   1      34.178  25.986  25.225  1.00  0.00     0.016 A 
ATOM     11  C   UNL A   1      33.947  24.748  25.821  1.00  0.00     0.001 A 
BRANCH   7  12
ATOM     12  N   UNL A   1      30.668  27.292  25.125  1.00  0.00    -0.380 N 
ATOM     13  H   UNL A   1      30.489  28.097  25.662  1.00  0.00     0.160 HD
BRANCH  12  14
ATOM     14  C   UNL A   1      29.703  26.941  24.088  1.00  0.00     0.152 C 
BRANCH  14  15
ATOM     15  C   UNL A   1      29.574  28.043  23.087  1.00  0.00     0.012 A 
ATOM     16  N   UNL A   1      28.835  29.744  21.906  1.00  0.00    -0.270 N 
ATOM     17  N   UNL A   1      30.149  29.705  21.636  1.00  0.00    -0.181 NA
ATOM     18  C   UNL A   1      28.431  28.761  22.772  1.00  0.00     0.040 A 
ATOM     19  C   UNL A   1      30.590  28.663  22.336  1.00  0.00     0.141 A 
ATOM     20  C   UNL A   1      27.050  28.593  23.284  1.00  0.00     0.067 C 
BRANCH  16  21
ATOM     21  C   UNL A   1      28.051  30.818  21.328  1.00  0.00     0.141 C 
ATOM     22  C   UNL A   1      28.040  32.048  22.216  1.00  0.00     0.029 C 
ENDBRANCH  16  21
ENDBRANCH  14  15
ENDBRANCH  12  14
ENDBRANCH   7  12
ENDBRANCH   3   6
ENDBRANCH   1   2
BRANCH   1  23
ATOM     23  C   UNL A   1      33.037  30.910  27.265  1.00  0.00     0.042 C 
BRANCH  23  24
ATOM     24  C   UNL A   1      34.394  31.469  27.676  1.00  0.00     0.118 C 
BRANCH  24  25
ATOM     25  N   UNL A   1      34.511  31.911  29.065  1.00  0.00    -0.352 N 
ATOM     26  C   UNL A   1      35.586  31.669  29.923  1.00  0.00     0.251 C 
ATOM     27  H   UNL A   1      33.760  32.432  29.431  1.00  0.00     0.163 HD
ATOM     28  O   UNL A   1      35.551  31.893  31.111  1.00  0.00    -0.269 OA
BRANCH  26  29
ATOM     29  C   UNL A   1      36.791  31.084  29.307  1.00  0.00     0.039 A 
ATOM     30  C   UNL A   1      38.034  31.659  29.567  1.00  0.00     0.014 A 
ATOM     31  C   UNL A   1      36.663  29.787  28.839  1.00  0.00     0.014 A 
ATOM     32  C   UNL A   1      39.160  30.838  29.546  1.00  0.00     0.010 A 
ATOM     33  C   UNL A   1      37.748  28.953  28.993  1.00  0.00     0.010 A 
ATOM     34  C   UNL A   1      39.005  29.455  29.352  1.00  0.00    -0.014 A 
BRANCH  34  35
ATOM     35  C   UNL A   1      40.104  28.533  29.684  1.00  0.00     0.031 A 
ATOM     36  C   UNL A   1      40.469  28.378  31.130  1.00  0.00     0.074 A 
ATOM     37  C   UNL A   1      40.680  27.682  28.806  1.00  0.00     0.049 A 
ATOM     38  N   UNL A   1      41.583  28.718  31.696  1.00  0.00    -0.248 NA
ATOM     39  C   UNL A   1      39.485  27.813  32.065  1.00  0.00     0.031 C 
ATOM     40  C   UNL A   1      40.350  27.454  27.394  1.00  0.00     0.029 A 
ATOM     41  N   UNL A   1      41.670  26.767  29.035  1.00  0.00    -0.354 N 
ATOM     42  C   UNL A   1      41.514  28.284  33.020  1.00  0.00     0.074 A 
ATOM     43  C   UNL A   1      40.162  27.824  33.217  1.00  0.00     0.031 C 
ATOM     44  C   UNL A   1      40.944  26.326  26.959  1.00  0.00     0.029 A 
ATOM     45  C   UNL A   1      41.876  25.896  27.982  1.00  0.00     0.049 A 
ATOM     46  H   UNL A   1      42.188  26.732  29.872  1.00  0.00     0.167 HD
ATOM     47  C   UNL A   1      42.633  28.171  33.790  1.00  0.00     0.037 A 
ATOM     48  C   UNL A   1      42.809  24.932  27.869  1.00  0.00     0.037 A 
ATOM     49  C   UNL A   1      43.763  28.807  33.165  1.00  0.00     0.049 A 
ATOM     50  C   UNL A   1      43.954  25.322  28.716  1.00  0.00     0.074 A 
ATOM     51  C   UNL A   1      44.182  30.098  32.934  1.00  0.00     0.029 A 
ATOM     52  N   UNL A   1      44.518  27.991  32.367  1.00  0.00    -0.354 N 
ATOM     53  N   UNL A   1      44.689  26.377  28.491  1.00  0.00    -0.248 NA
ATOM     54  C   UNL A   1      44.130  24.706  30.024  1.00  0.00     0.031 C 
ATOM     55  C   UNL A   1      44.983  30.040  31.753  1.00  0.00     0.029 A 
ATOM     56  C   UNL A   1      45.025  28.715  31.320  1.00  0.00     0.049 A 
ATOM     57  H   UNL A   1      44.674  27.032  32.520  1.00  0.00     0.167 HD
ATOM     58  C   UNL A   1      45.086  26.793  29.746  1.00  0.00     0.074 A 
ATOM     59  C   UNL A   1      44.884  25.640  30.610  1.00  0.00     0.031 C 
ATOM     60  C   UNL A   1      45.254  28.118  30.023  1.00  0.00     0.037 A 
BRANCH  47  61
ATOM     61  C   UNL A   1      42.858  27.179  34.913  1.00  0.00     0.064 A 
ATOM     62  C   UNL A   1      43.163  27.658  36.208  1.00  0.00     0.173 A 
ATOM     63  C   UNL A   1      43.108  25.809  34.700  1.00  0.00     0.173 A 
ATOM     64  F   UNL A   1      42.981  28.948  36.522  1.00  0.00    -0.203 F 
ATOM     65  C   UNL A   1      43.746  26.842  37.184  1.00  0.00     0.198 A 
ATOM     66  C   UNL A   1      43.645  24.987  35.693  1.00  0.00     0.198 A 
ATOM     67  F   UNL A   1      42.954  25.246  33.496  1.00  0.00    -0.203 F 
ATOM     68  F   UNL A   1      44.130  27.369  38.355  1.00  0.00    -0.200 F 
ATOM     69  C   UNL A   1      43.993  25.507  36.923  1.00  0.00     0.200 A 
ATOM     70  F   UNL A   1      43.897  23.699  35.417  1.00  0.00    -0.200 F 
ATOM     71  F   UNL A   1      44.607  24.738  37.831  1.00  0.00    -0.200 F 
ENDBRANCH  47  61
BRANCH  48  72
ATOM     72  C   UNL A   1      42.720  23.678  27.104  1.00  0.00     0.064 A 
ATOM     73  C   UNL A   1      43.398  23.500  25.892  1.00  0.00     0.173 A 
ATOM     74  C   UNL A   1      42.141  22.534  27.687  1.00  0.00     0.173 A 
ATOM     75  F   UNL A   1      43.995  24.538  25.294  1.00  0.00    -0.203 F 
ATOM     76  C   UNL A   1      43.518  22.235  25.311  1.00  0.00     0.198 A 
ATOM     77  C   UNL A   1      42.258  21.274  27.104  1.00  0.00     0.198 A 
ATOM     78  F   UNL A   1      41.524  22.611  28.877  1.00  0.00    -0.203 F 
ATOM     79  F   UNL A   1      44.223  22.087  24.180  1.00  0.00    -0.200 F 
ATOM     80  C   UNL A   1      42.961  21.123  25.923  1.00  0.00     0.200 A 
ATOM     81  F   UNL A   1      41.742  20.203  27.722  1.00  0.00    -0.200 F 
ATOM     82  F   UNL A   1      43.134  19.903  25.397  1.00  0.00    -0.200 F 
ENDBRANCH  48  72
BRANCH  60  83
ATOM     83  C   UNL A   1      45.462  29.038  28.858  1.00  0.00     0.064 A 
ATOM     84  C   UNL A   1      44.430  29.744  28.222  1.00  0.00     0.173 A 
ATOM     85  C   UNL A   1      46.770  29.273  28.422  1.00  0.00     0.173 A 
ATOM     86  F   UNL A   1      43.166  29.638  28.642  1.00  0.00    -0.203 F 
ATOM     87  C   UNL A   1      44.692  30.610  27.163  1.00  0.00     0.198 A 
ATOM     88  C   UNL A   1      47.035  30.163  27.386  1.00  0.00     0.198 A 
ATOM     89  F   UNL A   1      47.801  28.664  29.031  1.00  0.00    -0.203 F 
ATOM     90  F   UNL A   1      43.685  31.258  26.558  1.00  0.00    -0.200 F 
ATOM     91  C   UNL A   1      45.996  30.821  26.748  1.00  0.00     0.200 A 
ATOM     92  F   UNL A   1      48.303  30.398  27.017  1.00  0.00    -0.200 F 
ATOM     93  F   UNL A   1      46.254  31.676  25.747  1.00  0.00    -0.200 F 
ENDBRANCH  60  83
ENDBRANCH  34  35
ENDBRANCH  26  29
ENDBRANCH  24  25
ENDBRANCH  23  24
ENDBRANCH   1  23
TORSDOF 14
ENDMDL
MODEL 3
REMARK VINA RESULT:     -12.8      1.336      3.370
REMARK SMILES CCn1ncc(CNc2ccccc2C(=O)NCCCNC(=O)c2ccc(-c3c4nc(c(-c5c(F)c(F)c(F)c(F)c5F)c5ccc([nH]5)c(-c5c(F)c(F)c(F)c(F)c5F)c5nc(c(-c6c(F)c(F)c(F)c(F)c6F)c6ccc3[nH]6)C=C5)C=C4)cc2)c1C
REMARK SMILES IDX 18 1 17 2 15 3 16 4 14 6 9 7 10 8 11 9 13 10 12 11 8 12 7 14
REMARK SMILES IDX 6 15 3 16 4 17 87 18 5 19 88 20 2 21 1 22 19 23 20 24 21 25
REMARK SMILES IDX 22 26 23 28 24 29 25 30 86 31 26 32 85 33 27 34 28 35 29 36
REMARK SMILES IDX 79 37 30 38 84 39 78 40 80 41 31 42 83 43 77 44 76 45 32 47
REMARK SMILES IDX 64 48 44 49 63 50 45 51 48 52 62 53 81 54 46 55 47 56 61 58
REMARK SMILES IDX 82 59 49 60 33 61 34 62 42 63 35 64 36 65 40 66 43 67 37 68
REMARK SMILES IDX 38 69 41 70 39 71 65 72 66 73 74 74 67 75 68 76 72 77 75 78
REMARK SMILES IDX 69 79 70 80 73 81 71 82 50 83 51 84 59 85 52 86 53 87 57 88
REMARK SMILES IDX 60 89 54 90 55 91 58 92 56 93
REMARK H PARENT 17 5 8 13 21 27 80 46 48 57
REMARK Flexibility Score: inf
ROOT
ATOM      1  C   UNL A   1      36.885  22.291  25.331  1.00  0.00     0.118 C 
ENDROOT
BRANCH   1   2
ATOM      2  N   UNL A   1      36.035  22.077  26.495  1.00  0.00    -0.352 N 
ATOM      3  C   UNL A   1      34.709  21.706  26.533  1.00  0.00     0.253 C 
ATOM      4  O   UNL A   1      34.168  21.546  27.625  1.00  0.00    -0.269 OA
ATOM      5  H   UNL A   1      36.465  22.217  27.369  1.00  0.00     0.163 HD
BRANCH   3   6
ATOM      6  C   UNL A   1      33.900  21.602  25.293  1.00  0.00     0.062 A 
ATOM      7  C   UNL A   1      33.317  22.685  24.612  1.00  0.00     0.047 A 
ATOM      8  C   UNL A   1      32.422  22.383  23.567  1.00  0.00     0.026 A 
ATOM      9  C   UNL A   1      32.177  21.073  23.151  1.00  0.00     0.002 A 
ATOM     10  C   UNL A   1      33.687  20.282  24.840  1.00  0.00     0.016 A 
ATOM     11  C   UNL A   1      32.835  20.021  23.769  1.00  0.00     0.001 A 
BRANCH   7  12
ATOM     12  N   UNL A   1      33.588  24.028  24.812  1.00  0.00    -0.380 N 
ATOM     13  H   UNL A   1      33.302  24.429  25.664  1.00  0.00     0.160 HD
BRANCH  12  14
ATOM     14  C   UNL A   1      34.264  24.892  23.850  1.00  0.00     0.152 C 
BRANCH  14  15
ATOM     15  C   UNL A   1      33.555  26.200  23.720  1.00  0.00     0.012 A 
ATOM     16  N   UNL A   1      32.132  27.783  23.168  1.00  0.00    -0.270 N 
ATOM     17  N   UNL A   1      32.784  28.285  24.228  1.00  0.00    -0.181 NA
ATOM     18  C   UNL A   1      32.559  26.529  22.814  1.00  0.00     0.040 A 
ATOM     19  C   UNL A   1      33.657  27.334  24.548  1.00  0.00     0.141 A 
ATOM     20  C   UNL A   1      31.987  25.714  21.716  1.00  0.00     0.067 C 
BRANCH  16  21
ATOM     21  C   UNL A   1      31.054  28.565  22.596  1.00  0.00     0.141 C 
ATOM     22  C   UNL A   1      29.696  28.100  23.090  1.00  0.00     0.029 C 
ENDBRANCH  16  21
ENDBRANCH  14  15
ENDBRANCH  12  14
ENDBRANCH   7  12
ENDBRANCH   3   6
ENDBRANCH   1   2
BRANCH   1  23
ATOM     23  C   UNL A   1      38.195  21.510  25.335  1.00  0.00     0.042 C 
BRANCH  23  24
ATOM     24  C   UNL A   1      39.211  21.991  26.364  1.00  0.00     0.118 C 
BRANCH  24  25
ATOM     25  N   UNL A   1      40.578  22.175  25.878  1.00  0.00    -0.352 N 
ATOM     26  C   UNL A   1      41.428  23.241  26.180  1.00  0.00     0.251 C 
ATOM     27  H   UNL A   1      40.935  21.478  25.281  1.00  0.00     0.163 HD
ATOM     28  O   UNL A   1      42.475  23.439  25.606  1.00  0.00    -0.269 OA
BRANCH  26  29
ATOM     29  C   UNL A   1      40.969  24.158  27.239  1.00  0.00     0.039 A 
ATOM     30  C   UNL A   1      41.856  24.525  28.251  1.00  0.00     0.014 A 
ATOM     31  C   UNL A   1      39.835  24.898  26.949  1.00  0.00     0.014 A 
ATOM     32  C   UNL A   1      41.699  25.775  28.846  1.00  0.00     0.010 A 
ATOM     33  C   UNL A   1      39.794  26.194  27.415  1.00  0.00     0.010 A 
ATOM     34  C   UNL A   1      40.719  26.657  28.358  1.00  0.00    -0.014 A 
BRANCH  34  35
ATOM     35  C   UNL A   1      40.769  28.086  28.709  1.00  0.00     0.031 A 
ATOM     36  C   UNL A   1      41.884  28.905  28.130  1.00  0.00     0.074 A 
ATOM     37  C   UNL A   1      39.786  28.749  29.357  1.00  0.00     0.049 A 
ATOM     38  N   UNL A   1      42.847  29.483  28.776  1.00  0.00    -0.248 NA
ATOM     39  C   UNL A   1      41.965  29.084  26.673  1.00  0.00     0.031 C 
ATOM     40  C   UNL A   1      38.486  28.247  29.817  1.00  0.00     0.029 A 
ATOM     41  N   UNL A   1      39.729  30.076  29.683  1.00  0.00    -0.354 N 
ATOM     42  C   UNL A   1      43.576  30.219  27.843  1.00  0.00     0.074 A 
ATOM     43  C   UNL A   1      43.049  29.856  26.551  1.00  0.00     0.031 C 
ATOM     44  C   UNL A   1      37.683  29.280  30.141  1.00  0.00     0.029 A 
ATOM     45  C   UNL A   1      38.490  30.483  30.140  1.00  0.00     0.049 A 
ATOM     46  H   UNL A   1      40.499  30.684  29.600  1.00  0.00     0.167 HD
ATOM     47  C   UNL A   1      44.432  31.207  28.230  1.00  0.00     0.037 A 
ATOM     48  C   UNL A   1      38.128  31.697  30.598  1.00  0.00     0.037 A 
ATOM     49  C   UNL A   1      44.670  31.164  29.649  1.00  0.00     0.049 A 
ATOM     50  C   UNL A   1      39.342  32.350  31.127  1.00  0.00     0.074 A 
ATOM     51  C   UNL A   1      45.370  30.363  30.522  1.00  0.00     0.029 A 
ATOM     52  N   UNL A   1      43.822  31.932  30.401  1.00  0.00    -0.354 N 
ATOM     53  N   UNL A   1      40.006  31.907  32.160  1.00  0.00    -0.248 NA
ATOM     54  C   UNL A   1      40.028  33.358  30.330  1.00  0.00     0.031 C 
ATOM     55  C   UNL A   1      44.685  30.459  31.772  1.00  0.00     0.029 A 
ATOM     56  C   UNL A   1      43.603  31.323  31.609  1.00  0.00     0.049 A 
ATOM     57  H   UNL A   1      43.429  32.788  30.119  1.00  0.00     0.167 HD
ATOM     58  C   UNL A   1      41.317  32.253  31.900  1.00  0.00     0.074 A 
ATOM     59  C   UNL A   1      41.241  33.293  30.885  1.00  0.00     0.031 C 
ATOM     60  C   UNL A   1      42.345  31.455  32.310  1.00  0.00     0.037 A 
BRANCH  47  61
ATOM     61  C   UNL A   1      44.775  32.459  27.449  1.00  0.00     0.064 A 
ATOM     62  C   UNL A   1      46.031  32.551  26.805  1.00  0.00     0.173 A 
ATOM     63  C   UNL A   1      44.074  33.674  27.584  1.00  0.00     0.173 A 
ATOM     64  F   UNL A   1      46.794  31.462  26.634  1.00  0.00    -0.203 F 
ATOM     65  C   UNL A   1      46.571  33.776  26.400  1.00  0.00     0.198 A 
ATOM     66  C   UNL A   1      44.597  34.889  27.134  1.00  0.00     0.198 A 
ATOM     67  F   UNL A   1      42.919  33.748  28.256  1.00  0.00    -0.203 F 
ATOM     68  F   UNL A   1      47.815  33.828  25.905  1.00  0.00    -0.200 F 
ATOM     69  C   UNL A   1      45.855  34.946  26.572  1.00  0.00     0.200 A 
ATOM     70  F   UNL A   1      43.899  36.017  27.327  1.00  0.00    -0.200 F 
ATOM     71  F   UNL A   1      46.393  36.128  26.243  1.00  0.00    -0.200 F 
ENDBRANCH  47  61
BRANCH  48  72
ATOM     72  C   UNL A   1      36.796  32.318  30.544  1.00  0.00     0.064 A 
ATOM     73  C   UNL A   1      35.903  32.252  31.620  1.00  0.00     0.173 A 
ATOM     74  C   UNL A   1      36.471  33.204  29.497  1.00  0.00     0.173 A 
ATOM     75  F   UNL A   1      36.161  31.451  32.662  1.00  0.00    -0.203 F 
ATOM     76  C   UNL A   1      34.760  33.055  31.661  1.00  0.00     0.198 A 
ATOM     77  C   UNL A   1      35.330  34.001  29.538  1.00  0.00     0.198 A 
ATOM     78  F   UNL A   1      37.305  33.370  28.458  1.00  0.00    -0.203 F 
ATOM     79  F   UNL A   1      33.954  33.010  32.732  1.00  0.00    -0.200 F 
ATOM     80  C   UNL A   1      34.482  33.937  30.629  1.00  0.00     0.200 A 
ATOM     81  F   UNL A   1      35.089  34.873  28.549  1.00  0.00    -0.200 F 
ATOM     82  F   UNL A   1      33.421  34.752  30.702  1.00  0.00    -0.200 F 
ENDBRANCH  48  72
BRANCH  60  83
ATOM     83  C   UNL A   1      42.060  30.490  33.419  1.00  0.00     0.064 A 
ATOM     84  C   UNL A   1      41.678  29.155  33.220  1.00  0.00     0.173 A 
ATOM     85  C   UNL A   1      42.259  30.915  34.738  1.00  0.00     0.173 A 
ATOM     86  F   UNL A   1      41.556  28.654  31.987  1.00  0.00    -0.203 F 
ATOM     87  C   UNL A   1      41.458  28.297  34.295  1.00  0.00     0.198 A 
ATOM     88  C   UNL A   1      42.071  30.048  35.810  1.00  0.00     0.198 A 
ATOM     89  F   UNL A   1      42.676  32.168  34.984  1.00  0.00    -0.203 F 
ATOM     90  F   UNL A   1      41.074  27.030  34.077  1.00  0.00    -0.200 F 
ATOM     91  C   UNL A   1      41.658  28.744  35.590  1.00  0.00     0.200 A 
ATOM     92  F   UNL A   1      42.308  30.473  37.059  1.00  0.00    -0.200 F 
ATOM     93  F   UNL A   1      41.474  27.912  36.625  1.00  0.00    -0.200 F 
ENDBRANCH  60  83
ENDBRANCH  34  35
ENDBRANCH  26  29
ENDBRANCH  24  25
ENDBRANCH  23  24
ENDBRANCH   1  23
TORSDOF 14
ENDMDL
