MODEL 1
REMARK VINA RESULT:     -11.5      0.000      0.000
REMARK SMILES C[C@H](c1ccoc1)[NH+]1CC[NH+]([C@@H](C)C(=O)NCCCNC(=O)c2ccc(-c3c4nc(c(-c5c(F)c(F)c(F)c(F)c5F)c5ccc([nH]5)c(-c5c(F)c(F)c(F)c(F)c5F)c5nc(c(-c6c(F)c(F)c(F)c(F)c6F)c6ccc3[nH]6)C=C5)C=C4)cc2)CC1
REMARK SMILES IDX 17 1 16 2 14 3 15 4 12 6 13 7 11 8 8 9 9 10 87 11 10 13
REMARK SMILES IDX 86 14 2 16 1 17 3 18 4 19 7 20 5 21 6 22 18 23 19 24 20 25
REMARK SMILES IDX 21 26 22 28 23 29 24 30 85 31 25 32 84 33 26 34 27 35 28 36
REMARK SMILES IDX 78 37 29 38 83 39 77 40 79 41 30 42 82 43 76 44 75 45 31 47
REMARK SMILES IDX 63 48 43 49 62 50 44 51 47 52 61 53 80 54 45 55 46 56 60 58
REMARK SMILES IDX 81 59 48 60 32 61 33 62 41 63 34 64 35 65 39 66 42 67 36 68
REMARK SMILES IDX 37 69 40 70 38 71 64 72 65 73 73 74 66 75 67 76 71 77 74 78
REMARK SMILES IDX 68 79 69 80 72 81 70 82 49 83 50 84 58 85 51 86 52 87 56 88
REMARK SMILES IDX 59 89 53 90 54 91 57 92 55 93
REMARK H PARENT 16 5 8 12 11 15 20 27 79 46 47 57
REMARK Flexibility Score: inf
ROOT
ATOM      1  C   UNL A   1      35.100  22.428  26.272  1.00  0.00     0.118 C 
ENDROOT
BRANCH   1   2
ATOM      2  N   UNL A   1      33.847  22.569  27.006  1.00  0.00    -0.351 N 
ATOM      3  C   UNL A   1      32.591  23.008  26.689  1.00  0.00     0.278 C 
ATOM      4  O   UNL A   1      31.781  22.976  27.628  1.00  0.00    -0.268 OA
ATOM      5  H   UNL A   1      33.923  22.283  27.945  1.00  0.00     0.163 HD
BRANCH   3   6
ATOM      6  C   UNL A   1      32.122  23.528  25.285  1.00  0.00     0.271 C 
ATOM      7  C   UNL A   1      32.123  22.452  24.202  1.00  0.00     0.086 C 
BRANCH   6   8
ATOM      8  N   UNL A   1      32.616  24.892  24.983  1.00  0.00    -0.316 N 
ATOM      9  N   UNL A   1      30.696  27.174  24.448  1.00  0.00    -0.320 N 
ATOM     10  C   UNL A   1      30.849  25.987  23.619  1.00  0.00     0.325 C 
ATOM     11  C   UNL A   1      31.179  26.901  25.818  1.00  0.00     0.325 C 
ATOM     12  H   UNL A   1      29.692  27.347  24.508  1.00  0.00     0.348 HD
ATOM     13  C   UNL A   1      32.282  25.435  23.681  1.00  0.00     0.325 C 
ATOM     14  C   UNL A   1      32.409  25.943  25.997  1.00  0.00     0.325 C 
ATOM     15  H   UNL A   1      33.609  24.660  24.994  1.00  0.00     0.349 HD
BRANCH   9  16
ATOM     16  C   UNL A   1      31.060  28.479  23.859  1.00  0.00     0.215 C 
ATOM     17  C   UNL A   1      31.402  29.410  25.032  1.00  0.00     0.081 C 
BRANCH  16  18
ATOM     18  C   UNL A   1      29.998  29.099  22.976  1.00  0.00     0.047 A 
ATOM     19  C   UNL A   1      28.578  29.134  23.165  1.00  0.00     0.052 A 
ATOM     20  C   UNL A   1      30.204  29.767  21.781  1.00  0.00     0.204 A 
ATOM     21  C   UNL A   1      28.039  29.720  22.045  1.00  0.00     0.195 A 
ATOM     22  O   UNL A   1      29.026  30.118  21.206  1.00  0.00    -0.472 OA
ENDBRANCH  16  18
ENDBRANCH   9  16
ENDBRANCH   6   8
ENDBRANCH   3   6
ENDBRANCH   1   2
BRANCH   1  23
ATOM     23  C   UNL A   1      35.797  23.766  25.986  1.00  0.00     0.042 C 
BRANCH  23  24
ATOM     24  C   UNL A   1      36.965  23.692  25.013  1.00  0.00     0.118 C 
BRANCH  24  25
ATOM     25  N   UNL A   1      37.982  22.753  25.455  1.00  0.00    -0.352 N 
ATOM     26  C   UNL A   1      39.152  22.948  26.149  1.00  0.00     0.251 C 
ATOM     27  H   UNL A   1      37.800  21.815  25.218  1.00  0.00     0.163 HD
ATOM     28  O   UNL A   1      39.962  22.025  26.200  1.00  0.00    -0.269 OA
BRANCH  26  29
ATOM     29  C   UNL A   1      39.479  24.231  26.828  1.00  0.00     0.039 A 
ATOM     30  C   UNL A   1      40.200  25.198  26.113  1.00  0.00     0.014 A 
ATOM     31  C   UNL A   1      39.180  24.471  28.172  1.00  0.00     0.014 A 
ATOM     32  C   UNL A   1      40.584  26.398  26.726  1.00  0.00     0.010 A 
ATOM     33  C   UNL A   1      39.481  25.705  28.755  1.00  0.00     0.010 A 
ATOM     34  C   UNL A   1      40.209  26.673  28.049  1.00  0.00    -0.014 A 
BRANCH  34  35
ATOM     35  C   UNL A   1      40.611  27.938  28.724  1.00  0.00     0.031 A 
ATOM     36  C   UNL A   1      42.024  28.120  29.217  1.00  0.00     0.074 A 
ATOM     37  C   UNL A   1      39.699  28.905  28.947  1.00  0.00     0.049 A 
ATOM     38  N   UNL A   1      42.547  29.109  29.899  1.00  0.00    -0.248 NA
ATOM     39  C   UNL A   1      42.967  27.028  28.931  1.00  0.00     0.031 C 
ATOM     40  C   UNL A   1      38.289  28.843  28.563  1.00  0.00     0.029 A 
ATOM     41  N   UNL A   1      39.822  30.127  29.564  1.00  0.00    -0.354 N 
ATOM     42  C   UNL A   1      43.864  28.744  30.147  1.00  0.00     0.074 A 
ATOM     43  C   UNL A   1      44.049  27.425  29.585  1.00  0.00     0.031 C 
ATOM     44  C   UNL A   1      37.681  29.980  28.934  1.00  0.00     0.029 A 
ATOM     45  C   UNL A   1      38.649  30.839  29.613  1.00  0.00     0.049 A 
ATOM     46  H   UNL A   1      40.671  30.459  29.936  1.00  0.00     0.167 HD
ATOM     47  C   UNL A   1      44.839  29.452  30.767  1.00  0.00     0.037 A 
ATOM     48  C   UNL A   1      38.380  32.045  30.149  1.00  0.00     0.037 A 
ATOM     49  C   UNL A   1      44.672  30.784  31.286  1.00  0.00     0.049 A 
ATOM     50  C   UNL A   1      39.485  32.822  30.812  1.00  0.00     0.074 A 
ATOM     51  C   UNL A   1      45.618  31.613  31.862  1.00  0.00     0.029 A 
ATOM     52  N   UNL A   1      43.473  31.483  31.289  1.00  0.00    -0.354 N 
ATOM     53  N   UNL A   1      40.741  32.493  30.984  1.00  0.00    -0.248 NA
ATOM     54  C   UNL A   1      39.133  34.145  31.351  1.00  0.00     0.031 C 
ATOM     55  C   UNL A   1      44.984  32.800  32.249  1.00  0.00     0.029 A 
ATOM     56  C   UNL A   1      43.653  32.727  31.874  1.00  0.00     0.049 A 
ATOM     57  H   UNL A   1      42.621  31.146  30.929  1.00  0.00     0.167 HD
ATOM     58  C   UNL A   1      41.334  33.571  31.627  1.00  0.00     0.074 A 
ATOM     59  C   UNL A   1      40.303  34.573  31.802  1.00  0.00     0.031 C 
ATOM     60  C   UNL A   1      42.619  33.716  32.036  1.00  0.00     0.037 A 
BRANCH  47  61
ATOM     61  C   UNL A   1      46.184  28.798  30.916  1.00  0.00     0.064 A 
ATOM     62  C   UNL A   1      47.169  28.902  29.921  1.00  0.00     0.173 A 
ATOM     63  C   UNL A   1      46.502  28.080  32.079  1.00  0.00     0.173 A 
ATOM     64  F   UNL A   1      46.913  29.569  28.786  1.00  0.00    -0.203 F 
ATOM     65  C   UNL A   1      48.406  28.282  30.070  1.00  0.00     0.198 A 
ATOM     66  C   UNL A   1      47.752  27.487  32.237  1.00  0.00     0.198 A 
ATOM     67  F   UNL A   1      45.601  27.957  33.065  1.00  0.00    -0.203 F 
ATOM     68  F   UNL A   1      49.311  28.350  29.082  1.00  0.00    -0.200 F 
ATOM     69  C   UNL A   1      48.700  27.580  31.228  1.00  0.00     0.200 A 
ATOM     70  F   UNL A   1      48.038  26.821  33.364  1.00  0.00    -0.200 F 
ATOM     71  F   UNL A   1      49.892  26.986  31.372  1.00  0.00    -0.200 F 
ENDBRANCH  47  61
BRANCH  48  72
ATOM     72  C   UNL A   1      37.008  32.605  30.051  1.00  0.00     0.064 A 
ATOM     73  C   UNL A   1      36.098  32.464  31.109  1.00  0.00     0.173 A 
ATOM     74  C   UNL A   1      36.581  33.298  28.910  1.00  0.00     0.173 A 
ATOM     75  F   UNL A   1      36.453  31.789  32.211  1.00  0.00    -0.203 F 
ATOM     76  C   UNL A   1      34.808  32.986  31.023  1.00  0.00     0.198 A 
ATOM     77  C   UNL A   1      35.299  33.842  28.836  1.00  0.00     0.198 A 
ATOM     78  F   UNL A   1      37.415  33.462  27.873  1.00  0.00    -0.203 F 
ATOM     79  F   UNL A   1      33.948  32.805  32.034  1.00  0.00    -0.200 F 
ATOM     80  C   UNL A   1      34.413  33.680  29.890  1.00  0.00     0.200 A 
ATOM     81  F   UNL A   1      34.925  34.522  27.745  1.00  0.00    -0.200 F 
ATOM     82  F   UNL A   1      33.176  34.189  29.812  1.00  0.00    -0.200 F 
ENDBRANCH  48  72
BRANCH  60  83
ATOM     83  C   UNL A   1      42.990  35.016  32.688  1.00  0.00     0.064 A 
ATOM     84  C   UNL A   1      43.455  36.106  31.938  1.00  0.00     0.173 A 
ATOM     85  C   UNL A   1      42.838  35.185  34.072  1.00  0.00     0.173 A 
ATOM     86  F   UNL A   1      43.631  35.989  30.613  1.00  0.00    -0.203 F 
ATOM     87  C   UNL A   1      43.775  37.312  32.555  1.00  0.00     0.198 A 
ATOM     88  C   UNL A   1      43.134  36.401  34.682  1.00  0.00     0.198 A 
ATOM     89  F   UNL A   1      42.391  34.174  34.832  1.00  0.00    -0.203 F 
ATOM     90  F   UNL A   1      44.258  38.328  31.826  1.00  0.00    -0.200 F 
ATOM     91  C   UNL A   1      43.608  37.461  33.924  1.00  0.00     0.200 A 
ATOM     92  F   UNL A   1      42.962  36.547  36.003  1.00  0.00    -0.200 F 
ATOM     93  F   UNL A   1      43.911  38.625  34.515  1.00  0.00    -0.200 F 
ENDBRANCH  60  83
ENDBRANCH  34  35
ENDBRANCH  26  29
ENDBRANCH  24  25
ENDBRANCH  23  24
ENDBRANCH   1  23
TORSDOF 13
ENDMDL
MODEL 2
REMARK VINA RESULT:     -11.4      3.277      8.901
REMARK SMILES C[C@H](c1ccoc1)[NH+]1CC[NH+]([C@@H](C)C(=O)NCCCNC(=O)c2ccc(-c3c4nc(c(-c5c(F)c(F)c(F)c(F)c5F)c5ccc([nH]5)c(-c5c(F)c(F)c(F)c(F)c5F)c5nc(c(-c6c(F)c(F)c(F)c(F)c6F)c6ccc3[nH]6)C=C5)C=C4)cc2)CC1
REMARK SMILES IDX 17 1 16 2 14 3 15 4 12 6 13 7 11 8 8 9 9 10 87 11 10 13
REMARK SMILES IDX 86 14 2 16 1 17 3 18 4 19 7 20 5 21 6 22 18 23 19 24 20 25
REMARK SMILES IDX 21 26 22 28 23 29 24 30 85 31 25 32 84 33 26 34 27 35 28 36
REMARK SMILES IDX 78 37 29 38 83 39 77 40 79 41 30 42 82 43 76 44 75 45 31 47
REMARK SMILES IDX 63 48 43 49 62 50 44 51 47 52 61 53 80 54 45 55 46 56 60 58
REMARK SMILES IDX 81 59 48 60 32 61 33 62 41 63 34 64 35 65 39 66 42 67 36 68
REMARK SMILES IDX 37 69 40 70 38 71 64 72 65 73 73 74 66 75 67 76 71 77 74 78
REMARK SMILES IDX 68 79 69 80 72 81 70 82 49 83 50 84 58 85 51 86 52 87 56 88
REMARK SMILES IDX 59 89 53 90 54 91 57 92 55 93
REMARK H PARENT 16 5 8 12 11 15 20 27 79 46 47 57
REMARK Flexibility Score: inf
ROOT
ATOM      1  C   UNL A   1      33.185  28.331  24.593  1.00  0.00     0.118 C 
ENDROOT
BRANCH   1   2
ATOM      2  N   UNL A   1      33.548  27.706  23.325  1.00  0.00    -0.351 N 
ATOM      3  C   UNL A   1      33.270  26.506  22.730  1.00  0.00     0.278 C 
ATOM      4  O   UNL A   1      33.792  26.350  21.616  1.00  0.00    -0.268 OA
ATOM      5  H   UNL A   1      34.124  28.281  22.771  1.00  0.00     0.163 HD
BRANCH   3   6
ATOM      6  C   UNL A   1      32.380  25.362  23.331  1.00  0.00     0.271 C 
ATOM      7  C   UNL A   1      30.914  25.751  23.499  1.00  0.00     0.086 C 
BRANCH   6   8
ATOM      8  N   UNL A   1      33.074  24.590  24.388  1.00  0.00    -0.316 N 
ATOM      9  N   UNL A   1      33.782  21.670  23.992  1.00  0.00    -0.320 N 
ATOM     10  C   UNL A   1      32.432  22.212  24.050  1.00  0.00     0.325 C 
ATOM     11  C   UNL A   1      34.739  22.735  23.624  1.00  0.00     0.325 C 
ATOM     12  H   UNL A   1      33.779  20.988  23.234  1.00  0.00     0.348 HD
ATOM     13  C   UNL A   1      32.360  23.458  24.946  1.00  0.00     0.325 C 
ATOM     14  C   UNL A   1      34.473  24.190  24.148  1.00  0.00     0.325 C 
ATOM     15  H   UNL A   1      33.094  25.337  25.082  1.00  0.00     0.349 HD
BRANCH   9  16
ATOM     16  C   UNL A   1      34.198  20.738  25.060  1.00  0.00     0.215 C 
ATOM     17  C   UNL A   1      35.723  20.870  25.188  1.00  0.00     0.081 C 
BRANCH  16  18
ATOM     18  C   UNL A   1      33.804  19.294  24.836  1.00  0.00     0.047 A 
ATOM     19  C   UNL A   1      34.607  18.204  24.366  1.00  0.00     0.052 A 
ATOM     20  C   UNL A   1      32.554  18.737  25.044  1.00  0.00     0.204 A 
ATOM     21  C   UNL A   1      33.773  17.119  24.235  1.00  0.00     0.195 A 
ATOM     22  O   UNL A   1      32.526  17.436  24.659  1.00  0.00    -0.472 OA
ENDBRANCH  16  18
ENDBRANCH   9  16
ENDBRANCH   6   8
ENDBRANCH   3   6
ENDBRANCH   1   2
BRANCH   1  23
ATOM     23  C   UNL A   1      33.931  27.745  25.801  1.00  0.00     0.042 C 
BRANCH  23  24
ATOM     24  C   UNL A   1      33.387  28.158  27.160  1.00  0.00     0.118 C 
BRANCH  24  25
ATOM     25  N   UNL A   1      33.373  29.602  27.324  1.00  0.00    -0.352 N 
ATOM     26  C   UNL A   1      34.296  30.459  27.873  1.00  0.00     0.251 C 
ATOM     27  H   UNL A   1      32.562  30.042  26.981  1.00  0.00     0.163 HD
ATOM     28  O   UNL A   1      33.953  31.615  28.109  1.00  0.00    -0.269 OA
BRANCH  26  29
ATOM     29  C   UNL A   1      35.686  30.039  28.200  1.00  0.00     0.039 A 
ATOM     30  C   UNL A   1      35.953  29.569  29.494  1.00  0.00     0.014 A 
ATOM     31  C   UNL A   1      36.749  30.184  27.304  1.00  0.00     0.014 A 
ATOM     32  C   UNL A   1      37.255  29.218  29.871  1.00  0.00     0.010 A 
ATOM     33  C   UNL A   1      38.031  29.746  27.649  1.00  0.00     0.010 A 
ATOM     34  C   UNL A   1      38.306  29.283  28.944  1.00  0.00    -0.014 A 
BRANCH  34  35
ATOM     35  C   UNL A   1      39.699  28.921  29.322  1.00  0.00     0.031 A 
ATOM     36  C   UNL A   1      40.521  29.856  30.173  1.00  0.00     0.074 A 
ATOM     37  C   UNL A   1      40.252  27.783  28.859  1.00  0.00     0.049 A 
ATOM     38  N   UNL A   1      41.776  29.761  30.540  1.00  0.00    -0.248 NA
ATOM     39  C   UNL A   1      39.851  31.075  30.650  1.00  0.00     0.031 C 
ATOM     40  C   UNL A   1      39.587  26.811  27.993  1.00  0.00     0.029 A 
ATOM     41  N   UNL A   1      41.509  27.258  29.045  1.00  0.00    -0.354 N 
ATOM     42  C   UNL A   1      42.049  30.917  31.260  1.00  0.00     0.074 A 
ATOM     43  C   UNL A   1      40.846  31.720  31.241  1.00  0.00     0.031 C 
ATOM     44  C   UNL A   1      40.431  25.800  27.736  1.00  0.00     0.029 A 
ATOM     45  C   UNL A   1      41.709  26.066  28.392  1.00  0.00     0.049 A 
ATOM     46  H   UNL A   1      42.199  27.694  29.594  1.00  0.00     0.167 HD
ATOM     47  C   UNL A   1      43.190  31.270  31.901  1.00  0.00     0.037 A 
ATOM     48  C   UNL A   1      42.800  25.280  28.323  1.00  0.00     0.037 A 
ATOM     49  C   UNL A   1      44.373  30.452  31.962  1.00  0.00     0.049 A 
ATOM     50  C   UNL A   1      44.049  25.680  29.061  1.00  0.00     0.074 A 
ATOM     51  C   UNL A   1      45.552  30.686  32.649  1.00  0.00     0.029 A 
ATOM     52  N   UNL A   1      44.525  29.236  31.311  1.00  0.00    -0.354 N 
ATOM     53  N   UNL A   1      44.273  26.745  29.791  1.00  0.00    -0.248 NA
ATOM     54  C   UNL A   1      45.195  24.763  28.970  1.00  0.00     0.031 C 
ATOM     55  C   UNL A   1      46.432  29.630  32.382  1.00  0.00     0.029 A 
ATOM     56  C   UNL A   1      45.785  28.718  31.565  1.00  0.00     0.049 A 
ATOM     57  H   UNL A   1      43.840  28.805  30.751  1.00  0.00     0.167 HD
ATOM     58  C   UNL A   1      45.572  26.617  30.263  1.00  0.00     0.074 A 
ATOM     59  C   UNL A   1      46.083  25.363  29.751  1.00  0.00     0.031 C 
ATOM     60  C   UNL A   1      46.278  27.465  31.052  1.00  0.00     0.037 A 
BRANCH  47  61
ATOM     61  C   UNL A   1      43.214  32.603  32.594  1.00  0.00     0.064 A 
ATOM     62  C   UNL A   1      43.613  33.772  31.929  1.00  0.00     0.173 A 
ATOM     63  C   UNL A   1      42.807  32.717  33.931  1.00  0.00     0.173 A 
ATOM     64  F   UNL A   1      44.021  33.717  30.652  1.00  0.00    -0.203 F 
ATOM     65  C   UNL A   1      43.638  34.998  32.588  1.00  0.00     0.198 A 
ATOM     66  C   UNL A   1      42.804  33.950  34.578  1.00  0.00     0.198 A 
ATOM     67  F   UNL A   1      42.406  31.631  34.611  1.00  0.00    -0.203 F 
ATOM     68  F   UNL A   1      44.077  36.092  31.948  1.00  0.00    -0.200 F 
ATOM     69  C   UNL A   1      43.229  35.088  33.909  1.00  0.00     0.200 A 
ATOM     70  F   UNL A   1      42.395  34.036  35.852  1.00  0.00    -0.200 F 
ATOM     71  F   UNL A   1      43.251  36.269  34.541  1.00  0.00    -0.200 F 
ENDBRANCH  47  61
BRANCH  48  72
ATOM     72  C   UNL A   1      42.748  24.014  27.548  1.00  0.00     0.064 A 
ATOM     73  C   UNL A   1      43.035  24.001  26.175  1.00  0.00     0.173 A 
ATOM     74  C   UNL A   1      42.422  22.796  28.159  1.00  0.00     0.173 A 
ATOM     75  F   UNL A   1      43.329  25.145  25.542  1.00  0.00    -0.203 F 
ATOM     76  C   UNL A   1      42.986  22.817  25.441  1.00  0.00     0.198 A 
ATOM     77  C   UNL A   1      42.399  21.608  27.429  1.00  0.00     0.198 A 
ATOM     78  F   UNL A   1      42.142  22.755  29.469  1.00  0.00    -0.203 F 
ATOM     79  F   UNL A   1      43.229  22.839  24.124  1.00  0.00    -0.200 F 
ATOM     80  C   UNL A   1      42.675  21.621  26.070  1.00  0.00     0.200 A 
ATOM     81  F   UNL A   1      42.110  20.453  28.042  1.00  0.00    -0.200 F 
ATOM     82  F   UNL A   1      42.637  20.482  25.365  1.00  0.00    -0.200 F 
ENDBRANCH  48  72
BRANCH  60  83
ATOM     83  C   UNL A   1      47.669  27.052  31.433  1.00  0.00     0.064 A 
ATOM     84  C   UNL A   1      48.790  27.505  30.723  1.00  0.00     0.173 A 
ATOM     85  C   UNL A   1      47.884  26.228  32.548  1.00  0.00     0.173 A 
ATOM     86  F   UNL A   1      48.635  28.283  29.641  1.00  0.00    -0.203 F 
ATOM     87  C   UNL A   1      50.075  27.129  31.102  1.00  0.00     0.198 A 
ATOM     88  C   UNL A   1      49.173  25.876  32.940  1.00  0.00     0.198 A 
ATOM     89  F   UNL A   1      46.845  25.774  33.264  1.00  0.00    -0.203 F 
ATOM     90  F   UNL A   1      51.131  27.538  30.384  1.00  0.00    -0.200 F 
ATOM     91  C   UNL A   1      50.266  26.321  32.213  1.00  0.00     0.200 A 
ATOM     92  F   UNL A   1      49.356  25.105  34.021  1.00  0.00    -0.200 F 
ATOM     93  F   UNL A   1      51.506  25.966  32.580  1.00  0.00    -0.200 F 
ENDBRANCH  60  83
ENDBRANCH  34  35
ENDBRANCH  26  29
ENDBRANCH  24  25
ENDBRANCH  23  24
ENDBRANCH   1  23
TORSDOF 13
ENDMDL
MODEL 3
REMARK VINA RESULT:     -11.4      3.303      8.945
REMARK SMILES C[C@H](c1ccoc1)[NH+]1CC[NH+]([C@@H](C)C(=O)NCCCNC(=O)c2ccc(-c3c4nc(c(-c5c(F)c(F)c(F)c(F)c5F)c5ccc([nH]5)c(-c5c(F)c(F)c(F)c(F)c5F)c5nc(c(-c6c(F)c(F)c(F)c(F)c6F)c6ccc3[nH]6)C=C5)C=C4)cc2)CC1
REMARK SMILES IDX 17 1 16 2 14 3 15 4 12 6 13 7 11 8 8 9 9 10 87 11 10 13
REMARK SMILES IDX 86 14 2 16 1 17 3 18 4 19 7 20 5 21 6 22 18 23 19 24 20 25
REMARK SMILES IDX 21 26 22 28 23 29 24 30 85 31 25 32 84 33 26 34 27 35 28 36
REMARK SMILES IDX 78 37 29 38 83 39 77 40 79 41 30 42 82 43 76 44 75 45 31 47
REMARK SMILES IDX 63 48 43 49 62 50 44 51 47 52 61 53 80 54 45 55 46 56 60 58
REMARK SMILES IDX 81 59 48 60 32 61 33 62 41 63 34 64 35 65 39 66 42 67 36 68
REMARK SMILES IDX 37 69 40 70 38 71 64 72 65 73 73 74 66 75 67 76 71 77 74 78
REMARK SMILES IDX 68 79 69 80 72 81 70 82 49 83 50 84 58 85 51 86 52 87 56 88
REMARK SMILES IDX 59 89 53 90 54 91 57 92 55 93
REMARK H PARENT 16 5 8 12 11 15 20 27 79 46 47 57
REMARK Flexibility Score: inf
ROOT
ATOM      1  C   UNL A   1      33.375  28.596  24.654  1.00  0.00     0.118 C 
ENDROOT
BRANCH   1   2
ATOM      2  N   UNL A   1      33.725  28.000  23.369  1.00  0.00    -0.351 N 
ATOM      3  C   UNL A   1      33.337  26.876  22.693  1.00  0.00     0.278 C 
ATOM      4  O   UNL A   1      33.892  26.717  21.595  1.00  0.00    -0.268 OA
ATOM      5  H   UNL A   1      34.393  28.529  22.875  1.00  0.00     0.163 HD
BRANCH   3   6
ATOM      6  C   UNL A   1      32.287  25.819  23.185  1.00  0.00     0.271 C 
ATOM      7  C   UNL A   1      30.853  26.340  23.199  1.00  0.00     0.086 C 
BRANCH   6   8
ATOM      8  N   UNL A   1      32.792  24.988  24.305  1.00  0.00    -0.316 N 
ATOM      9  N   UNL A   1      33.167  21.997  23.996  1.00  0.00    -0.320 N 
ATOM     10  C   UNL A   1      31.893  22.700  23.934  1.00  0.00     0.325 C 
ATOM     11  C   UNL A   1      34.275  22.931  23.701  1.00  0.00     0.325 C 
ATOM     12  H   UNL A   1      33.143  21.306  23.246  1.00  0.00     0.348 HD
ATOM     13  C   UNL A   1      31.900  23.962  24.810  1.00  0.00     0.325 C 
ATOM     14  C   UNL A   1      34.146  24.417  24.188  1.00  0.00     0.325 C 
ATOM     15  H   UNL A   1      32.844  25.741  24.991  1.00  0.00     0.349 HD
BRANCH   9  16
ATOM     16  C   UNL A   1      33.375  21.042  25.103  1.00  0.00     0.215 C 
ATOM     17  C   UNL A   1      34.871  21.090  25.449  1.00  0.00     0.081 C 
BRANCH  16  18
ATOM     18  C   UNL A   1      32.939  19.622  24.811  1.00  0.00     0.047 A 
ATOM     19  C   UNL A   1      32.810  18.517  25.714  1.00  0.00     0.052 A 
ATOM     20  C   UNL A   1      32.576  19.106  23.580  1.00  0.00     0.204 A 
ATOM     21  C   UNL A   1      32.482  17.418  24.958  1.00  0.00     0.195 A 
ATOM     22  O   UNL A   1      32.325  17.775  23.660  1.00  0.00    -0.472 OA
ENDBRANCH  16  18
ENDBRANCH   9  16
ENDBRANCH   6   8
ENDBRANCH   3   6
ENDBRANCH   1   2
BRANCH   1  23
ATOM     23  C   UNL A   1      34.037  27.901  25.853  1.00  0.00     0.042 C 
BRANCH  23  24
ATOM     24  C   UNL A   1      33.465  28.273  27.213  1.00  0.00     0.118 C 
BRANCH  24  25
ATOM     25  N   UNL A   1      33.466  29.710  27.428  1.00  0.00    -0.352 N 
ATOM     26  C   UNL A   1      34.403  30.538  27.997  1.00  0.00     0.251 C 
ATOM     27  H   UNL A   1      32.655  30.169  27.110  1.00  0.00     0.163 HD
ATOM     28  O   UNL A   1      34.074  31.689  28.278  1.00  0.00    -0.269 OA
BRANCH  26  29
ATOM     29  C   UNL A   1      35.793  30.095  28.293  1.00  0.00     0.039 A 
ATOM     30  C   UNL A   1      36.081  29.627  29.583  1.00  0.00     0.014 A 
ATOM     31  C   UNL A   1      36.836  30.216  27.372  1.00  0.00     0.014 A 
ATOM     32  C   UNL A   1      37.386  29.254  29.930  1.00  0.00     0.010 A 
ATOM     33  C   UNL A   1      38.118  29.756  27.688  1.00  0.00     0.010 A 
ATOM     34  C   UNL A   1      38.415  29.295  28.978  1.00  0.00    -0.014 A 
BRANCH  34  35
ATOM     35  C   UNL A   1      39.811  28.910  29.325  1.00  0.00     0.031 A 
ATOM     36  C   UNL A   1      40.667  29.829  30.159  1.00  0.00     0.074 A 
ATOM     37  C   UNL A   1      40.334  27.763  28.850  1.00  0.00     0.049 A 
ATOM     38  N   UNL A   1      41.928  29.713  30.497  1.00  0.00    -0.248 NA
ATOM     39  C   UNL A   1      40.028  31.059  30.651  1.00  0.00     0.031 C 
ATOM     40  C   UNL A   1      39.634  26.802  27.997  1.00  0.00     0.029 A 
ATOM     41  N   UNL A   1      41.586  27.216  29.007  1.00  0.00    -0.354 N 
ATOM     42  C   UNL A   1      42.235  30.864  31.212  1.00  0.00     0.074 A 
ATOM     43  C   UNL A   1      41.046  31.687  31.220  1.00  0.00     0.031 C 
ATOM     44  C   UNL A   1      40.455  25.778  27.722  1.00  0.00     0.029 A 
ATOM     45  C   UNL A   1      41.751  26.022  28.349  1.00  0.00     0.049 A 
ATOM     46  H   UNL A   1      42.295  27.641  29.541  1.00  0.00     0.167 HD
ATOM     47  C   UNL A   1      43.397  31.197  31.827  1.00  0.00     0.037 A 
ATOM     48  C   UNL A   1      42.828  25.218  28.255  1.00  0.00     0.037 A 
ATOM     49  C   UNL A   1      44.566  30.359  31.862  1.00  0.00     0.049 A 
ATOM     50  C   UNL A   1      44.099  25.597  28.965  1.00  0.00     0.074 A 
ATOM     51  C   UNL A   1      45.764  30.574  32.522  1.00  0.00     0.029 A 
ATOM     52  N   UNL A   1      44.684  29.142  31.207  1.00  0.00    -0.354 N 
ATOM     53  N   UNL A   1      44.357  26.657  29.691  1.00  0.00    -0.248 NA
ATOM     54  C   UNL A   1      45.227  24.661  28.849  1.00  0.00     0.031 C 
ATOM     55  C   UNL A   1      46.620  29.503  32.235  1.00  0.00     0.029 A 
ATOM     56  C   UNL A   1      45.941  28.602  31.432  1.00  0.00     0.049 A 
ATOM     57  H   UNL A   1      43.979  28.723  30.662  1.00  0.00     0.167 HD
ATOM     58  C   UNL A   1      45.664  26.507  30.134  1.00  0.00     0.074 A 
ATOM     59  C   UNL A   1      46.142  25.245  29.610  1.00  0.00     0.031 C 
ATOM     60  C   UNL A   1      46.401  27.343  30.908  1.00  0.00     0.037 A 
BRANCH  47  61
ATOM     61  C   UNL A   1      43.458  32.529  32.520  1.00  0.00     0.064 A 
ATOM     62  C   UNL A   1      43.128  32.670  33.877  1.00  0.00     0.173 A 
ATOM     63  C   UNL A   1      43.877  33.674  31.826  1.00  0.00     0.173 A 
ATOM     64  F   UNL A   1      42.712  31.609  34.584  1.00  0.00    -0.203 F 
ATOM     65  C   UNL A   1      43.181  33.912  34.502  1.00  0.00     0.198 A 
ATOM     66  C   UNL A   1      43.958  34.910  32.462  1.00  0.00     0.198 A 
ATOM     67  F   UNL A   1      44.213  33.594  30.529  1.00  0.00    -0.203 F 
ATOM     68  F   UNL A   1      42.808  34.032  35.784  1.00  0.00    -0.200 F 
ATOM     69  C   UNL A   1      43.600  35.030  33.797  1.00  0.00     0.200 A 
ATOM     70  F   UNL A   1      44.377  35.986  31.783  1.00  0.00    -0.200 F 
ATOM     71  F   UNL A   1      43.653  36.225  34.401  1.00  0.00    -0.200 F 
ENDBRANCH  47  61
BRANCH  48  72
ATOM     72  C   UNL A   1      42.736  23.954  27.480  1.00  0.00     0.064 A 
ATOM     73  C   UNL A   1      42.288  22.771  28.087  1.00  0.00     0.173 A 
ATOM     74  C   UNL A   1      43.082  23.902  26.124  1.00  0.00     0.173 A 
ATOM     75  F   UNL A   1      41.968  22.767  29.389  1.00  0.00    -0.203 F 
ATOM     76  C   UNL A   1      42.201  21.581  27.367  1.00  0.00     0.198 A 
ATOM     77  C   UNL A   1      42.971  22.717  25.397  1.00  0.00     0.198 A 
ATOM     78  F   UNL A   1      43.514  25.006  25.497  1.00  0.00    -0.203 F 
ATOM     79  F   UNL A   1      41.804  20.458  27.980  1.00  0.00    -0.200 F 
ATOM     80  C   UNL A   1      42.535  21.557  26.022  1.00  0.00     0.200 A 
ATOM     81  F   UNL A   1      43.283  22.699  24.095  1.00  0.00    -0.200 F 
ATOM     82  F   UNL A   1      42.443  20.414  25.327  1.00  0.00    -0.200 F 
ENDBRANCH  48  72
BRANCH  60  83
ATOM     83  C   UNL A   1      47.793  26.906  31.257  1.00  0.00     0.064 A 
ATOM     84  C   UNL A   1      48.043  26.045  32.335  1.00  0.00     0.173 A 
ATOM     85  C   UNL A   1      48.884  27.320  30.478  1.00  0.00     0.173 A 
ATOM     86  F   UNL A   1      47.035  25.634  33.119  1.00  0.00    -0.203 F 
ATOM     87  C   UNL A   1      49.339  25.633  32.634  1.00  0.00     0.198 A 
ATOM     88  C   UNL A   1      50.174  26.884  30.763  1.00  0.00     0.198 A 
ATOM     89  F   UNL A   1      48.696  28.138  29.432  1.00  0.00    -0.203 F 
ATOM     90  F   UNL A   1      49.561  24.844  33.695  1.00  0.00    -0.200 F 
ATOM     91  C   UNL A   1      50.401  26.046  31.845  1.00  0.00     0.200 A 
ATOM     92  F   UNL A   1      51.199  27.275  29.993  1.00  0.00    -0.200 F 
ATOM     93  F   UNL A   1      51.648  25.642  32.131  1.00  0.00    -0.200 F 
ENDBRANCH  60  83
ENDBRANCH  34  35
ENDBRANCH  26  29
ENDBRANCH  24  25
ENDBRANCH  23  24
ENDBRANCH   1  23
TORSDOF 13
ENDMDL
