MODEL 1
REMARK VINA RESULT:     -12.0      0.000      0.000
REMARK SMILES CCCCCCNC(=O)Oc1cccc(-c2ccc([C@H](C)C(=O)NCCCNC(=O)c3ccc(-c4c5nc(c(-c6c(F)c(F)c(F)c(F)c6F)c6ccc([nH]6)c(-c6c(F)c(F)c(F)c(F)c6F)c6nc(c(-c7c(F)c(F)c(F)c(F)c7F)c7ccc4[nH]7)C=C6)C=C5)cc3)cc2F)c1
REMARK SMILES IDX 16 1 17 2 18 3 19 4 94 5 95 6 96 7 15 8 11 9 12 10 97 11
REMARK SMILES IDX 13 12 14 13 10 14 8 15 7 16 9 18 6 19 5 20 4 21 3 22 2 23
REMARK SMILES IDX 1 24 20 25 21 26 22 27 23 28 24 29 25 31 26 32 27 33 28 34
REMARK SMILES IDX 29 35 30 37 31 38 32 39 93 40 33 41 92 42 34 43 35 44 36 45
REMARK SMILES IDX 86 46 37 47 91 48 85 49 87 50 38 51 90 52 84 53 83 54 39 56
REMARK SMILES IDX 71 57 51 58 70 59 52 60 55 61 69 62 88 63 53 64 54 65 68 67
REMARK SMILES IDX 89 68 56 69 40 70 41 71 49 72 42 73 43 74 47 75 50 76 44 77
REMARK SMILES IDX 45 78 48 79 46 80 72 81 73 82 81 83 74 84 75 85 79 86 82 87
REMARK SMILES IDX 76 88 77 89 80 90 78 91 57 92 58 93 66 94 59 95 60 96 64 97
REMARK SMILES IDX 67 98 61 99 62 100 65 101 63 102
REMARK H PARENT 7 17 24 30 28 36 87 55 55 66
REMARK Flexibility Score: inf
ROOT
ATOM      1  C   UNL A   1      32.591  26.340  25.496  1.00  0.00     0.018 A 
ATOM      2  C   UNL A   1      33.855  25.865  25.116  1.00  0.00     0.012 A 
ATOM      3  C   UNL A   1      34.117  24.497  24.995  1.00  0.00     0.005 A 
ATOM      4  C   UNL A   1      33.149  23.539  25.325  1.00  0.00    -0.033 A 
ATOM      5  C   UNL A   1      31.864  24.003  25.632  1.00  0.00     0.044 A 
ATOM      6  C   UNL A   1      31.597  25.372  25.708  1.00  0.00     0.131 A 
ATOM      7  F   UNL A   1      30.341  25.740  26.011  1.00  0.00    -0.206 F 
ENDROOT
BRANCH   1   8
ATOM      8  C   UNL A   1      32.352  27.786  25.686  1.00  0.00    -0.012 A 
ATOM      9  C   UNL A   1      32.862  29.892  26.792  1.00  0.00     0.133 A 
ATOM     10  C   UNL A   1      31.936  30.570  26.005  1.00  0.00     0.047 A 
ATOM     11  C   UNL A   1      33.068  28.519  26.647  1.00  0.00     0.056 A 
ATOM     12  C   UNL A   1      31.219  29.865  25.046  1.00  0.00     0.004 A 
ATOM     13  C   UNL A   1      31.423  28.488  24.893  1.00  0.00     0.009 A 
BRANCH   9  14
ATOM     14  O   UNL A   1      33.486  30.614  27.818  1.00  0.00    -0.410 OA
BRANCH  14  15
ATOM     15  C   UNL A   1      34.794  31.023  27.614  1.00  0.00     0.412 C 
ATOM     16  N   UNL A   1      34.959  32.372  27.750  1.00  0.00    -0.321 N 
ATOM     17  H   UNL A   1      35.865  32.725  27.589  1.00  0.00     0.167 HD
ATOM     18  O   UNL A   1      35.744  30.298  27.328  1.00  0.00    -0.224 OA
BRANCH  16  19
ATOM     19  C   UNL A   1      33.938  33.337  28.106  1.00  0.00     0.119 C 
BRANCH  19  20
ATOM     20  C   UNL A   1      34.504  34.485  28.942  1.00  0.00     0.021 C 
BRANCH  20  21
ATOM     21  C   UNL A   1      33.449  35.388  29.593  1.00  0.00     0.002 C 
BRANCH  21  22
ATOM     22  C   UNL A   1      33.345  35.289  31.119  1.00  0.00    -0.000 C 
BRANCH  22  23
ATOM     23  C   UNL A   1      34.382  34.386  31.792  1.00  0.00    -0.003 C 
ATOM     24  C   UNL A   1      35.302  35.132  32.744  1.00  0.00     0.004 C 
ENDBRANCH  22  23
ENDBRANCH  21  22
ENDBRANCH  20  21
ENDBRANCH  19  20
ENDBRANCH  16  19
ENDBRANCH  14  15
ENDBRANCH   9  14
ENDBRANCH   1   8
BRANCH   4  25
ATOM     25  C   UNL A   1      33.448  22.043  25.364  1.00  0.00     0.105 C 
ATOM     26  C   UNL A   1      32.189  21.161  25.407  1.00  0.00     0.023 C 
BRANCH  25  27
ATOM     27  C   UNL A   1      34.428  21.590  26.447  1.00  0.00     0.227 C 
ATOM     28  O   UNL A   1      34.074  21.496  27.626  1.00  0.00    -0.274 OA
ATOM     29  N   UNL A   1      35.728  21.295  26.159  1.00  0.00    -0.356 N 
ATOM     30  H   UNL A   1      36.307  21.146  26.942  1.00  0.00     0.163 HD
BRANCH  29  31
ATOM     31  C   UNL A   1      36.386  21.166  24.870  1.00  0.00     0.117 C 
BRANCH  31  32
ATOM     32  C   UNL A   1      37.644  20.320  24.947  1.00  0.00     0.042 C 
BRANCH  32  33
ATOM     33  C   UNL A   1      38.846  21.062  25.513  1.00  0.00     0.118 C 
BRANCH  33  34
ATOM     34  N   UNL A   1      39.715  20.218  26.326  1.00  0.00    -0.352 N 
ATOM     35  C   UNL A   1      40.755  20.570  27.151  1.00  0.00     0.251 C 
ATOM     36  H   UNL A   1      39.527  19.253  26.276  1.00  0.00     0.163 HD
ATOM     37  O   UNL A   1      41.467  19.707  27.653  1.00  0.00    -0.269 OA
BRANCH  35  38
ATOM     38  C   UNL A   1      41.032  21.997  27.410  1.00  0.00     0.039 A 
ATOM     39  C   UNL A   1      41.882  22.346  28.462  1.00  0.00     0.014 A 
ATOM     40  C   UNL A   1      40.479  22.987  26.594  1.00  0.00     0.014 A 
ATOM     41  C   UNL A   1      42.240  23.683  28.645  1.00  0.00     0.010 A 
ATOM     42  C   UNL A   1      40.912  24.300  26.716  1.00  0.00     0.010 A 
ATOM     43  C   UNL A   1      41.794  24.663  27.745  1.00  0.00    -0.014 A 
BRANCH  43  44
ATOM     44  C   UNL A   1      42.218  26.081  27.862  1.00  0.00     0.031 A 
ATOM     45  C   UNL A   1      43.528  26.519  27.270  1.00  0.00     0.074 A 
ATOM     46  C   UNL A   1      41.471  26.948  28.574  1.00  0.00     0.049 A 
ATOM     47  N   UNL A   1      44.137  27.673  27.365  1.00  0.00    -0.248 NA
ATOM     48  C   UNL A   1      44.273  25.510  26.498  1.00  0.00     0.031 C 
ATOM     49  C   UNL A   1      40.208  26.631  29.242  1.00  0.00     0.029 A 
ATOM     50  N   UNL A   1      41.676  28.274  28.865  1.00  0.00    -0.354 N 
ATOM     51  C   UNL A   1      45.341  27.519  26.692  1.00  0.00     0.074 A 
ATOM     52  C   UNL A   1      45.405  26.147  26.240  1.00  0.00     0.031 C 
ATOM     53  C   UNL A   1      39.739  27.736  29.844  1.00  0.00     0.029 A 
ATOM     54  C   UNL A   1      40.686  28.827  29.638  1.00  0.00     0.049 A 
ATOM     55  H   UNL A   1      42.460  28.780  28.549  1.00  0.00     0.167 HD
ATOM     56  C   UNL A   1      46.297  28.447  26.447  1.00  0.00     0.037 A 
ATOM     57  C   UNL A   1      40.561  30.074  30.132  1.00  0.00     0.037 A 
ATOM     58  C   UNL A   1      46.210  29.823  26.859  1.00  0.00     0.049 A 
ATOM     59  C   UNL A   1      41.628  31.091  29.830  1.00  0.00     0.074 A 
ATOM     60  C   UNL A   1      47.093  30.858  26.605  1.00  0.00     0.029 A 
ATOM     61  N   UNL A   1      45.172  30.355  27.608  1.00  0.00    -0.354 N 
ATOM     62  N   UNL A   1      42.734  30.950  29.140  1.00  0.00    -0.248 NA
ATOM     63  C   UNL A   1      41.427  32.442  30.371  1.00  0.00     0.031 C 
ATOM     64  C   UNL A   1      46.605  32.009  27.230  1.00  0.00     0.029 A 
ATOM     65  C   UNL A   1      45.399  31.702  27.837  1.00  0.00     0.049 A 
ATOM     66  H   UNL A   1      44.390  29.851  27.930  1.00  0.00     0.167 HD
ATOM     67  C   UNL A   1      43.344  32.197  29.139  1.00  0.00     0.074 A 
ATOM     68  C   UNL A   1      42.479  33.086  29.887  1.00  0.00     0.031 C 
ATOM     69  C   UNL A   1      44.517  32.572  28.572  1.00  0.00     0.037 A 
BRANCH  56  70
ATOM     70  C   UNL A   1      47.513  28.004  25.687  1.00  0.00     0.064 A 
ATOM     71  C   UNL A   1      47.492  27.845  24.293  1.00  0.00     0.173 A 
ATOM     72  C   UNL A   1      48.723  27.763  26.356  1.00  0.00     0.173 A 
ATOM     73  F   UNL A   1      46.356  28.049  23.608  1.00  0.00    -0.203 F 
ATOM     74  C   UNL A   1      48.625  27.429  23.601  1.00  0.00     0.198 A 
ATOM     75  C   UNL A   1      49.863  27.376  25.656  1.00  0.00     0.198 A 
ATOM     76  F   UNL A   1      48.800  27.904  27.688  1.00  0.00    -0.203 F 
ATOM     77  F   UNL A   1      48.565  27.232  22.277  1.00  0.00    -0.200 F 
ATOM     78  C   UNL A   1      49.812  27.202  24.282  1.00  0.00     0.200 A 
ATOM     79  F   UNL A   1      51.013  27.169  26.314  1.00  0.00    -0.200 F 
ATOM     80  F   UNL A   1      50.904  26.807  23.613  1.00  0.00    -0.200 F 
ENDBRANCH  56  70
BRANCH  57  81
ATOM     81  C   UNL A   1      39.366  30.441  30.935  1.00  0.00     0.064 A 
ATOM     82  C   UNL A   1      38.249  31.030  30.328  1.00  0.00     0.173 A 
ATOM     83  C   UNL A   1      39.316  30.218  32.318  1.00  0.00     0.173 A 
ATOM     84  F   UNL A   1      38.258  31.282  29.011  1.00  0.00    -0.203 F 
ATOM     85  C   UNL A   1      37.135  31.404  31.077  1.00  0.00     0.198 A 
ATOM     86  C   UNL A   1      38.190  30.567  33.062  1.00  0.00     0.198 A 
ATOM     87  F   UNL A   1      40.357  29.652  32.946  1.00  0.00    -0.203 F 
ATOM     88  F   UNL A   1      36.099  32.007  30.478  1.00  0.00    -0.200 F 
ATOM     89  C   UNL A   1      37.104  31.166  32.443  1.00  0.00     0.200 A 
ATOM     90  F   UNL A   1      38.159  30.325  34.380  1.00  0.00    -0.200 F 
ATOM     91  F   UNL A   1      36.032  31.523  33.162  1.00  0.00    -0.200 F 
ENDBRANCH  57  81
BRANCH  69  92
ATOM     92  C   UNL A   1      44.912  34.013  28.702  1.00  0.00     0.064 A 
ATOM     93  C   UNL A   1      45.737  34.457  29.745  1.00  0.00     0.173 A 
ATOM     94  C   UNL A   1      44.496  34.951  27.745  1.00  0.00     0.173 A 
ATOM     95  F   UNL A   1      46.149  33.601  30.692  1.00  0.00    -0.203 F 
ATOM     96  C   UNL A   1      46.113  35.795  29.838  1.00  0.00     0.198 A 
ATOM     97  C   UNL A   1      44.896  36.281  27.826  1.00  0.00     0.198 A 
ATOM     98  F   UNL A   1      43.711  34.573  26.726  1.00  0.00    -0.203 F 
ATOM     99  F   UNL A   1      46.867  36.207  30.867  1.00  0.00    -0.200 F 
ATOM    100  C   UNL A   1      45.699  36.703  28.874  1.00  0.00     0.200 A 
ATOM    101  F   UNL A   1      44.506  37.154  26.888  1.00  0.00    -0.200 F 
ATOM    102  F   UNL A   1      46.068  37.988  28.962  1.00  0.00    -0.200 F 
ENDBRANCH  69  92
ENDBRANCH  43  44
ENDBRANCH  35  38
ENDBRANCH  33  34
ENDBRANCH  32  33
ENDBRANCH  31  32
ENDBRANCH  29  31
ENDBRANCH  25  27
ENDBRANCH   4  25
TORSDOF 19
ENDMDL
MODEL 2
REMARK VINA RESULT:     -11.9      3.639      6.569
REMARK SMILES CCCCCCNC(=O)Oc1cccc(-c2ccc([C@H](C)C(=O)NCCCNC(=O)c3ccc(-c4c5nc(c(-c6c(F)c(F)c(F)c(F)c6F)c6ccc([nH]6)c(-c6c(F)c(F)c(F)c(F)c6F)c6nc(c(-c7c(F)c(F)c(F)c(F)c7F)c7ccc4[nH]7)C=C6)C=C5)cc3)cc2F)c1
REMARK SMILES IDX 16 1 17 2 18 3 19 4 94 5 95 6 96 7 15 8 11 9 12 10 97 11
REMARK SMILES IDX 13 12 14 13 10 14 8 15 7 16 9 18 6 19 5 20 4 21 3 22 2 23
REMARK SMILES IDX 1 24 20 25 21 26 22 27 23 28 24 29 25 31 26 32 27 33 28 34
REMARK SMILES IDX 29 35 30 37 31 38 32 39 93 40 33 41 92 42 34 43 35 44 36 45
REMARK SMILES IDX 86 46 37 47 91 48 85 49 87 50 38 51 90 52 84 53 83 54 39 56
REMARK SMILES IDX 71 57 51 58 70 59 52 60 55 61 69 62 88 63 53 64 54 65 68 67
REMARK SMILES IDX 89 68 56 69 40 70 41 71 49 72 42 73 43 74 47 75 50 76 44 77
REMARK SMILES IDX 45 78 48 79 46 80 72 81 73 82 81 83 74 84 75 85 79 86 82 87
REMARK SMILES IDX 76 88 77 89 80 90 78 91 57 92 58 93 66 94 59 95 60 96 64 97
REMARK SMILES IDX 67 98 61 99 62 100 65 101 63 102
REMARK H PARENT 7 17 24 30 28 36 87 55 55 66
REMARK Flexibility Score: inf
ROOT
ATOM      1  C   UNL A   1      44.429  24.770  30.149  1.00  0.00     0.018 A 
ATOM      2  C   UNL A   1      43.382  24.045  29.559  1.00  0.00     0.012 A 
ATOM      3  C   UNL A   1      43.556  23.359  28.353  1.00  0.00     0.005 A 
ATOM      4  C   UNL A   1      44.761  23.433  27.641  1.00  0.00    -0.033 A 
ATOM      5  C   UNL A   1      45.832  24.092  28.258  1.00  0.00     0.044 A 
ATOM      6  C   UNL A   1      45.664  24.738  29.485  1.00  0.00     0.131 A 
ATOM      7  F   UNL A   1      46.737  25.350  30.012  1.00  0.00    -0.206 F 
ENDROOT
BRANCH   1   8
ATOM      8  C   UNL A   1      44.207  25.546  31.387  1.00  0.00    -0.012 A 
ATOM      9  C   UNL A   1      43.435  27.555  32.522  1.00  0.00     0.133 A 
ATOM     10  C   UNL A   1      43.725  27.006  33.767  1.00  0.00     0.047 A 
ATOM     11  C   UNL A   1      43.677  26.847  31.343  1.00  0.00     0.056 A 
ATOM     12  C   UNL A   1      44.246  25.720  33.833  1.00  0.00     0.004 A 
ATOM     13  C   UNL A   1      44.488  25.002  32.656  1.00  0.00     0.009 A 
BRANCH   9  14
ATOM     14  O   UNL A   1      43.012  28.891  32.489  1.00  0.00    -0.410 OA
BRANCH  14  15
ATOM     15  C   UNL A   1      41.650  29.133  32.420  1.00  0.00     0.412 C 
ATOM     16  N   UNL A   1      41.264  30.228  33.141  1.00  0.00    -0.321 N 
ATOM     17  H   UNL A   1      40.301  30.433  33.150  1.00  0.00     0.167 HD
ATOM     18  O   UNL A   1      40.825  28.463  31.803  1.00  0.00    -0.224 OA
BRANCH  16  19
ATOM     19  C   UNL A   1      42.127  31.117  33.891  1.00  0.00     0.119 C 
BRANCH  19  20
ATOM     20  C   UNL A   1      41.560  32.535  33.967  1.00  0.00     0.021 C 
BRANCH  20  21
ATOM     21  C   UNL A   1      40.153  32.633  34.571  1.00  0.00     0.002 C 
BRANCH  21  22
ATOM     22  C   UNL A   1      39.508  34.022  34.521  1.00  0.00    -0.000 C 
BRANCH  22  23
ATOM     23  C   UNL A   1      38.182  34.157  35.274  1.00  0.00    -0.003 C 
ATOM     24  C   UNL A   1      37.810  32.914  36.066  1.00  0.00     0.004 C 
ENDBRANCH  22  23
ENDBRANCH  21  22
ENDBRANCH  20  21
ENDBRANCH  19  20
ENDBRANCH  16  19
ENDBRANCH  14  15
ENDBRANCH   9  14
ENDBRANCH   1   8
BRANCH   4  25
ATOM     25  C   UNL A   1      44.934  22.837  26.247  1.00  0.00     0.105 C 
ATOM     26  C   UNL A   1      46.139  23.403  25.477  1.00  0.00     0.023 C 
BRANCH  25  27
ATOM     27  C   UNL A   1      43.694  22.869  25.353  1.00  0.00     0.227 C 
ATOM     28  O   UNL A   1      43.442  23.851  24.649  1.00  0.00    -0.274 OA
ATOM     29  N   UNL A   1      42.811  21.830  25.315  1.00  0.00    -0.356 N 
ATOM     30  H   UNL A   1      41.980  22.005  24.816  1.00  0.00     0.163 HD
BRANCH  29  31
ATOM     31  C   UNL A   1      42.912  20.505  25.902  1.00  0.00     0.117 C 
BRANCH  31  32
ATOM     32  C   UNL A   1      41.942  20.306  27.052  1.00  0.00     0.042 C 
BRANCH  32  33
ATOM     33  C   UNL A   1      41.081  21.526  27.342  1.00  0.00     0.118 C 
BRANCH  33  34
ATOM     34  N   UNL A   1      39.837  21.551  26.580  1.00  0.00    -0.352 N 
ATOM     35  C   UNL A   1      38.994  22.602  26.314  1.00  0.00     0.251 C 
ATOM     36  H   UNL A   1      39.562  20.685  26.201  1.00  0.00     0.163 HD
ATOM     37  O   UNL A   1      37.912  22.405  25.769  1.00  0.00    -0.269 OA
BRANCH  35  38
ATOM     38  C   UNL A   1      39.380  23.969  26.715  1.00  0.00     0.039 A 
ATOM     39  C   UNL A   1      39.121  24.395  28.020  1.00  0.00     0.014 A 
ATOM     40  C   UNL A   1      40.025  24.818  25.813  1.00  0.00     0.014 A 
ATOM     41  C   UNL A   1      39.582  25.643  28.443  1.00  0.00     0.010 A 
ATOM     42  C   UNL A   1      40.568  26.015  26.262  1.00  0.00     0.010 A 
ATOM     43  C   UNL A   1      40.349  26.442  27.580  1.00  0.00    -0.014 A 
BRANCH  43  44
ATOM     44  C   UNL A   1      40.922  27.739  28.020  1.00  0.00     0.031 A 
ATOM     45  C   UNL A   1      42.408  27.954  27.963  1.00  0.00     0.074 A 
ATOM     46  C   UNL A   1      40.119  28.682  28.551  1.00  0.00     0.049 A 
ATOM     47  N   UNL A   1      43.118  28.959  28.409  1.00  0.00    -0.248 NA
ATOM     48  C   UNL A   1      43.208  26.878  27.355  1.00  0.00     0.031 C 
ATOM     49  C   UNL A   1      38.668  28.569  28.711  1.00  0.00     0.029 A 
ATOM     50  N   UNL A   1      40.414  29.918  29.069  1.00  0.00    -0.354 N 
ATOM     51  C   UNL A   1      44.442  28.623  28.161  1.00  0.00     0.074 A 
ATOM     52  C   UNL A   1      44.444  27.300  27.577  1.00  0.00     0.031 C 
ATOM     53  C   UNL A   1      38.198  29.698  29.265  1.00  0.00     0.029 A 
ATOM     54  C   UNL A   1      39.315  30.597  29.535  1.00  0.00     0.049 A 
ATOM     55  H   UNL A   1      41.328  30.283  29.103  1.00  0.00     0.167 HD
ATOM     56  C   UNL A   1      45.556  29.363  28.376  1.00  0.00     0.037 A 
ATOM     57  C   UNL A   1      39.223  31.806  30.121  1.00  0.00     0.037 A 
ATOM     58  C   UNL A   1      45.548  30.696  28.916  1.00  0.00     0.049 A 
ATOM     59  C   UNL A   1      40.474  32.615  30.330  1.00  0.00     0.074 A 
ATOM     60  C   UNL A   1      46.614  31.555  29.111  1.00  0.00     0.029 A 
ATOM     61  N   UNL A   1      44.410  31.365  29.340  1.00  0.00    -0.354 N 
ATOM     62  N   UNL A   1      41.715  32.312  30.037  1.00  0.00    -0.248 NA
ATOM     63  C   UNL A   1      40.311  33.938  30.949  1.00  0.00     0.031 C 
ATOM     64  C   UNL A   1      46.126  32.732  29.686  1.00  0.00     0.029 A 
ATOM     65  C   UNL A   1      44.750  32.623  29.810  1.00  0.00     0.049 A 
ATOM     66  H   UNL A   1      43.495  31.001  29.312  1.00  0.00     0.167 HD
ATOM     67  C   UNL A   1      42.475  33.414  30.406  1.00  0.00     0.074 A 
ATOM     68  C   UNL A   1      41.553  34.398  30.934  1.00  0.00     0.031 C 
ATOM     69  C   UNL A   1      43.815  33.593  30.318  1.00  0.00     0.037 A 
BRANCH  56  70
ATOM     70  C   UNL A   1      46.876  28.747  28.012  1.00  0.00     0.064 A 
ATOM     71  C   UNL A   1      47.358  28.766  26.695  1.00  0.00     0.173 A 
ATOM     72  C   UNL A   1      47.682  28.156  28.997  1.00  0.00     0.173 A 
ATOM     73  F   UNL A   1      46.620  29.306  25.714  1.00  0.00    -0.203 F 
ATOM     74  C   UNL A   1      48.582  28.187  26.370  1.00  0.00     0.198 A 
ATOM     75  C   UNL A   1      48.919  27.605  28.674  1.00  0.00     0.198 A 
ATOM     76  F   UNL A   1      47.271  28.114  30.274  1.00  0.00    -0.203 F 
ATOM     77  F   UNL A   1      48.996  28.171  25.096  1.00  0.00    -0.200 F 
ATOM     78  C   UNL A   1      49.365  27.614  27.361  1.00  0.00     0.200 A 
ATOM     79  F   UNL A   1      49.681  27.061  29.634  1.00  0.00    -0.200 F 
ATOM     80  F   UNL A   1      50.546  27.062  27.048  1.00  0.00    -0.200 F 
ENDBRANCH  56  70
BRANCH  57  81
ATOM     81  C   UNL A   1      37.895  32.339  30.521  1.00  0.00     0.064 A 
ATOM     82  C   UNL A   1      37.149  33.135  29.641  1.00  0.00     0.173 A 
ATOM     83  C   UNL A   1      37.350  32.074  31.785  1.00  0.00     0.173 A 
ATOM     84  F   UNL A   1      37.638  33.433  28.429  1.00  0.00    -0.203 F 
ATOM     85  C   UNL A   1      35.915  33.663  30.018  1.00  0.00     0.198 A 
ATOM     86  C   UNL A   1      36.104  32.581  32.151  1.00  0.00     0.198 A 
ATOM     87  F   UNL A   1      38.022  31.314  32.662  1.00  0.00    -0.203 F 
ATOM     88  F   UNL A   1      35.243  34.458  29.174  1.00  0.00    -0.200 F 
ATOM     89  C   UNL A   1      35.391  33.381  31.270  1.00  0.00     0.200 A 
ATOM     90  F   UNL A   1      35.595  32.296  33.358  1.00  0.00    -0.200 F 
ATOM     91  F   UNL A   1      34.204  33.887  31.631  1.00  0.00    -0.200 F 
ENDBRANCH  57  81
BRANCH  69  92
ATOM     92  C   UNL A   1      44.361  34.916  30.764  1.00  0.00     0.064 A 
ATOM     93  C   UNL A   1      44.802  35.125  32.079  1.00  0.00     0.173 A 
ATOM     94  C   UNL A   1      44.485  35.975  29.851  1.00  0.00     0.173 A 
ATOM     95  F   UNL A   1      44.689  34.148  32.991  1.00  0.00    -0.203 F 
ATOM     96  C   UNL A   1      45.327  36.353  32.470  1.00  0.00     0.198 A 
ATOM     97  C   UNL A   1      45.037  37.193  30.239  1.00  0.00     0.198 A 
ATOM     98  F   UNL A   1      44.083  35.823  28.581  1.00  0.00    -0.203 F 
ATOM     99  F   UNL A   1      45.702  36.545  33.742  1.00  0.00    -0.200 F 
ATOM    100  C   UNL A   1      45.451  37.383  31.548  1.00  0.00     0.200 A 
ATOM    101  F   UNL A   1      45.167  38.182  29.345  1.00  0.00    -0.200 F 
ATOM    102  F   UNL A   1      45.963  38.562  31.926  1.00  0.00    -0.200 F 
ENDBRANCH  69  92
ENDBRANCH  43  44
ENDBRANCH  35  38
ENDBRANCH  33  34
ENDBRANCH  32  33
ENDBRANCH  31  32
ENDBRANCH  29  31
ENDBRANCH  25  27
ENDBRANCH   4  25
TORSDOF 19
ENDMDL
MODEL 3
REMARK VINA RESULT:     -11.7      3.802      7.447
REMARK SMILES CCCCCCNC(=O)Oc1cccc(-c2ccc([C@H](C)C(=O)NCCCNC(=O)c3ccc(-c4c5nc(c(-c6c(F)c(F)c(F)c(F)c6F)c6ccc([nH]6)c(-c6c(F)c(F)c(F)c(F)c6F)c6nc(c(-c7c(F)c(F)c(F)c(F)c7F)c7ccc4[nH]7)C=C6)C=C5)cc3)cc2F)c1
REMARK SMILES IDX 16 1 17 2 18 3 19 4 94 5 95 6 96 7 15 8 11 9 12 10 97 11
REMARK SMILES IDX 13 12 14 13 10 14 8 15 7 16 9 18 6 19 5 20 4 21 3 22 2 23
REMARK SMILES IDX 1 24 20 25 21 26 22 27 23 28 24 29 25 31 26 32 27 33 28 34
REMARK SMILES IDX 29 35 30 37 31 38 32 39 93 40 33 41 92 42 34 43 35 44 36 45
REMARK SMILES IDX 86 46 37 47 91 48 85 49 87 50 38 51 90 52 84 53 83 54 39 56
REMARK SMILES IDX 71 57 51 58 70 59 52 60 55 61 69 62 88 63 53 64 54 65 68 67
REMARK SMILES IDX 89 68 56 69 40 70 41 71 49 72 42 73 43 74 47 75 50 76 44 77
REMARK SMILES IDX 45 78 48 79 46 80 72 81 73 82 81 83 74 84 75 85 79 86 82 87
REMARK SMILES IDX 76 88 77 89 80 90 78 91 57 92 58 93 66 94 59 95 60 96 64 97
REMARK SMILES IDX 67 98 61 99 62 100 65 101 63 102
REMARK H PARENT 7 17 24 30 28 36 87 55 55 66
REMARK Flexibility Score: inf
ROOT
ATOM      1  C   UNL A   1      45.176  24.688  30.129  1.00  0.00     0.018 A 
ATOM      2  C   UNL A   1      46.124  24.983  29.137  1.00  0.00     0.012 A 
ATOM      3  C   UNL A   1      46.028  24.444  27.850  1.00  0.00     0.005 A 
ATOM      4  C   UNL A   1      45.025  23.523  27.520  1.00  0.00    -0.033 A 
ATOM      5  C   UNL A   1      44.033  23.282  28.478  1.00  0.00     0.044 A 
ATOM      6  C   UNL A   1      44.111  23.857  29.749  1.00  0.00     0.131 A 
ATOM      7  F   UNL A   1      43.123  23.576  30.615  1.00  0.00    -0.206 F 
ENDROOT
BRANCH   1   8
ATOM      8  C   UNL A   1      45.331  25.210  31.503  1.00  0.00    -0.012 A 
ATOM      9  C   UNL A   1      44.432  26.359  33.450  1.00  0.00     0.133 A 
ATOM     10  C   UNL A   1      45.610  26.154  34.160  1.00  0.00     0.047 A 
ATOM     11  C   UNL A   1      44.288  25.905  32.138  1.00  0.00     0.056 A 
ATOM     12  C   UNL A   1      46.654  25.466  33.552  1.00  0.00     0.004 A 
ATOM     13  C   UNL A   1      46.516  25.004  32.238  1.00  0.00     0.009 A 
BRANCH   9  14
ATOM     14  O   UNL A   1      43.444  27.148  34.055  1.00  0.00    -0.410 OA
BRANCH  14  15
ATOM     15  C   UNL A   1      42.402  26.496  34.694  1.00  0.00     0.412 C 
ATOM     16  N   UNL A   1      41.337  27.314  34.950  1.00  0.00    -0.321 N 
ATOM     17  H   UNL A   1      40.576  26.911  35.427  1.00  0.00     0.167 HD
ATOM     18  O   UNL A   1      42.383  25.315  35.029  1.00  0.00    -0.224 OA
BRANCH  16  19
ATOM     19  C   UNL A   1      41.215  28.712  34.590  1.00  0.00     0.119 C 
BRANCH  19  20
ATOM     20  C   UNL A   1      40.869  28.894  33.112  1.00  0.00     0.021 C 
BRANCH  20  21
ATOM     21  C   UNL A   1      41.181  30.284  32.544  1.00  0.00     0.002 C 
BRANCH  21  22
ATOM     22  C   UNL A   1      41.085  31.443  33.542  1.00  0.00    -0.000 C 
BRANCH  22  23
ATOM     23  C   UNL A   1      39.664  31.847  33.944  1.00  0.00    -0.003 C 
ATOM     24  C   UNL A   1      39.521  33.332  34.236  1.00  0.00     0.004 C 
ENDBRANCH  22  23
ENDBRANCH  21  22
ENDBRANCH  20  21
ENDBRANCH  19  20
ENDBRANCH  16  19
ENDBRANCH  14  15
ENDBRANCH   9  14
ENDBRANCH   1   8
BRANCH   4  25
ATOM     25  C   UNL A   1      44.985  22.792  26.181  1.00  0.00     0.105 C 
ATOM     26  C   UNL A   1      46.196  23.086  25.279  1.00  0.00     0.023 C 
BRANCH  25  27
ATOM     27  C   UNL A   1      43.696  22.952  25.375  1.00  0.00     0.227 C 
ATOM     28  O   UNL A   1      43.503  23.949  24.675  1.00  0.00    -0.274 OA
ATOM     29  N   UNL A   1      42.706  22.015  25.414  1.00  0.00    -0.356 N 
ATOM     30  H   UNL A   1      41.865  22.274  24.971  1.00  0.00     0.163 HD
BRANCH  29  31
ATOM     31  C   UNL A   1      42.705  20.690  26.012  1.00  0.00     0.117 C 
BRANCH  31  32
ATOM     32  C   UNL A   1      41.360  20.330  26.617  1.00  0.00     0.042 C 
BRANCH  32  33
ATOM     33  C   UNL A   1      40.612  21.522  27.196  1.00  0.00     0.118 C 
BRANCH  33  34
ATOM     34  N   UNL A   1      39.374  21.826  26.487  1.00  0.00    -0.352 N 
ATOM     35  C   UNL A   1      38.698  23.017  26.376  1.00  0.00     0.251 C 
ATOM     36  H   UNL A   1      38.962  21.064  26.018  1.00  0.00     0.163 HD
ATOM     37  O   UNL A   1      37.590  23.053  25.850  1.00  0.00    -0.269 OA
BRANCH  35  38
ATOM     38  C   UNL A   1      39.297  24.251  26.921  1.00  0.00     0.039 A 
ATOM     39  C   UNL A   1      40.052  25.070  26.078  1.00  0.00     0.014 A 
ATOM     40  C   UNL A   1      39.088  24.614  28.254  1.00  0.00     0.014 A 
ATOM     41  C   UNL A   1      40.529  26.294  26.552  1.00  0.00     0.010 A 
ATOM     42  C   UNL A   1      39.477  25.872  28.693  1.00  0.00     0.010 A 
ATOM     43  C   UNL A   1      40.205  26.724  27.849  1.00  0.00    -0.014 A 
BRANCH  43  44
ATOM     44  C   UNL A   1      40.628  28.053  28.358  1.00  0.00     0.031 A 
ATOM     45  C   UNL A   1      42.076  28.306  28.670  1.00  0.00     0.074 A 
ATOM     46  C   UNL A   1      39.701  28.996  28.622  1.00  0.00     0.049 A 
ATOM     47  N   UNL A   1      42.633  29.347  29.234  1.00  0.00    -0.248 NA
ATOM     48  C   UNL A   1      43.021  27.226  28.338  1.00  0.00     0.031 C 
ATOM     49  C   UNL A   1      38.259  28.851  28.413  1.00  0.00     0.029 A 
ATOM     50  N   UNL A   1      39.836  30.260  29.138  1.00  0.00    -0.354 N 
ATOM     51  C   UNL A   1      43.982  29.036  29.347  1.00  0.00     0.074 A 
ATOM     52  C   UNL A   1      44.152  27.690  28.846  1.00  0.00     0.031 C 
ATOM     53  C   UNL A   1      37.647  29.989  28.774  1.00  0.00     0.029 A 
ATOM     54  C   UNL A   1      38.645  30.929  29.276  1.00  0.00     0.049 A 
ATOM     55  H   UNL A   1      40.705  30.651  29.385  1.00  0.00     0.167 HD
ATOM     56  C   UNL A   1      44.993  29.814  29.802  1.00  0.00     0.037 A 
ATOM     57  C   UNL A   1      38.388  32.158  29.760  1.00  0.00     0.037 A 
ATOM     58  C   UNL A   1      44.826  31.168  30.257  1.00  0.00     0.049 A 
ATOM     59  C   UNL A   1      39.531  33.009  30.242  1.00  0.00     0.074 A 
ATOM     60  C   UNL A   1      45.794  32.063  30.676  1.00  0.00     0.029 A 
ATOM     61  N   UNL A   1      43.608  31.824  30.346  1.00  0.00    -0.354 N 
ATOM     62  N   UNL A   1      40.811  32.727  30.289  1.00  0.00    -0.248 NA
ATOM     63  C   UNL A   1      39.195  34.352  30.736  1.00  0.00     0.031 C 
ATOM     64  C   UNL A   1      45.158  33.250  31.052  1.00  0.00     0.029 A 
ATOM     65  C   UNL A   1      43.798  33.109  30.826  1.00  0.00     0.049 A 
ATOM     66  H   UNL A   1      42.737  31.434  30.104  1.00  0.00     0.167 HD
ATOM     67  C   UNL A   1      41.434  33.863  30.786  1.00  0.00     0.074 A 
ATOM     68  C   UNL A   1      40.394  34.844  31.015  1.00  0.00     0.031 C 
ATOM     69  C   UNL A   1      42.750  34.074  31.033  1.00  0.00     0.037 A 
BRANCH  56  70
ATOM     70  C   UNL A   1      46.371  29.219  29.816  1.00  0.00     0.064 A 
ATOM     71  C   UNL A   1      46.914  28.650  30.978  1.00  0.00     0.173 A 
ATOM     72  C   UNL A   1      47.148  29.193  28.648  1.00  0.00     0.173 A 
ATOM     73  F   UNL A   1      46.218  28.663  32.124  1.00  0.00    -0.203 F 
ATOM     74  C   UNL A   1      48.195  28.106  30.978  1.00  0.00     0.198 A 
ATOM     75  C   UNL A   1      48.417  28.621  28.645  1.00  0.00     0.198 A 
ATOM     76  F   UNL A   1      46.675  29.721  27.508  1.00  0.00    -0.203 F 
ATOM     77  F   UNL A   1      48.713  27.617  32.114  1.00  0.00    -0.200 F 
ATOM     78  C   UNL A   1      48.943  28.086  29.811  1.00  0.00     0.200 A 
ATOM     79  F   UNL A   1      49.134  28.591  27.513  1.00  0.00    -0.200 F 
ATOM     80  F   UNL A   1      50.174  27.556  29.811  1.00  0.00    -0.200 F 
ENDBRANCH  56  70
BRANCH  57  81
ATOM     81  C   UNL A   1      36.994  32.673  29.784  1.00  0.00     0.064 A 
ATOM     82  C   UNL A   1      36.433  33.272  28.648  1.00  0.00     0.173 A 
ATOM     83  C   UNL A   1      36.199  32.584  30.935  1.00  0.00     0.173 A 
ATOM     84  F   UNL A   1      37.161  33.398  27.529  1.00  0.00    -0.203 F 
ATOM     85  C   UNL A   1      35.136  33.782  28.669  1.00  0.00     0.198 A 
ATOM     86  C   UNL A   1      34.893  33.071  30.947  1.00  0.00     0.198 A 
ATOM     87  F   UNL A   1      36.688  32.015  32.048  1.00  0.00    -0.203 F 
ATOM     88  F   UNL A   1      34.640  34.391  27.583  1.00  0.00    -0.200 F 
ATOM     89  C   UNL A   1      34.365  33.676  29.817  1.00  0.00     0.200 A 
ATOM     90  F   UNL A   1      34.147  32.956  32.055  1.00  0.00    -0.200 F 
ATOM     91  F   UNL A   1      33.118  34.166  29.836  1.00  0.00    -0.200 F 
ENDBRANCH  57  81
BRANCH  69  92
ATOM     92  C   UNL A   1      43.144  35.430  31.540  1.00  0.00     0.064 A 
ATOM     93  C   UNL A   1      43.047  35.764  32.898  1.00  0.00     0.173 A 
ATOM     94  C   UNL A   1      43.666  36.391  30.660  1.00  0.00     0.173 A 
ATOM     95  F   UNL A   1      42.540  34.885  33.775  1.00  0.00    -0.203 F 
ATOM     96  C   UNL A   1      43.439  37.020  33.355  1.00  0.00     0.198 A 
ATOM     97  C   UNL A   1      44.082  37.635  31.124  1.00  0.00     0.198 A 
ATOM     98  F   UNL A   1      43.783  36.117  29.352  1.00  0.00    -0.203 F 
ATOM     99  F   UNL A   1      43.298  37.333  34.650  1.00  0.00    -0.200 F 
ATOM    100  C   UNL A   1      43.963  37.951  32.469  1.00  0.00     0.200 A 
ATOM    101  F   UNL A   1      44.599  38.528  30.270  1.00  0.00    -0.200 F 
ATOM    102  F   UNL A   1      44.346  39.156  32.912  1.00  0.00    -0.200 F 
ENDBRANCH  69  92
ENDBRANCH  43  44
ENDBRANCH  35  38
ENDBRANCH  33  34
ENDBRANCH  32  33
ENDBRANCH  31  32
ENDBRANCH  29  31
ENDBRANCH  25  27
ENDBRANCH   4  25
TORSDOF 19
ENDMDL
