MODEL 1
REMARK VINA RESULT:     -12.3      0.000      0.000
REMARK SMILES COCCn1cc(NC(=O)N[C@H]2C=C[C@H](C(=O)NCCCNC(=O)c3ccc(-c4c5nc(c(-c6c(F)c(F)c(F)c(F)c6F)c6ccc([nH]6)c(-c6c(F)c(F)c(F)c(F)c6F)c6nc(c(-c7c(F)c(F)c(F)c(F)c7F)c7ccc4[nH]7)C=C6)C=C5)cc3)C2)cn1
REMARK SMILES IDX 16 1 17 2 18 3 15 5 12 6 13 7 88 8 14 9 11 10 8 11 9 12
REMARK SMILES IDX 10 14 7 16 5 17 6 18 90 19 89 20 4 21 3 22 2 23 1 24 19 25
REMARK SMILES IDX 20 26 21 27 22 28 23 29 24 31 25 32 26 33 87 34 27 35 86 36
REMARK SMILES IDX 28 37 29 38 30 39 80 40 31 41 85 42 79 43 81 44 32 45 84 46
REMARK SMILES IDX 78 47 77 48 33 50 65 51 45 52 64 53 46 54 49 55 63 56 82 57
REMARK SMILES IDX 47 58 48 59 62 61 83 62 50 63 34 64 35 65 43 66 36 67 37 68
REMARK SMILES IDX 41 69 44 70 38 71 39 72 42 73 40 74 66 75 67 76 75 77 68 78
REMARK SMILES IDX 69 79 73 80 76 81 70 82 71 83 74 84 72 85 51 86 52 87 60 88
REMARK SMILES IDX 53 89 54 90 58 91 61 92 55 93 56 94 59 95 57 96
REMARK H PARENT 18 4 8 13 11 15 22 30 81 49 49 60
REMARK Flexibility Score: inf
ROOT
ATOM      1  C   UNL A   1      33.012  27.796  25.142  1.00  0.00     0.227 C 
ATOM      2  O   UNL A   1      33.474  27.429  24.052  1.00  0.00    -0.274 OA
ATOM      3  N   UNL A   1      33.895  28.378  25.992  1.00  0.00    -0.356 N 
ATOM      4  H   UNL A   1      34.818  28.387  25.649  1.00  0.00     0.163 HD
ENDROOT
BRANCH   1   5
ATOM      5  C   UNL A   1      31.496  27.677  25.380  1.00  0.00     0.103 C 
ATOM      6  C   UNL A   1      30.690  25.425  25.774  1.00  0.00     0.107 C 
ATOM      7  C   UNL A   1      29.967  26.040  24.623  1.00  0.00    -0.006 C 
ATOM      8  C   UNL A   1      31.211  26.666  26.497  1.00  0.00     0.047 C 
ATOM      9  C   UNL A   1      30.522  27.230  24.327  1.00  0.00    -0.016 C 
BRANCH   6  10
ATOM     10  N   UNL A   1      29.938  24.574  26.621  1.00  0.00    -0.332 N 
ATOM     11  N   UNL A   1      31.014  22.435  26.322  1.00  0.00    -0.305 N 
ATOM     12  C   UNL A   1      30.104  23.266  26.875  1.00  0.00     0.319 C 
ATOM     13  H   UNL A   1      30.927  21.537  26.719  1.00  0.00     0.171 HD
ATOM     14  O   UNL A   1      29.339  22.769  27.712  1.00  0.00    -0.248 OA
ATOM     15  H   UNL A   1      29.187  25.003  27.092  1.00  0.00     0.165 HD
BRANCH  11  16
ATOM     16  C   UNL A   1      32.032  22.434  25.377  1.00  0.00     0.081 A 
ATOM     17  N   UNL A   1      34.121  22.354  24.604  1.00  0.00    -0.268 N 
ATOM     18  C   UNL A   1      33.362  22.304  25.742  1.00  0.00     0.135 A 
ATOM     19  N   UNL A   1      33.375  22.474  23.504  1.00  0.00    -0.179 NA
ATOM     20  C   UNL A   1      32.137  22.531  23.985  1.00  0.00     0.161 A 
BRANCH  17  21
ATOM     21  C   UNL A   1      35.555  22.225  24.416  1.00  0.00     0.172 C 
BRANCH  21  22
ATOM     22  C   UNL A   1      36.358  22.220  25.711  1.00  0.00     0.183 C 
BRANCH  22  23
ATOM     23  O   UNL A   1      36.705  23.536  26.152  1.00  0.00    -0.383 OA
ATOM     24  C   UNL A   1      38.102  23.782  26.180  1.00  0.00     0.194 C 
ENDBRANCH  22  23
ENDBRANCH  21  22
ENDBRANCH  17  21
ENDBRANCH  11  16
ENDBRANCH   6  10
ENDBRANCH   1   5
BRANCH   3  25
ATOM     25  C   UNL A   1      33.762  28.992  27.305  1.00  0.00     0.117 C 
BRANCH  25  26
ATOM     26  C   UNL A   1      33.319  30.448  27.238  1.00  0.00     0.042 C 
BRANCH  26  27
ATOM     27  C   UNL A   1      34.453  31.399  27.586  1.00  0.00     0.118 C 
BRANCH  27  28
ATOM     28  N   UNL A   1      34.354  31.969  28.937  1.00  0.00    -0.352 N 
ATOM     29  C   UNL A   1      35.187  31.741  30.026  1.00  0.00     0.251 C 
ATOM     30  H   UNL A   1      33.603  32.589  29.090  1.00  0.00     0.163 HD
ATOM     31  O   UNL A   1      34.849  32.011  31.159  1.00  0.00    -0.269 OA
BRANCH  29  32
ATOM     32  C   UNL A   1      36.511  31.150  29.756  1.00  0.00     0.039 A 
ATOM     33  C   UNL A   1      37.653  31.933  29.560  1.00  0.00     0.014 A 
ATOM     34  C   UNL A   1      36.595  29.767  29.802  1.00  0.00     0.014 A 
ATOM     35  C   UNL A   1      38.895  31.299  29.512  1.00  0.00     0.010 A 
ATOM     36  C   UNL A   1      37.814  29.182  29.989  1.00  0.00     0.010 A 
ATOM     37  C   UNL A   1      38.968  29.919  29.756  1.00  0.00    -0.014 A 
BRANCH  37  38
ATOM     38  C   UNL A   1      40.244  29.216  29.847  1.00  0.00     0.031 A 
ATOM     39  C   UNL A   1      40.793  29.060  31.219  1.00  0.00     0.074 A 
ATOM     40  C   UNL A   1      40.761  28.540  28.798  1.00  0.00     0.049 A 
ATOM     41  N   UNL A   1      41.897  29.539  31.692  1.00  0.00    -0.248 NA
ATOM     42  C   UNL A   1      39.968  28.369  32.223  1.00  0.00     0.031 C 
ATOM     43  C   UNL A   1      40.178  28.344  27.459  1.00  0.00     0.029 A 
ATOM     44  N   UNL A   1      41.886  27.776  28.739  1.00  0.00    -0.354 N 
ATOM     45  C   UNL A   1      42.006  29.049  32.991  1.00  0.00     0.074 A 
ATOM     46  C   UNL A   1      40.722  28.489  33.318  1.00  0.00     0.031 C 
ATOM     47  C   UNL A   1      40.815  27.341  26.823  1.00  0.00     0.029 A 
ATOM     48  C   UNL A   1      41.970  26.969  27.613  1.00  0.00     0.049 A 
ATOM     49  H   UNL A   1      42.581  27.795  29.437  1.00  0.00     0.167 HD
ATOM     50  C   UNL A   1      43.225  28.915  33.584  1.00  0.00     0.037 A 
ATOM     51  C   UNL A   1      42.926  26.054  27.335  1.00  0.00     0.037 A 
ATOM     52  C   UNL A   1      44.220  29.703  32.898  1.00  0.00     0.049 A 
ATOM     53  C   UNL A   1      44.108  26.406  28.151  1.00  0.00     0.074 A 
ATOM     54  C   UNL A   1      44.406  31.046  32.640  1.00  0.00     0.029 A 
ATOM     55  N   UNL A   1      45.055  29.040  32.034  1.00  0.00    -0.354 N 
ATOM     56  N   UNL A   1      44.803  27.499  27.987  1.00  0.00    -0.248 NA
ATOM     57  C   UNL A   1      44.275  25.746  29.435  1.00  0.00     0.031 C 
ATOM     58  C   UNL A   1      44.990  31.099  31.336  1.00  0.00     0.029 A 
ATOM     59  C   UNL A   1      45.174  29.788  30.893  1.00  0.00     0.049 A 
ATOM     60  H   UNL A   1      45.493  28.175  32.204  1.00  0.00     0.167 HD
ATOM     61  C   UNL A   1      45.147  27.891  29.272  1.00  0.00     0.074 A 
ATOM     62  C   UNL A   1      44.909  26.713  30.101  1.00  0.00     0.031 C 
ATOM     63  C   UNL A   1      45.315  29.213  29.574  1.00  0.00     0.037 A 
BRANCH  50  64
ATOM     64  C   UNL A   1      43.617  27.759  34.488  1.00  0.00     0.064 A 
ATOM     65  C   UNL A   1      43.577  26.448  33.967  1.00  0.00     0.173 A 
ATOM     66  C   UNL A   1      43.701  27.842  35.896  1.00  0.00     0.173 A 
ATOM     67  F   UNL A   1      43.501  26.239  32.644  1.00  0.00    -0.203 F 
ATOM     68  C   UNL A   1      43.503  25.322  34.794  1.00  0.00     0.198 A 
ATOM     69  C   UNL A   1      43.679  26.714  36.715  1.00  0.00     0.198 A 
ATOM     70  F   UNL A   1      43.693  29.008  36.550  1.00  0.00    -0.203 F 
ATOM     71  F   UNL A   1      43.315  24.111  34.252  1.00  0.00    -0.200 F 
ATOM     72  C   UNL A   1      43.539  25.457  36.167  1.00  0.00     0.200 A 
ATOM     73  F   UNL A   1      43.704  26.868  38.046  1.00  0.00    -0.200 F 
ATOM     74  F   UNL A   1      43.390  24.391  36.963  1.00  0.00    -0.200 F 
ENDBRANCH  50  64
BRANCH  51  75
ATOM     75  C   UNL A   1      42.772  24.762  26.634  1.00  0.00     0.064 A 
ATOM     76  C   UNL A   1      43.483  24.482  25.459  1.00  0.00     0.173 A 
ATOM     77  C   UNL A   1      42.130  23.673  27.257  1.00  0.00     0.173 A 
ATOM     78  F   UNL A   1      44.157  25.456  24.831  1.00  0.00    -0.203 F 
ATOM     79  C   UNL A   1      43.570  23.182  24.949  1.00  0.00     0.198 A 
ATOM     80  C   UNL A   1      42.214  22.377  26.747  1.00  0.00     0.198 A 
ATOM     81  F   UNL A   1      41.491  23.831  28.426  1.00  0.00    -0.203 F 
ATOM     82  F   UNL A   1      44.312  22.940  23.859  1.00  0.00    -0.200 F 
ATOM     83  C   UNL A   1      42.946  22.129  25.600  1.00  0.00     0.200 A 
ATOM     84  F   UNL A   1      41.639  21.363  27.406  1.00  0.00    -0.200 F 
ATOM     85  F   UNL A   1      43.084  20.876  25.148  1.00  0.00    -0.200 F 
ENDBRANCH  51  75
BRANCH  63  86
ATOM     86  C   UNL A   1      45.428  30.176  28.422  1.00  0.00     0.064 A 
ATOM     87  C   UNL A   1      44.328  30.796  27.803  1.00  0.00     0.173 A 
ATOM     88  C   UNL A   1      46.705  30.580  28.016  1.00  0.00     0.173 A 
ATOM     89  F   UNL A   1      43.079  30.537  28.199  1.00  0.00    -0.203 F 
ATOM     90  C   UNL A   1      44.501  31.744  26.795  1.00  0.00     0.198 A 
ATOM     91  C   UNL A   1      46.876  31.552  27.033  1.00  0.00     0.198 A 
ATOM     92  F   UNL A   1      47.793  30.065  28.609  1.00  0.00    -0.203 F 
ATOM     93  F   UNL A   1      43.434  32.310  26.215  1.00  0.00    -0.200 F 
ATOM     94  C   UNL A   1      45.776  32.126  26.416  1.00  0.00     0.200 A 
ATOM     95  F   UNL A   1      48.111  31.953  26.703  1.00  0.00    -0.200 F 
ATOM     96  F   UNL A   1      45.945  33.065  25.475  1.00  0.00    -0.200 F 
ENDBRANCH  63  86
ENDBRANCH  37  38
ENDBRANCH  29  32
ENDBRANCH  27  28
ENDBRANCH  26  27
ENDBRANCH  25  26
ENDBRANCH   3  25
TORSDOF 15
ENDMDL
MODEL 2
REMARK VINA RESULT:     -12.1      3.056      8.815
REMARK SMILES COCCn1cc(NC(=O)N[C@H]2C=C[C@H](C(=O)NCCCNC(=O)c3ccc(-c4c5nc(c(-c6c(F)c(F)c(F)c(F)c6F)c6ccc([nH]6)c(-c6c(F)c(F)c(F)c(F)c6F)c6nc(c(-c7c(F)c(F)c(F)c(F)c7F)c7ccc4[nH]7)C=C6)C=C5)cc3)C2)cn1
REMARK SMILES IDX 16 1 17 2 18 3 15 5 12 6 13 7 88 8 14 9 11 10 8 11 9 12
REMARK SMILES IDX 10 14 7 16 5 17 6 18 90 19 89 20 4 21 3 22 2 23 1 24 19 25
REMARK SMILES IDX 20 26 21 27 22 28 23 29 24 31 25 32 26 33 87 34 27 35 86 36
REMARK SMILES IDX 28 37 29 38 30 39 80 40 31 41 85 42 79 43 81 44 32 45 84 46
REMARK SMILES IDX 78 47 77 48 33 50 65 51 45 52 64 53 46 54 49 55 63 56 82 57
REMARK SMILES IDX 47 58 48 59 62 61 83 62 50 63 34 64 35 65 43 66 36 67 37 68
REMARK SMILES IDX 41 69 44 70 38 71 39 72 42 73 40 74 66 75 67 76 75 77 68 78
REMARK SMILES IDX 69 79 73 80 76 81 70 82 71 83 74 84 72 85 51 86 52 87 60 88
REMARK SMILES IDX 53 89 54 90 58 91 61 92 55 93 56 94 59 95 57 96
REMARK H PARENT 18 4 8 13 11 15 22 30 81 49 49 60
REMARK Flexibility Score: inf
ROOT
ATOM      1  C   UNL A   1      34.136  22.005  25.588  1.00  0.00     0.227 C 
ATOM      2  O   UNL A   1      33.388  22.571  26.398  1.00  0.00    -0.274 OA
ATOM      3  N   UNL A   1      35.366  21.674  26.051  1.00  0.00    -0.356 N 
ATOM      4  H   UNL A   1      35.531  21.978  26.973  1.00  0.00     0.163 HD
ENDROOT
BRANCH   1   5
ATOM      5  C   UNL A   1      33.575  21.626  24.206  1.00  0.00     0.103 C 
ATOM      6  C   UNL A   1      32.715  23.479  22.900  1.00  0.00     0.107 C 
ATOM      7  C   UNL A   1      31.664  22.434  23.072  1.00  0.00    -0.006 C 
ATOM      8  C   UNL A   1      33.985  22.671  23.161  1.00  0.00     0.047 C 
ATOM      9  C   UNL A   1      32.108  21.483  23.914  1.00  0.00    -0.016 C 
BRANCH   6  10
ATOM     10  N   UNL A   1      32.745  24.159  21.658  1.00  0.00    -0.332 N 
ATOM     11  N   UNL A   1      33.126  26.450  22.311  1.00  0.00    -0.305 N 
ATOM     12  C   UNL A   1      32.951  25.462  21.408  1.00  0.00     0.319 C 
ATOM     13  H   UNL A   1      33.290  27.302  21.844  1.00  0.00     0.171 HD
ATOM     14  O   UNL A   1      32.989  25.792  20.215  1.00  0.00    -0.248 OA
ATOM     15  H   UNL A   1      32.593  23.597  20.864  1.00  0.00     0.165 HD
BRANCH  11  16
ATOM     16  C   UNL A   1      33.152  26.656  23.685  1.00  0.00     0.081 A 
ATOM     17  N   UNL A   1      32.486  27.449  25.659  1.00  0.00    -0.268 N 
ATOM     18  C   UNL A   1      32.186  27.417  24.324  1.00  0.00     0.135 A 
ATOM     19  N   UNL A   1      33.571  26.728  25.951  1.00  0.00    -0.179 NA
ATOM     20  C   UNL A   1      33.958  26.274  24.763  1.00  0.00     0.161 A 
BRANCH  17  21
ATOM     21  C   UNL A   1      31.786  28.064  26.772  1.00  0.00     0.172 C 
BRANCH  21  22
ATOM     22  C   UNL A   1      31.954  29.576  26.859  1.00  0.00     0.183 C 
BRANCH  22  23
ATOM     23  O   UNL A   1      33.187  30.029  26.292  1.00  0.00    -0.383 OA
ATOM     24  C   UNL A   1      34.133  30.470  27.253  1.00  0.00     0.194 C 
ENDBRANCH  22  23
ENDBRANCH  21  22
ENDBRANCH  17  21
ENDBRANCH  11  16
ENDBRANCH   6  10
ENDBRANCH   1   5
BRANCH   3  25
ATOM     25  C   UNL A   1      36.495  20.962  25.470  1.00  0.00     0.117 C 
BRANCH  25  26
ATOM     26  C   UNL A   1      37.404  21.863  24.642  1.00  0.00     0.042 C 
BRANCH  26  27
ATOM     27  C   UNL A   1      38.261  22.760  25.520  1.00  0.00     0.118 C 
BRANCH  27  28
ATOM     28  N   UNL A   1      39.115  22.024  26.462  1.00  0.00    -0.352 N 
ATOM     29  C   UNL A   1      40.172  22.512  27.221  1.00  0.00     0.251 C 
ATOM     30  H   UNL A   1      38.913  21.065  26.569  1.00  0.00     0.163 HD
ATOM     31  O   UNL A   1      40.994  21.775  27.725  1.00  0.00    -0.269 OA
BRANCH  29  32
ATOM     32  C   UNL A   1      40.265  23.973  27.397  1.00  0.00     0.039 A 
ATOM     33  C   UNL A   1      39.158  24.815  27.257  1.00  0.00     0.014 A 
ATOM     34  C   UNL A   1      41.492  24.472  27.806  1.00  0.00     0.014 A 
ATOM     35  C   UNL A   1      39.286  26.152  27.634  1.00  0.00     0.010 A 
ATOM     36  C   UNL A   1      41.546  25.705  28.388  1.00  0.00     0.010 A 
ATOM     37  C   UNL A   1      40.482  26.583  28.228  1.00  0.00    -0.014 A 
BRANCH  37  38
ATOM     38  C   UNL A   1      40.639  27.933  28.762  1.00  0.00     0.031 A 
ATOM     39  C   UNL A   1      41.766  28.719  28.198  1.00  0.00     0.074 A 
ATOM     40  C   UNL A   1      39.685  28.512  29.525  1.00  0.00     0.049 A 
ATOM     41  N   UNL A   1      42.803  29.179  28.819  1.00  0.00    -0.248 NA
ATOM     42  C   UNL A   1      41.799  28.940  26.743  1.00  0.00     0.031 C 
ATOM     43  C   UNL A   1      38.371  27.971  29.913  1.00  0.00     0.029 A 
ATOM     44  N   UNL A   1      39.641  29.775  30.031  1.00  0.00    -0.354 N 
ATOM     45  C   UNL A   1      43.522  29.914  27.879  1.00  0.00     0.074 A 
ATOM     46  C   UNL A   1      42.957  29.587  26.596  1.00  0.00     0.031 C 
ATOM     47  C   UNL A   1      37.582  28.964  30.370  1.00  0.00     0.029 A 
ATOM     48  C   UNL A   1      38.392  30.156  30.502  1.00  0.00     0.049 A 
ATOM     49  H   UNL A   1      40.428  30.366  30.060  1.00  0.00     0.167 HD
ATOM     50  C   UNL A   1      44.345  30.927  28.269  1.00  0.00     0.037 A 
ATOM     51  C   UNL A   1      38.037  31.371  30.978  1.00  0.00     0.037 A 
ATOM     52  C   UNL A   1      44.664  30.817  29.672  1.00  0.00     0.049 A 
ATOM     53  C   UNL A   1      39.284  32.055  31.385  1.00  0.00     0.074 A 
ATOM     54  C   UNL A   1      45.302  29.886  30.467  1.00  0.00     0.029 A 
ATOM     55  N   UNL A   1      43.975  31.632  30.535  1.00  0.00    -0.354 N 
ATOM     56  N   UNL A   1      40.043  31.654  32.367  1.00  0.00    -0.248 NA
ATOM     57  C   UNL A   1      39.917  32.948  30.429  1.00  0.00     0.031 C 
ATOM     58  C   UNL A   1      44.599  29.911  31.711  1.00  0.00     0.029 A 
ATOM     59  C   UNL A   1      43.605  30.889  31.624  1.00  0.00     0.049 A 
ATOM     60  H   UNL A   1      43.780  32.587  30.396  1.00  0.00     0.167 HD
ATOM     61  C   UNL A   1      41.337  31.886  31.926  1.00  0.00     0.074 A 
ATOM     62  C   UNL A   1      41.192  32.797  30.795  1.00  0.00     0.031 C 
ATOM     63  C   UNL A   1      42.367  31.091  32.344  1.00  0.00     0.037 A 
BRANCH  50  64
ATOM     64  C   UNL A   1      44.507  32.238  27.521  1.00  0.00     0.064 A 
ATOM     65  C   UNL A   1      45.664  32.432  26.736  1.00  0.00     0.173 A 
ATOM     66  C   UNL A   1      43.768  33.410  27.799  1.00  0.00     0.173 A 
ATOM     67  F   UNL A   1      46.446  31.393  26.402  1.00  0.00    -0.203 F 
ATOM     68  C   UNL A   1      46.107  33.706  26.366  1.00  0.00     0.198 A 
ATOM     69  C   UNL A   1      44.186  34.674  27.383  1.00  0.00     0.198 A 
ATOM     70  F   UNL A   1      42.678  33.407  28.572  1.00  0.00    -0.203 F 
ATOM     71  F   UNL A   1      47.288  33.846  25.752  1.00  0.00    -0.200 F 
ATOM     72  C   UNL A   1      45.375  34.827  26.704  1.00  0.00     0.200 A 
ATOM     73  F   UNL A   1      43.467  35.750  27.731  1.00  0.00    -0.200 F 
ATOM     74  F   UNL A   1      45.833  36.053  26.421  1.00  0.00    -0.200 F 
ENDBRANCH  50  64
BRANCH  51  75
ATOM     75  C   UNL A   1      36.737  32.060  30.836  1.00  0.00     0.064 A 
ATOM     76  C   UNL A   1      35.877  32.225  31.930  1.00  0.00     0.173 A 
ATOM     77  C   UNL A   1      36.437  32.809  29.680  1.00  0.00     0.173 A 
ATOM     78  F   UNL A   1      36.118  31.580  33.080  1.00  0.00    -0.203 F 
ATOM     79  C   UNL A   1      34.794  33.110  31.882  1.00  0.00     0.198 A 
ATOM     80  C   UNL A   1      35.356  33.689  29.631  1.00  0.00     0.198 A 
ATOM     81  F   UNL A   1      37.248  32.775  28.611  1.00  0.00    -0.203 F 
ATOM     82  F   UNL A   1      34.030  33.290  32.968  1.00  0.00    -0.200 F 
ATOM     83  C   UNL A   1      34.541  33.849  30.737  1.00  0.00     0.200 A 
ATOM     84  F   UNL A   1      35.146  34.426  28.532  1.00  0.00    -0.200 F 
ATOM     85  F   UNL A   1      33.544  34.743  30.714  1.00  0.00    -0.200 F 
ENDBRANCH  51  75
BRANCH  63  86
ATOM     86  C   UNL A   1      42.108  30.184  33.516  1.00  0.00     0.064 A 
ATOM     87  C   UNL A   1      41.697  28.844  33.400  1.00  0.00     0.173 A 
ATOM     88  C   UNL A   1      42.410  30.653  34.800  1.00  0.00     0.173 A 
ATOM     89  F   UNL A   1      41.482  28.291  32.203  1.00  0.00    -0.203 F 
ATOM     90  C   UNL A   1      41.553  28.028  34.521  1.00  0.00     0.198 A 
ATOM     91  C   UNL A   1      42.300  29.826  35.916  1.00  0.00     0.198 A 
ATOM     92  F   UNL A   1      42.861  31.906  34.968  1.00  0.00    -0.203 F 
ATOM     93  F   UNL A   1      41.149  26.757  34.381  1.00  0.00    -0.200 F 
ATOM     94  C   UNL A   1      41.862  28.518  35.778  1.00  0.00     0.200 A 
ATOM     95  F   UNL A   1      42.644  30.290  37.124  1.00  0.00    -0.200 F 
ATOM     96  F   UNL A   1      41.763  27.724  36.853  1.00  0.00    -0.200 F 
ENDBRANCH  63  86
ENDBRANCH  37  38
ENDBRANCH  29  32
ENDBRANCH  27  28
ENDBRANCH  26  27
ENDBRANCH  25  26
ENDBRANCH   3  25
TORSDOF 15
ENDMDL
MODEL 3
REMARK VINA RESULT:     -12.0      1.249      2.324
REMARK SMILES COCCn1cc(NC(=O)N[C@H]2C=C[C@H](C(=O)NCCCNC(=O)c3ccc(-c4c5nc(c(-c6c(F)c(F)c(F)c(F)c6F)c6ccc([nH]6)c(-c6c(F)c(F)c(F)c(F)c6F)c6nc(c(-c7c(F)c(F)c(F)c(F)c7F)c7ccc4[nH]7)C=C6)C=C5)cc3)C2)cn1
REMARK SMILES IDX 16 1 17 2 18 3 15 5 12 6 13 7 88 8 14 9 11 10 8 11 9 12
REMARK SMILES IDX 10 14 7 16 5 17 6 18 90 19 89 20 4 21 3 22 2 23 1 24 19 25
REMARK SMILES IDX 20 26 21 27 22 28 23 29 24 31 25 32 26 33 87 34 27 35 86 36
REMARK SMILES IDX 28 37 29 38 30 39 80 40 31 41 85 42 79 43 81 44 32 45 84 46
REMARK SMILES IDX 78 47 77 48 33 50 65 51 45 52 64 53 46 54 49 55 63 56 82 57
REMARK SMILES IDX 47 58 48 59 62 61 83 62 50 63 34 64 35 65 43 66 36 67 37 68
REMARK SMILES IDX 41 69 44 70 38 71 39 72 42 73 40 74 66 75 67 76 75 77 68 78
REMARK SMILES IDX 69 79 73 80 76 81 70 82 71 83 74 84 72 85 51 86 52 87 60 88
REMARK SMILES IDX 53 89 54 90 58 91 61 92 55 93 56 94 59 95 57 96
REMARK H PARENT 18 4 8 13 11 15 22 30 81 49 49 60
REMARK Flexibility Score: inf
ROOT
ATOM      1  C   UNL A   1      31.894  27.785  25.696  1.00  0.00     0.227 C 
ATOM      2  O   UNL A   1      31.042  26.885  25.667  1.00  0.00    -0.274 OA
ATOM      3  N   UNL A   1      32.540  27.950  26.877  1.00  0.00    -0.356 N 
ATOM      4  H   UNL A   1      32.207  27.357  27.589  1.00  0.00     0.163 HD
ENDROOT
BRANCH   1   5
ATOM      5  C   UNL A   1      32.223  28.532  24.391  1.00  0.00     0.103 C 
ATOM      6  C   UNL A   1      32.960  27.128  22.558  1.00  0.00     0.107 C 
ATOM      7  C   UNL A   1      33.977  28.181  22.844  1.00  0.00    -0.006 C 
ATOM      8  C   UNL A   1      31.708  27.742  23.181  1.00  0.00     0.047 C 
ATOM      9  C   UNL A   1      33.622  28.860  23.951  1.00  0.00    -0.016 C 
BRANCH   6  10
ATOM     10  N   UNL A   1      32.775  26.769  21.200  1.00  0.00    -0.332 N 
ATOM     11  N   UNL A   1      32.693  24.359  21.290  1.00  0.00    -0.305 N 
ATOM     12  C   UNL A   1      32.633  25.550  20.655  1.00  0.00     0.319 C 
ATOM     13  H   UNL A   1      32.521  23.632  20.647  1.00  0.00     0.171 HD
ATOM     14  O   UNL A   1      32.421  25.516  19.436  1.00  0.00    -0.248 OA
ATOM     15  H   UNL A   1      32.744  27.520  20.565  1.00  0.00     0.165 HD
BRANCH  11  16
ATOM     16  C   UNL A   1      32.917  23.826  22.553  1.00  0.00     0.081 A 
ATOM     17  N   UNL A   1      32.404  23.044  24.577  1.00  0.00    -0.268 N 
ATOM     18  C   UNL A   1      31.872  23.539  23.416  1.00  0.00     0.135 A 
ATOM     19  N   UNL A   1      33.735  22.953  24.523  1.00  0.00    -0.179 NA
ATOM     20  C   UNL A   1      34.021  23.432  23.317  1.00  0.00     0.161 A 
BRANCH  17  21
ATOM     21  C   UNL A   1      31.758  22.554  25.780  1.00  0.00     0.172 C 
BRANCH  21  22
ATOM     22  C   UNL A   1      31.611  23.597  26.881  1.00  0.00     0.183 C 
BRANCH  22  23
ATOM     23  O   UNL A   1      30.244  23.861  27.214  1.00  0.00    -0.383 OA
ATOM     24  C   UNL A   1      29.418  22.708  27.200  1.00  0.00     0.194 C 
ENDBRANCH  22  23
ENDBRANCH  21  22
ENDBRANCH  17  21
ENDBRANCH  11  16
ENDBRANCH   6  10
ENDBRANCH   1   5
BRANCH   3  25
ATOM     25  C   UNL A   1      33.623  28.820  27.311  1.00  0.00     0.117 C 
BRANCH  25  26
ATOM     26  C   UNL A   1      33.208  30.283  27.407  1.00  0.00     0.042 C 
BRANCH  26  27
ATOM     27  C   UNL A   1      34.397  31.190  27.683  1.00  0.00     0.118 C 
BRANCH  27  28
ATOM     28  N   UNL A   1      34.335  31.866  28.986  1.00  0.00    -0.352 N 
ATOM     29  C   UNL A   1      35.206  31.734  30.062  1.00  0.00     0.251 C 
ATOM     30  H   UNL A   1      33.583  32.489  29.114  1.00  0.00     0.163 HD
ATOM     31  O   UNL A   1      34.902  32.091  31.180  1.00  0.00    -0.269 OA
BRANCH  29  32
ATOM     32  C   UNL A   1      36.528  31.135  29.796  1.00  0.00     0.039 A 
ATOM     33  C   UNL A   1      37.668  31.912  29.571  1.00  0.00     0.014 A 
ATOM     34  C   UNL A   1      36.611  29.754  29.876  1.00  0.00     0.014 A 
ATOM     35  C   UNL A   1      38.910  31.276  29.529  1.00  0.00     0.010 A 
ATOM     36  C   UNL A   1      37.831  29.173  30.067  1.00  0.00     0.010 A 
ATOM     37  C   UNL A   1      38.983  29.903  29.807  1.00  0.00    -0.014 A 
BRANCH  37  38
ATOM     38  C   UNL A   1      40.259  29.201  29.906  1.00  0.00     0.031 A 
ATOM     39  C   UNL A   1      40.808  29.057  31.280  1.00  0.00     0.074 A 
ATOM     40  C   UNL A   1      40.778  28.516  28.863  1.00  0.00     0.049 A 
ATOM     41  N   UNL A   1      41.911  29.540  31.750  1.00  0.00    -0.248 NA
ATOM     42  C   UNL A   1      39.982  28.373  32.289  1.00  0.00     0.031 C 
ATOM     43  C   UNL A   1      40.197  28.309  27.525  1.00  0.00     0.029 A 
ATOM     44  N   UNL A   1      41.904  27.752  28.812  1.00  0.00    -0.354 N 
ATOM     45  C   UNL A   1      42.018  29.061  33.053  1.00  0.00     0.074 A 
ATOM     46  C   UNL A   1      40.734  28.503  33.384  1.00  0.00     0.031 C 
ATOM     47  C   UNL A   1      40.835  27.301  26.898  1.00  0.00     0.029 A 
ATOM     48  C   UNL A   1      41.989  26.936  27.692  1.00  0.00     0.049 A 
ATOM     49  H   UNL A   1      42.597  27.777  29.511  1.00  0.00     0.167 HD
ATOM     50  C   UNL A   1      43.237  28.932  33.649  1.00  0.00     0.037 A 
ATOM     51  C   UNL A   1      42.946  26.019  27.424  1.00  0.00     0.037 A 
ATOM     52  C   UNL A   1      44.232  29.715  32.957  1.00  0.00     0.049 A 
ATOM     53  C   UNL A   1      44.127  26.379  28.238  1.00  0.00     0.074 A 
ATOM     54  C   UNL A   1      44.418  31.056  32.688  1.00  0.00     0.029 A 
ATOM     55  N   UNL A   1      45.068  29.045  32.100  1.00  0.00    -0.354 N 
ATOM     56  N   UNL A   1      44.822  27.470  28.065  1.00  0.00    -0.248 NA
ATOM     57  C   UNL A   1      44.293  25.730  29.527  1.00  0.00     0.031 C 
ATOM     58  C   UNL A   1      45.003  31.099  31.384  1.00  0.00     0.029 A 
ATOM     59  C   UNL A   1      45.188  29.784  30.953  1.00  0.00     0.049 A 
ATOM     60  H   UNL A   1      45.507  28.182  32.277  1.00  0.00     0.167 HD
ATOM     61  C   UNL A   1      45.164  27.874  29.347  1.00  0.00     0.074 A 
ATOM     62  C   UNL A   1      44.926  26.702  30.186  1.00  0.00     0.031 C 
ATOM     63  C   UNL A   1      45.331  29.198  29.639  1.00  0.00     0.037 A 
BRANCH  50  64
ATOM     64  C   UNL A   1      43.628  27.784  34.563  1.00  0.00     0.064 A 
ATOM     65  C   UNL A   1      43.493  26.463  34.086  1.00  0.00     0.173 A 
ATOM     66  C   UNL A   1      43.803  27.902  35.960  1.00  0.00     0.173 A 
ATOM     67  F   UNL A   1      43.326  26.221  32.777  1.00  0.00    -0.203 F 
ATOM     68  C   UNL A   1      43.417  25.365  34.950  1.00  0.00     0.198 A 
ATOM     69  C   UNL A   1      43.778  26.800  36.813  1.00  0.00     0.198 A 
ATOM     70  F   UNL A   1      43.891  29.085  36.576  1.00  0.00    -0.203 F 
ATOM     71  F   UNL A   1      43.138  24.151  34.459  1.00  0.00    -0.200 F 
ATOM     72  C   UNL A   1      43.544  25.537  36.315  1.00  0.00     0.200 A 
ATOM     73  F   UNL A   1      43.892  26.990  38.135  1.00  0.00    -0.200 F 
ATOM     74  F   UNL A   1      43.394  24.503  37.151  1.00  0.00    -0.200 F 
ENDBRANCH  50  64
BRANCH  51  75
ATOM     75  C   UNL A   1      42.794  24.721  26.733  1.00  0.00     0.064 A 
ATOM     76  C   UNL A   1      43.401  24.480  25.493  1.00  0.00     0.173 A 
ATOM     77  C   UNL A   1      42.274  23.599  27.409  1.00  0.00     0.173 A 
ATOM     78  F   UNL A   1      43.957  25.490  24.808  1.00  0.00    -0.203 F 
ATOM     79  C   UNL A   1      43.507  23.187  24.970  1.00  0.00     0.198 A 
ATOM     80  C   UNL A   1      42.377  22.310  26.886  1.00  0.00     0.198 A 
ATOM     81  F   UNL A   1      41.745  23.721  28.636  1.00  0.00    -0.203 F 
ATOM     82  F   UNL A   1      44.150  22.986  23.811  1.00  0.00    -0.200 F 
ATOM     83  C   UNL A   1      43.006  22.102  25.671  1.00  0.00     0.200 A 
ATOM     84  F   UNL A   1      41.924  21.265  27.592  1.00  0.00    -0.200 F 
ATOM     85  F   UNL A   1      43.165  20.858  25.201  1.00  0.00    -0.200 F 
ENDBRANCH  51  75
BRANCH  63  86
ATOM     86  C   UNL A   1      45.445  30.151  28.479  1.00  0.00     0.064 A 
ATOM     87  C   UNL A   1      44.346  30.769  27.857  1.00  0.00     0.173 A 
ATOM     88  C   UNL A   1      46.722  30.548  28.068  1.00  0.00     0.173 A 
ATOM     89  F   UNL A   1      43.097  30.518  28.257  1.00  0.00    -0.203 F 
ATOM     90  C   UNL A   1      44.520  31.708  26.841  1.00  0.00     0.198 A 
ATOM     91  C   UNL A   1      46.895  31.512  27.077  1.00  0.00     0.198 A 
ATOM     92  F   UNL A   1      47.810  30.034  28.663  1.00  0.00    -0.203 F 
ATOM     93  F   UNL A   1      43.454  32.274  26.258  1.00  0.00    -0.200 F 
ATOM     94  C   UNL A   1      45.795  32.084  26.457  1.00  0.00     0.200 A 
ATOM     95  F   UNL A   1      48.130  31.906  26.741  1.00  0.00    -0.200 F 
ATOM     96  F   UNL A   1      45.966  33.015  25.508  1.00  0.00    -0.200 F 
ENDBRANCH  63  86
ENDBRANCH  37  38
ENDBRANCH  29  32
ENDBRANCH  27  28
ENDBRANCH  26  27
ENDBRANCH  25  26
ENDBRANCH   3  25
TORSDOF 15
ENDMDL
