MODEL 1
REMARK VINA RESULT:     -13.6      0.000      0.000
REMARK SMILES Cc1cc2c(=O)c3ccccc3oc2c(C(=O)NCCCNC(=O)c2ccc(-c3c4nc(c(-c5c(F)c(F)c(F)c(F)c5F)c5ccc([nH]5)c(-c5c(F)c(F)c(F)c(F)c5F)c5nc(c(-c6c(F)c(F)c(F)c(F)c6F)c6ccc3[nH]6)C=C5)C=C4)cc2)c1C
REMARK SMILES IDX 21 1 20 2 19 3 18 4 16 5 17 6 15 8 1 9 2 10 3 11 88 12 4 13
REMARK SMILES IDX 89 14 5 15 14 16 6 17 7 18 13 19 8 20 12 21 9 22 11 23 10 24
REMARK SMILES IDX 22 25 23 26 24 28 25 29 26 30 87 31 27 32 86 33 28 34 29 35
REMARK SMILES IDX 30 36 80 37 31 38 85 39 79 40 81 41 32 42 84 43 78 44 77 45
REMARK SMILES IDX 33 47 65 48 45 49 64 50 46 51 49 52 63 53 82 54 47 55 48 56
REMARK SMILES IDX 62 58 83 59 50 60 34 61 35 62 43 63 36 64 37 65 41 66 44 67
REMARK SMILES IDX 38 68 39 69 42 70 40 71 66 72 67 73 75 74 68 75 69 76 73 77
REMARK SMILES IDX 76 78 70 79 71 80 74 81 72 82 51 83 52 84 60 85 53 86 54 87
REMARK SMILES IDX 58 88 61 89 55 90 56 91 59 92 57 93
REMARK H PARENT 18 7 22 27 81 46 49 57
REMARK Flexibility Score: inf
ROOT
ATOM      1  C   UNL A   1      33.277  29.187  24.940  1.00  0.00     0.118 C 
ENDROOT
BRANCH   1   2
ATOM      2  C   UNL A   1      33.344  29.328  23.425  1.00  0.00     0.042 C 
BRANCH   2   3
ATOM      3  C   UNL A   1      34.501  28.578  22.753  1.00  0.00     0.118 C 
BRANCH   3   4
ATOM      4  N   UNL A   1      33.984  27.668  21.749  1.00  0.00    -0.352 N 
ATOM      5  C   UNL A   1      33.200  26.546  21.687  1.00  0.00     0.255 C 
ATOM      6  O   UNL A   1      33.278  25.984  20.585  1.00  0.00    -0.269 OA
ATOM      7  H   UNL A   1      34.283  27.934  20.848  1.00  0.00     0.163 HD
BRANCH   5   8
ATOM      8  C   UNL A   1      32.284  25.929  22.728  1.00  0.00     0.086 A 
ATOM      9  C   UNL A   1      31.388  22.778  24.818  1.00  0.00     0.044 C 
ATOM     10  C   UNL A   1      31.329  24.122  24.128  1.00  0.00    -0.046 A 
ATOM     11  C   UNL A   1      30.145  24.845  24.263  1.00  0.00     0.019 A 
ATOM     12  C   UNL A   1      32.405  24.645  23.347  1.00  0.00    -0.032 A 
ATOM     13  C   UNL A   1      30.019  26.095  23.674  1.00  0.00     0.066 A 
ATOM     14  C   UNL A   1      33.609  23.769  23.202  1.00  0.00     0.045 C 
ATOM     15  C   UNL A   1      28.737  26.804  23.798  1.00  0.00     0.200 A 
ATOM     16  C   UNL A   1      31.069  26.655  22.943  1.00  0.00     0.151 A 
ATOM     17  O   UNL A   1      27.795  26.328  24.418  1.00  0.00    -0.288 OA
ATOM     18  C   UNL A   1      28.629  28.098  23.126  1.00  0.00     0.065 A 
ATOM     19  O   UNL A   1      30.958  27.936  22.426  1.00  0.00    -0.455 OA
ATOM     20  C   UNL A   1      27.428  28.814  23.143  1.00  0.00     0.016 A 
ATOM     21  C   UNL A   1      29.752  28.588  22.473  1.00  0.00     0.138 A 
ATOM     22  C   UNL A   1      27.357  30.048  22.496  1.00  0.00     0.001 A 
ATOM     23  C   UNL A   1      29.675  29.823  21.826  1.00  0.00     0.048 A 
ATOM     24  C   UNL A   1      28.480  30.551  21.838  1.00  0.00     0.004 A 
ENDBRANCH   5   8
ENDBRANCH   3   4
ENDBRANCH   2   3
ENDBRANCH   1   2
BRANCH   1  25
ATOM     25  N   UNL A   1      32.740  30.375  25.584  1.00  0.00    -0.352 N 
ATOM     26  C   UNL A   1      33.136  31.015  26.739  1.00  0.00     0.251 C 
ATOM     27  H   UNL A   1      31.974  30.786  25.124  1.00  0.00     0.163 HD
ATOM     28  O   UNL A   1      32.427  31.891  27.216  1.00  0.00    -0.269 OA
BRANCH  26  29
ATOM     29  C   UNL A   1      34.398  30.637  27.426  1.00  0.00     0.039 A 
ATOM     30  C   UNL A   1      34.632  29.328  27.847  1.00  0.00     0.014 A 
ATOM     31  C   UNL A   1      35.380  31.614  27.635  1.00  0.00     0.014 A 
ATOM     32  C   UNL A   1      35.749  29.037  28.625  1.00  0.00     0.010 A 
ATOM     33  C   UNL A   1      36.552  31.295  28.331  1.00  0.00     0.010 A 
ATOM     34  C   UNL A   1      36.728  30.013  28.873  1.00  0.00    -0.014 A 
BRANCH  34  35
ATOM     35  C   UNL A   1      37.917  29.664  29.696  1.00  0.00     0.031 A 
ATOM     36  C   UNL A   1      39.019  28.803  29.134  1.00  0.00     0.074 A 
ATOM     37  C   UNL A   1      38.040  30.187  30.933  1.00  0.00     0.049 A 
ATOM     38  N   UNL A   1      40.127  28.400  29.706  1.00  0.00    -0.248 NA
ATOM     39  C   UNL A   1      38.859  28.328  27.749  1.00  0.00     0.031 C 
ATOM     40  C   UNL A   1      37.052  31.053  31.581  1.00  0.00     0.029 A 
ATOM     41  N   UNL A   1      39.056  30.101  31.853  1.00  0.00    -0.354 N 
ATOM     42  C   UNL A   1      40.784  27.620  28.763  1.00  0.00     0.074 A 
ATOM     43  C   UNL A   1      39.940  27.577  27.589  1.00  0.00     0.031 C 
ATOM     44  C   UNL A   1      37.539  31.476  32.757  1.00  0.00     0.029 A 
ATOM     45  C   UNL A   1      38.837  30.852  32.984  1.00  0.00     0.049 A 
ATOM     46  H   UNL A   1      39.862  29.555  31.715  1.00  0.00     0.167 HD
ATOM     47  C   UNL A   1      41.988  27.010  28.863  1.00  0.00     0.037 A 
ATOM     48  C   UNL A   1      39.590  31.008  34.089  1.00  0.00     0.037 A 
ATOM     49  C   UNL A   1      42.840  27.078  30.023  1.00  0.00     0.049 A 
ATOM     50  C   UNL A   1      40.896  30.271  34.192  1.00  0.00     0.074 A 
ATOM     51  C   UNL A   1      44.075  26.485  30.221  1.00  0.00     0.029 A 
ATOM     52  N   UNL A   1      42.551  27.793  31.175  1.00  0.00    -0.354 N 
ATOM     53  N   UNL A   1      41.490  29.516  33.301  1.00  0.00    -0.248 NA
ATOM     54  C   UNL A   1      41.627  30.392  35.462  1.00  0.00     0.031 C 
ATOM     55  C   UNL A   1      44.518  26.815  31.505  1.00  0.00     0.029 A 
ATOM     56  C   UNL A   1      43.580  27.648  32.091  1.00  0.00     0.049 A 
ATOM     57  H   UNL A   1      41.736  28.326  31.320  1.00  0.00     0.167 HD
ATOM     58  C   UNL A   1      42.667  29.084  33.894  1.00  0.00     0.074 A 
ATOM     59  C   UNL A   1      42.717  29.681  35.212  1.00  0.00     0.031 C 
ATOM     60  C   UNL A   1      43.617  28.258  33.394  1.00  0.00     0.037 A 
BRANCH  47  61
ATOM     61  C   UNL A   1      42.479  26.213  27.690  1.00  0.00     0.064 A 
ATOM     62  C   UNL A   1      43.406  26.743  26.783  1.00  0.00     0.173 A 
ATOM     63  C   UNL A   1      42.097  24.871  27.529  1.00  0.00     0.173 A 
ATOM     64  F   UNL A   1      43.794  28.024  26.887  1.00  0.00    -0.203 F 
ATOM     65  C   UNL A   1      43.931  25.962  25.756  1.00  0.00     0.198 A 
ATOM     66  C   UNL A   1      42.642  24.087  26.516  1.00  0.00     0.198 A 
ATOM     67  F   UNL A   1      41.218  24.313  28.376  1.00  0.00    -0.203 F 
ATOM     68  F   UNL A   1      44.803  26.498  24.889  1.00  0.00    -0.200 F 
ATOM     69  C   UNL A   1      43.558  24.633  25.631  1.00  0.00     0.200 A 
ATOM     70  F   UNL A   1      42.290  22.798  26.405  1.00  0.00    -0.200 F 
ATOM     71  F   UNL A   1      44.082  23.878  24.656  1.00  0.00    -0.200 F 
ENDBRANCH  47  61
BRANCH  48  72
ATOM     72  C   UNL A   1      39.125  31.893  35.189  1.00  0.00     0.064 A 
ATOM     73  C   UNL A   1      39.395  33.269  35.170  1.00  0.00     0.173 A 
ATOM     74  C   UNL A   1      38.401  31.387  36.280  1.00  0.00     0.173 A 
ATOM     75  F   UNL A   1      40.103  33.797  34.160  1.00  0.00    -0.203 F 
ATOM     76  C   UNL A   1      38.970  34.100  36.203  1.00  0.00     0.198 A 
ATOM     77  C   UNL A   1      37.949  32.225  37.297  1.00  0.00     0.198 A 
ATOM     78  F   UNL A   1      38.117  30.078  36.348  1.00  0.00    -0.203 F 
ATOM     79  F   UNL A   1      39.278  35.404  36.181  1.00  0.00    -0.200 F 
ATOM     80  C   UNL A   1      38.241  33.579  37.262  1.00  0.00     0.200 A 
ATOM     81  F   UNL A   1      37.232  31.719  38.308  1.00  0.00    -0.200 F 
ATOM     82  F   UNL A   1      37.824  34.381  38.251  1.00  0.00    -0.200 F 
ENDBRANCH  48  72
BRANCH  60  83
ATOM     83  C   UNL A   1      44.802  27.964  34.263  1.00  0.00     0.064 A 
ATOM     84  C   UNL A   1      44.821  26.853  35.118  1.00  0.00     0.173 A 
ATOM     85  C   UNL A   1      45.952  28.764  34.193  1.00  0.00     0.173 A 
ATOM     86  F   UNL A   1      43.739  26.067  35.229  1.00  0.00    -0.203 F 
ATOM     87  C   UNL A   1      45.946  26.562  35.884  1.00  0.00     0.198 A 
ATOM     88  C   UNL A   1      47.084  28.454  34.941  1.00  0.00     0.198 A 
ATOM     89  F   UNL A   1      45.984  29.833  33.384  1.00  0.00    -0.203 F 
ATOM     90  F   UNL A   1      45.931  25.515  36.721  1.00  0.00    -0.200 F 
ATOM     91  C   UNL A   1      47.079  27.357  35.789  1.00  0.00     0.200 A 
ATOM     92  F   UNL A   1      48.183  29.215  34.838  1.00  0.00    -0.200 F 
ATOM     93  F   UNL A   1      48.165  27.067  36.518  1.00  0.00    -0.200 F 
ENDBRANCH  60  83
ENDBRANCH  34  35
ENDBRANCH  26  29
ENDBRANCH   1  25
TORSDOF 10
ENDMDL
MODEL 2
REMARK VINA RESULT:     -13.6      0.316      7.488
REMARK SMILES Cc1cc2c(=O)c3ccccc3oc2c(C(=O)NCCCNC(=O)c2ccc(-c3c4nc(c(-c5c(F)c(F)c(F)c(F)c5F)c5ccc([nH]5)c(-c5c(F)c(F)c(F)c(F)c5F)c5nc(c(-c6c(F)c(F)c(F)c(F)c6F)c6ccc3[nH]6)C=C5)C=C4)cc2)c1C
REMARK SMILES IDX 21 1 20 2 19 3 18 4 16 5 17 6 15 8 1 9 2 10 3 11 88 12 4 13
REMARK SMILES IDX 89 14 5 15 14 16 6 17 7 18 13 19 8 20 12 21 9 22 11 23 10 24
REMARK SMILES IDX 22 25 23 26 24 28 25 29 26 30 87 31 27 32 86 33 28 34 29 35
REMARK SMILES IDX 30 36 80 37 31 38 85 39 79 40 81 41 32 42 84 43 78 44 77 45
REMARK SMILES IDX 33 47 65 48 45 49 64 50 46 51 49 52 63 53 82 54 47 55 48 56
REMARK SMILES IDX 62 58 83 59 50 60 34 61 35 62 43 63 36 64 37 65 41 66 44 67
REMARK SMILES IDX 38 68 39 69 42 70 40 71 66 72 67 73 75 74 68 75 69 76 73 77
REMARK SMILES IDX 76 78 70 79 71 80 74 81 72 82 51 83 52 84 60 85 53 86 54 87
REMARK SMILES IDX 58 88 61 89 55 90 56 91 59 92 57 93
REMARK H PARENT 18 7 22 27 81 46 49 57
REMARK Flexibility Score: inf
ROOT
ATOM      1  C   UNL A   1      33.212  29.262  25.198  1.00  0.00     0.118 C 
ENDROOT
BRANCH   1   2
ATOM      2  C   UNL A   1      33.268  29.356  23.680  1.00  0.00     0.042 C 
BRANCH   2   3
ATOM      3  C   UNL A   1      34.459  28.642  23.028  1.00  0.00     0.118 C 
BRANCH   3   4
ATOM      4  N   UNL A   1      33.993  27.765  21.971  1.00  0.00    -0.352 N 
ATOM      5  C   UNL A   1      33.214  26.646  21.835  1.00  0.00     0.255 C 
ATOM      6  O   UNL A   1      33.346  26.120  20.721  1.00  0.00    -0.269 OA
ATOM      7  H   UNL A   1      34.335  28.060  21.095  1.00  0.00     0.163 HD
BRANCH   5   8
ATOM      8  C   UNL A   1      32.250  25.996  22.810  1.00  0.00     0.086 A 
ATOM      9  C   UNL A   1      31.246  22.774  24.736  1.00  0.00     0.044 C 
ATOM     10  C   UNL A   1      31.225  24.143  24.097  1.00  0.00    -0.046 A 
ATOM     11  C   UNL A   1      30.039  24.868  24.206  1.00  0.00     0.019 A 
ATOM     12  C   UNL A   1      32.336  24.688  23.384  1.00  0.00    -0.032 A 
ATOM     13  C   UNL A   1      29.946  26.140  23.661  1.00  0.00     0.066 A 
ATOM     14  C   UNL A   1      33.542  23.811  23.259  1.00  0.00     0.045 C 
ATOM     15  C   UNL A   1      28.663  26.853  23.755  1.00  0.00     0.200 A 
ATOM     16  C   UNL A   1      31.030  26.721  22.999  1.00  0.00     0.151 A 
ATOM     17  O   UNL A   1      27.692  26.360  24.315  1.00  0.00    -0.288 OA
ATOM     18  C   UNL A   1      28.592  28.172  23.130  1.00  0.00     0.065 A 
ATOM     19  O   UNL A   1      30.949  28.022  22.528  1.00  0.00    -0.455 OA
ATOM     20  C   UNL A   1      27.395  28.896  23.121  1.00  0.00     0.016 A 
ATOM     21  C   UNL A   1      29.745  28.680  22.547  1.00  0.00     0.138 A 
ATOM     22  C   UNL A   1      27.359  30.153  22.520  1.00  0.00     0.001 A 
ATOM     23  C   UNL A   1      29.703  29.939  21.945  1.00  0.00     0.048 A 
ATOM     24  C   UNL A   1      28.513  30.674  21.932  1.00  0.00     0.004 A 
ENDBRANCH   5   8
ENDBRANCH   3   4
ENDBRANCH   2   3
ENDBRANCH   1   2
BRANCH   1  25
ATOM     25  N   UNL A   1      32.689  30.472  25.810  1.00  0.00    -0.352 N 
ATOM     26  C   UNL A   1      33.143  31.185  26.900  1.00  0.00     0.251 C 
ATOM     27  H   UNL A   1      31.884  30.840  25.380  1.00  0.00     0.163 HD
ATOM     28  O   UNL A   1      32.444  32.071  27.374  1.00  0.00    -0.269 OA
BRANCH  26  29
ATOM     29  C   UNL A   1      34.455  30.873  27.521  1.00  0.00     0.039 A 
ATOM     30  C   UNL A   1      34.769  29.584  27.949  1.00  0.00     0.014 A 
ATOM     31  C   UNL A   1      35.404  31.894  27.659  1.00  0.00     0.014 A 
ATOM     32  C   UNL A   1      35.938  29.354  28.669  1.00  0.00     0.010 A 
ATOM     33  C   UNL A   1      36.625  31.638  28.294  1.00  0.00     0.010 A 
ATOM     34  C   UNL A   1      36.886  30.375  28.847  1.00  0.00    -0.014 A 
BRANCH  34  35
ATOM     35  C   UNL A   1      38.133  30.092  29.608  1.00  0.00     0.031 A 
ATOM     36  C   UNL A   1      38.314  30.607  31.012  1.00  0.00     0.074 A 
ATOM     37  C   UNL A   1      39.076  29.302  29.056  1.00  0.00     0.049 A 
ATOM     38  N   UNL A   1      39.332  30.456  31.823  1.00  0.00    -0.248 NA
ATOM     39  C   UNL A   1      37.212  31.398  31.584  1.00  0.00     0.031 C 
ATOM     40  C   UNL A   1      39.007  28.722  27.712  1.00  0.00     0.029 A 
ATOM     41  N   UNL A   1      40.258  28.819  29.561  1.00  0.00    -0.354 N 
ATOM     42  C   UNL A   1      39.001  31.139  32.986  1.00  0.00     0.074 A 
ATOM     43  C   UNL A   1      37.700  31.733  32.770  1.00  0.00     0.031 C 
ATOM     44  C   UNL A   1      40.057  27.908  27.527  1.00  0.00     0.029 A 
ATOM     45  C   UNL A   1      40.915  27.967  28.705  1.00  0.00     0.049 A 
ATOM     46  H   UNL A   1      40.602  29.061  30.451  1.00  0.00     0.167 HD
ATOM     47  C   UNL A   1      39.710  31.245  34.134  1.00  0.00     0.037 A 
ATOM     48  C   UNL A   1      42.085  27.317  28.845  1.00  0.00     0.037 A 
ATOM     49  C   UNL A   1      40.993  30.629  34.357  1.00  0.00     0.049 A 
ATOM     50  C   UNL A   1      42.876  27.503  30.110  1.00  0.00     0.074 A 
ATOM     51  C   UNL A   1      41.793  30.688  35.485  1.00  0.00     0.029 A 
ATOM     52  N   UNL A   1      41.655  29.829  33.438  1.00  0.00    -0.354 N 
ATOM     53  N   UNL A   1      42.560  28.173  31.190  1.00  0.00    -0.248 NA
ATOM     54  C   UNL A   1      44.195  26.856  30.167  1.00  0.00     0.031 C 
ATOM     55  C   UNL A   1      42.954  29.950  35.237  1.00  0.00     0.029 A 
ATOM     56  C   UNL A   1      42.859  29.397  33.971  1.00  0.00     0.049 A 
ATOM     57  H   UNL A   1      41.320  29.601  32.541  1.00  0.00     0.167 HD
ATOM     58  C   UNL A   1      43.629  28.020  32.059  1.00  0.00     0.074 A 
ATOM     59  C   UNL A   1      44.594  27.171  31.391  1.00  0.00     0.031 C 
ATOM     60  C   UNL A   1      43.802  28.544  33.296  1.00  0.00     0.037 A 
BRANCH  47  61
ATOM     61  C   UNL A   1      39.127  32.053  35.256  1.00  0.00     0.064 A 
ATOM     62  C   UNL A   1      38.403  31.448  36.293  1.00  0.00     0.173 A 
ATOM     63  C   UNL A   1      39.379  33.431  35.350  1.00  0.00     0.173 A 
ATOM     64  F   UNL A   1      38.125  30.136  36.243  1.00  0.00    -0.203 F 
ATOM     65  C   UNL A   1      37.952  32.191  37.381  1.00  0.00     0.198 A 
ATOM     66  C   UNL A   1      38.947  34.166  36.451  1.00  0.00     0.198 A 
ATOM     67  F   UNL A   1      40.074  34.058  34.388  1.00  0.00    -0.203 F 
ATOM     68  F   UNL A   1      37.245  31.593  38.351  1.00  0.00    -0.200 F 
ATOM     69  C   UNL A   1      38.234  33.545  37.464  1.00  0.00     0.200 A 
ATOM     70  F   UNL A   1      39.232  35.473  36.537  1.00  0.00    -0.200 F 
ATOM     71  F   UNL A   1      37.818  34.254  38.523  1.00  0.00    -0.200 F 
ENDBRANCH  47  61
BRANCH  48  72
ATOM     72  C   UNL A   1      42.584  26.437  27.756  1.00  0.00     0.064 A 
ATOM     73  C   UNL A   1      42.181  25.096  27.672  1.00  0.00     0.173 A 
ATOM     74  C   UNL A   1      43.469  26.912  26.777  1.00  0.00     0.173 A 
ATOM     75  F   UNL A   1      41.354  24.587  28.597  1.00  0.00    -0.203 F 
ATOM     76  C   UNL A   1      42.653  24.264  26.660  1.00  0.00     0.198 A 
ATOM     77  C   UNL A   1      43.916  26.089  25.747  1.00  0.00     0.198 A 
ATOM     78  F   UNL A   1      43.887  28.187  26.811  1.00  0.00    -0.203 F 
ATOM     79  F   UNL A   1      42.285  22.976  26.627  1.00  0.00    -0.200 F 
ATOM     80  C   UNL A   1      43.514  24.763  25.693  1.00  0.00     0.200 A 
ATOM     81  F   UNL A   1      44.734  26.580  24.807  1.00  0.00    -0.200 F 
ATOM     82  F   UNL A   1      43.961  23.965  24.714  1.00  0.00    -0.200 F 
ENDBRANCH  48  72
BRANCH  60  83
ATOM     83  C   UNL A   1      45.068  28.202  34.019  1.00  0.00     0.064 A 
ATOM     84  C   UNL A   1      46.201  29.024  33.935  1.00  0.00     0.173 A 
ATOM     85  C   UNL A   1      45.130  27.077  34.855  1.00  0.00     0.173 A 
ATOM     86  F   UNL A   1      46.195  30.103  33.138  1.00  0.00    -0.203 F 
ATOM     87  C   UNL A   1      47.357  28.723  34.651  1.00  0.00     0.198 A 
ATOM     88  C   UNL A   1      46.277  26.794  35.589  1.00  0.00     0.198 A 
ATOM     89  F   UNL A   1      44.069  26.264  34.975  1.00  0.00    -0.203 F 
ATOM     90  F   UNL A   1      48.439  29.503  34.529  1.00  0.00    -0.200 F 
ATOM     91  C   UNL A   1      47.391  27.614  35.483  1.00  0.00     0.200 A 
ATOM     92  F   UNL A   1      46.305  25.730  36.404  1.00  0.00    -0.200 F 
ATOM     93  F   UNL A   1      48.500  27.333  36.181  1.00  0.00    -0.200 F 
ENDBRANCH  60  83
ENDBRANCH  34  35
ENDBRANCH  26  29
ENDBRANCH   1  25
TORSDOF 10
ENDMDL
MODEL 3
REMARK VINA RESULT:     -13.6      1.220      8.079
REMARK SMILES Cc1cc2c(=O)c3ccccc3oc2c(C(=O)NCCCNC(=O)c2ccc(-c3c4nc(c(-c5c(F)c(F)c(F)c(F)c5F)c5ccc([nH]5)c(-c5c(F)c(F)c(F)c(F)c5F)c5nc(c(-c6c(F)c(F)c(F)c(F)c6F)c6ccc3[nH]6)C=C5)C=C4)cc2)c1C
REMARK SMILES IDX 21 1 20 2 19 3 18 4 16 5 17 6 15 8 1 9 2 10 3 11 88 12 4 13
REMARK SMILES IDX 89 14 5 15 14 16 6 17 7 18 13 19 8 20 12 21 9 22 11 23 10 24
REMARK SMILES IDX 22 25 23 26 24 28 25 29 26 30 87 31 27 32 86 33 28 34 29 35
REMARK SMILES IDX 30 36 80 37 31 38 85 39 79 40 81 41 32 42 84 43 78 44 77 45
REMARK SMILES IDX 33 47 65 48 45 49 64 50 46 51 49 52 63 53 82 54 47 55 48 56
REMARK SMILES IDX 62 58 83 59 50 60 34 61 35 62 43 63 36 64 37 65 41 66 44 67
REMARK SMILES IDX 38 68 39 69 42 70 40 71 66 72 67 73 75 74 68 75 69 76 73 77
REMARK SMILES IDX 76 78 70 79 71 80 74 81 72 82 51 83 52 84 60 85 53 86 54 87
REMARK SMILES IDX 58 88 61 89 55 90 56 91 59 92 57 93
REMARK H PARENT 18 7 22 27 81 46 49 57
REMARK Flexibility Score: inf
ROOT
ATOM      1  C   UNL A   1      33.181  29.237  25.153  1.00  0.00     0.118 C 
ENDROOT
BRANCH   1   2
ATOM      2  C   UNL A   1      33.199  29.295  23.632  1.00  0.00     0.042 C 
BRANCH   2   3
ATOM      3  C   UNL A   1      34.382  28.578  22.968  1.00  0.00     0.118 C 
BRANCH   3   4
ATOM      4  N   UNL A   1      33.899  27.651  21.963  1.00  0.00    -0.352 N 
ATOM      5  C   UNL A   1      33.196  26.476  21.903  1.00  0.00     0.255 C 
ATOM      6  O   UNL A   1      33.277  25.942  20.788  1.00  0.00    -0.269 OA
ATOM      7  H   UNL A   1      34.148  27.954  21.059  1.00  0.00     0.163 HD
BRANCH   5   8
ATOM      8  C   UNL A   1      32.362  25.776  22.960  1.00  0.00     0.086 A 
ATOM      9  C   UNL A   1      29.231  25.918  25.257  1.00  0.00     0.044 C 
ATOM     10  C   UNL A   1      30.562  25.543  24.647  1.00  0.00    -0.046 A 
ATOM     11  C   UNL A   1      31.283  24.535  25.284  1.00  0.00     0.019 A 
ATOM     12  C   UNL A   1      31.099  26.188  23.490  1.00  0.00    -0.032 A 
ATOM     13  C   UNL A   1      32.506  24.122  24.775  1.00  0.00     0.066 A 
ATOM     14  C   UNL A   1      30.287  27.305  22.914  1.00  0.00     0.045 C 
ATOM     15  C   UNL A   1      33.258  23.089  25.504  1.00  0.00     0.200 A 
ATOM     16  C   UNL A   1      33.036  24.699  23.619  1.00  0.00     0.151 A 
ATOM     17  O   UNL A   1      32.824  22.579  26.529  1.00  0.00    -0.288 OA
ATOM     18  C   UNL A   1      34.562  22.713  24.960  1.00  0.00     0.065 A 
ATOM     19  O   UNL A   1      34.220  24.223  23.078  1.00  0.00    -0.455 OA
ATOM     20  C   UNL A   1      35.370  21.782  25.620  1.00  0.00     0.016 A 
ATOM     21  C   UNL A   1      34.969  23.309  23.774  1.00  0.00     0.138 A 
ATOM     22  C   UNL A   1      36.607  21.441  25.075  1.00  0.00     0.001 A 
ATOM     23  C   UNL A   1      36.209  22.964  23.234  1.00  0.00     0.048 A 
ATOM     24  C   UNL A   1      37.026  22.032  23.882  1.00  0.00     0.004 A 
ENDBRANCH   5   8
ENDBRANCH   3   4
ENDBRANCH   2   3
ENDBRANCH   1   2
BRANCH   1  25
ATOM     25  N   UNL A   1      32.689  30.469  25.749  1.00  0.00    -0.352 N 
ATOM     26  C   UNL A   1      33.154  31.178  26.836  1.00  0.00     0.251 C 
ATOM     27  H   UNL A   1      31.901  30.857  25.307  1.00  0.00     0.163 HD
ATOM     28  O   UNL A   1      32.478  32.089  27.295  1.00  0.00    -0.269 OA
BRANCH  26  29
ATOM     29  C   UNL A   1      34.450  30.831  27.474  1.00  0.00     0.039 A 
ATOM     30  C   UNL A   1      34.725  29.533  27.903  1.00  0.00     0.014 A 
ATOM     31  C   UNL A   1      35.423  31.828  27.626  1.00  0.00     0.014 A 
ATOM     32  C   UNL A   1      35.879  29.273  28.637  1.00  0.00     0.010 A 
ATOM     33  C   UNL A   1      36.629  31.539  28.276  1.00  0.00     0.010 A 
ATOM     34  C   UNL A   1      36.850  30.269  28.829  1.00  0.00    -0.014 A 
BRANCH  34  35
ATOM     35  C   UNL A   1      38.080  29.952  29.606  1.00  0.00     0.031 A 
ATOM     36  C   UNL A   1      38.266  30.480  31.005  1.00  0.00     0.074 A 
ATOM     37  C   UNL A   1      39.000  29.123  29.073  1.00  0.00     0.049 A 
ATOM     38  N   UNL A   1      39.271  30.305  31.827  1.00  0.00    -0.248 NA
ATOM     39  C   UNL A   1      37.187  31.317  31.556  1.00  0.00     0.031 C 
ATOM     40  C   UNL A   1      38.922  28.528  27.736  1.00  0.00     0.029 A 
ATOM     41  N   UNL A   1      40.159  28.606  29.596  1.00  0.00    -0.354 N 
ATOM     42  C   UNL A   1      38.954  31.015  32.978  1.00  0.00     0.074 A 
ATOM     43  C   UNL A   1      37.676  31.651  32.742  1.00  0.00     0.031 C 
ATOM     44  C   UNL A   1      39.944  27.675  27.572  1.00  0.00     0.029 A 
ATOM     45  C   UNL A   1      40.793  27.720  28.758  1.00  0.00     0.049 A 
ATOM     46  H   UNL A   1      40.504  28.847  30.486  1.00  0.00     0.167 HD
ATOM     47  C   UNL A   1      39.656  31.112  34.131  1.00  0.00     0.037 A 
ATOM     48  C   UNL A   1      41.939  27.031  28.917  1.00  0.00     0.037 A 
ATOM     49  C   UNL A   1      40.915  30.454  34.374  1.00  0.00     0.049 A 
ATOM     50  C   UNL A   1      42.724  27.207  30.187  1.00  0.00     0.074 A 
ATOM     51  C   UNL A   1      41.706  30.500  35.508  1.00  0.00     0.029 A 
ATOM     52  N   UNL A   1      41.556  29.619  33.472  1.00  0.00    -0.354 N 
ATOM     53  N   UNL A   1      42.423  27.902  31.255  1.00  0.00    -0.248 NA
ATOM     54  C   UNL A   1      44.019  26.515  30.265  1.00  0.00     0.031 C 
ATOM     55  C   UNL A   1      42.843  29.719  35.281  1.00  0.00     0.029 A 
ATOM     56  C   UNL A   1      42.740  29.153  34.022  1.00  0.00     0.049 A 
ATOM     57  H   UNL A   1      41.221  29.391  32.575  1.00  0.00     0.167 HD
ATOM     58  C   UNL A   1      43.478  27.724  32.136  1.00  0.00     0.074 A 
ATOM     59  C   UNL A   1      44.419  26.833  31.488  1.00  0.00     0.031 C 
ATOM     60  C   UNL A   1      43.658  28.258  33.367  1.00  0.00     0.037 A 
BRANCH  47  61
ATOM     61  C   UNL A   1      39.091  31.955  35.237  1.00  0.00     0.064 A 
ATOM     62  C   UNL A   1      38.354  31.386  36.284  1.00  0.00     0.173 A 
ATOM     63  C   UNL A   1      39.376  33.328  35.304  1.00  0.00     0.173 A 
ATOM     64  F   UNL A   1      38.046  30.080  36.261  1.00  0.00    -0.203 F 
ATOM     65  C   UNL A   1      37.920  32.160  37.357  1.00  0.00     0.198 A 
ATOM     66  C   UNL A   1      38.960  34.094  36.390  1.00  0.00     0.198 A 
ATOM     67  F   UNL A   1      40.085  33.919  34.330  1.00  0.00    -0.203 F 
ATOM     68  F   UNL A   1      37.200  31.598  38.339  1.00  0.00    -0.200 F 
ATOM     69  C   UNL A   1      38.233  33.510  37.414  1.00  0.00     0.200 A 
ATOM     70  F   UNL A   1      39.276  35.395  36.450  1.00  0.00    -0.200 F 
ATOM     71  F   UNL A   1      37.834  34.248  38.460  1.00  0.00    -0.200 F 
ENDBRANCH  47  61
BRANCH  48  72
ATOM     72  C   UNL A   1      42.416  26.120  27.844  1.00  0.00     0.064 A 
ATOM     73  C   UNL A   1      41.966  24.793  27.773  1.00  0.00     0.173 A 
ATOM     74  C   UNL A   1      43.328  26.550  26.869  1.00  0.00     0.173 A 
ATOM     75  F   UNL A   1      41.112  24.327  28.696  1.00  0.00    -0.203 F 
ATOM     76  C   UNL A   1      42.418  23.932  26.776  1.00  0.00     0.198 A 
ATOM     77  C   UNL A   1      43.755  25.697  25.853  1.00  0.00     0.198 A 
ATOM     78  F   UNL A   1      43.791  27.809  26.891  1.00  0.00    -0.203 F 
ATOM     79  F   UNL A   1      42.004  22.658  26.757  1.00  0.00    -0.200 F 
ATOM     80  C   UNL A   1      43.306  24.387  25.812  1.00  0.00     0.200 A 
ATOM     81  F   UNL A   1      44.599  26.147  24.916  1.00  0.00    -0.200 F 
ATOM     82  F   UNL A   1      43.733  23.560  24.848  1.00  0.00    -0.200 F 
ENDBRANCH  48  72
BRANCH  60  83
ATOM     83  C   UNL A   1      44.905  27.882  34.107  1.00  0.00     0.064 A 
ATOM     84  C   UNL A   1      46.063  28.668  34.030  1.00  0.00     0.173 A 
ATOM     85  C   UNL A   1      44.923  26.761  34.950  1.00  0.00     0.173 A 
ATOM     86  F   UNL A   1      46.099  29.742  33.226  1.00  0.00    -0.203 F 
ATOM     87  C   UNL A   1      47.202  28.336  34.760  1.00  0.00     0.198 A 
ATOM     88  C   UNL A   1      46.053  26.447  35.698  1.00  0.00     0.198 A 
ATOM     89  F   UNL A   1      43.836  25.982  35.062  1.00  0.00    -0.203 F 
ATOM     90  F   UNL A   1      48.309  29.081  34.646  1.00  0.00    -0.200 F 
ATOM     91  C   UNL A   1      47.192  27.232  35.600  1.00  0.00     0.200 A 
ATOM     92  F   UNL A   1      46.039  25.388  36.520  1.00  0.00    -0.200 F 
ATOM     93  F   UNL A   1      48.284  26.922  36.312  1.00  0.00    -0.200 F 
ENDBRANCH  60  83
ENDBRANCH  34  35
ENDBRANCH  26  29
ENDBRANCH   1  25
TORSDOF 10
ENDMDL
