MODEL 1
REMARK VINA RESULT:     -14.7      0.000      0.000
REMARK SMILES COc1ccccc1[C@@H]1C[N@@H+](Cc2cn3cc(C)ccc3n2)C[C@H]1C(=O)NCCCNC(=O)c1ccc(-c2c3nc(c(-c4c(F)c(F)c(F)c(F)c4F)c4ccc([nH]4)c(-c4c(F)c(F)c(F)c(F)c4F)c4nc(c(-c5c(F)c(F)c(F)c(F)c5F)c5ccc2[nH]5)C=C4)C=C3)cc1
REMARK SMILES IDX 29 1 28 2 27 3 25 4 26 5 24 7 9 8 10 9 11 10 23 11 8 13 3 14
REMARK SMILES IDX 4 15 5 16 7 17 6 18 2 19 1 20 12 21 13 22 14 23 22 24 15 25
REMARK SMILES IDX 21 26 16 27 20 28 17 29 19 30 18 31 30 32 31 33 32 34 33 36
REMARK SMILES IDX 34 37 35 38 96 39 36 40 95 41 37 42 38 43 39 44 89 45 40 46
REMARK SMILES IDX 94 47 88 48 90 49 41 50 93 51 87 52 86 53 42 55 74 56 54 57
REMARK SMILES IDX 73 58 55 59 58 60 72 61 91 62 56 63 57 64 71 66 92 67 59 68
REMARK SMILES IDX 43 69 44 70 52 71 45 72 46 73 50 74 53 75 47 76 48 77 51 78
REMARK SMILES IDX 49 79 75 80 76 81 84 82 77 83 78 84 82 85 85 86 79 87 80 88
REMARK SMILES IDX 83 89 81 90 60 91 61 92 69 93 62 94 63 95 67 96 70 97 64 98
REMARK SMILES IDX 65 99 68 100 66 101
REMARK H PARENT 27 6 11 12 31 35 90 54 58 65
REMARK Flexibility Score: inf
ROOT
ATOM      1  C   UNL A   1      32.345  29.397  27.041  1.00  0.00     0.042 C 
ENDROOT
BRANCH   1   2
ATOM      2  C   UNL A   1      31.663  28.235  27.801  1.00  0.00     0.117 C 
BRANCH   2   3
ATOM      3  N   UNL A   1      31.118  27.091  27.051  1.00  0.00    -0.356 N 
ATOM      4  C   UNL A   1      31.544  26.163  26.144  1.00  0.00     0.229 C 
ATOM      5  O   UNL A   1      30.651  25.364  25.804  1.00  0.00    -0.275 OA
ATOM      6  H   UNL A   1      30.167  26.956  27.266  1.00  0.00     0.163 HD
BRANCH   4   7
ATOM      7  C   UNL A   1      32.952  25.943  25.539  1.00  0.00     0.146 C 
ATOM      8  C   UNL A   1      33.191  24.585  24.799  1.00  0.00     0.096 C 
ATOM      9  C   UNL A   1      34.081  24.942  23.595  1.00  0.00     0.272 C 
ATOM     10  N   UNL A   1      33.712  26.319  23.243  1.00  0.00    -0.329 N 
ATOM     11  C   UNL A   1      33.500  26.967  24.547  1.00  0.00     0.276 C 
ATOM     12  H   UNL A   1      34.441  26.797  22.716  1.00  0.00     0.348 HD
BRANCH   8  13
ATOM     13  C   UNL A   1      33.486  23.230  25.424  1.00  0.00     0.004 A 
ATOM     14  C   UNL A   1      33.127  21.970  24.934  1.00  0.00     0.122 A 
ATOM     15  C   UNL A   1      33.284  20.826  25.741  1.00  0.00     0.047 A 
ATOM     16  C   UNL A   1      33.773  20.910  27.045  1.00  0.00     0.004 A 
ATOM     17  C   UNL A   1      33.987  23.277  26.757  1.00  0.00     0.008 A 
ATOM     18  C   UNL A   1      34.115  22.146  27.561  1.00  0.00     0.001 A 
BRANCH  14  19
ATOM     19  O   UNL A   1      32.443  21.744  23.773  1.00  0.00    -0.496 OA
ATOM     20  C   UNL A   1      32.354  20.377  23.406  1.00  0.00     0.278 C 
ENDBRANCH  14  19
ENDBRANCH   8  13
BRANCH  10  21
ATOM     21  C   UNL A   1      32.619  26.448  22.240  1.00  0.00     0.321 C 
BRANCH  21  22
ATOM     22  C   UNL A   1      31.514  27.438  22.528  1.00  0.00     0.114 A 
ATOM     23  C   UNL A   1      31.470  28.822  22.519  1.00  0.00     0.122 A 
ATOM     24  N   UNL A   1      30.287  26.974  22.914  1.00  0.00    -0.228 NA
ATOM     25  N   UNL A   1      30.162  29.171  22.809  1.00  0.00    -0.306 N 
ATOM     26  C   UNL A   1      29.466  27.989  22.950  1.00  0.00     0.137 A 
ATOM     27  C   UNL A   1      29.549  30.410  22.965  1.00  0.00     0.096 A 
ATOM     28  C   UNL A   1      28.057  28.035  23.111  1.00  0.00     0.048 A 
ATOM     29  C   UNL A   1      28.223  30.468  23.220  1.00  0.00    -0.034 A 
ATOM     30  C   UNL A   1      27.452  29.226  23.248  1.00  0.00     0.009 A 
ATOM     31  C   UNL A   1      27.489  31.742  23.455  1.00  0.00     0.046 C 
ENDBRANCH  21  22
ENDBRANCH  10  21
ENDBRANCH   4   7
ENDBRANCH   2   3
ENDBRANCH   1   2
BRANCH   1  32
ATOM     32  C   UNL A   1      33.755  29.711  27.489  1.00  0.00     0.118 C 
BRANCH  32  33
ATOM     33  N   UNL A   1      34.111  31.113  27.288  1.00  0.00    -0.352 N 
ATOM     34  C   UNL A   1      35.229  31.805  27.680  1.00  0.00     0.251 C 
ATOM     35  H   UNL A   1      33.444  31.645  26.794  1.00  0.00     0.163 HD
ATOM     36  O   UNL A   1      35.224  33.040  27.624  1.00  0.00    -0.269 OA
BRANCH  34  37
ATOM     37  C   UNL A   1      36.452  31.106  28.129  1.00  0.00     0.039 A 
ATOM     38  C   UNL A   1      37.357  31.745  28.988  1.00  0.00     0.014 A 
ATOM     39  C   UNL A   1      36.769  29.848  27.626  1.00  0.00     0.014 A 
ATOM     40  C   UNL A   1      38.576  31.136  29.280  1.00  0.00     0.010 A 
ATOM     41  C   UNL A   1      37.889  29.180  28.037  1.00  0.00     0.010 A 
ATOM     42  C   UNL A   1      38.848  29.864  28.761  1.00  0.00    -0.014 A 
BRANCH  42  43
ATOM     43  C   UNL A   1      40.106  29.175  29.007  1.00  0.00     0.031 A 
ATOM     44  C   UNL A   1      40.418  28.933  30.443  1.00  0.00     0.074 A 
ATOM     45  C   UNL A   1      40.788  28.554  28.018  1.00  0.00     0.049 A 
ATOM     46  N   UNL A   1      41.462  29.263  31.123  1.00  0.00    -0.248 NA
ATOM     47  C   UNL A   1      39.367  28.302  31.249  1.00  0.00     0.031 C 
ATOM     48  C   UNL A   1      40.449  28.395  26.595  1.00  0.00     0.029 A 
ATOM     49  N   UNL A   1      41.928  27.828  28.125  1.00  0.00    -0.354 N 
ATOM     50  C   UNL A   1      41.266  28.768  32.414  1.00  0.00     0.074 A 
ATOM     51  C   UNL A   1      39.916  28.276  32.464  1.00  0.00     0.031 C 
ATOM     52  C   UNL A   1      41.239  27.448  26.039  1.00  0.00     0.029 A 
ATOM     53  C   UNL A   1      42.253  27.075  27.005  1.00  0.00     0.049 A 
ATOM     54  H   UNL A   1      42.485  27.835  28.937  1.00  0.00     0.167 HD
ATOM     55  C   UNL A   1      42.293  28.659  33.302  1.00  0.00     0.037 A 
ATOM     56  C   UNL A   1      43.281  26.197  26.906  1.00  0.00     0.037 A 
ATOM     57  C   UNL A   1      43.389  29.511  32.926  1.00  0.00     0.049 A 
ATOM     58  C   UNL A   1      44.230  26.517  28.004  1.00  0.00     0.074 A 
ATOM     59  C   UNL A   1      43.512  30.880  32.782  1.00  0.00     0.029 A 
ATOM     60  N   UNL A   1      44.427  28.972  32.205  1.00  0.00    -0.354 N 
ATOM     61  N   UNL A   1      44.909  27.629  28.069  1.00  0.00    -0.248 NA
ATOM     62  C   UNL A   1      44.040  25.821  29.269  1.00  0.00     0.031 C 
ATOM     63  C   UNL A   1      44.238  31.048  31.566  1.00  0.00     0.029 A 
ATOM     64  C   UNL A   1      44.602  29.780  31.107  1.00  0.00     0.049 A 
ATOM     65  H   UNL A   1      44.946  28.167  32.431  1.00  0.00     0.167 HD
ATOM     66  C   UNL A   1      44.881  27.986  29.408  1.00  0.00     0.074 A 
ATOM     67  C   UNL A   1      44.379  26.804  30.109  1.00  0.00     0.031 C 
ATOM     68  C   UNL A   1      44.987  29.290  29.803  1.00  0.00     0.037 A 
BRANCH  55  69
ATOM     69  C   UNL A   1      42.415  27.584  34.351  1.00  0.00     0.064 A 
ATOM     70  C   UNL A   1      42.991  26.344  34.013  1.00  0.00     0.173 A 
ATOM     71  C   UNL A   1      41.727  27.622  35.582  1.00  0.00     0.173 A 
ATOM     72  F   UNL A   1      43.663  26.192  32.861  1.00  0.00    -0.203 F 
ATOM     73  C   UNL A   1      42.821  25.209  34.811  1.00  0.00     0.198 A 
ATOM     74  C   UNL A   1      41.598  26.498  36.398  1.00  0.00     0.198 A 
ATOM     75  F   UNL A   1      41.068  28.711  35.993  1.00  0.00    -0.203 F 
ATOM     76  F   UNL A   1      43.289  24.025  34.393  1.00  0.00    -0.200 F 
ATOM     77  C   UNL A   1      42.116  25.285  35.998  1.00  0.00     0.200 A 
ATOM     78  F   UNL A   1      40.899  26.589  37.539  1.00  0.00    -0.200 F 
ATOM     79  F   UNL A   1      41.897  24.186  36.732  1.00  0.00    -0.200 F 
ENDBRANCH  55  69
BRANCH  56  80
ATOM     80  C   UNL A   1      43.341  24.928  26.146  1.00  0.00     0.064 A 
ATOM     81  C   UNL A   1      44.333  24.708  25.179  1.00  0.00     0.173 A 
ATOM     82  C   UNL A   1      42.606  23.800  26.562  1.00  0.00     0.173 A 
ATOM     83  F   UNL A   1      45.105  25.722  24.763  1.00  0.00    -0.203 F 
ATOM     84  C   UNL A   1      44.593  23.428  24.673  1.00  0.00     0.198 A 
ATOM     85  C   UNL A   1      42.865  22.525  26.056  1.00  0.00     0.198 A 
ATOM     86  F   UNL A   1      41.691  23.901  27.537  1.00  0.00    -0.203 F 
ATOM     87  F   UNL A   1      45.588  23.247  23.794  1.00  0.00    -0.200 F 
ATOM     88  C   UNL A   1      43.868  22.337  25.122  1.00  0.00     0.200 A 
ATOM     89  F   UNL A   1      42.185  21.470  26.528  1.00  0.00    -0.200 F 
ATOM     90  F   UNL A   1      44.162  21.103  24.688  1.00  0.00    -0.200 F 
ENDBRANCH  56  80
BRANCH  68  91
ATOM     91  C   UNL A   1      45.308  30.328  28.756  1.00  0.00     0.064 A 
ATOM     92  C   UNL A   1      44.342  31.046  28.028  1.00  0.00     0.173 A 
ATOM     93  C   UNL A   1      46.641  30.731  28.609  1.00  0.00     0.173 A 
ATOM     94  F   UNL A   1      43.038  30.803  28.184  1.00  0.00    -0.203 F 
ATOM     95  C   UNL A   1      44.696  32.085  27.169  1.00  0.00     0.198 A 
ATOM     96  C   UNL A   1      46.991  31.795  27.778  1.00  0.00     0.198 A 
ATOM     97  F   UNL A   1      47.607  30.128  29.319  1.00  0.00    -0.203 F 
ATOM     98  F   UNL A   1      43.750  32.747  26.486  1.00  0.00    -0.200 F 
ATOM     99  C   UNL A   1      46.021  32.465  27.052  1.00  0.00     0.200 A 
ATOM    100  F   UNL A   1      48.269  32.191  27.710  1.00  0.00    -0.200 F 
ATOM    101  F   UNL A   1      46.360  33.492  26.261  1.00  0.00    -0.200 F 
ENDBRANCH  68  91
ENDBRANCH  42  43
ENDBRANCH  34  37
ENDBRANCH  32  33
ENDBRANCH   1  32
TORSDOF 14
ENDMDL
MODEL 2
REMARK VINA RESULT:     -14.7      1.498      4.467
REMARK SMILES COc1ccccc1[C@@H]1C[N@@H+](Cc2cn3cc(C)ccc3n2)C[C@H]1C(=O)NCCCNC(=O)c1ccc(-c2c3nc(c(-c4c(F)c(F)c(F)c(F)c4F)c4ccc([nH]4)c(-c4c(F)c(F)c(F)c(F)c4F)c4nc(c(-c5c(F)c(F)c(F)c(F)c5F)c5ccc2[nH]5)C=C4)C=C3)cc1
REMARK SMILES IDX 29 1 28 2 27 3 25 4 26 5 24 7 9 8 10 9 11 10 23 11 8 13 3 14
REMARK SMILES IDX 4 15 5 16 7 17 6 18 2 19 1 20 12 21 13 22 14 23 22 24 15 25
REMARK SMILES IDX 21 26 16 27 20 28 17 29 19 30 18 31 30 32 31 33 32 34 33 36
REMARK SMILES IDX 34 37 35 38 96 39 36 40 95 41 37 42 38 43 39 44 89 45 40 46
REMARK SMILES IDX 94 47 88 48 90 49 41 50 93 51 87 52 86 53 42 55 74 56 54 57
REMARK SMILES IDX 73 58 55 59 58 60 72 61 91 62 56 63 57 64 71 66 92 67 59 68
REMARK SMILES IDX 43 69 44 70 52 71 45 72 46 73 50 74 53 75 47 76 48 77 51 78
REMARK SMILES IDX 49 79 75 80 76 81 84 82 77 83 78 84 82 85 85 86 79 87 80 88
REMARK SMILES IDX 83 89 81 90 60 91 61 92 69 93 62 94 63 95 67 96 70 97 64 98
REMARK SMILES IDX 65 99 68 100 66 101
REMARK H PARENT 27 6 11 12 31 35 90 54 58 65
REMARK Flexibility Score: inf
ROOT
ATOM      1  C   UNL A   1      32.441  29.920  27.135  1.00  0.00     0.042 C 
ENDROOT
BRANCH   1   2
ATOM      2  C   UNL A   1      31.936  28.465  27.276  1.00  0.00     0.117 C 
BRANCH   2   3
ATOM      3  N   UNL A   1      32.736  27.357  26.726  1.00  0.00    -0.356 N 
ATOM      4  C   UNL A   1      32.541  26.202  26.024  1.00  0.00     0.229 C 
ATOM      5  O   UNL A   1      33.600  25.587  25.789  1.00  0.00    -0.275 OA
ATOM      6  H   UNL A   1      33.692  27.488  26.923  1.00  0.00     0.163 HD
BRANCH   4   7
ATOM      7  C   UNL A   1      31.235  25.596  25.456  1.00  0.00     0.146 C 
ATOM      8  C   UNL A   1      30.835  26.031  24.006  1.00  0.00     0.096 C 
ATOM      9  C   UNL A   1      30.247  24.764  23.361  1.00  0.00     0.272 C 
ATOM     10  N   UNL A   1      30.951  23.647  24.004  1.00  0.00    -0.329 N 
ATOM     11  C   UNL A   1      31.083  24.077  25.405  1.00  0.00     0.276 C 
ATOM     12  H   UNL A   1      30.434  22.771  23.942  1.00  0.00     0.348 HD
BRANCH   8  13
ATOM     13  C   UNL A   1      30.164  27.328  23.582  1.00  0.00     0.004 A 
ATOM     14  C   UNL A   1      30.726  28.608  23.553  1.00  0.00     0.122 A 
ATOM     15  C   UNL A   1      29.909  29.736  23.344  1.00  0.00     0.047 A 
ATOM     16  C   UNL A   1      28.527  29.620  23.183  1.00  0.00     0.004 A 
ATOM     17  C   UNL A   1      28.752  27.248  23.409  1.00  0.00     0.008 A 
ATOM     18  C   UNL A   1      27.943  28.368  23.229  1.00  0.00     0.001 A 
BRANCH  14  19
ATOM     19  O   UNL A   1      32.013  28.909  23.901  1.00  0.00    -0.496 OA
ATOM     20  C   UNL A   1      32.941  28.827  22.831  1.00  0.00     0.278 C 
ENDBRANCH  14  19
ENDBRANCH   8  13
BRANCH  10  21
ATOM     21  C   UNL A   1      32.193  23.198  23.316  1.00  0.00     0.321 C 
BRANCH  21  22
ATOM     22  C   UNL A   1      32.642  21.772  23.534  1.00  0.00     0.114 A 
ATOM     23  C   UNL A   1      33.509  21.190  24.444  1.00  0.00     0.122 A 
ATOM     24  N   UNL A   1      32.184  20.793  22.696  1.00  0.00    -0.228 NA
ATOM     25  N   UNL A   1      33.478  19.829  24.196  1.00  0.00    -0.306 N 
ATOM     26  C   UNL A   1      32.575  19.641  23.171  1.00  0.00     0.137 A 
ATOM     27  C   UNL A   1      34.167  18.768  24.774  1.00  0.00     0.096 A 
ATOM     28  C   UNL A   1      32.227  18.318  22.794  1.00  0.00     0.048 A 
ATOM     29  C   UNL A   1      33.919  17.507  24.355  1.00  0.00    -0.034 A 
ATOM     30  C   UNL A   1      32.874  17.285  23.356  1.00  0.00     0.009 A 
ATOM     31  C   UNL A   1      34.643  16.314  24.874  1.00  0.00     0.046 C 
ENDBRANCH  21  22
ENDBRANCH  10  21
ENDBRANCH   4   7
ENDBRANCH   2   3
ENDBRANCH   1   2
BRANCH   1  32
ATOM     32  C   UNL A   1      33.869  30.144  27.583  1.00  0.00     0.118 C 
BRANCH  32  33
ATOM     33  N   UNL A   1      34.320  31.515  27.357  1.00  0.00    -0.352 N 
ATOM     34  C   UNL A   1      35.490  32.131  27.727  1.00  0.00     0.251 C 
ATOM     35  H   UNL A   1      33.688  32.085  26.863  1.00  0.00     0.163 HD
ATOM     36  O   UNL A   1      35.572  33.361  27.653  1.00  0.00    -0.269 OA
BRANCH  34  37
ATOM     37  C   UNL A   1      36.665  31.352  28.174  1.00  0.00     0.039 A 
ATOM     38  C   UNL A   1      37.540  31.881  29.133  1.00  0.00     0.014 A 
ATOM     39  C   UNL A   1      36.971  30.134  27.576  1.00  0.00     0.014 A 
ATOM     40  C   UNL A   1      38.723  31.207  29.431  1.00  0.00     0.010 A 
ATOM     41  C   UNL A   1      38.046  29.394  27.982  1.00  0.00     0.010 A 
ATOM     42  C   UNL A   1      38.984  29.977  28.814  1.00  0.00    -0.014 A 
BRANCH  42  43
ATOM     43  C   UNL A   1      40.206  29.226  29.062  1.00  0.00     0.031 A 
ATOM     44  C   UNL A   1      40.502  28.966  30.498  1.00  0.00     0.074 A 
ATOM     45  C   UNL A   1      40.859  28.575  28.073  1.00  0.00     0.049 A 
ATOM     46  N   UNL A   1      41.560  29.242  31.181  1.00  0.00    -0.248 NA
ATOM     47  C   UNL A   1      39.419  28.385  31.300  1.00  0.00     0.031 C 
ATOM     48  C   UNL A   1      40.516  28.436  26.649  1.00  0.00     0.029 A 
ATOM     49  N   UNL A   1      41.961  27.792  28.180  1.00  0.00    -0.354 N 
ATOM     50  C   UNL A   1      41.335  28.754  32.470  1.00  0.00     0.074 A 
ATOM     51  C   UNL A   1      39.962  28.329  32.516  1.00  0.00     0.031 C 
ATOM     52  C   UNL A   1      41.260  27.452  26.092  1.00  0.00     0.029 A 
ATOM     53  C   UNL A   1      42.251  27.027  27.060  1.00  0.00     0.049 A 
ATOM     54  H   UNL A   1      42.516  27.769  28.994  1.00  0.00     0.167 HD
ATOM     55  C   UNL A   1      42.353  28.591  33.361  1.00  0.00     0.037 A 
ATOM     56  C   UNL A   1      43.235  26.099  26.961  1.00  0.00     0.037 A 
ATOM     57  C   UNL A   1      43.491  29.389  32.990  1.00  0.00     0.049 A 
ATOM     58  C   UNL A   1      44.196  26.369  28.063  1.00  0.00     0.074 A 
ATOM     59  C   UNL A   1      43.683  30.751  32.849  1.00  0.00     0.029 A 
ATOM     60  N   UNL A   1      44.503  28.802  32.270  1.00  0.00    -0.354 N 
ATOM     61  N   UNL A   1      44.929  27.446  28.132  1.00  0.00    -0.248 NA
ATOM     62  C   UNL A   1      43.968  25.681  29.325  1.00  0.00     0.031 C 
ATOM     63  C   UNL A   1      44.420  30.885  31.635  1.00  0.00     0.029 A 
ATOM     64  C   UNL A   1      44.721  29.602  31.174  1.00  0.00     0.049 A 
ATOM     65  H   UNL A   1      44.981  27.971  32.495  1.00  0.00     0.167 HD
ATOM     66  C   UNL A   1      44.915  27.801  29.472  1.00  0.00     0.074 A 
ATOM     67  C   UNL A   1      44.353  26.643  30.168  1.00  0.00     0.031 C 
ATOM     68  C   UNL A   1      45.085  29.097  29.871  1.00  0.00     0.037 A 
BRANCH  55  69
ATOM     69  C   UNL A   1      42.419  27.510  34.407  1.00  0.00     0.064 A 
ATOM     70  C   UNL A   1      42.941  26.246  34.070  1.00  0.00     0.173 A 
ATOM     71  C   UNL A   1      41.725  27.575  35.634  1.00  0.00     0.173 A 
ATOM     72  F   UNL A   1      43.614  26.067  32.923  1.00  0.00    -0.203 F 
ATOM     73  C   UNL A   1      42.714  25.117  34.863  1.00  0.00     0.198 A 
ATOM     74  C   UNL A   1      41.539  26.456  36.446  1.00  0.00     0.198 A 
ATOM     75  F   UNL A   1      41.113  28.692  36.044  1.00  0.00    -0.203 F 
ATOM     76  F   UNL A   1      43.131  23.915  34.445  1.00  0.00    -0.200 F 
ATOM     77  C   UNL A   1      42.005  25.222  36.045  1.00  0.00     0.200 A 
ATOM     78  F   UNL A   1      40.837  26.576  37.582  1.00  0.00    -0.200 F 
ATOM     79  F   UNL A   1      41.731  24.132  36.774  1.00  0.00    -0.200 F 
ENDBRANCH  55  69
BRANCH  56  80
ATOM     80  C   UNL A   1      43.234  24.831  26.198  1.00  0.00     0.064 A 
ATOM     81  C   UNL A   1      44.160  24.602  25.169  1.00  0.00     0.173 A 
ATOM     82  C   UNL A   1      42.516  23.709  26.660  1.00  0.00     0.173 A 
ATOM     83  F   UNL A   1      44.913  25.610  24.705  1.00  0.00    -0.203 F 
ATOM     84  C   UNL A   1      44.375  23.321  24.647  1.00  0.00     0.198 A 
ATOM     85  C   UNL A   1      42.731  22.432  26.137  1.00  0.00     0.198 A 
ATOM     86  F   UNL A   1      41.667  23.817  27.692  1.00  0.00    -0.203 F 
ATOM     87  F   UNL A   1      45.309  23.131  23.706  1.00  0.00    -0.200 F 
ATOM     88  C   UNL A   1      43.669  22.236  25.141  1.00  0.00     0.200 A 
ATOM     89  F   UNL A   1      42.072  21.383  26.652  1.00  0.00    -0.200 F 
ATOM     90  F   UNL A   1      43.924  21.000  24.688  1.00  0.00    -0.200 F 
ENDBRANCH  56  80
BRANCH  68  91
ATOM     91  C   UNL A   1      45.460  30.120  28.827  1.00  0.00     0.064 A 
ATOM     92  C   UNL A   1      44.533  30.891  28.103  1.00  0.00     0.173 A 
ATOM     93  C   UNL A   1      46.812  30.452  28.680  1.00  0.00     0.173 A 
ATOM     94  F   UNL A   1      43.218  30.717  28.259  1.00  0.00    -0.203 F 
ATOM     95  C   UNL A   1      44.941  31.913  27.247  1.00  0.00     0.198 A 
ATOM     96  C   UNL A   1      47.217  31.499  27.853  1.00  0.00     0.198 A 
ATOM     97  F   UNL A   1      47.745  29.796  29.386  1.00  0.00    -0.203 F 
ATOM     98  F   UNL A   1      44.030  32.627  26.567  1.00  0.00    -0.200 F 
ATOM     99  C   UNL A   1      46.283  32.222  27.129  1.00  0.00     0.200 A 
ATOM    100  F   UNL A   1      48.515  31.827  27.785  1.00  0.00    -0.200 F 
ATOM    101  F   UNL A   1      46.676  33.233  26.342  1.00  0.00    -0.200 F 
ENDBRANCH  68  91
ENDBRANCH  42  43
ENDBRANCH  34  37
ENDBRANCH  32  33
ENDBRANCH   1  32
TORSDOF 14
ENDMDL
MODEL 3
REMARK VINA RESULT:     -14.6      3.495      9.387
REMARK SMILES COc1ccccc1[C@@H]1C[N@@H+](Cc2cn3cc(C)ccc3n2)C[C@H]1C(=O)NCCCNC(=O)c1ccc(-c2c3nc(c(-c4c(F)c(F)c(F)c(F)c4F)c4ccc([nH]4)c(-c4c(F)c(F)c(F)c(F)c4F)c4nc(c(-c5c(F)c(F)c(F)c(F)c5F)c5ccc2[nH]5)C=C4)C=C3)cc1
REMARK SMILES IDX 29 1 28 2 27 3 25 4 26 5 24 7 9 8 10 9 11 10 23 11 8 13 3 14
REMARK SMILES IDX 4 15 5 16 7 17 6 18 2 19 1 20 12 21 13 22 14 23 22 24 15 25
REMARK SMILES IDX 21 26 16 27 20 28 17 29 19 30 18 31 30 32 31 33 32 34 33 36
REMARK SMILES IDX 34 37 35 38 96 39 36 40 95 41 37 42 38 43 39 44 89 45 40 46
REMARK SMILES IDX 94 47 88 48 90 49 41 50 93 51 87 52 86 53 42 55 74 56 54 57
REMARK SMILES IDX 73 58 55 59 58 60 72 61 91 62 56 63 57 64 71 66 92 67 59 68
REMARK SMILES IDX 43 69 44 70 52 71 45 72 46 73 50 74 53 75 47 76 48 77 51 78
REMARK SMILES IDX 49 79 75 80 76 81 84 82 77 83 78 84 82 85 85 86 79 87 80 88
REMARK SMILES IDX 83 89 81 90 60 91 61 92 69 93 62 94 63 95 67 96 70 97 64 98
REMARK SMILES IDX 65 99 68 100 66 101
REMARK H PARENT 27 6 11 12 31 35 90 54 58 65
REMARK Flexibility Score: inf
ROOT
ATOM      1  C   UNL A   1      38.703  21.879  25.816  1.00  0.00     0.042 C 
ENDROOT
BRANCH   1   2
ATOM      2  C   UNL A   1      37.929  23.186  25.524  1.00  0.00     0.117 C 
BRANCH   2   3
ATOM      3  N   UNL A   1      37.070  23.275  24.330  1.00  0.00    -0.356 N 
ATOM      4  C   UNL A   1      35.779  23.593  24.018  1.00  0.00     0.229 C 
ATOM      5  O   UNL A   1      35.537  23.514  22.798  1.00  0.00    -0.275 OA
ATOM      6  H   UNL A   1      37.575  23.034  23.520  1.00  0.00     0.163 HD
BRANCH   4   7
ATOM      7  C   UNL A   1      34.627  24.070  24.935  1.00  0.00     0.146 C 
ATOM      8  C   UNL A   1      33.459  24.849  24.242  1.00  0.00     0.096 C 
ATOM      9  C   UNL A   1      32.185  24.374  24.963  1.00  0.00     0.272 C 
ATOM     10  N   UNL A   1      32.474  22.996  25.379  1.00  0.00    -0.329 N 
ATOM     11  C   UNL A   1      33.886  23.044  25.789  1.00  0.00     0.276 C 
ATOM     12  H   UNL A   1      31.884  22.688  26.152  1.00  0.00     0.348 HD
BRANCH   8  13
ATOM     13  C   UNL A   1      33.443  26.311  23.824  1.00  0.00     0.004 A 
ATOM     14  C   UNL A   1      33.551  26.827  22.529  1.00  0.00     0.122 A 
ATOM     15  C   UNL A   1      33.738  28.210  22.331  1.00  0.00     0.047 A 
ATOM     16  C   UNL A   1      33.842  29.096  23.404  1.00  0.00     0.004 A 
ATOM     17  C   UNL A   1      33.548  27.246  24.894  1.00  0.00     0.008 A 
ATOM     18  C   UNL A   1      33.760  28.609  24.695  1.00  0.00     0.001 A 
BRANCH  14  19
ATOM     19  O   UNL A   1      33.682  26.079  21.393  1.00  0.00    -0.496 OA
ATOM     20  C   UNL A   1      32.452  25.745  20.769  1.00  0.00     0.278 C 
ENDBRANCH  14  19
ENDBRANCH   8  13
BRANCH  10  21
ATOM     21  C   UNL A   1      32.091  21.942  24.399  1.00  0.00     0.321 C 
BRANCH  21  22
ATOM     22  C   UNL A   1      32.723  20.578  24.550  1.00  0.00     0.114 A 
ATOM     23  C   UNL A   1      34.018  20.120  24.368  1.00  0.00     0.122 A 
ATOM     24  N   UNL A   1      31.938  19.513  24.897  1.00  0.00    -0.228 NA
ATOM     25  N   UNL A   1      34.008  18.780  24.714  1.00  0.00    -0.306 N 
ATOM     26  C   UNL A   1      32.722  18.492  25.118  1.00  0.00     0.137 A 
ATOM     27  C   UNL A   1      35.008  17.814  24.695  1.00  0.00     0.096 A 
ATOM     28  C   UNL A   1      32.443  17.214  25.670  1.00  0.00     0.048 A 
ATOM     29  C   UNL A   1      34.732  16.563  25.124  1.00  0.00    -0.034 A 
ATOM     30  C   UNL A   1      33.405  16.278  25.672  1.00  0.00     0.009 A 
ATOM     31  C   UNL A   1      35.718  15.447  25.092  1.00  0.00     0.046 C 
ENDBRANCH  21  22
ENDBRANCH  10  21
ENDBRANCH   4   7
ENDBRANCH   2   3
ENDBRANCH   1   2
BRANCH   1  32
ATOM     32  C   UNL A   1      39.776  21.998  26.876  1.00  0.00     0.118 C 
BRANCH  32  33
ATOM     33  N   UNL A   1      41.119  22.088  26.310  1.00  0.00    -0.352 N 
ATOM     34  C   UNL A   1      41.935  23.179  26.142  1.00  0.00     0.251 C 
ATOM     35  H   UNL A   1      41.498  21.233  26.000  1.00  0.00     0.163 HD
ATOM     36  O   UNL A   1      42.933  23.079  25.421  1.00  0.00    -0.269 OA
BRANCH  34  37
ATOM     37  C   UNL A   1      41.668  24.457  26.837  1.00  0.00     0.039 A 
ATOM     38  C   UNL A   1      40.884  25.444  26.224  1.00  0.00     0.014 A 
ATOM     39  C   UNL A   1      42.272  24.733  28.060  1.00  0.00     0.014 A 
ATOM     40  C   UNL A   1      40.768  26.699  26.821  1.00  0.00     0.010 A 
ATOM     41  C   UNL A   1      42.030  25.903  28.723  1.00  0.00     0.010 A 
ATOM     42  C   UNL A   1      41.384  26.929  28.057  1.00  0.00    -0.014 A 
BRANCH  42  43
ATOM     43  C   UNL A   1      41.322  28.218  28.730  1.00  0.00     0.031 A 
ATOM     44  C   UNL A   1      42.426  29.157  28.389  1.00  0.00     0.074 A 
ATOM     45  C   UNL A   1      40.211  28.634  29.379  1.00  0.00     0.049 A 
ATOM     46  N   UNL A   1      43.257  29.764  29.167  1.00  0.00    -0.248 NA
ATOM     47  C   UNL A   1      42.686  29.380  26.963  1.00  0.00     0.031 C 
ATOM     48  C   UNL A   1      38.901  27.979  29.522  1.00  0.00     0.029 A 
ATOM     49  N   UNL A   1      40.002  29.829  29.986  1.00  0.00    -0.354 N 
ATOM     50  C   UNL A   1      44.064  30.552  28.343  1.00  0.00     0.074 A 
ATOM     51  C   UNL A   1      43.738  30.199  26.988  1.00  0.00     0.031 C 
ATOM     52  C   UNL A   1      37.989  28.871  29.972  1.00  0.00     0.029 A 
ATOM     53  C   UNL A   1      38.683  30.093  30.325  1.00  0.00     0.049 A 
ATOM     54  H   UNL A   1      40.733  30.462  30.172  1.00  0.00     0.167 HD
ATOM     55  C   UNL A   1      44.834  31.557  28.847  1.00  0.00     0.037 A 
ATOM     56  C   UNL A   1      38.211  31.253  30.845  1.00  0.00     0.037 A 
ATOM     57  C   UNL A   1      45.057  31.375  30.256  1.00  0.00     0.049 A 
ATOM     58  C   UNL A   1      39.381  31.988  31.393  1.00  0.00     0.074 A 
ATOM     59  C   UNL A   1      45.676  30.381  30.992  1.00  0.00     0.029 A 
ATOM     60  N   UNL A   1      44.244  32.035  31.145  1.00  0.00    -0.354 N 
ATOM     61  N   UNL A   1      40.082  31.571  32.412  1.00  0.00    -0.248 NA
ATOM     62  C   UNL A   1      40.060  32.916  30.500  1.00  0.00     0.031 C 
ATOM     63  C   UNL A   1      44.798  30.152  32.092  1.00  0.00     0.029 A 
ATOM     64  C   UNL A   1      43.763  31.086  32.016  1.00  0.00     0.049 A 
ATOM     65  H   UNL A   1      44.045  32.999  31.157  1.00  0.00     0.167 HD
ATOM     66  C   UNL A   1      41.398  31.848  32.075  1.00  0.00     0.074 A 
ATOM     67  C   UNL A   1      41.318  32.728  30.910  1.00  0.00     0.031 C 
ATOM     68  C   UNL A   1      42.435  31.116  32.582  1.00  0.00     0.037 A 
BRANCH  55  69
ATOM     69  C   UNL A   1      45.153  32.841  28.128  1.00  0.00     0.064 A 
ATOM     70  C   UNL A   1      44.126  33.772  27.875  1.00  0.00     0.173 A 
ATOM     71  C   UNL A   1      46.357  33.057  27.426  1.00  0.00     0.173 A 
ATOM     72  F   UNL A   1      42.935  33.659  28.483  1.00  0.00    -0.203 F 
ATOM     73  C   UNL A   1      44.270  34.792  26.930  1.00  0.00     0.198 A 
ATOM     74  C   UNL A   1      46.513  34.104  26.517  1.00  0.00     0.198 A 
ATOM     75  F   UNL A   1      47.390  32.210  27.511  1.00  0.00    -0.203 F 
ATOM     76  F   UNL A   1      43.227  35.581  26.640  1.00  0.00    -0.200 F 
ATOM     77  C   UNL A   1      45.460  34.950  26.245  1.00  0.00     0.200 A 
ATOM     78  F   UNL A   1      47.671  34.233  25.852  1.00  0.00    -0.200 F 
ATOM     79  F   UNL A   1      45.578  35.886  25.293  1.00  0.00    -0.200 F 
ENDBRANCH  55  69
BRANCH  56  80
ATOM     80  C   UNL A   1      36.899  31.900  30.619  1.00  0.00     0.064 A 
ATOM     81  C   UNL A   1      35.947  31.987  31.646  1.00  0.00     0.173 A 
ATOM     82  C   UNL A   1      36.672  32.698  29.481  1.00  0.00     0.173 A 
ATOM     83  F   UNL A   1      36.114  31.293  32.781  1.00  0.00    -0.203 F 
ATOM     84  C   UNL A   1      34.843  32.844  31.551  1.00  0.00     0.198 A 
ATOM     85  C   UNL A   1      35.570  33.550  29.387  1.00  0.00     0.198 A 
ATOM     86  F   UNL A   1      37.567  32.737  28.483  1.00  0.00    -0.203 F 
ATOM     87  F   UNL A   1      33.986  32.945  32.577  1.00  0.00    -0.200 F 
ATOM     88  C   UNL A   1      34.663  33.633  30.427  1.00  0.00     0.200 A 
ATOM     89  F   UNL A   1      35.429  34.340  28.313  1.00  0.00    -0.200 F 
ATOM     90  F   UNL A   1      33.644  34.502  30.366  1.00  0.00    -0.200 F 
ENDBRANCH  56  80
BRANCH  68  91
ATOM     91  C   UNL A   1      42.132  30.100  33.655  1.00  0.00     0.064 A 
ATOM     92  C   UNL A   1      41.785  28.760  33.404  1.00  0.00     0.173 A 
ATOM     93  C   UNL A   1      42.370  30.453  34.989  1.00  0.00     0.173 A 
ATOM     94  F   UNL A   1      41.641  28.305  32.157  1.00  0.00    -0.203 F 
ATOM     95  C   UNL A   1      41.645  27.834  34.437  1.00  0.00     0.198 A 
ATOM     96  C   UNL A   1      42.267  29.518  36.018  1.00  0.00     0.198 A 
ATOM     97  F   UNL A   1      42.762  31.700  35.293  1.00  0.00    -0.203 F 
ATOM     98  F   UNL A   1      41.308  26.564  34.164  1.00  0.00    -0.200 F 
ATOM     99  C   UNL A   1      41.895  28.213  35.743  1.00  0.00     0.200 A 
ATOM    100  F   UNL A   1      42.562  29.879  37.274  1.00  0.00    -0.200 F 
ATOM    101  F   UNL A   1      41.805  27.315  36.734  1.00  0.00    -0.200 F 
ENDBRANCH  68  91
ENDBRANCH  42  43
ENDBRANCH  34  37
ENDBRANCH  32  33
ENDBRANCH   1  32
TORSDOF 14
ENDMDL
