MODEL 1
REMARK VINA RESULT:     -12.2      0.000      0.000
REMARK SMILES O=C(CCn1ccnc1)N[C@H]1C=C[C@@H](C(=O)NCCCNC(=O)c2ccc(-c3c4nc(c(-c5c(F)c(F)c(F)c(F)c5F)c5ccc([nH]5)c(-c5c(F)c(F)c(F)c(F)c5F)c5nc(c(-c6c(F)c(F)c(F)c(F)c6F)c6ccc3[nH]6)C=C5)C=C4)cc2)C1
REMARK SMILES IDX 18 1 17 2 15 3 16 4 14 6 11 7 12 8 87 9 13 10 10 11 1 12
REMARK SMILES IDX 2 13 3 15 4 16 5 17 6 18 9 19 7 20 8 21 19 22 20 23 21 24
REMARK SMILES IDX 22 25 23 27 24 28 25 29 86 30 26 31 85 32 27 33 28 34 29 35
REMARK SMILES IDX 79 36 30 37 84 38 78 39 80 40 31 41 83 42 77 43 76 44 32 46
REMARK SMILES IDX 64 47 44 48 63 49 45 50 48 51 62 52 81 53 46 54 47 55 61 57
REMARK SMILES IDX 82 58 49 59 33 60 34 61 42 62 35 63 36 64 40 65 43 66 37 67
REMARK SMILES IDX 38 68 41 69 39 70 65 71 66 72 74 73 67 74 68 75 72 76 75 77
REMARK SMILES IDX 69 78 70 79 73 80 71 81 50 82 51 83 59 84 52 85 53 86 57 87
REMARK SMILES IDX 60 88 54 89 55 90 58 91 56 92
REMARK H PARENT 17 5 10 14 21 26 80 45 48 56
REMARK Flexibility Score: inf
ROOT
ATOM      1  C   UNL A   1      37.574  23.077  25.632  1.00  0.00     0.117 C 
ENDROOT
BRANCH   1   2
ATOM      2  N   UNL A   1      36.473  22.841  26.547  1.00  0.00    -0.356 N 
ATOM      3  C   UNL A   1      35.127  22.910  26.351  1.00  0.00     0.227 C 
ATOM      4  O   UNL A   1      34.411  22.552  27.292  1.00  0.00    -0.274 OA
ATOM      5  H   UNL A   1      36.743  22.588  27.459  1.00  0.00     0.163 HD
BRANCH   3   6
ATOM      6  C   UNL A   1      34.488  23.414  25.049  1.00  0.00     0.103 C 
ATOM      7  C   UNL A   1      33.003  22.383  23.363  1.00  0.00     0.106 C 
ATOM      8  C   UNL A   1      32.270  23.298  24.278  1.00  0.00    -0.006 C 
ATOM      9  C   UNL A   1      34.446  22.390  23.909  1.00  0.00     0.047 C 
ATOM     10  C   UNL A   1      33.069  23.865  25.189  1.00  0.00    -0.016 C 
BRANCH   7  11
ATOM     11  N   UNL A   1      32.484  21.023  23.265  1.00  0.00    -0.350 N 
ATOM     12  O   UNL A   1      32.882  20.116  25.346  1.00  0.00    -0.275 OA
ATOM     13  C   UNL A   1      32.473  20.012  24.193  1.00  0.00     0.222 C 
ATOM     14  H   UNL A   1      32.077  20.796  22.398  1.00  0.00     0.164 HD
BRANCH  13  15
ATOM     15  C   UNL A   1      32.027  18.648  23.678  1.00  0.00     0.122 C 
BRANCH  15  16
ATOM     16  C   UNL A   1      33.131  17.759  23.132  1.00  0.00     0.133 C 
BRANCH  16  17
ATOM     17  N   UNL A   1      33.781  16.902  24.106  1.00  0.00    -0.337 N 
ATOM     18  C   UNL A   1      35.066  16.976  24.575  1.00  0.00     0.107 A 
ATOM     19  C   UNL A   1      33.199  15.809  24.684  1.00  0.00     0.199 A 
ATOM     20  C   UNL A   1      35.236  15.832  25.320  1.00  0.00     0.130 A 
ATOM     21  N   UNL A   1      34.070  15.121  25.385  1.00  0.00    -0.245 NA
ENDBRANCH  16  17
ENDBRANCH  15  16
ENDBRANCH  13  15
ENDBRANCH   7  11
ENDBRANCH   3   6
ENDBRANCH   1   2
BRANCH   1  22
ATOM     22  C   UNL A   1      38.440  21.837  25.405  1.00  0.00     0.042 C 
BRANCH  22  23
ATOM     23  C   UNL A   1      39.510  21.660  26.459  1.00  0.00     0.118 C 
BRANCH  23  24
ATOM     24  N   UNL A   1      40.860  21.676  25.887  1.00  0.00    -0.352 N 
ATOM     25  C   UNL A   1      41.742  22.734  25.822  1.00  0.00     0.251 C 
ATOM     26  H   UNL A   1      41.176  20.826  25.504  1.00  0.00     0.163 HD
ATOM     27  O   UNL A   1      42.682  22.732  25.032  1.00  0.00    -0.269 OA
BRANCH  25  28
ATOM     28  C   UNL A   1      41.516  23.881  26.713  1.00  0.00     0.039 A 
ATOM     29  C   UNL A   1      42.136  23.971  27.960  1.00  0.00     0.014 A 
ATOM     30  C   UNL A   1      40.735  24.922  26.225  1.00  0.00     0.014 A 
ATOM     31  C   UNL A   1      42.038  25.169  28.663  1.00  0.00     0.010 A 
ATOM     32  C   UNL A   1      40.818  26.153  26.814  1.00  0.00     0.010 A 
ATOM     33  C   UNL A   1      41.406  26.272  28.065  1.00  0.00    -0.014 A 
BRANCH  33  34
ATOM     34  C   UNL A   1      41.441  27.589  28.693  1.00  0.00     0.031 A 
ATOM     35  C   UNL A   1      42.579  28.449  28.271  1.00  0.00     0.074 A 
ATOM     36  C   UNL A   1      40.424  28.079  29.435  1.00  0.00     0.049 A 
ATOM     37  N   UNL A   1      43.559  28.869  29.003  1.00  0.00    -0.248 NA
ATOM     38  C   UNL A   1      42.719  28.782  26.844  1.00  0.00     0.031 C 
ATOM     39  C   UNL A   1      39.106  27.483  29.692  1.00  0.00     0.029 A 
ATOM     40  N   UNL A   1      40.318  29.292  30.045  1.00  0.00    -0.354 N 
ATOM     41  C   UNL A   1      44.334  29.682  28.181  1.00  0.00     0.074 A 
ATOM     42  C   UNL A   1      43.874  29.452  26.836  1.00  0.00     0.031 C 
ATOM     43  C   UNL A   1      38.266  28.421  30.179  1.00  0.00     0.029 A 
ATOM     44  C   UNL A   1      39.030  29.622  30.451  1.00  0.00     0.049 A 
ATOM     45  H   UNL A   1      41.091  29.885  30.189  1.00  0.00     0.167 HD
ATOM     46  C   UNL A   1      45.114  30.662  28.715  1.00  0.00     0.037 A 
ATOM     47  C   UNL A   1      38.615  30.807  30.961  1.00  0.00     0.037 A 
ATOM     48  C   UNL A   1      45.334  30.438  30.123  1.00  0.00     0.049 A 
ATOM     49  C   UNL A   1      39.819  31.506  31.469  1.00  0.00     0.074 A 
ATOM     50  C   UNL A   1      45.885  29.416  30.872  1.00  0.00     0.029 A 
ATOM     51  N   UNL A   1      44.608  31.192  31.013  1.00  0.00    -0.354 N 
ATOM     52  N   UNL A   1      40.514  31.104  32.495  1.00  0.00    -0.248 NA
ATOM     53  C   UNL A   1      40.509  32.407  30.560  1.00  0.00     0.031 C 
ATOM     54  C   UNL A   1      45.066  29.327  32.037  1.00  0.00     0.029 A 
ATOM     55  C   UNL A   1      44.112  30.342  31.968  1.00  0.00     0.049 A 
ATOM     56  H   UNL A   1      44.469  32.165  30.973  1.00  0.00     0.167 HD
ATOM     57  C   UNL A   1      41.833  31.321  32.129  1.00  0.00     0.074 A 
ATOM     58  C   UNL A   1      41.763  32.220  30.979  1.00  0.00     0.031 C 
ATOM     59  C   UNL A   1      42.832  30.526  32.610  1.00  0.00     0.037 A 
BRANCH  46  60
ATOM     60  C   UNL A   1      45.333  32.016  28.078  1.00  0.00     0.064 A 
ATOM     61  C   UNL A   1      44.211  32.812  27.765  1.00  0.00     0.173 A 
ATOM     62  C   UNL A   1      46.546  32.420  27.478  1.00  0.00     0.173 A 
ATOM     63  F   UNL A   1      43.002  32.517  28.268  1.00  0.00    -0.203 F 
ATOM     64  C   UNL A   1      44.282  33.863  26.846  1.00  0.00     0.198 A 
ATOM     65  C   UNL A   1      46.623  33.503  26.604  1.00  0.00     0.198 A 
ATOM     66  F   UNL A   1      47.679  31.723  27.613  1.00  0.00    -0.203 F 
ATOM     67  F   UNL A   1      43.162  34.497  26.474  1.00  0.00    -0.200 F 
ATOM     68  C   UNL A   1      45.487  34.202  26.259  1.00  0.00     0.200 A 
ATOM     69  F   UNL A   1      47.798  33.803  26.031  1.00  0.00    -0.200 F 
ATOM     70  F   UNL A   1      45.546  35.160  25.327  1.00  0.00    -0.200 F 
ENDBRANCH  46  60
BRANCH  47  71
ATOM     71  C   UNL A   1      37.315  31.492  30.782  1.00  0.00     0.064 A 
ATOM     72  C   UNL A   1      36.410  31.605  31.851  1.00  0.00     0.173 A 
ATOM     73  C   UNL A   1      37.063  32.303  29.659  1.00  0.00     0.173 A 
ATOM     74  F   UNL A   1      36.599  30.896  32.973  1.00  0.00    -0.203 F 
ATOM     75  C   UNL A   1      35.342  32.508  31.815  1.00  0.00     0.198 A 
ATOM     76  C   UNL A   1      35.992  33.199  29.622  1.00  0.00     0.198 A 
ATOM     77  F   UNL A   1      37.906  32.317  28.617  1.00  0.00    -0.203 F 
ATOM     78  F   UNL A   1      34.546  32.643  32.885  1.00  0.00    -0.200 F 
ATOM     79  C   UNL A   1      35.143  33.314  30.707  1.00  0.00     0.200 A 
ATOM     80  F   UNL A   1      35.831  33.999  28.558  1.00  0.00    -0.200 F 
ATOM     81  F   UNL A   1      34.165  34.230  30.702  1.00  0.00    -0.200 F 
ENDBRANCH  47  71
BRANCH  59  82
ATOM     82  C   UNL A   1      42.506  29.612  33.761  1.00  0.00     0.064 A 
ATOM     83  C   UNL A   1      41.911  28.345  33.628  1.00  0.00     0.173 A 
ATOM     84  C   UNL A   1      42.925  29.991  35.043  1.00  0.00     0.173 A 
ATOM     85  F   UNL A   1      41.573  27.861  32.428  1.00  0.00    -0.203 F 
ATOM     86  C   UNL A   1      41.700  27.523  34.735  1.00  0.00     0.198 A 
ATOM     87  C   UNL A   1      42.749  29.154  36.141  1.00  0.00     0.198 A 
ATOM     88  F   UNL A   1      43.548  31.166  35.225  1.00  0.00    -0.203 F 
ATOM     89  F   UNL A   1      41.111  26.327  34.584  1.00  0.00    -0.200 F 
ATOM     90  C   UNL A   1      42.124  27.927  35.990  1.00  0.00     0.200 A 
ATOM     91  F   UNL A   1      43.205  29.529  37.344  1.00  0.00    -0.200 F 
ATOM     92  F   UNL A   1      41.955  27.123  37.049  1.00  0.00    -0.200 F 
ENDBRANCH  59  82
ENDBRANCH  33  34
ENDBRANCH  25  28
ENDBRANCH  23  24
ENDBRANCH  22  23
ENDBRANCH   1  22
TORSDOF 14
ENDMDL
MODEL 2
REMARK VINA RESULT:     -12.2      2.021      3.823
REMARK SMILES O=C(CCn1ccnc1)N[C@H]1C=C[C@@H](C(=O)NCCCNC(=O)c2ccc(-c3c4nc(c(-c5c(F)c(F)c(F)c(F)c5F)c5ccc([nH]5)c(-c5c(F)c(F)c(F)c(F)c5F)c5nc(c(-c6c(F)c(F)c(F)c(F)c6F)c6ccc3[nH]6)C=C5)C=C4)cc2)C1
REMARK SMILES IDX 18 1 17 2 15 3 16 4 14 6 11 7 12 8 87 9 13 10 10 11 1 12
REMARK SMILES IDX 2 13 3 15 4 16 5 17 6 18 9 19 7 20 8 21 19 22 20 23 21 24
REMARK SMILES IDX 22 25 23 27 24 28 25 29 86 30 26 31 85 32 27 33 28 34 29 35
REMARK SMILES IDX 79 36 30 37 84 38 78 39 80 40 31 41 83 42 77 43 76 44 32 46
REMARK SMILES IDX 64 47 44 48 63 49 45 50 48 51 62 52 81 53 46 54 47 55 61 57
REMARK SMILES IDX 82 58 49 59 33 60 34 61 42 62 35 63 36 64 40 65 43 66 37 67
REMARK SMILES IDX 38 68 41 69 39 70 65 71 66 72 74 73 67 74 68 75 72 76 75 77
REMARK SMILES IDX 69 78 70 79 73 80 71 81 50 82 51 83 59 84 52 85 53 86 57 87
REMARK SMILES IDX 60 88 54 89 55 90 58 91 56 92
REMARK H PARENT 17 5 10 14 21 26 80 45 48 56
REMARK Flexibility Score: inf
ROOT
ATOM      1  C   UNL A   1      37.960  22.508  25.736  1.00  0.00     0.117 C 
ENDROOT
BRANCH   1   2
ATOM      2  N   UNL A   1      37.423  22.814  24.423  1.00  0.00    -0.356 N 
ATOM      3  C   UNL A   1      36.139  22.820  23.970  1.00  0.00     0.227 C 
ATOM      4  O   UNL A   1      35.959  23.226  22.817  1.00  0.00    -0.274 OA
ATOM      5  H   UNL A   1      38.098  23.058  23.750  1.00  0.00     0.163 HD
BRANCH   3   6
ATOM      6  C   UNL A   1      34.944  22.345  24.810  1.00  0.00     0.103 C 
ATOM      7  C   UNL A   1      32.989  23.486  25.801  1.00  0.00     0.106 C 
ATOM      8  C   UNL A   1      32.639  22.735  24.566  1.00  0.00    -0.006 C 
ATOM      9  C   UNL A   1      34.515  23.302  25.927  1.00  0.00     0.047 C 
ATOM     10  C   UNL A   1      33.692  22.108  24.028  1.00  0.00    -0.016 C 
BRANCH   7  11
ATOM     11  N   UNL A   1      32.625  24.899  25.817  1.00  0.00    -0.350 N 
ATOM     12  O   UNL A   1      30.515  24.927  26.744  1.00  0.00    -0.275 OA
ATOM     13  C   UNL A   1      31.470  25.509  26.237  1.00  0.00     0.222 C 
ATOM     14  H   UNL A   1      33.317  25.509  25.474  1.00  0.00     0.164 HD
BRANCH  13  15
ATOM     15  C   UNL A   1      31.356  26.996  25.920  1.00  0.00     0.122 C 
BRANCH  15  16
ATOM     16  C   UNL A   1      31.548  27.936  27.098  1.00  0.00     0.133 C 
BRANCH  16  17
ATOM     17  N   UNL A   1      32.747  28.753  27.056  1.00  0.00    -0.337 N 
ATOM     18  C   UNL A   1      34.041  28.347  26.863  1.00  0.00     0.107 A 
ATOM     19  C   UNL A   1      32.770  30.101  27.271  1.00  0.00     0.199 A 
ATOM     20  C   UNL A   1      34.802  29.468  27.106  1.00  0.00     0.130 A 
ATOM     21  N   UNL A   1      34.001  30.549  27.351  1.00  0.00    -0.245 NA
ENDBRANCH  16  17
ENDBRANCH  15  16
ENDBRANCH  13  15
ENDBRANCH   7  11
ENDBRANCH   3   6
ENDBRANCH   1   2
BRANCH   1  22
ATOM     22  C   UNL A   1      38.869  21.279  25.739  1.00  0.00     0.042 C 
BRANCH  22  23
ATOM     23  C   UNL A   1      40.030  21.402  26.701  1.00  0.00     0.118 C 
BRANCH  23  24
ATOM     24  N   UNL A   1      41.314  21.535  26.007  1.00  0.00    -0.352 N 
ATOM     25  C   UNL A   1      42.080  22.672  25.848  1.00  0.00     0.251 C 
ATOM     26  H   UNL A   1      41.675  20.712  25.605  1.00  0.00     0.163 HD
ATOM     27  O   UNL A   1      42.940  22.743  24.974  1.00  0.00    -0.269 OA
BRANCH  25  28
ATOM     28  C   UNL A   1      41.826  23.809  26.743  1.00  0.00     0.039 A 
ATOM     29  C   UNL A   1      42.542  23.981  27.928  1.00  0.00     0.014 A 
ATOM     30  C   UNL A   1      40.910  24.763  26.316  1.00  0.00     0.014 A 
ATOM     31  C   UNL A   1      42.394  25.177  28.625  1.00  0.00     0.010 A 
ATOM     32  C   UNL A   1      40.928  26.008  26.882  1.00  0.00     0.010 A 
ATOM     33  C   UNL A   1      41.611  26.205  28.074  1.00  0.00    -0.014 A 
BRANCH  33  34
ATOM     34  C   UNL A   1      41.576  27.531  28.682  1.00  0.00     0.031 A 
ATOM     35  C   UNL A   1      42.691  28.429  28.278  1.00  0.00     0.074 A 
ATOM     36  C   UNL A   1      40.520  27.992  29.388  1.00  0.00     0.049 A 
ATOM     37  N   UNL A   1      43.632  28.898  29.029  1.00  0.00    -0.248 NA
ATOM     38  C   UNL A   1      42.858  28.747  26.850  1.00  0.00     0.031 C 
ATOM     39  C   UNL A   1      39.220  27.347  29.618  1.00  0.00     0.029 A 
ATOM     40  N   UNL A   1      40.350  29.208  29.976  1.00  0.00    -0.354 N 
ATOM     41  C   UNL A   1      44.398  29.729  28.217  1.00  0.00     0.074 A 
ATOM     42  C   UNL A   1      43.986  29.463  26.864  1.00  0.00     0.031 C 
ATOM     43  C   UNL A   1      38.330  28.258  30.067  1.00  0.00     0.029 A 
ATOM     44  C   UNL A   1      39.039  29.493  30.341  1.00  0.00     0.049 A 
ATOM     45  H   UNL A   1      41.094  29.833  30.132  1.00  0.00     0.167 HD
ATOM     46  C   UNL A   1      45.123  30.748  28.757  1.00  0.00     0.037 A 
ATOM     47  C   UNL A   1      38.564  30.667  30.821  1.00  0.00     0.037 A 
ATOM     48  C   UNL A   1      45.312  30.553  30.174  1.00  0.00     0.049 A 
ATOM     49  C   UNL A   1      39.724  31.421  31.351  1.00  0.00     0.074 A 
ATOM     50  C   UNL A   1      45.882  29.564  30.953  1.00  0.00     0.029 A 
ATOM     51  N   UNL A   1      44.533  31.290  31.032  1.00  0.00    -0.354 N 
ATOM     52  N   UNL A   1      40.405  31.061  32.402  1.00  0.00    -0.248 NA
ATOM     53  C   UNL A   1      40.403  32.335  30.447  1.00  0.00     0.031 C 
ATOM     54  C   UNL A   1      45.034  29.460  32.097  1.00  0.00     0.029 A 
ATOM     55  C   UNL A   1      44.044  30.435  31.985  1.00  0.00     0.049 A 
ATOM     56  H   UNL A   1      44.357  32.257  30.973  1.00  0.00     0.167 HD
ATOM     57  C   UNL A   1      41.724  31.326  32.069  1.00  0.00     0.074 A 
ATOM     58  C   UNL A   1      41.652  32.204  30.903  1.00  0.00     0.031 C 
ATOM     59  C   UNL A   1      42.740  30.577  32.590  1.00  0.00     0.037 A 
BRANCH  46  60
ATOM     60  C   UNL A   1      45.307  32.100  28.105  1.00  0.00     0.064 A 
ATOM     61  C   UNL A   1      44.170  32.896  27.855  1.00  0.00     0.173 A 
ATOM     62  C   UNL A   1      46.484  32.501  27.436  1.00  0.00     0.173 A 
ATOM     63  F   UNL A   1      42.991  32.603  28.426  1.00  0.00    -0.203 F 
ATOM     64  C   UNL A   1      44.189  33.945  26.931  1.00  0.00     0.198 A 
ATOM     65  C   UNL A   1      46.512  33.582  26.556  1.00  0.00     0.198 A 
ATOM     66  F   UNL A   1      47.623  31.803  27.508  1.00  0.00    -0.203 F 
ATOM     67  F   UNL A   1      43.050  34.579  26.621  1.00  0.00    -0.200 F 
ATOM     68  C   UNL A   1      45.359  34.281  26.275  1.00  0.00     0.200 A 
ATOM     69  F   UNL A   1      47.653  33.880  25.917  1.00  0.00    -0.200 F 
ATOM     70  F   UNL A   1      45.366  35.237  25.339  1.00  0.00    -0.200 F 
ENDBRANCH  46  60
BRANCH  47  71
ATOM     71  C   UNL A   1      37.243  31.298  30.596  1.00  0.00     0.064 A 
ATOM     72  C   UNL A   1      36.334  31.458  31.655  1.00  0.00     0.173 A 
ATOM     73  C   UNL A   1      36.967  32.018  29.418  1.00  0.00     0.173 A 
ATOM     74  F   UNL A   1      36.544  30.837  32.824  1.00  0.00    -0.203 F 
ATOM     75  C   UNL A   1      35.239  32.323  31.557  1.00  0.00     0.198 A 
ATOM     76  C   UNL A   1      35.869  32.876  29.319  1.00  0.00     0.198 A 
ATOM     77  F   UNL A   1      37.810  31.985  28.377  1.00  0.00    -0.203 F 
ATOM     78  F   UNL A   1      34.438  32.509  32.616  1.00  0.00    -0.200 F 
ATOM     79  C   UNL A   1      35.016  33.042  30.394  1.00  0.00     0.200 A 
ATOM     80  F   UNL A   1      35.684  33.594  28.202  1.00  0.00    -0.200 F 
ATOM     81  F   UNL A   1      34.010  33.925  30.326  1.00  0.00    -0.200 F 
ENDBRANCH  47  71
BRANCH  59  82
ATOM     82  C   UNL A   1      42.418  29.669  33.745  1.00  0.00     0.064 A 
ATOM     83  C   UNL A   1      41.904  28.365  33.614  1.00  0.00     0.173 A 
ATOM     84  C   UNL A   1      42.757  30.096  35.035  1.00  0.00     0.173 A 
ATOM     85  F   UNL A   1      41.649  27.840  32.412  1.00  0.00    -0.203 F 
ATOM     86  C   UNL A   1      41.694  27.554  34.729  1.00  0.00     0.198 A 
ATOM     87  C   UNL A   1      42.583  29.271  36.142  1.00  0.00     0.198 A 
ATOM     88  F   UNL A   1      43.303  31.310  35.218  1.00  0.00    -0.203 F 
ATOM     89  F   UNL A   1      41.183  26.323  34.579  1.00  0.00    -0.200 F 
ATOM     90  C   UNL A   1      42.038  28.006  35.991  1.00  0.00     0.200 A 
ATOM     91  F   UNL A   1      42.964  29.696  37.355  1.00  0.00    -0.200 F 
ATOM     92  F   UNL A   1      41.870  27.215  37.060  1.00  0.00    -0.200 F 
ENDBRANCH  59  82
ENDBRANCH  33  34
ENDBRANCH  25  28
ENDBRANCH  23  24
ENDBRANCH  22  23
ENDBRANCH   1  22
TORSDOF 14
ENDMDL
MODEL 3
REMARK VINA RESULT:     -12.1      0.724      1.355
REMARK SMILES O=C(CCn1ccnc1)N[C@H]1C=C[C@@H](C(=O)NCCCNC(=O)c2ccc(-c3c4nc(c(-c5c(F)c(F)c(F)c(F)c5F)c5ccc([nH]5)c(-c5c(F)c(F)c(F)c(F)c5F)c5nc(c(-c6c(F)c(F)c(F)c(F)c6F)c6ccc3[nH]6)C=C5)C=C4)cc2)C1
REMARK SMILES IDX 18 1 17 2 15 3 16 4 14 6 11 7 12 8 87 9 13 10 10 11 1 12
REMARK SMILES IDX 2 13 3 15 4 16 5 17 6 18 9 19 7 20 8 21 19 22 20 23 21 24
REMARK SMILES IDX 22 25 23 27 24 28 25 29 86 30 26 31 85 32 27 33 28 34 29 35
REMARK SMILES IDX 79 36 30 37 84 38 78 39 80 40 31 41 83 42 77 43 76 44 32 46
REMARK SMILES IDX 64 47 44 48 63 49 45 50 48 51 62 52 81 53 46 54 47 55 61 57
REMARK SMILES IDX 82 58 49 59 33 60 34 61 42 62 35 63 36 64 40 65 43 66 37 67
REMARK SMILES IDX 38 68 41 69 39 70 65 71 66 72 74 73 67 74 68 75 72 76 75 77
REMARK SMILES IDX 69 78 70 79 73 80 71 81 50 82 51 83 59 84 52 85 53 86 57 87
REMARK SMILES IDX 60 88 54 89 55 90 58 91 56 92
REMARK H PARENT 17 5 10 14 21 26 80 45 48 56
REMARK Flexibility Score: inf
ROOT
ATOM      1  C   UNL A   1      37.840  23.117  25.671  1.00  0.00     0.117 C 
ENDROOT
BRANCH   1   2
ATOM      2  N   UNL A   1      36.702  23.028  26.567  1.00  0.00    -0.356 N 
ATOM      3  C   UNL A   1      35.371  23.193  26.328  1.00  0.00     0.227 C 
ATOM      4  O   UNL A   1      34.606  22.954  27.268  1.00  0.00    -0.274 OA
ATOM      5  H   UNL A   1      36.929  22.814  27.500  1.00  0.00     0.163 HD
BRANCH   3   6
ATOM      6  C   UNL A   1      34.807  23.661  24.979  1.00  0.00     0.103 C 
ATOM      7  C   UNL A   1      33.422  22.583  23.239  1.00  0.00     0.106 C 
ATOM      8  C   UNL A   1      32.637  23.518  24.087  1.00  0.00    -0.006 C 
ATOM      9  C   UNL A   1      34.831  22.608  23.865  1.00  0.00     0.047 C 
ATOM     10  C   UNL A   1      33.382  24.111  25.026  1.00  0.00    -0.016 C 
BRANCH   7  11
ATOM     11  N   UNL A   1      32.911  21.219  23.145  1.00  0.00    -0.350 N 
ATOM     12  O   UNL A   1      33.271  20.338  25.245  1.00  0.00    -0.275 OA
ATOM     13  C   UNL A   1      32.886  20.219  24.085  1.00  0.00     0.222 C 
ATOM     14  H   UNL A   1      32.524  20.980  22.273  1.00  0.00     0.164 HD
BRANCH  13  15
ATOM     15  C   UNL A   1      32.457  18.847  23.577  1.00  0.00     0.122 C 
BRANCH  15  16
ATOM     16  C   UNL A   1      32.153  17.815  24.649  1.00  0.00     0.133 C 
BRANCH  16  17
ATOM     17  N   UNL A   1      33.224  16.878  24.935  1.00  0.00    -0.337 N 
ATOM     18  C   UNL A   1      34.572  17.059  24.774  1.00  0.00     0.107 A 
ATOM     19  C   UNL A   1      33.034  15.598  25.373  1.00  0.00     0.199 A 
ATOM     20  C   UNL A   1      35.124  15.819  25.001  1.00  0.00     0.130 A 
ATOM     21  N   UNL A   1      34.160  14.924  25.376  1.00  0.00    -0.245 NA
ENDBRANCH  16  17
ENDBRANCH  15  16
ENDBRANCH  13  15
ENDBRANCH   7  11
ENDBRANCH   3   6
ENDBRANCH   1   2
BRANCH   1  22
ATOM     22  C   UNL A   1      38.671  21.834  25.630  1.00  0.00     0.042 C 
BRANCH  22  23
ATOM     23  C   UNL A   1      39.813  21.834  26.621  1.00  0.00     0.118 C 
BRANCH  23  24
ATOM     24  N   UNL A   1      41.116  21.987  25.966  1.00  0.00    -0.352 N 
ATOM     25  C   UNL A   1      41.859  23.139  25.813  1.00  0.00     0.251 C 
ATOM     26  H   UNL A   1      41.509  21.167  25.590  1.00  0.00     0.163 HD
ATOM     27  O   UNL A   1      42.746  23.217  24.966  1.00  0.00    -0.269 OA
BRANCH  25  28
ATOM     28  C   UNL A   1      41.550  24.285  26.680  1.00  0.00     0.039 A 
ATOM     29  C   UNL A   1      42.098  24.403  27.958  1.00  0.00     0.014 A 
ATOM     30  C   UNL A   1      40.764  25.297  26.141  1.00  0.00     0.014 A 
ATOM     31  C   UNL A   1      41.925  25.602  28.644  1.00  0.00     0.010 A 
ATOM     32  C   UNL A   1      40.777  26.534  26.723  1.00  0.00     0.010 A 
ATOM     33  C   UNL A   1      41.293  26.681  28.003  1.00  0.00    -0.014 A 
BRANCH  33  34
ATOM     34  C   UNL A   1      41.252  28.002  28.620  1.00  0.00     0.031 A 
ATOM     35  C   UNL A   1      42.345  28.919  28.197  1.00  0.00     0.074 A 
ATOM     36  C   UNL A   1      40.206  28.443  29.353  1.00  0.00     0.049 A 
ATOM     37  N   UNL A   1      43.296  29.397  28.930  1.00  0.00    -0.248 NA
ATOM     38  C   UNL A   1      42.475  29.248  26.768  1.00  0.00     0.031 C 
ATOM     39  C   UNL A   1      38.921  27.778  29.607  1.00  0.00     0.029 A 
ATOM     40  N   UNL A   1      40.031  29.653  29.952  1.00  0.00    -0.354 N 
ATOM     41  C   UNL A   1      44.031  30.244  28.106  1.00  0.00     0.074 A 
ATOM     42  C   UNL A   1      43.593  29.980  26.761  1.00  0.00     0.031 C 
ATOM     43  C   UNL A   1      38.029  28.673  30.082  1.00  0.00     0.029 A 
ATOM     44  C   UNL A   1      38.725  29.917  30.347  1.00  0.00     0.049 A 
ATOM     45  H   UNL A   1      40.770  30.288  30.095  1.00  0.00     0.167 HD
ATOM     46  C   UNL A   1      44.754  31.270  28.637  1.00  0.00     0.037 A 
ATOM     47  C   UNL A   1      38.244  31.081  30.846  1.00  0.00     0.037 A 
ATOM     48  C   UNL A   1      44.977  31.070  30.047  1.00  0.00     0.049 A 
ATOM     49  C   UNL A   1      39.405  31.848  31.354  1.00  0.00     0.074 A 
ATOM     50  C   UNL A   1      45.578  30.085  30.807  1.00  0.00     0.029 A 
ATOM     51  N   UNL A   1      44.206  31.790  30.927  1.00  0.00    -0.354 N 
ATOM     52  N   UNL A   1      40.114  31.492  32.388  1.00  0.00    -0.248 NA
ATOM     53  C   UNL A   1      40.050  32.778  30.442  1.00  0.00     0.031 C 
ATOM     54  C   UNL A   1      44.758  29.960  31.969  1.00  0.00     0.029 A 
ATOM     55  C   UNL A   1      43.751  30.922  31.886  1.00  0.00     0.049 A 
ATOM     56  H   UNL A   1      44.015  32.754  30.878  1.00  0.00     0.167 HD
ATOM     57  C   UNL A   1      41.421  31.778  32.026  1.00  0.00     0.074 A 
ATOM     58  C   UNL A   1      41.310  32.663  30.868  1.00  0.00     0.031 C 
ATOM     59  C   UNL A   1      42.460  31.042  32.520  1.00  0.00     0.037 A 
BRANCH  46  60
ATOM     60  C   UNL A   1      44.903  32.629  27.989  1.00  0.00     0.064 A 
ATOM     61  C   UNL A   1      46.190  33.069  27.615  1.00  0.00     0.173 A 
ATOM     62  C   UNL A   1      43.906  33.630  28.015  1.00  0.00     0.173 A 
ATOM     63  F   UNL A   1      47.219  32.208  27.568  1.00  0.00    -0.203 F 
ATOM     64  C   UNL A   1      46.474  34.418  27.386  1.00  0.00     0.198 A 
ATOM     65  C   UNL A   1      44.182  34.966  27.733  1.00  0.00     0.198 A 
ATOM     66  F   UNL A   1      42.657  33.387  28.426  1.00  0.00    -0.203 F 
ATOM     67  F   UNL A   1      47.739  34.804  27.175  1.00  0.00    -0.200 F 
ATOM     68  C   UNL A   1      45.471  35.367  27.455  1.00  0.00     0.200 A 
ATOM     69  F   UNL A   1      43.199  35.874  27.822  1.00  0.00    -0.200 F 
ATOM     70  F   UNL A   1      45.751  36.667  27.305  1.00  0.00    -0.200 F 
ENDBRANCH  46  60
BRANCH  47  71
ATOM     71  C   UNL A   1      36.909  31.693  30.654  1.00  0.00     0.064 A 
ATOM     72  C   UNL A   1      36.030  31.853  31.738  1.00  0.00     0.173 A 
ATOM     73  C   UNL A   1      36.590  32.400  29.478  1.00  0.00     0.173 A 
ATOM     74  F   UNL A   1      36.282  31.245  32.905  1.00  0.00    -0.203 F 
ATOM     75  C   UNL A   1      34.922  32.704  31.665  1.00  0.00     0.198 A 
ATOM     76  C   UNL A   1      35.480  33.243  29.404  1.00  0.00     0.198 A 
ATOM     77  F   UNL A   1      37.402  32.367  28.413  1.00  0.00    -0.203 F 
ATOM     78  F   UNL A   1      34.150  32.889  32.745  1.00  0.00    -0.200 F 
ATOM     79  C   UNL A   1      34.656  33.409  30.503  1.00  0.00     0.200 A 
ATOM     80  F   UNL A   1      35.253  33.949  28.287  1.00  0.00    -0.200 F 
ATOM     81  F   UNL A   1      33.638  34.279  30.457  1.00  0.00    -0.200 F 
ENDBRANCH  47  71
BRANCH  59  82
ATOM     82  C   UNL A   1      42.177  30.121  33.677  1.00  0.00     0.064 A 
ATOM     83  C   UNL A   1      41.754  28.786  33.547  1.00  0.00     0.173 A 
ATOM     84  C   UNL A   1      42.461  30.580  34.970  1.00  0.00     0.173 A 
ATOM     85  F   UNL A   1      41.558  28.236  32.344  1.00  0.00    -0.203 F 
ATOM     86  C   UNL A   1      41.577  27.970  34.664  1.00  0.00     0.198 A 
ATOM     87  C   UNL A   1      42.320  29.753  36.080  1.00  0.00     0.198 A 
ATOM     88  F   UNL A   1      42.920  31.828  35.153  1.00  0.00    -0.203 F 
ATOM     89  F   UNL A   1      41.153  26.706  34.514  1.00  0.00    -0.200 F 
ATOM     90  C   UNL A   1      41.865  28.453  35.929  1.00  0.00     0.200 A 
ATOM     91  F   UNL A   1      42.648  30.210  37.296  1.00  0.00    -0.200 F 
ATOM     92  F   UNL A   1      41.730  27.659  37.001  1.00  0.00    -0.200 F 
ENDBRANCH  59  82
ENDBRANCH  33  34
ENDBRANCH  25  28
ENDBRANCH  23  24
ENDBRANCH  22  23
ENDBRANCH   1  22
TORSDOF 14
ENDMDL
