MODEL 1
REMARK VINA RESULT:     -12.3      0.000      0.000
REMARK SMILES O=C(NCCCNC(=O)[C@@H]1CSCN1C(=O)c1cccc(Cl)c1)c1ccc(-c2c3nc(c(-c4c(F)c(F)c(F)c(F)c4F)c4ccc([nH]4)c(-c4c(F)c(F)c(F)c(F)c4F)c4nc(c(-c5c(F)c(F)c(F)c(F)c5F)c5ccc2[nH]5)C=C4)C=C3)cc1
REMARK SMILES IDX 5 1 4 2 3 3 1 4 2 5 24 7 25 8 86 9 26 10 85 11 27 12 28 13
REMARK SMILES IDX 29 14 79 15 30 16 84 17 78 18 80 19 31 20 83 21 77 22 76 23
REMARK SMILES IDX 32 25 64 26 44 27 63 28 45 29 48 30 62 31 81 32 46 33 47 34
REMARK SMILES IDX 61 36 82 37 49 38 33 39 34 40 42 41 35 42 36 43 40 44 43 45
REMARK SMILES IDX 37 46 38 47 41 48 39 49 65 50 66 51 74 52 67 53 68 54 72 55
REMARK SMILES IDX 75 56 69 57 70 58 73 59 71 60 50 61 51 62 59 63 52 64 53 65
REMARK SMILES IDX 57 66 60 67 54 68 55 69 58 70 56 71 6 72 7 73 8 74 9 76
REMARK SMILES IDX 10 77 11 78 14 79 12 80 13 81 15 82 16 83 17 84 18 85 23 86
REMARK SMILES IDX 19 87 21 88 20 89 22 90
REMARK H PARENT 3 6 80 24 48 35 7 75
REMARK Flexibility Score: inf
ROOT
ATOM      1  C   UNL A   1      31.400  32.416  26.437  1.00  0.00     0.042 C 
ENDROOT
BRANCH   1   2
ATOM      2  C   UNL A   1      32.602  32.891  27.248  1.00  0.00     0.118 C 
BRANCH   2   3
ATOM      3  N   UNL A   1      32.456  34.269  27.678  1.00  0.00    -0.352 N 
ATOM      4  O   UNL A   1      32.618  36.026  29.069  1.00  0.00    -0.269 OA
ATOM      5  C   UNL A   1      33.056  34.931  28.719  1.00  0.00     0.251 C 
ATOM      6  H   UNL A   1      31.833  34.811  27.142  1.00  0.00     0.163 HD
BRANCH   5   7
ATOM      7  C   UNL A   1      34.214  34.347  29.430  1.00  0.00     0.039 A 
ATOM      8  C   UNL A   1      34.050  33.553  30.570  1.00  0.00     0.014 A 
ATOM      9  C   UNL A   1      35.491  34.530  28.891  1.00  0.00     0.014 A 
ATOM     10  C   UNL A   1      35.164  33.023  31.220  1.00  0.00     0.010 A 
ATOM     11  C   UNL A   1      36.600  33.943  29.504  1.00  0.00     0.010 A 
ATOM     12  C   UNL A   1      36.447  33.196  30.681  1.00  0.00    -0.014 A 
BRANCH  12  13
ATOM     13  C   UNL A   1      37.622  32.538  31.305  1.00  0.00     0.031 A 
ATOM     14  C   UNL A   1      38.300  31.380  30.635  1.00  0.00     0.074 A 
ATOM     15  C   UNL A   1      38.044  32.959  32.514  1.00  0.00     0.049 A 
ATOM     16  N   UNL A   1      39.274  30.624  31.072  1.00  0.00    -0.248 NA
ATOM     17  C   UNL A   1      37.807  31.014  29.298  1.00  0.00     0.031 C 
ATOM     18  C   UNL A   1      37.453  34.063  33.271  1.00  0.00     0.029 A 
ATOM     19  N   UNL A   1      39.049  32.497  33.324  1.00  0.00    -0.354 N 
ATOM     20  C   UNL A   1      39.498  29.680  30.080  1.00  0.00     0.074 A 
ATOM     21  C   UNL A   1      38.539  29.944  29.026  1.00  0.00     0.031 C 
ATOM     22  C   UNL A   1      38.104  34.193  34.436  1.00  0.00     0.029 A 
ATOM     23  C   UNL A   1      39.120  33.149  34.530  1.00  0.00     0.049 A 
ATOM     24  H   UNL A   1      39.660  31.769  33.067  1.00  0.00     0.167 HD
ATOM     25  C   UNL A   1      40.421  28.688  30.052  1.00  0.00     0.037 A 
ATOM     26  C   UNL A   1      39.890  32.913  35.609  1.00  0.00     0.037 A 
ATOM     27  C   UNL A   1      41.375  28.440  31.102  1.00  0.00     0.049 A 
ATOM     28  C   UNL A   1      40.888  31.792  35.568  1.00  0.00     0.074 A 
ATOM     29  C   UNL A   1      42.389  27.499  31.142  1.00  0.00     0.029 A 
ATOM     30  N   UNL A   1      41.423  29.129  32.306  1.00  0.00    -0.354 N 
ATOM     31  N   UNL A   1      41.129  30.939  34.603  1.00  0.00    -0.248 NA
ATOM     32  C   UNL A   1      41.721  31.599  36.762  1.00  0.00     0.031 C 
ATOM     33  C   UNL A   1      43.015  27.583  32.391  1.00  0.00     0.029 A 
ATOM     34  C   UNL A   1      42.428  28.613  33.108  1.00  0.00     0.049 A 
ATOM     35  H   UNL A   1      40.830  29.876  32.553  1.00  0.00     0.167 HD
ATOM     36  C   UNL A   1      42.153  30.123  35.060  1.00  0.00     0.074 A 
ATOM     37  C   UNL A   1      42.493  30.586  36.391  1.00  0.00     0.031 C 
ATOM     38  C   UNL A   1      42.758  29.087  34.430  1.00  0.00     0.037 A 
BRANCH  25  39
ATOM     39  C   UNL A   1      40.422  27.777  28.858  1.00  0.00     0.064 A 
ATOM     40  C   UNL A   1      39.652  26.606  28.818  1.00  0.00     0.173 A 
ATOM     41  C   UNL A   1      41.193  28.092  27.728  1.00  0.00     0.173 A 
ATOM     42  F   UNL A   1      38.904  26.252  29.874  1.00  0.00    -0.203 F 
ATOM     43  C   UNL A   1      39.684  25.763  27.708  1.00  0.00     0.198 A 
ATOM     44  C   UNL A   1      41.199  27.264  26.608  1.00  0.00     0.198 A 
ATOM     45  F   UNL A   1      41.942  29.205  27.708  1.00  0.00    -0.203 F 
ATOM     46  F   UNL A   1      38.985  24.620  27.717  1.00  0.00    -0.200 F 
ATOM     47  C   UNL A   1      40.453  26.095  26.603  1.00  0.00     0.200 A 
ATOM     48  F   UNL A   1      41.933  27.593  25.537  1.00  0.00    -0.200 F 
ATOM     49  F   UNL A   1      40.484  25.284  25.538  1.00  0.00    -0.200 F 
ENDBRANCH  25  39
BRANCH  26  50
ATOM     50  C   UNL A   1      39.720  33.760  36.816  1.00  0.00     0.064 A 
ATOM     51  C   UNL A   1      40.358  35.003  36.922  1.00  0.00     0.173 A 
ATOM     52  C   UNL A   1      38.864  33.371  37.858  1.00  0.00     0.173 A 
ATOM     53  F   UNL A   1      41.197  35.409  35.958  1.00  0.00    -0.203 F 
ATOM     54  C   UNL A   1      40.146  35.826  38.026  1.00  0.00     0.198 A 
ATOM     55  C   UNL A   1      38.634  34.206  38.948  1.00  0.00     0.198 A 
ATOM     56  F   UNL A   1      38.225  32.194  37.798  1.00  0.00    -0.203 F 
ATOM     57  F   UNL A   1      40.783  37.001  38.115  1.00  0.00    -0.200 F 
ATOM     58  C   UNL A   1      39.276  35.432  39.033  1.00  0.00     0.200 A 
ATOM     59  F   UNL A   1      37.778  33.830  39.908  1.00  0.00    -0.200 F 
ATOM     60  F   UNL A   1      39.057  36.234  40.084  1.00  0.00    -0.200 F 
ENDBRANCH  26  50
BRANCH  38  61
ATOM     61  C   UNL A   1      43.876  28.395  35.153  1.00  0.00     0.064 A 
ATOM     62  C   UNL A   1      43.649  27.261  35.946  1.00  0.00     0.173 A 
ATOM     63  C   UNL A   1      45.200  28.830  34.988  1.00  0.00     0.173 A 
ATOM     64  F   UNL A   1      42.399  26.817  36.146  1.00  0.00    -0.203 F 
ATOM     65  C   UNL A   1      44.708  26.593  36.555  1.00  0.00     0.198 A 
ATOM     66  C   UNL A   1      46.258  28.144  35.577  1.00  0.00     0.198 A 
ATOM     67  F   UNL A   1      45.468  29.907  34.235  1.00  0.00    -0.203 F 
ATOM     68  F   UNL A   1      44.467  25.527  37.332  1.00  0.00    -0.200 F 
ATOM     69  C   UNL A   1      46.011  27.028  36.362  1.00  0.00     0.200 A 
ATOM     70  F   UNL A   1      47.517  28.559  35.379  1.00  0.00    -0.200 F 
ATOM     71  F   UNL A   1      47.030  26.372  36.934  1.00  0.00    -0.200 F 
ENDBRANCH  38  61
ENDBRANCH  12  13
ENDBRANCH   5   7
ENDBRANCH   2   3
ENDBRANCH   1   2
BRANCH   1  72
ATOM     72  C   UNL A   1      31.401  30.911  26.148  1.00  0.00     0.117 C 
BRANCH  72  73
ATOM     73  N   UNL A   1      32.752  30.383  26.179  1.00  0.00    -0.354 N 
ATOM     74  C   UNL A   1      33.218  29.100  26.160  1.00  0.00     0.243 C 
ATOM     75  H   UNL A   1      33.456  31.069  26.220  1.00  0.00     0.163 HD
ATOM     76  O   UNL A   1      34.406  28.951  26.468  1.00  0.00    -0.273 OA
BRANCH  74  77
ATOM     77  C   UNL A   1      32.322  27.916  25.708  1.00  0.00     0.185 C 
ATOM     78  C   UNL A   1      32.554  26.613  26.475  1.00  0.00     0.106 C 
ATOM     79  N   UNL A   1      32.570  27.627  24.288  1.00  0.00    -0.317 N 
ATOM     80  S   UNL A   1      33.431  25.461  25.384  1.00  0.00    -0.138 SA
ATOM     81  C   UNL A   1      33.649  26.686  24.086  1.00  0.00     0.190 C 
BRANCH  79  82
ATOM     82  C   UNL A   1      31.942  28.360  23.302  1.00  0.00     0.255 C 
ATOM     83  O   UNL A   1      32.540  28.958  22.406  1.00  0.00    -0.269 OA
BRANCH  82  84
ATOM     84  C   UNL A   1      30.470  28.448  23.344  1.00  0.00     0.041 A 
ATOM     85  C   UNL A   1      29.716  27.284  23.544  1.00  0.00     0.014 A 
ATOM     86  C   UNL A   1      29.849  29.682  23.156  1.00  0.00     0.034 A 
ATOM     87  C   UNL A   1      28.326  27.346  23.501  1.00  0.00     0.002 A 
ATOM     88  C   UNL A   1      28.457  29.734  23.126  1.00  0.00     0.041 A 
ATOM     89  C   UNL A   1      27.695  28.573  23.285  1.00  0.00     0.020 A 
ATOM     90  Cl  UNL A   1      27.663  31.239  22.868  1.00  0.00    -0.084 Cl
ENDBRANCH  82  84
ENDBRANCH  79  82
ENDBRANCH  74  77
ENDBRANCH  72  73
ENDBRANCH   1  72
TORSDOF 12
ENDMDL
MODEL 2
REMARK VINA RESULT:     -12.1      4.409     10.137
REMARK SMILES O=C(NCCCNC(=O)[C@@H]1CSCN1C(=O)c1cccc(Cl)c1)c1ccc(-c2c3nc(c(-c4c(F)c(F)c(F)c(F)c4F)c4ccc([nH]4)c(-c4c(F)c(F)c(F)c(F)c4F)c4nc(c(-c5c(F)c(F)c(F)c(F)c5F)c5ccc2[nH]5)C=C4)C=C3)cc1
REMARK SMILES IDX 5 1 4 2 3 3 1 4 2 5 24 7 25 8 86 9 26 10 85 11 27 12 28 13
REMARK SMILES IDX 29 14 79 15 30 16 84 17 78 18 80 19 31 20 83 21 77 22 76 23
REMARK SMILES IDX 32 25 64 26 44 27 63 28 45 29 48 30 62 31 81 32 46 33 47 34
REMARK SMILES IDX 61 36 82 37 49 38 33 39 34 40 42 41 35 42 36 43 40 44 43 45
REMARK SMILES IDX 37 46 38 47 41 48 39 49 65 50 66 51 74 52 67 53 68 54 72 55
REMARK SMILES IDX 75 56 69 57 70 58 73 59 71 60 50 61 51 62 59 63 52 64 53 65
REMARK SMILES IDX 57 66 60 67 54 68 55 69 58 70 56 71 6 72 7 73 8 74 9 76
REMARK SMILES IDX 10 77 11 78 14 79 12 80 13 81 15 82 16 83 17 84 18 85 23 86
REMARK SMILES IDX 19 87 21 88 20 89 22 90
REMARK H PARENT 3 6 80 24 48 35 7 75
REMARK Flexibility Score: inf
ROOT
ATOM      1  C   UNL A   1      35.476  33.194  28.466  1.00  0.00     0.042 C 
ENDROOT
BRANCH   1   2
ATOM      2  C   UNL A   1      34.484  32.274  29.173  1.00  0.00     0.118 C 
BRANCH   2   3
ATOM      3  N   UNL A   1      34.031  31.199  28.310  1.00  0.00    -0.352 N 
ATOM      4  O   UNL A   1      34.228  29.506  26.845  1.00  0.00    -0.269 OA
ATOM      5  C   UNL A   1      34.743  30.173  27.741  1.00  0.00     0.251 C 
ATOM      6  H   UNL A   1      33.070  31.207  28.101  1.00  0.00     0.163 HD
BRANCH   5   7
ATOM      7  C   UNL A   1      36.121  29.861  28.182  1.00  0.00     0.039 A 
ATOM      8  C   UNL A   1      36.379  29.298  29.436  1.00  0.00     0.014 A 
ATOM      9  C   UNL A   1      37.172  30.062  27.282  1.00  0.00     0.014 A 
ATOM     10  C   UNL A   1      37.689  29.022  29.823  1.00  0.00     0.010 A 
ATOM     11  C   UNL A   1      38.477  29.722  27.645  1.00  0.00     0.010 A 
ATOM     12  C   UNL A   1      38.748  29.213  28.923  1.00  0.00    -0.014 A 
BRANCH  12  13
ATOM     13  C   UNL A   1      40.130  28.813  29.289  1.00  0.00     0.031 A 
ATOM     14  C   UNL A   1      41.021  29.745  30.057  1.00  0.00     0.074 A 
ATOM     15  C   UNL A   1      40.599  27.620  28.876  1.00  0.00     0.049 A 
ATOM     16  N   UNL A   1      42.281  29.606  30.382  1.00  0.00    -0.248 NA
ATOM     17  C   UNL A   1      40.418  31.007  30.510  1.00  0.00     0.031 C 
ATOM     18  C   UNL A   1      39.832  26.638  28.107  1.00  0.00     0.029 A 
ATOM     19  N   UNL A   1      41.833  27.040  29.023  1.00  0.00    -0.354 N 
ATOM     20  C   UNL A   1      42.630  30.768  31.055  1.00  0.00     0.074 A 
ATOM     21  C   UNL A   1      41.454  31.613  31.071  1.00  0.00     0.031 C 
ATOM     22  C   UNL A   1      40.611  25.579  27.849  1.00  0.00     0.029 A 
ATOM     23  C   UNL A   1      41.946  25.830  28.386  1.00  0.00     0.049 A 
ATOM     24  H   UNL A   1      42.565  27.451  29.536  1.00  0.00     0.167 HD
ATOM     25  C   UNL A   1      43.823  31.095  31.610  1.00  0.00     0.037 A 
ATOM     26  C   UNL A   1      43.012  25.025  28.217  1.00  0.00     0.037 A 
ATOM     27  C   UNL A   1      44.984  30.243  31.595  1.00  0.00     0.049 A 
ATOM     28  C   UNL A   1      44.331  25.418  28.817  1.00  0.00     0.074 A 
ATOM     29  C   UNL A   1      46.219  30.457  32.181  1.00  0.00     0.029 A 
ATOM     30  N   UNL A   1      45.057  29.018  30.947  1.00  0.00    -0.354 N 
ATOM     31  N   UNL A   1      44.637  26.495  29.499  1.00  0.00    -0.248 NA
ATOM     32  C   UNL A   1      45.452  24.489  28.626  1.00  0.00     0.031 C 
ATOM     33  C   UNL A   1      47.056  29.388  31.842  1.00  0.00     0.029 A 
ATOM     34  C   UNL A   1      46.327  28.480  31.092  1.00  0.00     0.049 A 
ATOM     35  H   UNL A   1      44.316  28.593  30.457  1.00  0.00     0.167 HD
ATOM     36  C   UNL A   1      45.975  26.365  29.838  1.00  0.00     0.074 A 
ATOM     37  C   UNL A   1      46.424  25.101  29.290  1.00  0.00     0.031 C 
ATOM     38  C   UNL A   1      46.758  27.217  30.544  1.00  0.00     0.037 A 
BRANCH  25  39
ATOM     39  C   UNL A   1      43.939  32.446  32.255  1.00  0.00     0.064 A 
ATOM     40  C   UNL A   1      44.341  33.580  31.533  1.00  0.00     0.173 A 
ATOM     41  C   UNL A   1      43.624  32.612  33.612  1.00  0.00     0.173 A 
ATOM     42  F   UNL A   1      44.663  33.477  30.235  1.00  0.00    -0.203 F 
ATOM     43  C   UNL A   1      44.463  34.821  32.156  1.00  0.00     0.198 A 
ATOM     44  C   UNL A   1      43.716  33.860  34.224  1.00  0.00     0.198 A 
ATOM     45  F   UNL A   1      43.224  31.564  34.347  1.00  0.00    -0.203 F 
ATOM     46  F   UNL A   1      44.905  35.877  31.460  1.00  0.00    -0.200 F 
ATOM     47  C   UNL A   1      44.146  34.961  33.499  1.00  0.00     0.200 A 
ATOM     48  F   UNL A   1      43.398  33.995  35.519  1.00  0.00    -0.200 F 
ATOM     49  F   UNL A   1      44.264  36.154  34.096  1.00  0.00    -0.200 F 
ENDBRANCH  25  39
BRANCH  26  50
ATOM     50  C   UNL A   1      42.856  23.777  27.429  1.00  0.00     0.064 A 
ATOM     51  C   UNL A   1      43.203  23.730  26.073  1.00  0.00     0.173 A 
ATOM     52  C   UNL A   1      42.417  22.590  28.035  1.00  0.00     0.173 A 
ATOM     53  F   UNL A   1      43.611  24.844  25.448  1.00  0.00    -0.203 F 
ATOM     54  C   UNL A   1      43.117  22.542  25.351  1.00  0.00     0.198 A 
ATOM     55  C   UNL A   1      42.356  21.397  27.319  1.00  0.00     0.198 A 
ATOM     56  F   UNL A   1      42.081  22.582  29.333  1.00  0.00    -0.203 F 
ATOM     57  F   UNL A   1      43.434  22.526  24.049  1.00  0.00    -0.200 F 
ATOM     58  C   UNL A   1      42.704  21.374  25.977  1.00  0.00     0.200 A 
ATOM     59  F   UNL A   1      41.976  20.268  27.932  1.00  0.00    -0.200 F 
ATOM     60  F   UNL A   1      42.643  20.227  25.287  1.00  0.00    -0.200 F 
ENDBRANCH  26  50
BRANCH  38  61
ATOM     61  C   UNL A   1      48.177  26.803  30.798  1.00  0.00     0.064 A 
ATOM     62  C   UNL A   1      48.518  25.958  31.864  1.00  0.00     0.173 A 
ATOM     63  C   UNL A   1      49.197  27.199  29.919  1.00  0.00     0.173 A 
ATOM     64  F   UNL A   1      47.581  25.566  32.740  1.00  0.00    -0.203 F 
ATOM     65  C   UNL A   1      49.831  25.531  32.045  1.00  0.00     0.198 A 
ATOM     66  C   UNL A   1      50.503  26.749  30.088  1.00  0.00     0.198 A 
ATOM     67  F   UNL A   1      48.920  28.003  28.881  1.00  0.00    -0.203 F 
ATOM     68  F   UNL A   1      50.141  24.746  33.087  1.00  0.00    -0.200 F 
ATOM     69  C   UNL A   1      50.820  25.918  31.152  1.00  0.00     0.200 A 
ATOM     70  F   UNL A   1      51.454  27.114  29.217  1.00  0.00    -0.200 F 
ATOM     71  F   UNL A   1      52.079  25.491  31.317  1.00  0.00    -0.200 F 
ENDBRANCH  38  61
ENDBRANCH  12  13
ENDBRANCH   5   7
ENDBRANCH   2   3
ENDBRANCH   1   2
BRANCH   1  72
ATOM     72  C   UNL A   1      36.700  33.556  29.314  1.00  0.00     0.117 C 
BRANCH  72  73
ATOM     73  N   UNL A   1      36.934  32.550  30.333  1.00  0.00    -0.354 N 
ATOM     74  C   UNL A   1      37.257  32.666  31.654  1.00  0.00     0.243 C 
ATOM     75  H   UNL A   1      36.845  31.623  30.018  1.00  0.00     0.163 HD
ATOM     76  O   UNL A   1      37.658  31.636  32.206  1.00  0.00    -0.273 OA
BRANCH  74  77
ATOM     77  C   UNL A   1      37.060  33.999  32.426  1.00  0.00     0.185 C 
ATOM     78  C   UNL A   1      38.305  34.500  33.160  1.00  0.00     0.106 C 
ATOM     79  N   UNL A   1      36.006  33.829  33.437  1.00  0.00    -0.317 N 
ATOM     80  S   UNL A   1      38.060  34.239  34.937  1.00  0.00    -0.138 SA
ATOM     81  C   UNL A   1      36.514  33.351  34.703  1.00  0.00     0.190 C 
BRANCH  79  82
ATOM     82  C   UNL A   1      34.675  33.939  33.090  1.00  0.00     0.255 C 
ATOM     83  O   UNL A   1      33.843  33.050  33.273  1.00  0.00    -0.269 OA
BRANCH  82  84
ATOM     84  C   UNL A   1      34.237  35.189  32.441  1.00  0.00     0.041 A 
ATOM     85  C   UNL A   1      34.256  36.386  33.168  1.00  0.00     0.014 A 
ATOM     86  C   UNL A   1      33.781  35.157  31.123  1.00  0.00     0.034 A 
ATOM     87  C   UNL A   1      33.764  37.553  32.589  1.00  0.00     0.002 A 
ATOM     88  C   UNL A   1      33.302  36.332  30.550  1.00  0.00     0.041 A 
ATOM     89  C   UNL A   1      33.280  37.525  31.279  1.00  0.00     0.020 A 
ATOM     90  Cl  UNL A   1      32.708  36.317  28.935  1.00  0.00    -0.084 Cl
ENDBRANCH  82  84
ENDBRANCH  79  82
ENDBRANCH  74  77
ENDBRANCH  72  73
ENDBRANCH   1  72
TORSDOF 12
ENDMDL
MODEL 3
REMARK VINA RESULT:     -12.0      6.568     11.652
REMARK SMILES O=C(NCCCNC(=O)[C@@H]1CSCN1C(=O)c1cccc(Cl)c1)c1ccc(-c2c3nc(c(-c4c(F)c(F)c(F)c(F)c4F)c4ccc([nH]4)c(-c4c(F)c(F)c(F)c(F)c4F)c4nc(c(-c5c(F)c(F)c(F)c(F)c5F)c5ccc2[nH]5)C=C4)C=C3)cc1
REMARK SMILES IDX 5 1 4 2 3 3 1 4 2 5 24 7 25 8 86 9 26 10 85 11 27 12 28 13
REMARK SMILES IDX 29 14 79 15 30 16 84 17 78 18 80 19 31 20 83 21 77 22 76 23
REMARK SMILES IDX 32 25 64 26 44 27 63 28 45 29 48 30 62 31 81 32 46 33 47 34
REMARK SMILES IDX 61 36 82 37 49 38 33 39 34 40 42 41 35 42 36 43 40 44 43 45
REMARK SMILES IDX 37 46 38 47 41 48 39 49 65 50 66 51 74 52 67 53 68 54 72 55
REMARK SMILES IDX 75 56 69 57 70 58 73 59 71 60 50 61 51 62 59 63 52 64 53 65
REMARK SMILES IDX 57 66 60 67 54 68 55 69 58 70 56 71 6 72 7 73 8 74 9 76
REMARK SMILES IDX 10 77 11 78 14 79 12 80 13 81 15 82 16 83 17 84 18 85 23 86
REMARK SMILES IDX 19 87 21 88 20 89 22 90
REMARK H PARENT 3 6 80 24 48 35 7 75
REMARK Flexibility Score: inf
ROOT
ATOM      1  C   UNL A   1      38.152  19.349  25.001  1.00  0.00     0.042 C 
ENDROOT
BRANCH   1   2
ATOM      2  C   UNL A   1      39.332  19.945  25.764  1.00  0.00     0.118 C 
BRANCH   2   3
ATOM      3  N   UNL A   1      40.398  18.979  25.956  1.00  0.00    -0.352 N 
ATOM      4  O   UNL A   1      42.513  18.224  26.023  1.00  0.00    -0.269 OA
ATOM      5  C   UNL A   1      41.744  19.180  26.119  1.00  0.00     0.251 C 
ATOM      6  H   UNL A   1      40.111  18.038  25.971  1.00  0.00     0.163 HD
BRANCH   5   7
ATOM      7  C   UNL A   1      42.288  20.527  26.402  1.00  0.00     0.039 A 
ATOM      8  C   UNL A   1      42.721  21.373  25.376  1.00  0.00     0.014 A 
ATOM      9  C   UNL A   1      42.284  20.985  27.724  1.00  0.00     0.014 A 
ATOM     10  C   UNL A   1      43.233  22.634  25.678  1.00  0.00     0.010 A 
ATOM     11  C   UNL A   1      42.734  22.274  28.018  1.00  0.00     0.010 A 
ATOM     12  C   UNL A   1      43.226  23.104  27.000  1.00  0.00    -0.014 A 
BRANCH  12  13
ATOM     13  C   UNL A   1      43.663  24.487  27.311  1.00  0.00     0.031 A 
ATOM     14  C   UNL A   1      42.679  25.515  27.786  1.00  0.00     0.074 A 
ATOM     15  C   UNL A   1      44.951  24.829  27.109  1.00  0.00     0.049 A 
ATOM     16  N   UNL A   1      42.859  26.791  28.015  1.00  0.00    -0.248 NA
ATOM     17  C   UNL A   1      41.305  25.049  28.024  1.00  0.00     0.031 C 
ATOM     18  C   UNL A   1      45.995  23.921  26.632  1.00  0.00     0.029 A 
ATOM     19  N   UNL A   1      45.594  26.031  27.258  1.00  0.00    -0.354 N 
ATOM     20  C   UNL A   1      41.622  27.286  28.401  1.00  0.00     0.074 A 
ATOM     21  C   UNL A   1      40.692  26.177  28.352  1.00  0.00     0.031 C 
ATOM     22  C   UNL A   1      47.147  24.597  26.525  1.00  0.00     0.029 A 
ATOM     23  C   UNL A   1      46.911  25.995  26.874  1.00  0.00     0.049 A 
ATOM     24  H   UNL A   1      45.155  26.840  27.606  1.00  0.00     0.167 HD
ATOM     25  C   UNL A   1      41.296  28.550  28.765  1.00  0.00     0.037 A 
ATOM     26  C   UNL A   1      47.822  26.982  26.776  1.00  0.00     0.037 A 
ATOM     27  C   UNL A   1      42.231  29.645  28.818  1.00  0.00     0.049 A 
ATOM     28  C   UNL A   1      47.433  28.380  27.158  1.00  0.00     0.074 A 
ATOM     29  C   UNL A   1      42.012  30.947  29.231  1.00  0.00     0.029 A 
ATOM     30  N   UNL A   1      43.561  29.567  28.430  1.00  0.00    -0.354 N 
ATOM     31  N   UNL A   1      46.274  28.828  27.574  1.00  0.00    -0.248 NA
ATOM     32  C   UNL A   1      48.475  29.411  27.059  1.00  0.00     0.031 C 
ATOM     33  C   UNL A   1      43.196  31.671  29.042  1.00  0.00     0.029 A 
ATOM     34  C   UNL A   1      44.167  30.806  28.565  1.00  0.00     0.049 A 
ATOM     35  H   UNL A   1      44.009  28.751  28.108  1.00  0.00     0.167 HD
ATOM     36  C   UNL A   1      46.449  30.184  27.808  1.00  0.00     0.074 A 
ATOM     37  C   UNL A   1      47.831  30.487  27.492  1.00  0.00     0.031 C 
ATOM     38  C   UNL A   1      45.546  31.093  28.249  1.00  0.00     0.037 A 
BRANCH  25  39
ATOM     39  C   UNL A   1      39.859  28.824  29.106  1.00  0.00     0.064 A 
ATOM     40  C   UNL A   1      38.931  29.231  28.136  1.00  0.00     0.173 A 
ATOM     41  C   UNL A   1      39.399  28.657  30.421  1.00  0.00     0.173 A 
ATOM     42  F   UNL A   1      39.318  29.415  26.864  1.00  0.00    -0.203 F 
ATOM     43  C   UNL A   1      37.606  29.500  28.477  1.00  0.00     0.198 A 
ATOM     44  C   UNL A   1      38.068  28.896  30.754  1.00  0.00     0.198 A 
ATOM     45  F   UNL A   1      40.242  28.260  31.387  1.00  0.00    -0.203 F 
ATOM     46  F   UNL A   1      36.753  29.944  27.545  1.00  0.00    -0.200 F 
ATOM     47  C   UNL A   1      37.176  29.328  29.784  1.00  0.00     0.200 A 
ATOM     48  F   UNL A   1      37.651  28.718  32.014  1.00  0.00    -0.200 F 
ATOM     49  F   UNL A   1      35.903  29.588  30.111  1.00  0.00    -0.200 F 
ENDBRANCH  25  39
BRANCH  26  50
ATOM     50  C   UNL A   1      49.183  26.660  26.278  1.00  0.00     0.064 A 
ATOM     51  C   UNL A   1      49.525  26.852  24.933  1.00  0.00     0.173 A 
ATOM     52  C   UNL A   1      50.186  26.214  27.152  1.00  0.00     0.173 A 
ATOM     53  F   UNL A   1      48.594  27.261  24.058  1.00  0.00    -0.203 F 
ATOM     54  C   UNL A   1      50.820  26.611  24.481  1.00  0.00     0.198 A 
ATOM     55  C   UNL A   1      51.486  25.998  26.704  1.00  0.00     0.198 A 
ATOM     56  F   UNL A   1      49.909  26.023  28.450  1.00  0.00    -0.203 F 
ATOM     57  F   UNL A   1      51.118  26.783  23.186  1.00  0.00    -0.200 F 
ATOM     58  C   UNL A   1      51.803  26.195  25.368  1.00  0.00     0.200 A 
ATOM     59  F   UNL A   1      52.436  25.615  27.568  1.00  0.00    -0.200 F 
ATOM     60  F   UNL A   1      53.054  25.984  24.936  1.00  0.00    -0.200 F 
ENDBRANCH  26  50
BRANCH  38  61
ATOM     61  C   UNL A   1      46.022  32.500  28.451  1.00  0.00     0.064 A 
ATOM     62  C   UNL A   1      45.917  33.465  27.438  1.00  0.00     0.173 A 
ATOM     63  C   UNL A   1      46.521  32.906  29.698  1.00  0.00     0.173 A 
ATOM     64  F   UNL A   1      45.462  33.122  26.224  1.00  0.00    -0.203 F 
ATOM     65  C   UNL A   1      46.304  34.784  27.666  1.00  0.00     0.198 A 
ATOM     66  C   UNL A   1      46.881  34.230  29.930  1.00  0.00     0.198 A 
ATOM     67  F   UNL A   1      46.635  32.021  30.700  1.00  0.00    -0.203 F 
ATOM     68  F   UNL A   1      46.222  35.684  26.676  1.00  0.00    -0.200 F 
ATOM     69  C   UNL A   1      46.774  35.167  28.913  1.00  0.00     0.200 A 
ATOM     70  F   UNL A   1      47.324  34.601  31.139  1.00  0.00    -0.200 F 
ATOM     71  F   UNL A   1      47.128  36.440  29.135  1.00  0.00    -0.200 F 
ENDBRANCH  38  61
ENDBRANCH  12  13
ENDBRANCH   5   7
ENDBRANCH   2   3
ENDBRANCH   1   2
BRANCH   1  72
ATOM     72  C   UNL A   1      37.075  20.372  24.627  1.00  0.00     0.117 C 
BRANCH  72  73
ATOM     73  N   UNL A   1      37.181  21.558  25.457  1.00  0.00    -0.354 N 
ATOM     74  C   UNL A   1      36.471  22.723  25.457  1.00  0.00     0.243 C 
ATOM     75  H   UNL A   1      37.888  21.514  26.140  1.00  0.00     0.163 HD
ATOM     76  O   UNL A   1      36.963  23.657  26.101  1.00  0.00    -0.273 OA
BRANCH  74  77
ATOM     77  C   UNL A   1      35.094  22.837  24.748  1.00  0.00     0.185 C 
ATOM     78  C   UNL A   1      34.793  24.217  24.161  1.00  0.00     0.106 C 
ATOM     79  N   UNL A   1      34.022  22.537  25.708  1.00  0.00    -0.317 N 
ATOM     80  S   UNL A   1      33.544  25.017  25.203  1.00  0.00    -0.138 SA
ATOM     81  C   UNL A   1      33.572  23.705  26.431  1.00  0.00     0.190 C 
BRANCH  79  82
ATOM     82  C   UNL A   1      33.670  21.231  25.982  1.00  0.00     0.255 C 
ATOM     83  O   UNL A   1      33.653  20.749  27.115  1.00  0.00    -0.269 OA
BRANCH  82  84
ATOM     84  C   UNL A   1      33.319  20.361  24.844  1.00  0.00     0.041 A 
ATOM     85  C   UNL A   1      32.560  20.883  23.787  1.00  0.00     0.014 A 
ATOM     86  C   UNL A   1      33.721  19.026  24.847  1.00  0.00     0.034 A 
ATOM     87  C   UNL A   1      32.153  20.045  22.751  1.00  0.00     0.002 A 
ATOM     88  C   UNL A   1      33.318  18.201  23.800  1.00  0.00     0.041 A 
ATOM     89  C   UNL A   1      32.528  18.700  22.761  1.00  0.00     0.020 A 
ATOM     90  Cl  UNL A   1      33.777  16.542  23.792  1.00  0.00    -0.084 Cl
ENDBRANCH  82  84
ENDBRANCH  79  82
ENDBRANCH  74  77
ENDBRANCH  72  73
ENDBRANCH   1  72
TORSDOF 12
ENDMDL
