MODEL 1
REMARK VINA RESULT:     -13.0      0.000      0.000
REMARK SMILES Cc1nsc(NC(=O)[C@@H]2C[NH2+]C[C@H]2C)c1C(=O)NCCCNC(=O)c1ccc(-c2c3nc(c(-c4c(F)c(F)c(F)c(F)c4F)c4ccc([nH]4)c(-c4c(F)c(F)c(F)c(F)c4F)c4nc(c(-c5c(F)c(F)c(F)c(F)c5F)c5ccc2[nH]5)C=C4)C=C3)cc1
REMARK SMILES IDX 20 1 19 2 18 3 16 4 17 5 15 7 1 8 2 9 3 10 4 11 5 12 6 13
REMARK SMILES IDX 7 14 8 16 9 17 10 18 13 19 11 20 12 21 14 22 21 25 22 26
REMARK SMILES IDX 23 27 24 29 25 30 26 31 87 32 27 33 86 34 28 35 29 36 30 37
REMARK SMILES IDX 80 38 31 39 85 40 79 41 81 42 32 43 84 44 78 45 77 46 33 48
REMARK SMILES IDX 65 49 45 50 64 51 46 52 49 53 63 54 82 55 47 56 48 57 62 59
REMARK SMILES IDX 83 60 50 61 34 62 35 63 43 64 36 65 37 66 41 67 44 68 38 69
REMARK SMILES IDX 39 70 42 71 40 72 66 73 67 74 75 75 68 76 69 77 73 78 76 79
REMARK SMILES IDX 70 80 71 81 74 82 72 83 51 84 52 85 60 86 53 87 54 88 58 89
REMARK SMILES IDX 61 90 55 91 56 92 59 93 57 94
REMARK H PARENT 18 6 6 15 11 23 11 24 22 28 81 47 49 58
REMARK Flexibility Score: inf
ROOT
ATOM      1  C   UNL A   1      38.836  21.707  25.699  1.00  0.00     0.042 C 
ENDROOT
BRANCH   1   2
ATOM      2  C   UNL A   1      38.078  23.036  25.710  1.00  0.00     0.118 C 
BRANCH   2   3
ATOM      3  N   UNL A   1      37.269  23.227  24.532  1.00  0.00    -0.352 N 
ATOM      4  C   UNL A   1      35.923  23.269  24.294  1.00  0.00     0.256 C 
ATOM      5  O   UNL A   1      35.646  23.640  23.145  1.00  0.00    -0.269 OA
ATOM      6  H   UNL A   1      37.805  23.355  23.716  1.00  0.00     0.163 HD
BRANCH   4   7
ATOM      7  C   UNL A   1      34.839  22.875  25.215  1.00  0.00     0.097 A 
ATOM      8  C   UNL A   1      33.365  24.989  26.091  1.00  0.00     0.069 C 
ATOM      9  C   UNL A   1      33.821  23.579  26.011  1.00  0.00     0.066 A 
ATOM     10  N   UNL A   1      33.184  22.836  26.917  1.00  0.00    -0.195 NA
ATOM     11  S   UNL A   1      33.798  21.339  26.913  1.00  0.00    -0.017 S 
ATOM     12  C   UNL A   1      34.671  21.500  25.478  1.00  0.00     0.129 A 
BRANCH  12  13
ATOM     13  N   UNL A   1      35.324  20.404  24.940  1.00  0.00    -0.315 N 
ATOM     14  C   UNL A   1      34.991  19.074  24.867  1.00  0.00     0.234 C 
ATOM     15  H   UNL A   1      36.193  20.620  24.531  1.00  0.00     0.170 HD
ATOM     16  O   UNL A   1      35.938  18.277  24.838  1.00  0.00    -0.274 OA
BRANCH  14  17
ATOM     17  C   UNL A   1      33.559  18.596  24.523  1.00  0.00     0.142 C 
ATOM     18  C   UNL A   1      32.748  17.941  25.636  1.00  0.00     0.274 C 
ATOM     19  C   UNL A   1      33.542  17.500  23.413  1.00  0.00     0.059 C 
ATOM     20  N   UNL A   1      32.028  16.801  25.062  1.00  0.00    -0.345 N 
ATOM     21  C   UNL A   1      33.011  16.258  24.125  1.00  0.00     0.264 C 
ATOM     22  C   UNL A   1      32.625  17.887  22.247  1.00  0.00     0.015 C 
ATOM     23  H   UNL A   1      31.183  17.104  24.578  1.00  0.00     0.346 HD
ATOM     24  H   UNL A   1      31.708  16.126  25.756  1.00  0.00     0.346 HD
ENDBRANCH  14  17
ENDBRANCH  12  13
ENDBRANCH   4   7
ENDBRANCH   2   3
ENDBRANCH   1   2
BRANCH   1  25
ATOM     25  C   UNL A   1      40.003  21.673  26.659  1.00  0.00     0.118 C 
BRANCH  25  26
ATOM     26  N   UNL A   1      41.278  21.866  25.963  1.00  0.00    -0.352 N 
ATOM     27  C   UNL A   1      41.995  23.034  25.782  1.00  0.00     0.251 C 
ATOM     28  H   UNL A   1      41.676  21.055  25.572  1.00  0.00     0.163 HD
ATOM     29  O   UNL A   1      42.835  23.127  24.908  1.00  0.00    -0.269 OA
BRANCH  27  30
ATOM     30  C   UNL A   1      41.700  24.169  26.670  1.00  0.00     0.039 A 
ATOM     31  C   UNL A   1      42.274  24.263  27.938  1.00  0.00     0.014 A 
ATOM     32  C   UNL A   1      40.896  25.186  26.165  1.00  0.00     0.014 A 
ATOM     33  C   UNL A   1      42.102  25.443  28.654  1.00  0.00     0.010 A 
ATOM     34  C   UNL A   1      40.911  26.411  26.772  1.00  0.00     0.010 A 
ATOM     35  C   UNL A   1      41.447  26.527  28.047  1.00  0.00    -0.014 A 
BRANCH  35  36
ATOM     36  C   UNL A   1      41.408  27.835  28.686  1.00  0.00     0.031 A 
ATOM     37  C   UNL A   1      42.527  28.736  28.300  1.00  0.00     0.074 A 
ATOM     38  C   UNL A   1      40.350  28.274  29.402  1.00  0.00     0.049 A 
ATOM     39  N   UNL A   1      43.486  29.156  29.056  1.00  0.00    -0.248 NA
ATOM     40  C   UNL A   1      42.688  29.093  26.880  1.00  0.00     0.031 C 
ATOM     41  C   UNL A   1      39.047  27.632  29.613  1.00  0.00     0.029 A 
ATOM     42  N   UNL A   1      40.188  29.470  30.027  1.00  0.00    -0.354 N 
ATOM     43  C   UNL A   1      44.262  29.996  28.263  1.00  0.00     0.074 A 
ATOM     44  C   UNL A   1      43.836  29.773  26.906  1.00  0.00     0.031 C 
ATOM     45  C   UNL A   1      38.165  28.535  30.093  1.00  0.00     0.029 A 
ATOM     46  C   UNL A   1      38.879  29.761  30.395  1.00  0.00     0.049 A 
ATOM     47  H   UNL A   1      40.937  30.081  30.207  1.00  0.00     0.167 HD
ATOM     48  C   UNL A   1      45.010  30.984  28.829  1.00  0.00     0.037 A 
ATOM     49  C   UNL A   1      38.424  30.941  30.886  1.00  0.00     0.037 A 
ATOM     50  C   UNL A   1      45.200  30.742  30.240  1.00  0.00     0.049 A 
ATOM     51  C   UNL A   1      39.607  31.675  31.405  1.00  0.00     0.074 A 
ATOM     52  C   UNL A   1      45.734  29.699  30.974  1.00  0.00     0.029 A 
ATOM     53  N   UNL A   1      44.443  31.465  31.130  1.00  0.00    -0.354 N 
ATOM     54  N   UNL A   1      40.286  31.299  32.454  1.00  0.00    -0.248 NA
ATOM     55  C   UNL A   1      40.316  32.544  30.476  1.00  0.00     0.031 C 
ATOM     56  C   UNL A   1      44.860  29.555  32.093  1.00  0.00     0.029 A 
ATOM     57  C   UNL A   1      43.908  30.571  32.023  1.00  0.00     0.049 A 
ATOM     58  H   UNL A   1      44.311  32.440  31.128  1.00  0.00     0.167 HD
ATOM     59  C   UNL A   1      41.612  31.505  32.103  1.00  0.00     0.074 A 
ATOM     60  C   UNL A   1      41.566  32.343  30.904  1.00  0.00     0.031 C 
ATOM     61  C   UNL A   1      42.610  30.737  32.630  1.00  0.00     0.037 A 
BRANCH  48  62
ATOM     62  C   UNL A   1      45.228  32.347  28.211  1.00  0.00     0.064 A 
ATOM     63  C   UNL A   1      44.108  33.166  27.962  1.00  0.00     0.173 A 
ATOM     64  C   UNL A   1      46.424  32.747  27.577  1.00  0.00     0.173 A 
ATOM     65  F   UNL A   1      42.914  32.878  28.502  1.00  0.00    -0.203 F 
ATOM     66  C   UNL A   1      44.161  34.239  27.068  1.00  0.00     0.198 A 
ATOM     67  C   UNL A   1      46.486  33.851  26.729  1.00  0.00     0.198 A 
ATOM     68  F   UNL A   1      47.551  32.032  27.653  1.00  0.00    -0.203 F 
ATOM     69  F   UNL A   1      43.038  34.900  26.755  1.00  0.00    -0.200 F 
ATOM     70  C   UNL A   1      45.348  34.574  26.445  1.00  0.00     0.200 A 
ATOM     71  F   UNL A   1      47.644  34.149  26.122  1.00  0.00    -0.200 F 
ATOM     72  F   UNL A   1      45.389  35.558  25.537  1.00  0.00    -0.200 F 
ENDBRANCH  48  62
BRANCH  49  73
ATOM     73  C   UNL A   1      37.114  31.603  30.673  1.00  0.00     0.064 A 
ATOM     74  C   UNL A   1      36.170  31.672  31.713  1.00  0.00     0.173 A 
ATOM     75  C   UNL A   1      36.877  32.435  29.561  1.00  0.00     0.173 A 
ATOM     76  F   UNL A   1      36.334  30.939  32.823  1.00  0.00    -0.203 F 
ATOM     77  C   UNL A   1      35.084  32.553  31.664  1.00  0.00     0.198 A 
ATOM     78  C   UNL A   1      35.788  33.309  29.511  1.00  0.00     0.198 A 
ATOM     79  F   UNL A   1      37.748  32.491  28.545  1.00  0.00    -0.203 F 
ATOM     80  F   UNL A   1      34.249  32.642  32.710  1.00  0.00    -0.200 F 
ATOM     81  C   UNL A   1      34.903  33.382  30.571  1.00  0.00     0.200 A 
ATOM     82  F   UNL A   1      35.644  34.129  28.461  1.00  0.00    -0.200 F 
ATOM     83  F   UNL A   1      33.906  34.277  30.555  1.00  0.00    -0.200 F 
ENDBRANCH  49  73
BRANCH  61  84
ATOM     84  C   UNL A   1      42.276  29.829  33.782  1.00  0.00     0.064 A 
ATOM     85  C   UNL A   1      41.806  28.510  33.645  1.00  0.00     0.173 A 
ATOM     86  C   UNL A   1      42.593  30.264  35.076  1.00  0.00     0.173 A 
ATOM     87  F   UNL A   1      41.577  27.979  32.438  1.00  0.00    -0.203 F 
ATOM     88  C   UNL A   1      41.623  27.688  34.756  1.00  0.00     0.198 A 
ATOM     89  C   UNL A   1      42.446  29.428  36.179  1.00  0.00     0.198 A 
ATOM     90  F   UNL A   1      43.097  31.495  35.265  1.00  0.00    -0.203 F 
ATOM     91  F   UNL A   1      41.162  26.437  34.598  1.00  0.00    -0.200 F 
ATOM     92  C   UNL A   1      41.949  28.145  36.021  1.00  0.00     0.200 A 
ATOM     93  F   UNL A   1      42.812  29.859  37.393  1.00  0.00    -0.200 F 
ATOM     94  F   UNL A   1      41.814  27.341  37.084  1.00  0.00    -0.200 F 
ENDBRANCH  61  84
ENDBRANCH  35  36
ENDBRANCH  27  30
ENDBRANCH  25  26
ENDBRANCH   1  25
TORSDOF 12
ENDMDL
MODEL 2
REMARK VINA RESULT:     -13.0      4.328      9.539
REMARK SMILES Cc1nsc(NC(=O)[C@@H]2C[NH2+]C[C@H]2C)c1C(=O)NCCCNC(=O)c1ccc(-c2c3nc(c(-c4c(F)c(F)c(F)c(F)c4F)c4ccc([nH]4)c(-c4c(F)c(F)c(F)c(F)c4F)c4nc(c(-c5c(F)c(F)c(F)c(F)c5F)c5ccc2[nH]5)C=C4)C=C3)cc1
REMARK SMILES IDX 20 1 19 2 18 3 16 4 17 5 15 7 1 8 2 9 3 10 4 11 5 12 6 13
REMARK SMILES IDX 7 14 8 16 9 17 10 18 13 19 11 20 12 21 14 22 21 25 22 26
REMARK SMILES IDX 23 27 24 29 25 30 26 31 87 32 27 33 86 34 28 35 29 36 30 37
REMARK SMILES IDX 80 38 31 39 85 40 79 41 81 42 32 43 84 44 78 45 77 46 33 48
REMARK SMILES IDX 65 49 45 50 64 51 46 52 49 53 63 54 82 55 47 56 48 57 62 59
REMARK SMILES IDX 83 60 50 61 34 62 35 63 43 64 36 65 37 66 41 67 44 68 38 69
REMARK SMILES IDX 39 70 42 71 40 72 66 73 67 74 75 75 68 76 69 77 73 78 76 79
REMARK SMILES IDX 70 80 71 81 74 82 72 83 51 84 52 85 60 86 53 87 54 88 58 89
REMARK SMILES IDX 61 90 55 91 56 92 59 93 57 94
REMARK H PARENT 18 6 6 15 11 23 11 24 22 28 81 47 49 58
REMARK Flexibility Score: inf
ROOT
ATOM      1  C   UNL A   1      32.598  29.367  26.619  1.00  0.00     0.042 C 
ENDROOT
BRANCH   1   2
ATOM      2  C   UNL A   1      32.343  28.198  27.572  1.00  0.00     0.118 C 
BRANCH   2   3
ATOM      3  N   UNL A   1      31.210  27.397  27.181  1.00  0.00    -0.352 N 
ATOM      4  C   UNL A   1      30.958  26.537  26.148  1.00  0.00     0.256 C 
ATOM      5  O   UNL A   1      29.900  25.909  26.288  1.00  0.00    -0.269 OA
ATOM      6  H   UNL A   1      30.446  27.489  27.796  1.00  0.00     0.163 HD
BRANCH   4   7
ATOM      7  C   UNL A   1      31.762  26.350  24.925  1.00  0.00     0.097 A 
ATOM      8  C   UNL A   1      34.384  25.830  25.443  1.00  0.00     0.069 C 
ATOM      9  C   UNL A   1      33.184  26.122  24.620  1.00  0.00     0.066 A 
ATOM     10  N   UNL A   1      33.526  26.258  23.338  1.00  0.00    -0.195 NA
ATOM     11  S   UNL A   1      32.233  26.719  22.482  1.00  0.00    -0.017 S 
ATOM     12  C   UNL A   1      31.092  26.406  23.685  1.00  0.00     0.129 A 
BRANCH  12  13
ATOM     13  N   UNL A   1      29.742  26.538  23.408  1.00  0.00    -0.315 N 
ATOM     14  C   UNL A   1      28.892  27.615  23.446  1.00  0.00     0.234 C 
ATOM     15  H   UNL A   1      29.309  25.698  23.131  1.00  0.00     0.170 HD
ATOM     16  O   UNL A   1      27.703  27.363  23.679  1.00  0.00    -0.274 OA
BRANCH  14  17
ATOM     17  C   UNL A   1      29.304  29.014  22.923  1.00  0.00     0.142 C 
ATOM     18  C   UNL A   1      30.111  29.906  23.859  1.00  0.00     0.274 C 
ATOM     19  C   UNL A   1      28.075  29.914  22.585  1.00  0.00     0.059 C 
ATOM     20  N   UNL A   1      29.605  31.275  23.729  1.00  0.00    -0.345 N 
ATOM     21  C   UNL A   1      28.165  31.058  23.593  1.00  0.00     0.264 C 
ATOM     22  C   UNL A   1      28.142  30.452  21.152  1.00  0.00     0.015 C 
ATOM     23  H   UNL A   1      29.989  31.735  22.903  1.00  0.00     0.346 HD
ATOM     24  H   UNL A   1      29.856  31.881  24.510  1.00  0.00     0.346 HD
ENDBRANCH  14  17
ENDBRANCH  12  13
ENDBRANCH   4   7
ENDBRANCH   2   3
ENDBRANCH   1   2
BRANCH   1  25
ATOM     25  C   UNL A   1      33.946  30.022  26.820  1.00  0.00     0.118 C 
BRANCH  25  26
ATOM     26  N   UNL A   1      33.870  31.127  27.779  1.00  0.00    -0.352 N 
ATOM     27  C   UNL A   1      34.770  31.475  28.769  1.00  0.00     0.251 C 
ATOM     28  H   UNL A   1      33.071  31.697  27.709  1.00  0.00     0.163 HD
ATOM     29  O   UNL A   1      34.436  32.175  29.705  1.00  0.00    -0.269 OA
BRANCH  27  30
ATOM     30  C   UNL A   1      36.144  30.958  28.664  1.00  0.00     0.039 A 
ATOM     31  C   UNL A   1      37.245  31.778  28.911  1.00  0.00     0.014 A 
ATOM     32  C   UNL A   1      36.300  29.603  28.394  1.00  0.00     0.014 A 
ATOM     33  C   UNL A   1      38.504  31.190  28.975  1.00  0.00     0.010 A 
ATOM     34  C   UNL A   1      37.497  29.002  28.670  1.00  0.00     0.010 A 
ATOM     35  C   UNL A   1      38.616  29.792  28.888  1.00  0.00    -0.014 A 
BRANCH  35  36
ATOM     36  C   UNL A   1      39.886  29.124  29.136  1.00  0.00     0.031 A 
ATOM     37  C   UNL A   1      40.196  28.918  30.576  1.00  0.00     0.074 A 
ATOM     38  C   UNL A   1      40.621  28.555  28.156  1.00  0.00     0.049 A 
ATOM     39  N   UNL A   1      41.141  29.475  31.257  1.00  0.00    -0.248 NA
ATOM     40  C   UNL A   1      39.265  28.120  31.392  1.00  0.00     0.031 C 
ATOM     41  C   UNL A   1      40.300  28.398  26.733  1.00  0.00     0.029 A 
ATOM     42  N   UNL A   1      41.803  27.892  28.260  1.00  0.00    -0.354 N 
ATOM     43  C   UNL A   1      41.055  28.945  32.540  1.00  0.00     0.074 A 
ATOM     44  C   UNL A   1      39.785  28.270  32.611  1.00  0.00     0.031 C 
ATOM     45  C   UNL A   1      41.130  27.489  26.174  1.00  0.00     0.029 A 
ATOM     46  C   UNL A   1      42.148  27.138  27.145  1.00  0.00     0.049 A 
ATOM     47  H   UNL A   1      42.372  27.944  29.062  1.00  0.00     0.167 HD
ATOM     48  C   UNL A   1      42.154  28.899  33.345  1.00  0.00     0.037 A 
ATOM     49  C   UNL A   1      43.185  26.268  27.050  1.00  0.00     0.037 A 
ATOM     50  C   UNL A   1      43.176  29.802  32.871  1.00  0.00     0.049 A 
ATOM     51  C   UNL A   1      44.140  26.618  28.133  1.00  0.00     0.074 A 
ATOM     52  C   UNL A   1      43.220  31.162  32.621  1.00  0.00     0.029 A 
ATOM     53  N   UNL A   1      44.245  29.272  32.189  1.00  0.00    -0.354 N 
ATOM     54  N   UNL A   1      44.837  27.721  28.152  1.00  0.00    -0.248 NA
ATOM     55  C   UNL A   1      43.953  25.971  29.425  1.00  0.00     0.031 C 
ATOM     56  C   UNL A   1      43.964  31.287  31.409  1.00  0.00     0.029 A 
ATOM     57  C   UNL A   1      44.405  30.015  31.047  1.00  0.00     0.049 A 
ATOM     58  H   UNL A   1      44.794  28.504  32.469  1.00  0.00     0.167 HD
ATOM     59  C   UNL A   1      44.795  28.138  29.474  1.00  0.00     0.074 A 
ATOM     60  C   UNL A   1      44.301  26.984  30.225  1.00  0.00     0.031 C 
ATOM     61  C   UNL A   1      44.872  29.461  29.800  1.00  0.00     0.037 A 
BRANCH  48  62
ATOM     62  C   UNL A   1      42.459  27.772  34.305  1.00  0.00     0.064 A 
ATOM     63  C   UNL A   1      43.024  26.584  33.799  1.00  0.00     0.173 A 
ATOM     64  C   UNL A   1      41.942  27.687  35.616  1.00  0.00     0.173 A 
ATOM     65  F   UNL A   1      43.537  26.542  32.560  1.00  0.00    -0.203 F 
ATOM     66  C   UNL A   1      42.982  25.383  34.513  1.00  0.00     0.198 A 
ATOM     67  C   UNL A   1      41.952  26.500  36.346  1.00  0.00     0.198 A 
ATOM     68  F   UNL A   1      41.306  28.704  36.205  1.00  0.00    -0.203 F 
ATOM     69  F   UNL A   1      43.404  24.251  33.933  1.00  0.00    -0.200 F 
ATOM     70  C   UNL A   1      42.437  25.340  35.782  1.00  0.00     0.200 A 
ATOM     71  F   UNL A   1      41.403  26.477  37.569  1.00  0.00    -0.200 F 
ATOM     72  F   UNL A   1      42.333  24.179  36.441  1.00  0.00    -0.200 F 
ENDBRANCH  48  62
BRANCH  49  73
ATOM     73  C   UNL A   1      43.272  24.990  26.302  1.00  0.00     0.064 A 
ATOM     74  C   UNL A   1      44.254  24.806  25.312  1.00  0.00     0.173 A 
ATOM     75  C   UNL A   1      42.603  23.830  26.738  1.00  0.00     0.173 A 
ATOM     76  F   UNL A   1      44.963  25.852  24.862  1.00  0.00    -0.203 F 
ATOM     77  C   UNL A   1      44.580  23.535  24.826  1.00  0.00     0.198 A 
ATOM     78  C   UNL A   1      42.925  22.563  26.246  1.00  0.00     0.198 A 
ATOM     79  F   UNL A   1      41.694  23.887  27.721  1.00  0.00    -0.203 F 
ATOM     80  F   UNL A   1      45.575  23.396  23.938  1.00  0.00    -0.200 F 
ATOM     81  C   UNL A   1      43.926  22.414  25.304  1.00  0.00     0.200 A 
ATOM     82  F   UNL A   1      42.306  21.482  26.742  1.00  0.00    -0.200 F 
ATOM     83  F   UNL A   1      44.287  21.191  24.892  1.00  0.00    -0.200 F 
ENDBRANCH  49  73
BRANCH  61  84
ATOM     84  C   UNL A   1      45.252  30.439  28.721  1.00  0.00     0.064 A 
ATOM     85  C   UNL A   1      44.341  31.028  27.825  1.00  0.00     0.173 A 
ATOM     86  C   UNL A   1      46.570  30.913  28.697  1.00  0.00     0.173 A 
ATOM     87  F   UNL A   1      43.042  30.710  27.850  1.00  0.00    -0.203 F 
ATOM     88  C   UNL A   1      44.746  32.011  26.923  1.00  0.00     0.198 A 
ATOM     89  C   UNL A   1      46.963  31.921  27.822  1.00  0.00     0.198 A 
ATOM     90  F   UNL A   1      47.473  30.428  29.565  1.00  0.00    -0.203 F 
ATOM     91  F   UNL A   1      43.859  32.548  26.071  1.00  0.00    -0.200 F 
ATOM     92  C   UNL A   1      46.055  32.462  26.927  1.00  0.00     0.200 A 
ATOM     93  F   UNL A   1      48.218  32.388  27.866  1.00  0.00    -0.200 F 
ATOM     94  F   UNL A   1      46.435  33.436  26.089  1.00  0.00    -0.200 F 
ENDBRANCH  61  84
ENDBRANCH  35  36
ENDBRANCH  27  30
ENDBRANCH  25  26
ENDBRANCH   1  25
TORSDOF 12
ENDMDL
MODEL 3
REMARK VINA RESULT:     -12.9      3.646      8.892
REMARK SMILES Cc1nsc(NC(=O)[C@@H]2C[NH2+]C[C@H]2C)c1C(=O)NCCCNC(=O)c1ccc(-c2c3nc(c(-c4c(F)c(F)c(F)c(F)c4F)c4ccc([nH]4)c(-c4c(F)c(F)c(F)c(F)c4F)c4nc(c(-c5c(F)c(F)c(F)c(F)c5F)c5ccc2[nH]5)C=C4)C=C3)cc1
REMARK SMILES IDX 20 1 19 2 18 3 16 4 17 5 15 7 1 8 2 9 3 10 4 11 5 12 6 13
REMARK SMILES IDX 7 14 8 16 9 17 10 18 13 19 11 20 12 21 14 22 21 25 22 26
REMARK SMILES IDX 23 27 24 29 25 30 26 31 87 32 27 33 86 34 28 35 29 36 30 37
REMARK SMILES IDX 80 38 31 39 85 40 79 41 81 42 32 43 84 44 78 45 77 46 33 48
REMARK SMILES IDX 65 49 45 50 64 51 46 52 49 53 63 54 82 55 47 56 48 57 62 59
REMARK SMILES IDX 83 60 50 61 34 62 35 63 43 64 36 65 37 66 41 67 44 68 38 69
REMARK SMILES IDX 39 70 42 71 40 72 66 73 67 74 75 75 68 76 69 77 73 78 76 79
REMARK SMILES IDX 70 80 71 81 74 82 72 83 51 84 52 85 60 86 53 87 54 88 58 89
REMARK SMILES IDX 61 90 55 91 56 92 59 93 57 94
REMARK H PARENT 18 6 6 15 11 23 11 24 22 28 81 47 49 58
REMARK Flexibility Score: inf
ROOT
ATOM      1  C   UNL A   1      34.933  29.941  27.569  1.00  0.00     0.042 C 
ENDROOT
BRANCH   1   2
ATOM      2  C   UNL A   1      33.615  29.891  26.793  1.00  0.00     0.118 C 
BRANCH   2   3
ATOM      3  N   UNL A   1      32.557  29.249  27.532  1.00  0.00    -0.352 N 
ATOM      4  C   UNL A   1      31.656  28.260  27.247  1.00  0.00     0.256 C 
ATOM      5  O   UNL A   1      31.027  27.878  28.243  1.00  0.00    -0.269 OA
ATOM      6  H   UNL A   1      32.461  29.601  28.446  1.00  0.00     0.163 HD
BRANCH   4   7
ATOM      7  C   UNL A   1      31.347  27.687  25.923  1.00  0.00     0.097 A 
ATOM      8  C   UNL A   1      31.277  29.554  23.944  1.00  0.00     0.069 C 
ATOM      9  C   UNL A   1      31.126  28.217  24.568  1.00  0.00     0.066 A 
ATOM     10  N   UNL A   1      30.619  27.351  23.688  1.00  0.00    -0.195 NA
ATOM     11  S   UNL A   1      30.327  25.941  24.426  1.00  0.00    -0.017 S 
ATOM     12  C   UNL A   1      31.187  26.288  25.836  1.00  0.00     0.129 A 
BRANCH  12  13
ATOM     13  N   UNL A   1      31.349  25.311  26.804  1.00  0.00    -0.315 N 
ATOM     14  C   UNL A   1      31.681  23.982  26.727  1.00  0.00     0.234 C 
ATOM     15  H   UNL A   1      31.198  25.632  27.722  1.00  0.00     0.170 HD
ATOM     16  O   UNL A   1      31.239  23.257  27.628  1.00  0.00    -0.274 OA
BRANCH  14  17
ATOM     17  C   UNL A   1      32.787  23.457  25.777  1.00  0.00     0.142 C 
ATOM     18  C   UNL A   1      32.753  21.979  25.405  1.00  0.00     0.274 C 
ATOM     19  C   UNL A   1      34.219  23.615  26.377  1.00  0.00     0.059 C 
ATOM     20  N   UNL A   1      34.130  21.477  25.416  1.00  0.00    -0.345 N 
ATOM     21  C   UNL A   1      34.703  22.178  26.565  1.00  0.00     0.264 C 
ATOM     22  C   UNL A   1      35.150  24.378  25.430  1.00  0.00     0.015 C 
ATOM     23  H   UNL A   1      34.618  21.718  24.554  1.00  0.00     0.346 HD
ATOM     24  H   UNL A   1      34.195  20.462  25.482  1.00  0.00     0.346 HD
ENDBRANCH  14  17
ENDBRANCH  12  13
ENDBRANCH   4   7
ENDBRANCH   2   3
ENDBRANCH   1   2
BRANCH   1  25
ATOM     25  C   UNL A   1      35.541  31.324  27.631  1.00  0.00     0.118 C 
BRANCH  25  26
ATOM     26  N   UNL A   1      35.072  32.066  28.804  1.00  0.00    -0.352 N 
ATOM     27  C   UNL A   1      35.410  31.885  30.132  1.00  0.00     0.251 C 
ATOM     28  H   UNL A   1      34.432  32.791  28.621  1.00  0.00     0.163 HD
ATOM     29  O   UNL A   1      34.706  32.318  31.024  1.00  0.00    -0.269 OA
BRANCH  27  30
ATOM     30  C   UNL A   1      36.641  31.139  30.435  1.00  0.00     0.039 A 
ATOM     31  C   UNL A   1      36.605  29.779  30.744  1.00  0.00     0.014 A 
ATOM     32  C   UNL A   1      37.848  31.819  30.317  1.00  0.00     0.014 A 
ATOM     33  C   UNL A   1      37.810  29.092  30.840  1.00  0.00     0.010 A 
ATOM     34  C   UNL A   1      39.008  31.104  30.199  1.00  0.00     0.010 A 
ATOM     35  C   UNL A   1      39.008  29.757  30.530  1.00  0.00    -0.014 A 
BRANCH  35  36
ATOM     36  C   UNL A   1      40.268  29.031  30.438  1.00  0.00     0.031 A 
ATOM     37  C   UNL A   1      40.951  28.828  31.743  1.00  0.00     0.074 A 
ATOM     38  C   UNL A   1      40.681  28.416  29.309  1.00  0.00     0.049 A 
ATOM     39  N   UNL A   1      42.070  29.346  32.126  1.00  0.00    -0.248 NA
ATOM     40  C   UNL A   1      40.246  28.084  32.801  1.00  0.00     0.031 C 
ATOM     41  C   UNL A   1      39.976  28.259  28.031  1.00  0.00     0.029 A 
ATOM     42  N   UNL A   1      41.817  27.700  29.102  1.00  0.00    -0.354 N 
ATOM     43  C   UNL A   1      42.316  28.837  33.397  1.00  0.00     0.074 A 
ATOM     44  C   UNL A   1      41.087  28.224  33.828  1.00  0.00     0.031 C 
ATOM     45  C   UNL A   1      40.581  27.305  27.290  1.00  0.00     0.029 A 
ATOM     46  C   UNL A   1      41.811  26.916  27.953  1.00  0.00     0.049 A 
ATOM     47  H   UNL A   1      42.585  27.733  29.716  1.00  0.00     0.167 HD
ATOM     48  C   UNL A   1      43.590  28.747  33.871  1.00  0.00     0.037 A 
ATOM     49  C   UNL A   1      42.743  25.997  27.600  1.00  0.00     0.037 A 
ATOM     50  C   UNL A   1      44.481  29.595  33.114  1.00  0.00     0.049 A 
ATOM     51  C   UNL A   1      43.973  26.314  28.372  1.00  0.00     0.074 A 
ATOM     52  C   UNL A   1      44.513  30.947  32.829  1.00  0.00     0.029 A 
ATOM     53  N   UNL A   1      45.299  29.006  32.180  1.00  0.00    -0.354 N 
ATOM     54  N   UNL A   1      44.695  27.382  28.173  1.00  0.00    -0.248 NA
ATOM     55  C   UNL A   1      44.119  25.691  29.681  1.00  0.00     0.031 C 
ATOM     56  C   UNL A   1      44.901  31.023  31.458  1.00  0.00     0.029 A 
ATOM     57  C   UNL A   1      45.171  29.727  31.020  1.00  0.00     0.049 A 
ATOM     58  H   UNL A   1      45.870  28.216  32.318  1.00  0.00     0.167 HD
ATOM     59  C   UNL A   1      45.034  27.816  29.446  1.00  0.00     0.074 A 
ATOM     60  C   UNL A   1      44.717  26.695  30.331  1.00  0.00     0.031 C 
ATOM     61  C   UNL A   1      45.255  29.137  29.706  1.00  0.00     0.037 A 
BRANCH  48  62
ATOM     62  C   UNL A   1      44.098  27.618  34.738  1.00  0.00     0.064 A 
ATOM     63  C   UNL A   1      43.931  26.291  34.292  1.00  0.00     0.173 A 
ATOM     64  C   UNL A   1      44.448  27.760  36.099  1.00  0.00     0.173 A 
ATOM     65  F   UNL A   1      43.587  26.034  33.022  1.00  0.00    -0.203 F 
ATOM     66  C   UNL A   1      44.008  25.203  35.166  1.00  0.00     0.198 A 
ATOM     67  C   UNL A   1      44.579  26.667  36.954  1.00  0.00     0.198 A 
ATOM     68  F   UNL A   1      44.566  28.954  36.689  1.00  0.00    -0.203 F 
ATOM     69  F   UNL A   1      43.702  23.975  34.725  1.00  0.00    -0.200 F 
ATOM     70  C   UNL A   1      44.323  25.393  36.498  1.00  0.00     0.200 A 
ATOM     71  F   UNL A   1      44.868  26.876  38.247  1.00  0.00    -0.200 F 
ATOM     72  F   UNL A   1      44.331  24.361  37.351  1.00  0.00    -0.200 F 
ENDBRANCH  48  62
BRANCH  49  73
ATOM     73  C   UNL A   1      42.568  24.708  26.887  1.00  0.00     0.064 A 
ATOM     74  C   UNL A   1      43.156  24.501  25.627  1.00  0.00     0.173 A 
ATOM     75  C   UNL A   1      42.081  23.560  27.543  1.00  0.00     0.173 A 
ATOM     76  F   UNL A   1      43.675  25.534  24.947  1.00  0.00    -0.203 F 
ATOM     77  C   UNL A   1      43.294  23.220  25.080  1.00  0.00     0.198 A 
ATOM     78  C   UNL A   1      42.213  22.283  26.992  1.00  0.00     0.198 A 
ATOM     79  F   UNL A   1      41.559  23.639  28.775  1.00  0.00    -0.203 F 
ATOM     80  F   UNL A   1      43.929  23.059  23.910  1.00  0.00    -0.200 F 
ATOM     81  C   UNL A   1      42.836  22.112  25.770  1.00  0.00     0.200 A 
ATOM     82  F   UNL A   1      41.795  21.215  27.686  1.00  0.00    -0.200 F 
ATOM     83  F   UNL A   1      43.031  20.880  25.281  1.00  0.00    -0.200 F 
ENDBRANCH  49  73
BRANCH  61  84
ATOM     84  C   UNL A   1      45.366  30.084  28.542  1.00  0.00     0.064 A 
ATOM     85  C   UNL A   1      44.272  30.718  27.925  1.00  0.00     0.173 A 
ATOM     86  C   UNL A   1      46.647  30.480  28.137  1.00  0.00     0.173 A 
ATOM     87  F   UNL A   1      43.018  30.474  28.321  1.00  0.00    -0.203 F 
ATOM     88  C   UNL A   1      44.458  31.668  26.921  1.00  0.00     0.198 A 
ATOM     89  C   UNL A   1      46.830  31.458  27.162  1.00  0.00     0.198 A 
ATOM     90  F   UNL A   1      47.732  29.951  28.726  1.00  0.00    -0.203 F 
ATOM     91  F   UNL A   1      43.396  32.249  26.341  1.00  0.00    -0.200 F 
ATOM     92  C   UNL A   1      45.736  32.043  26.546  1.00  0.00     0.200 A 
ATOM     93  F   UNL A   1      48.069  31.852  26.841  1.00  0.00    -0.200 F 
ATOM     94  F   UNL A   1      45.916  32.987  25.613  1.00  0.00    -0.200 F 
ENDBRANCH  61  84
ENDBRANCH  35  36
ENDBRANCH  27  30
ENDBRANCH  25  26
ENDBRANCH   1  25
TORSDOF 12
ENDMDL
