MODEL 1
REMARK VINA RESULT:     -11.8      0.000      0.000
REMARK SMILES O=C(CC1(NC(=O)c2ccncc2Cl)CCCCC1)NCCCNC(=O)c1ccc(-c2c3nc(c(-c4c(F)c(F)c(F)c(F)c4F)c4ccc([nH]4)c(-c4c(F)c(F)c(F)c(F)c4F)c4nc(c(-c5c(F)c(F)c(F)c(F)c5F)c5ccc2[nH]5)C=C4)C=C3)cc1
REMARK SMILES IDX 21 1 20 2 1 3 2 4 3 6 4 7 15 8 19 9 16 10 18 11 17 12 5 13
REMARK SMILES IDX 6 14 7 16 8 17 9 18 13 19 10 20 12 21 14 22 11 23 22 24
REMARK SMILES IDX 23 25 24 26 25 27 26 29 27 30 28 31 89 32 29 33 88 34 30 35
REMARK SMILES IDX 31 36 32 37 82 38 33 39 87 40 81 41 83 42 34 43 86 44 80 45
REMARK SMILES IDX 79 46 35 48 67 49 47 50 66 51 48 52 51 53 65 54 84 55 49 56
REMARK SMILES IDX 50 57 64 59 85 60 52 61 36 62 37 63 45 64 38 65 39 66 43 67
REMARK SMILES IDX 46 68 40 69 41 70 44 71 42 72 68 73 69 74 77 75 70 76 71 77
REMARK SMILES IDX 75 78 78 79 72 80 73 81 76 82 74 83 53 84 54 85 62 86 55 87
REMARK SMILES IDX 56 88 60 89 63 90 57 91 58 92 61 93 59 94
REMARK H PARENT 20 5 5 15 24 28 83 47 51 58
REMARK Flexibility Score: inf
ROOT
ATOM      1  C   UNL A   1      31.832  26.708  25.861  1.00  0.00     0.117 C 
ENDROOT
BRANCH   1   2
ATOM      2  N   UNL A   1      32.548  25.527  26.343  1.00  0.00    -0.356 N 
ATOM      3  O   UNL A   1      34.289  25.541  24.863  1.00  0.00    -0.275 OA
ATOM      4  C   UNL A   1      33.709  25.002  25.804  1.00  0.00     0.222 C 
ATOM      5  H   UNL A   1      32.168  25.064  27.123  1.00  0.00     0.163 HD
BRANCH   4   6
ATOM      6  C   UNL A   1      34.166  23.598  26.297  1.00  0.00     0.128 C 
BRANCH   6   7
ATOM      7  C   UNL A   1      34.090  22.405  25.309  1.00  0.00     0.049 C 
ATOM      8  C   UNL A   1      34.652  21.069  25.866  1.00  0.00     0.029 C 
ATOM      9  C   UNL A   1      32.556  22.189  25.077  1.00  0.00     0.029 C 
ATOM     10  C   UNL A   1      34.342  19.895  24.914  1.00  0.00     0.002 C 
ATOM     11  C   UNL A   1      32.121  20.919  24.346  1.00  0.00     0.002 C 
ATOM     12  C   UNL A   1      32.841  19.666  24.823  1.00  0.00     0.000 C 
BRANCH   7  13
ATOM     13  N   UNL A   1      34.863  22.689  24.069  1.00  0.00    -0.346 N 
ATOM     14  C   UNL A   1      36.240  22.755  23.844  1.00  0.00     0.253 C 
ATOM     15  H   UNL A   1      34.309  22.861  23.273  1.00  0.00     0.164 HD
ATOM     16  O   UNL A   1      36.630  22.829  22.688  1.00  0.00    -0.269 OA
BRANCH  14  17
ATOM     17  C   UNL A   1      37.257  22.814  24.934  1.00  0.00     0.061 A 
ATOM     18  C   UNL A   1      37.599  24.031  25.538  1.00  0.00     0.035 A 
ATOM     19  C   UNL A   1      38.021  21.699  25.260  1.00  0.00     0.072 A 
ATOM     20  C   UNL A   1      38.568  24.079  26.525  1.00  0.00     0.112 A 
ATOM     21  C   UNL A   1      39.003  21.847  26.238  1.00  0.00     0.132 A 
ATOM     22  Cl  UNL A   1      37.813  20.161  24.520  1.00  0.00    -0.082 Cl
ATOM     23  N   UNL A   1      39.275  23.003  26.894  1.00  0.00    -0.263 NA
ENDBRANCH  14  17
ENDBRANCH   7  13
ENDBRANCH   6   7
ENDBRANCH   4   6
ENDBRANCH   1   2
BRANCH   1  24
ATOM     24  C   UNL A   1      32.158  28.048  26.567  1.00  0.00     0.042 C 
BRANCH  24  25
ATOM     25  C   UNL A   1      33.057  29.077  25.857  1.00  0.00     0.118 C 
BRANCH  25  26
ATOM     26  N   UNL A   1      32.751  30.456  26.182  1.00  0.00    -0.352 N 
ATOM     27  C   UNL A   1      33.378  31.337  27.029  1.00  0.00     0.251 C 
ATOM     28  H   UNL A   1      31.962  30.824  25.720  1.00  0.00     0.163 HD
ATOM     29  O   UNL A   1      32.865  32.438  27.233  1.00  0.00    -0.269 OA
BRANCH  27  30
ATOM     30  C   UNL A   1      34.646  31.006  27.729  1.00  0.00     0.039 A 
ATOM     31  C   UNL A   1      34.753  29.751  28.344  1.00  0.00     0.014 A 
ATOM     32  C   UNL A   1      35.669  31.942  27.902  1.00  0.00     0.014 A 
ATOM     33  C   UNL A   1      35.889  29.419  29.092  1.00  0.00     0.010 A 
ATOM     34  C   UNL A   1      36.822  31.598  28.632  1.00  0.00     0.010 A 
ATOM     35  C   UNL A   1      36.949  30.331  29.232  1.00  0.00    -0.014 A 
BRANCH  35  36
ATOM     36  C   UNL A   1      38.187  29.950  29.977  1.00  0.00     0.031 A 
ATOM     37  C   UNL A   1      38.469  30.484  31.358  1.00  0.00     0.074 A 
ATOM     38  C   UNL A   1      39.087  29.128  29.399  1.00  0.00     0.049 A 
ATOM     39  N   UNL A   1      39.510  30.282  32.131  1.00  0.00    -0.248 NA
ATOM     40  C   UNL A   1      37.453  31.370  31.942  1.00  0.00     0.031 C 
ATOM     41  C   UNL A   1      38.957  28.546  28.065  1.00  0.00     0.029 A 
ATOM     42  N   UNL A   1      40.293  28.647  29.855  1.00  0.00    -0.354 N 
ATOM     43  C   UNL A   1      39.279  31.021  33.287  1.00  0.00     0.074 A 
ATOM     44  C   UNL A   1      38.017  31.706  33.095  1.00  0.00     0.031 C 
ATOM     45  C   UNL A   1      40.031  27.780  27.812  1.00  0.00     0.029 A 
ATOM     46  C   UNL A   1      40.945  27.846  28.949  1.00  0.00     0.049 A 
ATOM     47  H   UNL A   1      40.655  28.857  30.746  1.00  0.00     0.167 HD
ATOM     48  C   UNL A   1      40.039  31.109  34.408  1.00  0.00     0.037 A 
ATOM     49  C   UNL A   1      42.148  27.240  29.015  1.00  0.00     0.037 A 
ATOM     50  C   UNL A   1      41.292  30.422  34.608  1.00  0.00     0.049 A 
ATOM     51  C   UNL A   1      42.989  27.385  30.254  1.00  0.00     0.074 A 
ATOM     52  C   UNL A   1      42.104  30.416  35.731  1.00  0.00     0.029 A 
ATOM     53  N   UNL A   1      41.921  29.627  33.661  1.00  0.00    -0.354 N 
ATOM     54  N   UNL A   1      42.730  28.037  31.361  1.00  0.00    -0.248 NA
ATOM     55  C   UNL A   1      44.292  26.703  30.255  1.00  0.00     0.031 C 
ATOM     56  C   UNL A   1      43.248  29.664  35.446  1.00  0.00     0.029 A 
ATOM     57  C   UNL A   1      43.124  29.151  34.166  1.00  0.00     0.049 A 
ATOM     58  H   UNL A   1      41.567  29.429  32.764  1.00  0.00     0.167 HD
ATOM     59  C   UNL A   1      43.817  27.820  32.198  1.00  0.00     0.074 A 
ATOM     60  C   UNL A   1      44.734  26.962  31.478  1.00  0.00     0.031 C 
ATOM     61  C   UNL A   1      44.033  28.292  33.451  1.00  0.00     0.037 A 
BRANCH  48  62
ATOM     62  C   UNL A   1      39.544  31.994  35.518  1.00  0.00     0.064 A 
ATOM     63  C   UNL A   1      38.641  31.528  36.486  1.00  0.00     0.173 A 
ATOM     64  C   UNL A   1      40.022  33.308  35.651  1.00  0.00     0.173 A 
ATOM     65  F   UNL A   1      38.152  30.281  36.407  1.00  0.00    -0.203 F 
ATOM     66  C   UNL A   1      38.208  32.353  37.522  1.00  0.00     0.198 A 
ATOM     67  C   UNL A   1      39.612  34.120  36.706  1.00  0.00     0.198 A 
ATOM     68  F   UNL A   1      40.900  33.801  34.764  1.00  0.00    -0.203 F 
ATOM     69  F   UNL A   1      37.309  31.901  38.406  1.00  0.00    -0.200 F 
ATOM     70  C   UNL A   1      38.700  33.645  37.634  1.00  0.00     0.200 A 
ATOM     71  F   UNL A   1      40.102  35.361  36.824  1.00  0.00    -0.200 F 
ATOM     72  F   UNL A   1      38.290  34.434  38.637  1.00  0.00    -0.200 F 
ENDBRANCH  48  62
BRANCH  49  73
ATOM     73  C   UNL A   1      42.634  26.429  27.866  1.00  0.00     0.064 A 
ATOM     74  C   UNL A   1      42.307  25.070  27.752  1.00  0.00     0.173 A 
ATOM     75  C   UNL A   1      43.448  26.989  26.870  1.00  0.00     0.173 A 
ATOM     76  F   UNL A   1      41.553  24.483  28.692  1.00  0.00    -0.203 F 
ATOM     77  C   UNL A   1      42.792  24.298  26.698  1.00  0.00     0.198 A 
ATOM     78  C   UNL A   1      43.906  26.223  25.799  1.00  0.00     0.198 A 
ATOM     79  F   UNL A   1      43.791  28.284  26.932  1.00  0.00    -0.203 F 
ATOM     80  F   UNL A   1      42.505  22.990  26.641  1.00  0.00    -0.200 F 
ATOM     81  C   UNL A   1      43.585  24.878  25.719  1.00  0.00     0.200 A 
ATOM     82  F   UNL A   1      44.661  26.790  24.848  1.00  0.00    -0.200 F 
ATOM     83  F   UNL A   1      44.049  24.135  24.703  1.00  0.00    -0.200 F 
ENDBRANCH  49  73
BRANCH  61  84
ATOM     84  C   UNL A   1      45.295  27.861  34.146  1.00  0.00     0.064 A 
ATOM     85  C   UNL A   1      46.475  28.616  34.071  1.00  0.00     0.173 A 
ATOM     86  C   UNL A   1      45.313  26.693  34.925  1.00  0.00     0.173 A 
ATOM     87  F   UNL A   1      46.518  29.731  33.326  1.00  0.00    -0.203 F 
ATOM     88  C   UNL A   1      47.633  28.204  34.727  1.00  0.00     0.198 A 
ATOM     89  C   UNL A   1      46.463  26.302  35.607  1.00  0.00     0.198 A 
ATOM     90  F   UNL A   1      44.211  25.936  35.036  1.00  0.00    -0.203 F 
ATOM     91  F   UNL A   1      48.762  28.914  34.599  1.00  0.00    -0.200 F 
ATOM     92  C   UNL A   1      47.623  27.053  35.501  1.00  0.00     0.200 A 
ATOM     93  F   UNL A   1      46.448  25.197  36.365  1.00  0.00    -0.200 F 
ATOM     94  F   UNL A   1      48.736  26.662  36.137  1.00  0.00    -0.200 F 
ENDBRANCH  61  84
ENDBRANCH  35  36
ENDBRANCH  27  30
ENDBRANCH  25  26
ENDBRANCH  24  25
ENDBRANCH   1  24
TORSDOF 13
ENDMDL
MODEL 2
REMARK VINA RESULT:     -11.7      0.484      7.306
REMARK SMILES O=C(CC1(NC(=O)c2ccncc2Cl)CCCCC1)NCCCNC(=O)c1ccc(-c2c3nc(c(-c4c(F)c(F)c(F)c(F)c4F)c4ccc([nH]4)c(-c4c(F)c(F)c(F)c(F)c4F)c4nc(c(-c5c(F)c(F)c(F)c(F)c5F)c5ccc2[nH]5)C=C4)C=C3)cc1
REMARK SMILES IDX 21 1 20 2 1 3 2 4 3 6 4 7 15 8 19 9 16 10 18 11 17 12 5 13
REMARK SMILES IDX 6 14 7 16 8 17 9 18 13 19 10 20 12 21 14 22 11 23 22 24
REMARK SMILES IDX 23 25 24 26 25 27 26 29 27 30 28 31 89 32 29 33 88 34 30 35
REMARK SMILES IDX 31 36 32 37 82 38 33 39 87 40 81 41 83 42 34 43 86 44 80 45
REMARK SMILES IDX 79 46 35 48 67 49 47 50 66 51 48 52 51 53 65 54 84 55 49 56
REMARK SMILES IDX 50 57 64 59 85 60 52 61 36 62 37 63 45 64 38 65 39 66 43 67
REMARK SMILES IDX 46 68 40 69 41 70 44 71 42 72 68 73 69 74 77 75 70 76 71 77
REMARK SMILES IDX 75 78 78 79 72 80 73 81 76 82 74 83 53 84 54 85 62 86 55 87
REMARK SMILES IDX 56 88 60 89 63 90 57 91 58 92 61 93 59 94
REMARK H PARENT 20 5 5 15 24 28 83 47 51 58
REMARK Flexibility Score: inf
ROOT
ATOM      1  C   UNL A   1      31.848  26.725  25.574  1.00  0.00     0.117 C 
ENDROOT
BRANCH   1   2
ATOM      2  N   UNL A   1      32.510  25.545  26.129  1.00  0.00    -0.356 N 
ATOM      3  O   UNL A   1      34.399  25.564  24.844  1.00  0.00    -0.275 OA
ATOM      4  C   UNL A   1      33.723  25.023  25.717  1.00  0.00     0.222 C 
ATOM      5  H   UNL A   1      32.049  25.079  26.863  1.00  0.00     0.163 HD
BRANCH   4   6
ATOM      6  C   UNL A   1      34.128  23.618  26.254  1.00  0.00     0.128 C 
BRANCH   6   7
ATOM      7  C   UNL A   1      34.079  22.411  25.283  1.00  0.00     0.049 C 
ATOM      8  C   UNL A   1      34.651  21.090  25.865  1.00  0.00     0.029 C 
ATOM      9  C   UNL A   1      32.550  22.172  25.035  1.00  0.00     0.029 C 
ATOM     10  C   UNL A   1      34.366  19.899  24.927  1.00  0.00     0.002 C 
ATOM     11  C   UNL A   1      32.140  20.886  24.318  1.00  0.00     0.002 C 
ATOM     12  C   UNL A   1      32.870  19.649  24.821  1.00  0.00     0.000 C 
BRANCH   7  13
ATOM     13  N   UNL A   1      34.863  22.687  24.048  1.00  0.00    -0.346 N 
ATOM     14  C   UNL A   1      36.241  22.752  23.835  1.00  0.00     0.253 C 
ATOM     15  H   UNL A   1      34.316  22.854  23.246  1.00  0.00     0.164 HD
ATOM     16  O   UNL A   1      36.642  22.818  22.682  1.00  0.00    -0.269 OA
BRANCH  14  17
ATOM     17  C   UNL A   1      37.249  22.817  24.934  1.00  0.00     0.061 A 
ATOM     18  C   UNL A   1      37.575  24.036  25.542  1.00  0.00     0.035 A 
ATOM     19  C   UNL A   1      38.019  21.708  25.265  1.00  0.00     0.072 A 
ATOM     20  C   UNL A   1      38.536  24.090  26.538  1.00  0.00     0.112 A 
ATOM     21  C   UNL A   1      38.991  21.863  26.250  1.00  0.00     0.132 A 
ATOM     22  Cl  UNL A   1      37.831  20.170  24.520  1.00  0.00    -0.082 Cl
ATOM     23  N   UNL A   1      39.248  23.020  26.911  1.00  0.00    -0.263 NA
ENDBRANCH  14  17
ENDBRANCH   7  13
ENDBRANCH   6   7
ENDBRANCH   4   6
ENDBRANCH   1   2
BRANCH   1  24
ATOM     24  C   UNL A   1      32.032  28.050  26.355  1.00  0.00     0.042 C 
BRANCH  24  25
ATOM     25  C   UNL A   1      32.979  29.129  25.797  1.00  0.00     0.118 C 
BRANCH  25  26
ATOM     26  N   UNL A   1      32.585  30.487  26.119  1.00  0.00    -0.352 N 
ATOM     27  C   UNL A   1      33.149  31.405  26.970  1.00  0.00     0.251 C 
ATOM     28  H   UNL A   1      31.779  30.804  25.649  1.00  0.00     0.163 HD
ATOM     29  O   UNL A   1      32.567  32.472  27.169  1.00  0.00    -0.269 OA
BRANCH  27  30
ATOM     30  C   UNL A   1      34.429  31.154  27.680  1.00  0.00     0.039 A 
ATOM     31  C   UNL A   1      34.615  29.903  28.283  1.00  0.00     0.014 A 
ATOM     32  C   UNL A   1      35.383  32.156  27.875  1.00  0.00     0.014 A 
ATOM     33  C   UNL A   1      35.764  29.642  29.041  1.00  0.00     0.010 A 
ATOM     34  C   UNL A   1      36.549  31.884  28.614  1.00  0.00     0.010 A 
ATOM     35  C   UNL A   1      36.757  30.622  29.202  1.00  0.00    -0.014 A 
BRANCH  35  36
ATOM     36  C   UNL A   1      38.010  30.319  29.957  1.00  0.00     0.031 A 
ATOM     37  C   UNL A   1      39.098  29.462  29.361  1.00  0.00     0.074 A 
ATOM     38  C   UNL A   1      38.170  30.800  31.207  1.00  0.00     0.049 A 
ATOM     39  N   UNL A   1      40.234  29.072  29.891  1.00  0.00    -0.248 NA
ATOM     40  C   UNL A   1      38.876  28.969  27.996  1.00  0.00     0.031 C 
ATOM     41  C   UNL A   1      37.198  31.629  31.918  1.00  0.00     0.029 A 
ATOM     42  N   UNL A   1      39.203  30.654  32.105  1.00  0.00    -0.354 N 
ATOM     43  C   UNL A   1      40.856  28.284  28.930  1.00  0.00     0.074 A 
ATOM     44  C   UNL A   1      39.951  28.219  27.799  1.00  0.00     0.031 C 
ATOM     45  C   UNL A   1      37.681  31.927  33.135  1.00  0.00     0.029 A 
ATOM     46  C   UNL A   1      38.979  31.280  33.308  1.00  0.00     0.049 A 
ATOM     47  H   UNL A   1      40.023  30.149  31.906  1.00  0.00     0.167 HD
ATOM     48  C   UNL A   1      42.072  27.682  28.977  1.00  0.00     0.037 A 
ATOM     49  C   UNL A   1      39.725  31.322  34.431  1.00  0.00     0.037 A 
ATOM     50  C   UNL A   1      42.980  27.750  30.096  1.00  0.00     0.049 A 
ATOM     51  C   UNL A   1      41.052  30.613  34.471  1.00  0.00     0.074 A 
ATOM     52  C   UNL A   1      44.251  27.212  30.211  1.00  0.00     0.029 A 
ATOM     53  N   UNL A   1      42.711  28.388  31.298  1.00  0.00    -0.354 N 
ATOM     54  N   UNL A   1      41.653  29.924  33.533  1.00  0.00    -0.248 NA
ATOM     55  C   UNL A   1      41.810  30.696  35.730  1.00  0.00     0.031 C 
ATOM     56  C   UNL A   1      44.729  27.475  31.499  1.00  0.00     0.029 A 
ATOM     57  C   UNL A   1      43.781  28.230  32.168  1.00  0.00     0.049 A 
ATOM     58  H   UNL A   1      41.884  28.880  31.504  1.00  0.00     0.167 HD
ATOM     59  C   UNL A   1      42.866  29.516  34.074  1.00  0.00     0.074 A 
ATOM     60  C   UNL A   1      42.925  30.051  35.418  1.00  0.00     0.031 C 
ATOM     61  C   UNL A   1      43.841  28.767  33.504  1.00  0.00     0.037 A 
BRANCH  48  62
ATOM     62  C   UNL A   1      42.499  26.878  27.781  1.00  0.00     0.064 A 
ATOM     63  C   UNL A   1      43.247  27.448  26.738  1.00  0.00     0.173 A 
ATOM     64  C   UNL A   1      42.207  25.506  27.700  1.00  0.00     0.173 A 
ATOM     65  F   UNL A   1      43.554  28.753  26.763  1.00  0.00    -0.203 F 
ATOM     66  C   UNL A   1      43.655  26.685  25.646  1.00  0.00     0.198 A 
ATOM     67  C   UNL A   1      42.644  24.740  26.623  1.00  0.00     0.198 A 
ATOM     68  F   UNL A   1      41.510  24.905  28.676  1.00  0.00    -0.203 F 
ATOM     69  F   UNL A   1      44.327  27.261  24.641  1.00  0.00    -0.200 F 
ATOM     70  C   UNL A   1      43.359  25.330  25.593  1.00  0.00     0.200 A 
ATOM     71  F   UNL A   1      42.375  23.428  26.582  1.00  0.00    -0.200 F 
ATOM     72  F   UNL A   1      43.761  24.596  24.547  1.00  0.00    -0.200 F 
ENDBRANCH  48  62
BRANCH  49  73
ATOM     73  C   UNL A   1      39.234  32.071  35.619  1.00  0.00     0.064 A 
ATOM     74  C   UNL A   1      38.402  31.457  36.567  1.00  0.00     0.173 A 
ATOM     75  C   UNL A   1      39.569  33.418  35.822  1.00  0.00     0.173 A 
ATOM     76  F   UNL A   1      38.032  30.179  36.403  1.00  0.00    -0.203 F 
ATOM     77  C   UNL A   1      37.909  32.167  37.660  1.00  0.00     0.198 A 
ATOM     78  C   UNL A   1      39.101  34.118  36.933  1.00  0.00     0.198 A 
ATOM     79  F   UNL A   1      40.361  34.053  34.946  1.00  0.00    -0.203 F 
ATOM     80  F   UNL A   1      37.075  31.569  38.522  1.00  0.00    -0.200 F 
ATOM     81  C   UNL A   1      38.265  33.494  37.845  1.00  0.00     0.200 A 
ATOM     82  F   UNL A   1      39.458  35.396  37.116  1.00  0.00    -0.200 F 
ATOM     83  F   UNL A   1      37.793  34.175  38.899  1.00  0.00    -0.200 F 
ENDBRANCH  49  73
BRANCH  61  84
ATOM     84  C   UNL A   1      45.080  28.508  34.317  1.00  0.00     0.064 A 
ATOM     85  C   UNL A   1      46.174  29.385  34.298  1.00  0.00     0.173 A 
ATOM     86  C   UNL A   1      45.159  27.381  35.151  1.00  0.00     0.173 A 
ATOM     87  F   UNL A   1      46.158  30.468  33.505  1.00  0.00    -0.203 F 
ATOM     88  C   UNL A   1      47.311  29.132  35.062  1.00  0.00     0.198 A 
ATOM     89  C   UNL A   1      46.284  27.148  35.939  1.00  0.00     0.198 A 
ATOM     90  F   UNL A   1      44.140  26.512  35.212  1.00  0.00    -0.203 F 
ATOM     91  F   UNL A   1      48.364  29.957  34.988  1.00  0.00    -0.200 F 
ATOM     92  C   UNL A   1      47.361  28.018  35.888  1.00  0.00     0.200 A 
ATOM     93  F   UNL A   1      46.324  26.079  36.746  1.00  0.00    -0.200 F 
ATOM     94  F   UNL A   1      48.453  27.779  36.628  1.00  0.00    -0.200 F 
ENDBRANCH  61  84
ENDBRANCH  35  36
ENDBRANCH  27  30
ENDBRANCH  25  26
ENDBRANCH  24  25
ENDBRANCH   1  24
TORSDOF 13
ENDMDL
MODEL 3
REMARK VINA RESULT:     -11.7      1.528      2.478
REMARK SMILES O=C(CC1(NC(=O)c2ccncc2Cl)CCCCC1)NCCCNC(=O)c1ccc(-c2c3nc(c(-c4c(F)c(F)c(F)c(F)c4F)c4ccc([nH]4)c(-c4c(F)c(F)c(F)c(F)c4F)c4nc(c(-c5c(F)c(F)c(F)c(F)c5F)c5ccc2[nH]5)C=C4)C=C3)cc1
REMARK SMILES IDX 21 1 20 2 1 3 2 4 3 6 4 7 15 8 19 9 16 10 18 11 17 12 5 13
REMARK SMILES IDX 6 14 7 16 8 17 9 18 13 19 10 20 12 21 14 22 11 23 22 24
REMARK SMILES IDX 23 25 24 26 25 27 26 29 27 30 28 31 89 32 29 33 88 34 30 35
REMARK SMILES IDX 31 36 32 37 82 38 33 39 87 40 81 41 83 42 34 43 86 44 80 45
REMARK SMILES IDX 79 46 35 48 67 49 47 50 66 51 48 52 51 53 65 54 84 55 49 56
REMARK SMILES IDX 50 57 64 59 85 60 52 61 36 62 37 63 45 64 38 65 39 66 43 67
REMARK SMILES IDX 46 68 40 69 41 70 44 71 42 72 68 73 69 74 77 75 70 76 71 77
REMARK SMILES IDX 75 78 78 79 72 80 73 81 76 82 74 83 53 84 54 85 62 86 55 87
REMARK SMILES IDX 56 88 60 89 63 90 57 91 58 92 61 93 59 94
REMARK H PARENT 20 5 5 15 24 28 83 47 51 58
REMARK Flexibility Score: inf
ROOT
ATOM      1  C   UNL A   1      31.917  26.492  25.870  1.00  0.00     0.117 C 
ENDROOT
BRANCH   1   2
ATOM      2  N   UNL A   1      32.592  25.275  26.319  1.00  0.00    -0.356 N 
ATOM      3  O   UNL A   1      34.352  25.290  24.863  1.00  0.00    -0.275 OA
ATOM      4  C   UNL A   1      33.745  24.735  25.777  1.00  0.00     0.222 C 
ATOM      5  H   UNL A   1      32.188  24.795  27.077  1.00  0.00     0.163 HD
BRANCH   4   6
ATOM      6  C   UNL A   1      34.155  23.301  26.225  1.00  0.00     0.128 C 
BRANCH   6   7
ATOM      7  C   UNL A   1      34.093  22.154  25.184  1.00  0.00     0.049 C 
ATOM      8  C   UNL A   1      34.657  20.797  25.686  1.00  0.00     0.029 C 
ATOM      9  C   UNL A   1      32.563  21.942  24.928  1.00  0.00     0.029 C 
ATOM     10  C   UNL A   1      34.361  19.665  24.681  1.00  0.00     0.002 C 
ATOM     11  C   UNL A   1      32.140  20.704  24.137  1.00  0.00     0.002 C 
ATOM     12  C   UNL A   1      32.862  19.434  24.565  1.00  0.00     0.000 C 
BRANCH   7  13
ATOM     13  N   UNL A   1      34.877  22.496  23.966  1.00  0.00    -0.346 N 
ATOM     14  C   UNL A   1      36.253  22.634  23.772  1.00  0.00     0.253 C 
ATOM     15  H   UNL A   1      34.332  22.652  23.161  1.00  0.00     0.164 HD
ATOM     16  O   UNL A   1      36.663  22.746  22.626  1.00  0.00    -0.269 OA
BRANCH  14  17
ATOM     17  C   UNL A   1      37.243  22.726  24.884  1.00  0.00     0.061 A 
ATOM     18  C   UNL A   1      37.539  23.955  25.489  1.00  0.00     0.035 A 
ATOM     19  C   UNL A   1      38.028  21.633  25.235  1.00  0.00     0.072 A 
ATOM     20  C   UNL A   1      38.483  24.034  26.497  1.00  0.00     0.112 A 
ATOM     21  C   UNL A   1      38.983  21.814  26.233  1.00  0.00     0.132 A 
ATOM     22  Cl  UNL A   1      37.879  20.087  24.499  1.00  0.00    -0.082 Cl
ATOM     23  N   UNL A   1      39.209  22.980  26.889  1.00  0.00    -0.263 NA
ENDBRANCH  14  17
ENDBRANCH   7  13
ENDBRANCH   6   7
ENDBRANCH   4   6
ENDBRANCH   1   2
BRANCH   1  24
ATOM     24  C   UNL A   1      32.089  27.745  26.763  1.00  0.00     0.042 C 
BRANCH  24  25
ATOM     25  C   UNL A   1      33.487  28.370  26.926  1.00  0.00     0.118 C 
BRANCH  25  26
ATOM     26  N   UNL A   1      33.484  29.818  27.009  1.00  0.00    -0.352 N 
ATOM     27  C   UNL A   1      34.401  30.686  27.550  1.00  0.00     0.251 C 
ATOM     28  H   UNL A   1      32.693  30.252  26.612  1.00  0.00     0.163 HD
ATOM     29  O   UNL A   1      34.127  31.885  27.605  1.00  0.00    -0.269 OA
BRANCH  27  30
ATOM     30  C   UNL A   1      35.707  30.232  28.091  1.00  0.00     0.039 A 
ATOM     31  C   UNL A   1      35.746  29.759  29.410  1.00  0.00     0.014 A 
ATOM     32  C   UNL A   1      36.902  30.381  27.382  1.00  0.00     0.014 A 
ATOM     33  C   UNL A   1      36.964  29.401  30.002  1.00  0.00     0.010 A 
ATOM     34  C   UNL A   1      38.122  29.997  27.969  1.00  0.00     0.010 A 
ATOM     35  C   UNL A   1      38.168  29.498  29.284  1.00  0.00    -0.014 A 
BRANCH  35  36
ATOM     36  C   UNL A   1      39.457  29.055  29.897  1.00  0.00     0.031 A 
ATOM     37  C   UNL A   1      40.045  29.766  31.089  1.00  0.00     0.074 A 
ATOM     38  C   UNL A   1      40.125  28.011  29.365  1.00  0.00     0.049 A 
ATOM     39  N   UNL A   1      41.170  29.534  31.724  1.00  0.00    -0.248 NA
ATOM     40  C   UNL A   1      39.275  30.892  31.632  1.00  0.00     0.031 C 
ATOM     41  C   UNL A   1      39.686  27.237  28.205  1.00  0.00     0.029 A 
ATOM     42  N   UNL A   1      41.318  27.426  29.723  1.00  0.00    -0.354 N 
ATOM     43  C   UNL A   1      41.246  30.487  32.733  1.00  0.00     0.074 A 
ATOM     44  C   UNL A   1      40.071  31.325  32.599  1.00  0.00     0.031 C 
ATOM     45  C   UNL A   1      40.589  26.275  27.951  1.00  0.00     0.029 A 
ATOM     46  C   UNL A   1      41.689  26.386  28.905  1.00  0.00     0.049 A 
ATOM     47  H   UNL A   1      41.856  27.725  30.491  1.00  0.00     0.167 HD
ATOM     48  C   UNL A   1      42.197  30.643  33.689  1.00  0.00     0.037 A 
ATOM     49  C   UNL A   1      42.795  25.613  28.909  1.00  0.00     0.037 A 
ATOM     50  C   UNL A   1      43.364  29.807  33.832  1.00  0.00     0.049 A 
ATOM     51  C   UNL A   1      43.852  25.831  29.957  1.00  0.00     0.074 A 
ATOM     52  C   UNL A   1      44.352  29.862  34.801  1.00  0.00     0.029 A 
ATOM     53  N   UNL A   1      43.706  28.769  32.977  1.00  0.00    -0.354 N 
ATOM     54  N   UNL A   1      43.880  26.697  30.941  1.00  0.00    -0.248 NA
ATOM     55  C   UNL A   1      45.034  24.956  29.899  1.00  0.00     0.031 C 
ATOM     56  C   UNL A   1      45.320  28.897  34.502  1.00  0.00     0.029 A 
ATOM     57  C   UNL A   1      44.905  28.198  33.381  1.00  0.00     0.049 A 
ATOM     58  H   UNL A   1      43.177  28.480  32.199  1.00  0.00     0.167 HD
ATOM     59  C   UNL A   1      45.060  26.454  31.632  1.00  0.00     0.074 A 
ATOM     60  C   UNL A   1      45.714  25.347  30.967  1.00  0.00     0.031 C 
ATOM     61  C   UNL A   1      45.553  27.092  32.722  1.00  0.00     0.037 A 
BRANCH  48  62
ATOM     62  C   UNL A   1      42.027  31.774  34.665  1.00  0.00     0.064 A 
ATOM     63  C   UNL A   1      42.585  33.041  34.430  1.00  0.00     0.173 A 
ATOM     64  C   UNL A   1      41.249  31.608  35.822  1.00  0.00     0.173 A 
ATOM     65  F   UNL A   1      43.337  33.255  33.340  1.00  0.00    -0.203 F 
ATOM     66  C   UNL A   1      42.400  34.086  35.333  1.00  0.00     0.198 A 
ATOM     67  C   UNL A   1      41.040  32.664  36.706  1.00  0.00     0.198 A 
ATOM     68  F   UNL A   1      40.677  30.424  36.089  1.00  0.00    -0.203 F 
ATOM     69  F   UNL A   1      42.981  35.272  35.110  1.00  0.00    -0.200 F 
ATOM     70  C   UNL A   1      41.622  33.898  36.466  1.00  0.00     0.200 A 
ATOM     71  F   UNL A   1      40.272  32.487  37.790  1.00  0.00    -0.200 F 
ATOM     72  F   UNL A   1      41.437  34.908  37.328  1.00  0.00    -0.200 F 
ENDBRANCH  48  62
BRANCH  49  73
ATOM     73  C   UNL A   1      42.959  24.549  27.883  1.00  0.00     0.064 A 
ATOM     74  C   UNL A   1      43.525  24.833  26.632  1.00  0.00     0.173 A 
ATOM     75  C   UNL A   1      42.536  23.233  28.122  1.00  0.00     0.173 A 
ATOM     76  F   UNL A   1      43.920  26.082  26.345  1.00  0.00    -0.203 F 
ATOM     77  C   UNL A   1      43.645  23.847  25.654  1.00  0.00     0.198 A 
ATOM     78  C   UNL A   1      42.686  22.240  27.155  1.00  0.00     0.198 A 
ATOM     79  F   UNL A   1      41.987  22.907  29.302  1.00  0.00    -0.203 F 
ATOM     80  F   UNL A   1      44.144  24.159  24.450  1.00  0.00    -0.200 F 
ATOM     81  C   UNL A   1      43.231  22.551  25.919  1.00  0.00     0.200 A 
ATOM     82  F   UNL A   1      42.298  20.986  27.420  1.00  0.00    -0.200 F 
ATOM     83  F   UNL A   1      43.350  21.602  24.980  1.00  0.00    -0.200 F 
ENDBRANCH  49  73
BRANCH  61  84
ATOM     84  C   UNL A   1      46.850  26.589  33.293  1.00  0.00     0.064 A 
ATOM     85  C   UNL A   1      48.083  27.159  32.943  1.00  0.00     0.173 A 
ATOM     86  C   UNL A   1      46.854  25.542  34.228  1.00  0.00     0.173 A 
ATOM     87  F   UNL A   1      48.137  28.149  32.040  1.00  0.00    -0.203 F 
ATOM     88  C   UNL A   1      49.273  26.683  33.487  1.00  0.00     0.198 A 
ATOM     89  C   UNL A   1      48.044  25.091  34.796  1.00  0.00     0.198 A 
ATOM     90  F   UNL A   1      45.704  24.964  34.603  1.00  0.00    -0.203 F 
ATOM     91  F   UNL A   1      50.444  27.209  33.099  1.00  0.00    -0.200 F 
ATOM     92  C   UNL A   1      49.252  25.655  34.419  1.00  0.00     0.200 A 
ATOM     93  F   UNL A   1      48.019  24.108  35.707  1.00  0.00    -0.200 F 
ATOM     94  F   UNL A   1      50.398  25.203  34.947  1.00  0.00    -0.200 F 
ENDBRANCH  61  84
ENDBRANCH  35  36
ENDBRANCH  27  30
ENDBRANCH  25  26
ENDBRANCH  24  25
ENDBRANCH   1  24
TORSDOF 13
ENDMDL
