MODEL 1
REMARK VINA RESULT:     -11.5      0.000      0.000
REMARK SMILES CC(=O)N[C@@H](C(=O)N(CC(=O)NCCCNC(=O)c1ccc(-c2c3nc(c(-c4c(F)c(F)c(F)c(F)c4F)c4ccc([nH]4)c(-c4c(F)c(F)c(F)c(F)c4F)c4nc(c(-c5c(F)c(F)c(F)c(F)c5F)c5ccc2[nH]5)C=C4)C=C3)cc1)C(C)(C)C)C(C)C
REMARK SMILES IDX 13 1 12 2 10 3 11 4 9 6 8 7 6 8 7 9 5 10 4 11 1 12 2 13 3 14
REMARK SMILES IDX 86 16 87 17 88 18 82 19 83 20 84 21 85 22 14 23 15 24 16 25
REMARK SMILES IDX 17 26 18 28 19 29 20 30 81 31 21 32 80 33 22 34 23 35 24 36
REMARK SMILES IDX 74 37 25 38 79 39 73 40 75 41 26 42 78 43 72 44 71 45 27 47
REMARK SMILES IDX 59 48 39 49 58 50 40 51 43 52 57 53 76 54 41 55 42 56 56 58
REMARK SMILES IDX 77 59 44 60 28 61 29 62 37 63 30 64 31 65 35 66 38 67 32 68
REMARK SMILES IDX 33 69 36 70 34 71 60 72 61 73 69 74 62 75 63 76 67 77 70 78
REMARK SMILES IDX 64 79 65 80 68 81 66 82 45 83 46 84 54 85 47 86 48 87 52 88
REMARK SMILES IDX 55 89 49 90 50 91 53 92 51 93
REMARK H PARENT 12 5 4 15 16 27 75 46 43 57
REMARK Flexibility Score: inf
ROOT
ATOM      1  C   UNL A   1      31.829  30.744  26.236  1.00  0.00     0.117 C 
ENDROOT
BRANCH   1   2
ATOM      2  N   UNL A   1      31.491  29.646  27.102  1.00  0.00    -0.354 N 
ATOM      3  C   UNL A   1      31.736  28.320  26.869  1.00  0.00     0.239 C 
ATOM      4  O   UNL A   1      31.781  27.567  27.845  1.00  0.00    -0.273 OA
ATOM      5  H   UNL A   1      31.038  29.871  27.946  1.00  0.00     0.163 HD
BRANCH   3   6
ATOM      6  C   UNL A   1      32.073  27.795  25.452  1.00  0.00     0.220 C 
BRANCH   6   7
ATOM      7  N   UNL A   1      31.889  26.354  25.205  1.00  0.00    -0.327 N 
BRANCH   7   8
ATOM      8  C   UNL A   1      32.917  25.405  25.398  1.00  0.00     0.246 C 
ATOM      9  O   UNL A   1      32.901  24.681  26.401  1.00  0.00    -0.272 OA
BRANCH   8  10
ATOM     10  C   UNL A   1      34.158  25.266  24.389  1.00  0.00     0.174 C 
BRANCH  10  11
ATOM     11  N   UNL A   1      33.758  25.223  22.976  1.00  0.00    -0.344 N 
ATOM     12  C   UNL A   1      33.822  27.636  22.441  1.00  0.00     0.114 C 
ATOM     13  C   UNL A   1      33.549  26.209  22.064  1.00  0.00     0.217 C 
ATOM     14  O   UNL A   1      33.144  25.896  20.946  1.00  0.00    -0.275 OA
ATOM     15  H   UNL A   1      33.616  24.314  22.626  1.00  0.00     0.164 HD
ENDBRANCH  10  11
BRANCH  10  16
ATOM     16  C   UNL A   1      34.929  23.927  24.669  1.00  0.00     0.015 C 
ATOM     17  C   UNL A   1      35.250  23.126  23.395  1.00  0.00     0.010 C 
ATOM     18  C   UNL A   1      36.232  24.156  25.438  1.00  0.00     0.010 C 
ENDBRANCH  10  16
ENDBRANCH   8  10
ENDBRANCH   7   8
BRANCH   7  19
ATOM     19  C   UNL A   1      30.519  25.890  24.709  1.00  0.00     0.035 C 
ATOM     20  C   UNL A   1      29.550  25.553  25.862  1.00  0.00     0.034 C 
ATOM     21  C   UNL A   1      29.892  26.983  23.814  1.00  0.00     0.034 C 
ATOM     22  C   UNL A   1      30.554  24.609  23.826  1.00  0.00     0.034 C 
ENDBRANCH   7  19
ENDBRANCH   6   7
ENDBRANCH   3   6
ENDBRANCH   1   2
BRANCH   1  23
ATOM     23  C   UNL A   1      31.520  32.126  26.762  1.00  0.00     0.042 C 
BRANCH  23  24
ATOM     24  C   UNL A   1      32.741  32.825  27.305  1.00  0.00     0.118 C 
BRANCH  24  25
ATOM     25  N   UNL A   1      32.468  34.220  27.624  1.00  0.00    -0.352 N 
ATOM     26  C   UNL A   1      33.000  34.996  28.625  1.00  0.00     0.251 C 
ATOM     27  H   UNL A   1      31.812  34.669  27.043  1.00  0.00     0.163 HD
ATOM     28  O   UNL A   1      32.509  36.086  28.898  1.00  0.00    -0.269 OA
BRANCH  26  29
ATOM     29  C   UNL A   1      34.161  34.493  29.388  1.00  0.00     0.039 A 
ATOM     30  C   UNL A   1      33.957  33.870  30.622  1.00  0.00     0.014 A 
ATOM     31  C   UNL A   1      35.449  34.611  28.865  1.00  0.00     0.014 A 
ATOM     32  C   UNL A   1      35.042  33.309  31.298  1.00  0.00     0.010 A 
ATOM     33  C   UNL A   1      36.503  33.947  29.473  1.00  0.00     0.010 A 
ATOM     34  C   UNL A   1      36.317  33.312  30.710  1.00  0.00    -0.014 A 
BRANCH  34  35
ATOM     35  C   UNL A   1      37.499  32.719  31.381  1.00  0.00     0.031 A 
ATOM     36  C   UNL A   1      38.234  31.591  30.707  1.00  0.00     0.074 A 
ATOM     37  C   UNL A   1      37.855  33.123  32.616  1.00  0.00     0.049 A 
ATOM     38  N   UNL A   1      39.189  30.826  31.171  1.00  0.00    -0.248 NA
ATOM     39  C   UNL A   1      37.804  31.248  29.340  1.00  0.00     0.031 C 
ATOM     40  C   UNL A   1      37.199  34.179  33.386  1.00  0.00     0.029 A 
ATOM     41  N   UNL A   1      38.851  32.675  33.447  1.00  0.00    -0.354 N 
ATOM     42  C   UNL A   1      39.445  29.898  30.169  1.00  0.00     0.074 A 
ATOM     43  C   UNL A   1      38.506  30.151  29.100  1.00  0.00     0.031 C 
ATOM     44  C   UNL A   1      37.823  34.314  34.567  1.00  0.00     0.029 A 
ATOM     45  C   UNL A   1      38.890  33.321  34.658  1.00  0.00     0.049 A 
ATOM     46  H   UNL A   1      39.478  31.958  33.200  1.00  0.00     0.167 HD
ATOM     47  C   UNL A   1      40.396  28.936  30.134  1.00  0.00     0.037 A 
ATOM     48  C   UNL A   1      39.687  33.122  35.725  1.00  0.00     0.037 A 
ATOM     49  C   UNL A   1      41.355  28.721  31.183  1.00  0.00     0.049 A 
ATOM     50  C   UNL A   1      40.737  32.043  35.662  1.00  0.00     0.074 A 
ATOM     51  C   UNL A   1      42.403  27.818  31.220  1.00  0.00     0.029 A 
ATOM     52  N   UNL A   1      41.383  29.420  32.381  1.00  0.00    -0.354 N 
ATOM     53  N   UNL A   1      41.011  31.209  34.688  1.00  0.00    -0.248 NA
ATOM     54  C   UNL A   1      41.592  31.880  36.846  1.00  0.00     0.031 C 
ATOM     55  C   UNL A   1      43.032  27.934  32.462  1.00  0.00     0.029 A 
ATOM     56  C   UNL A   1      42.419  28.954  33.173  1.00  0.00     0.049 A 
ATOM     57  H   UNL A   1      40.759  30.139  32.631  1.00  0.00     0.167 HD
ATOM     58  C   UNL A   1      42.094  30.457  35.121  1.00  0.00     0.074 A 
ATOM     59  C   UNL A   1      42.430  30.933  36.446  1.00  0.00     0.031 C 
ATOM     60  C   UNL A   1      42.755  29.464  34.477  1.00  0.00     0.037 A 
BRANCH  47  61
ATOM     61  C   UNL A   1      40.449  28.050  28.923  1.00  0.00     0.064 A 
ATOM     62  C   UNL A   1      39.731  26.846  28.855  1.00  0.00     0.173 A 
ATOM     63  C   UNL A   1      41.202  28.427  27.801  1.00  0.00     0.173 A 
ATOM     64  F   UNL A   1      39.005  26.431  29.904  1.00  0.00    -0.203 F 
ATOM     65  C   UNL A   1      39.792  26.038  27.723  1.00  0.00     0.198 A 
ATOM     66  C   UNL A   1      41.232  27.634  26.656  1.00  0.00     0.198 A 
ATOM     67  F   UNL A   1      41.905  29.570  27.810  1.00  0.00    -0.203 F 
ATOM     68  F   UNL A   1      39.143  24.865  27.704  1.00  0.00    -0.200 F 
ATOM     69  C   UNL A   1      40.535  26.437  26.622  1.00  0.00     0.200 A 
ATOM     70  F   UNL A   1      41.938  28.029  25.588  1.00  0.00    -0.200 F 
ATOM     71  F   UNL A   1      40.583  25.663  25.528  1.00  0.00    -0.200 F 
ENDBRANCH  47  61
BRANCH  48  72
ATOM     72  C   UNL A   1      39.546  33.977  36.934  1.00  0.00     0.064 A 
ATOM     73  C   UNL A   1      40.195  35.218  37.016  1.00  0.00     0.173 A 
ATOM     74  C   UNL A   1      38.778  33.571  38.035  1.00  0.00     0.173 A 
ATOM     75  F   UNL A   1      40.958  35.642  35.997  1.00  0.00    -0.203 F 
ATOM     76  C   UNL A   1      40.103  36.006  38.162  1.00  0.00     0.198 A 
ATOM     77  C   UNL A   1      38.662  34.374  39.168  1.00  0.00     0.198 A 
ATOM     78  F   UNL A   1      38.133  32.396  38.007  1.00  0.00    -0.203 F 
ATOM     79  F   UNL A   1      40.778  37.161  38.232  1.00  0.00    -0.200 F 
ATOM     80  C   UNL A   1      39.332  35.586  39.235  1.00  0.00     0.200 A 
ATOM     81  F   UNL A   1      37.903  33.971  40.197  1.00  0.00    -0.200 F 
ATOM     82  F   UNL A   1      39.245  36.344  40.336  1.00  0.00    -0.200 F 
ENDBRANCH  48  72
BRANCH  60  83
ATOM     83  C   UNL A   1      43.954  28.869  35.158  1.00  0.00     0.064 A 
ATOM     84  C   UNL A   1      43.850  27.764  36.014  1.00  0.00     0.173 A 
ATOM     85  C   UNL A   1      45.236  29.374  34.887  1.00  0.00     0.173 A 
ATOM     86  F   UNL A   1      42.646  27.253  36.314  1.00  0.00    -0.203 F 
ATOM     87  C   UNL A   1      44.985  27.199  36.590  1.00  0.00     0.198 A 
ATOM     88  C   UNL A   1      46.369  28.785  35.439  1.00  0.00     0.198 A 
ATOM     89  F   UNL A   1      45.389  30.425  34.068  1.00  0.00    -0.203 F 
ATOM     90  F   UNL A   1      44.860  26.168  37.438  1.00  0.00    -0.200 F 
ATOM     91  C   UNL A   1      46.242  27.701  36.293  1.00  0.00     0.200 A 
ATOM     92  F   UNL A   1      47.585  29.262  35.135  1.00  0.00    -0.200 F 
ATOM     93  F   UNL A   1      47.334  27.143  36.834  1.00  0.00    -0.200 F 
ENDBRANCH  60  83
ENDBRANCH  34  35
ENDBRANCH  26  29
ENDBRANCH  24  25
ENDBRANCH  23  24
ENDBRANCH   1  23
TORSDOF 16
ENDMDL
MODEL 2
REMARK VINA RESULT:     -11.5      0.892      2.344
REMARK SMILES CC(=O)N[C@@H](C(=O)N(CC(=O)NCCCNC(=O)c1ccc(-c2c3nc(c(-c4c(F)c(F)c(F)c(F)c4F)c4ccc([nH]4)c(-c4c(F)c(F)c(F)c(F)c4F)c4nc(c(-c5c(F)c(F)c(F)c(F)c5F)c5ccc2[nH]5)C=C4)C=C3)cc1)C(C)(C)C)C(C)C
REMARK SMILES IDX 13 1 12 2 10 3 11 4 9 6 8 7 6 8 7 9 5 10 4 11 1 12 2 13 3 14
REMARK SMILES IDX 86 16 87 17 88 18 82 19 83 20 84 21 85 22 14 23 15 24 16 25
REMARK SMILES IDX 17 26 18 28 19 29 20 30 81 31 21 32 80 33 22 34 23 35 24 36
REMARK SMILES IDX 74 37 25 38 79 39 73 40 75 41 26 42 78 43 72 44 71 45 27 47
REMARK SMILES IDX 59 48 39 49 58 50 40 51 43 52 57 53 76 54 41 55 42 56 56 58
REMARK SMILES IDX 77 59 44 60 28 61 29 62 37 63 30 64 31 65 35 66 38 67 32 68
REMARK SMILES IDX 33 69 36 70 34 71 60 72 61 73 69 74 62 75 63 76 67 77 70 78
REMARK SMILES IDX 64 79 65 80 68 81 66 82 45 83 46 84 54 85 47 86 48 87 52 88
REMARK SMILES IDX 55 89 49 90 50 91 53 92 51 93
REMARK H PARENT 12 5 4 15 16 27 75 46 43 57
REMARK Flexibility Score: inf
ROOT
ATOM      1  C   UNL A   1      31.742  30.755  26.144  1.00  0.00     0.117 C 
ENDROOT
BRANCH   1   2
ATOM      2  N   UNL A   1      32.739  29.957  26.808  1.00  0.00    -0.354 N 
ATOM      3  C   UNL A   1      33.466  28.938  26.256  1.00  0.00     0.239 C 
ATOM      4  O   UNL A   1      34.538  28.646  26.792  1.00  0.00    -0.273 OA
ATOM      5  H   UNL A   1      32.914  30.164  27.754  1.00  0.00     0.163 HD
BRANCH   3   6
ATOM      6  C   UNL A   1      33.033  28.257  24.935  1.00  0.00     0.220 C 
BRANCH   6   7
ATOM      7  N   UNL A   1      31.992  27.216  25.023  1.00  0.00    -0.327 N 
BRANCH   7   8
ATOM      8  C   UNL A   1      31.942  26.268  26.068  1.00  0.00     0.246 C 
ATOM      9  O   UNL A   1      31.214  26.475  27.047  1.00  0.00    -0.272 OA
BRANCH   8  10
ATOM     10  C   UNL A   1      32.848  24.943  26.070  1.00  0.00     0.174 C 
BRANCH  10  11
ATOM     11  N   UNL A   1      33.305  24.547  24.731  1.00  0.00    -0.344 N 
ATOM     12  C   UNL A   1      35.705  24.177  25.191  1.00  0.00     0.114 C 
ATOM     13  C   UNL A   1      34.536  24.234  24.250  1.00  0.00     0.217 C 
ATOM     14  O   UNL A   1      34.655  24.001  23.049  1.00  0.00    -0.275 OA
ATOM     15  H   UNL A   1      32.587  24.499  24.059  1.00  0.00     0.164 HD
ENDBRANCH  10  11
BRANCH  10  16
ATOM     16  C   UNL A   1      32.022  23.730  26.629  1.00  0.00     0.015 C 
ATOM     17  C   UNL A   1      31.187  23.009  25.557  1.00  0.00     0.010 C 
ATOM     18  C   UNL A   1      32.909  22.696  27.328  1.00  0.00     0.010 C 
ENDBRANCH  10  16
ENDBRANCH   8  10
ENDBRANCH   7   8
BRANCH   7  19
ATOM     19  C   UNL A   1      30.938  27.175  23.915  1.00  0.00     0.035 C 
ATOM     20  C   UNL A   1      29.782  26.201  24.228  1.00  0.00     0.034 C 
ATOM     21  C   UNL A   1      30.368  28.593  23.686  1.00  0.00     0.034 C 
ATOM     22  C   UNL A   1      31.480  26.723  22.528  1.00  0.00     0.034 C 
ENDBRANCH   7  19
ENDBRANCH   6   7
ENDBRANCH   3   6
ENDBRANCH   1   2
BRANCH   1  23
ATOM     23  C   UNL A   1      31.441  32.098  26.766  1.00  0.00     0.042 C 
BRANCH  23  24
ATOM     24  C   UNL A   1      32.670  32.759  27.338  1.00  0.00     0.118 C 
BRANCH  24  25
ATOM     25  N   UNL A   1      32.442  34.170  27.623  1.00  0.00    -0.352 N 
ATOM     26  C   UNL A   1      33.013  34.956  28.594  1.00  0.00     0.251 C 
ATOM     27  H   UNL A   1      31.787  34.621  27.042  1.00  0.00     0.163 HD
ATOM     28  O   UNL A   1      32.557  36.067  28.846  1.00  0.00    -0.269 OA
BRANCH  26  29
ATOM     29  C   UNL A   1      34.173  34.442  29.350  1.00  0.00     0.039 A 
ATOM     30  C   UNL A   1      33.962  33.688  30.507  1.00  0.00     0.014 A 
ATOM     31  C   UNL A   1      35.470  34.679  28.892  1.00  0.00     0.014 A 
ATOM     32  C   UNL A   1      35.054  33.121  31.168  1.00  0.00     0.010 A 
ATOM     33  C   UNL A   1      36.538  34.015  29.475  1.00  0.00     0.010 A 
ATOM     34  C   UNL A   1      36.346  33.250  30.635  1.00  0.00    -0.014 A 
BRANCH  34  35
ATOM     35  C   UNL A   1      37.536  32.656  31.292  1.00  0.00     0.031 A 
ATOM     36  C   UNL A   1      38.262  31.529  30.607  1.00  0.00     0.074 A 
ATOM     37  C   UNL A   1      37.906  33.058  32.522  1.00  0.00     0.049 A 
ATOM     38  N   UNL A   1      39.223  30.764  31.058  1.00  0.00    -0.248 NA
ATOM     39  C   UNL A   1      37.817  31.188  29.244  1.00  0.00     0.031 C 
ATOM     40  C   UNL A   1      37.258  34.112  33.302  1.00  0.00     0.029 A 
ATOM     41  N   UNL A   1      38.911  32.609  33.342  1.00  0.00    -0.354 N 
ATOM     42  C   UNL A   1      39.467  29.838  30.052  1.00  0.00     0.074 A 
ATOM     43  C   UNL A   1      38.517  30.093  28.995  1.00  0.00     0.031 C 
ATOM     44  C   UNL A   1      37.895  34.245  34.477  1.00  0.00     0.029 A 
ATOM     45  C   UNL A   1      38.963  33.253  34.554  1.00  0.00     0.049 A 
ATOM     46  H   UNL A   1      39.535  31.892  33.086  1.00  0.00     0.167 HD
ATOM     47  C   UNL A   1      40.418  28.876  30.004  1.00  0.00     0.037 A 
ATOM     48  C   UNL A   1      39.773  33.052  35.611  1.00  0.00     0.037 A 
ATOM     49  C   UNL A   1      41.390  28.659  31.042  1.00  0.00     0.049 A 
ATOM     50  C   UNL A   1      40.822  31.973  35.533  1.00  0.00     0.074 A 
ATOM     51  C   UNL A   1      42.438  27.756  31.065  1.00  0.00     0.029 A 
ATOM     52  N   UNL A   1      41.431  29.356  32.240  1.00  0.00    -0.354 N 
ATOM     53  N   UNL A   1      41.085  31.141  34.555  1.00  0.00    -0.248 NA
ATOM     54  C   UNL A   1      41.691  31.808  36.707  1.00  0.00     0.031 C 
ATOM     55  C   UNL A   1      43.081  27.870  32.300  1.00  0.00     0.029 A 
ATOM     56  C   UNL A   1      42.476  28.888  33.020  1.00  0.00     0.049 A 
ATOM     57  H   UNL A   1      40.810  30.075  32.499  1.00  0.00     0.167 HD
ATOM     58  C   UNL A   1      42.173  30.388  34.974  1.00  0.00     0.074 A 
ATOM     59  C   UNL A   1      42.524  30.862  36.296  1.00  0.00     0.031 C 
ATOM     60  C   UNL A   1      42.827  29.397  34.321  1.00  0.00     0.037 A 
BRANCH  47  61
ATOM     61  C   UNL A   1      40.458  27.992  28.791  1.00  0.00     0.064 A 
ATOM     62  C   UNL A   1      41.204  28.329  27.652  1.00  0.00     0.173 A 
ATOM     63  C   UNL A   1      39.764  26.772  28.781  1.00  0.00     0.173 A 
ATOM     64  F   UNL A   1      41.875  29.490  27.603  1.00  0.00    -0.203 F 
ATOM     65  C   UNL A   1      41.229  27.496  26.537  1.00  0.00     0.198 A 
ATOM     66  C   UNL A   1      39.820  25.923  27.678  1.00  0.00     0.198 A 
ATOM     67  F   UNL A   1      39.038  26.397  29.845  1.00  0.00    -0.203 F 
ATOM     68  F   UNL A   1      41.903  27.867  25.440  1.00  0.00    -0.200 F 
ATOM     69  C   UNL A   1      40.545  26.290  26.555  1.00  0.00     0.200 A 
ATOM     70  F   UNL A   1      39.171  24.751  27.703  1.00  0.00    -0.200 F 
ATOM     71  F   UNL A   1      40.578  25.483  25.485  1.00  0.00    -0.200 F 
ENDBRANCH  47  61
BRANCH  48  72
ATOM     72  C   UNL A   1      39.646  33.904  36.823  1.00  0.00     0.064 A 
ATOM     73  C   UNL A   1      38.851  33.498  37.906  1.00  0.00     0.173 A 
ATOM     74  C   UNL A   1      40.297  35.142  36.922  1.00  0.00     0.173 A 
ATOM     75  F   UNL A   1      38.193  32.331  37.851  1.00  0.00    -0.203 F 
ATOM     76  C   UNL A   1      38.692  34.310  39.027  1.00  0.00     0.198 A 
ATOM     77  C   UNL A   1      40.161  35.939  38.057  1.00  0.00     0.198 A 
ATOM     78  F   UNL A   1      41.072  35.576  35.918  1.00  0.00    -0.203 F 
ATOM     79  F   UNL A   1      37.884  33.920  40.023  1.00  0.00    -0.200 F 
ATOM     80  C   UNL A   1      39.352  35.527  39.105  1.00  0.00     0.200 A 
ATOM     81  F   UNL A   1      40.812  37.108  38.135  1.00  0.00    -0.200 F 
ATOM     82  F   UNL A   1      39.198  36.307  40.184  1.00  0.00    -0.200 F 
ENDBRANCH  48  72
BRANCH  60  83
ATOM     83  C   UNL A   1      44.034  28.800  34.987  1.00  0.00     0.064 A 
ATOM     84  C   UNL A   1      45.316  29.342  34.825  1.00  0.00     0.173 A 
ATOM     85  C   UNL A   1      43.884  27.709  35.858  1.00  0.00     0.173 A 
ATOM     86  F   UNL A   1      45.513  30.376  33.994  1.00  0.00    -0.203 F 
ATOM     87  C   UNL A   1      46.409  28.801  35.498  1.00  0.00     0.198 A 
ATOM     88  C   UNL A   1      44.973  27.193  36.554  1.00  0.00     0.198 A 
ATOM     89  F   UNL A   1      42.676  27.159  36.053  1.00  0.00    -0.203 F 
ATOM     90  F   UNL A   1      47.633  29.309  35.299  1.00  0.00    -0.200 F 
ATOM     91  C   UNL A   1      46.235  27.736  36.369  1.00  0.00     0.200 A 
ATOM     92  F   UNL A   1      44.799  26.176  37.409  1.00  0.00    -0.200 F 
ATOM     93  F   UNL A   1      47.286  27.230  37.029  1.00  0.00    -0.200 F 
ENDBRANCH  60  83
ENDBRANCH  34  35
ENDBRANCH  26  29
ENDBRANCH  24  25
ENDBRANCH  23  24
ENDBRANCH   1  23
TORSDOF 16
ENDMDL
MODEL 3
REMARK VINA RESULT:     -11.3      0.889      1.776
REMARK SMILES CC(=O)N[C@@H](C(=O)N(CC(=O)NCCCNC(=O)c1ccc(-c2c3nc(c(-c4c(F)c(F)c(F)c(F)c4F)c4ccc([nH]4)c(-c4c(F)c(F)c(F)c(F)c4F)c4nc(c(-c5c(F)c(F)c(F)c(F)c5F)c5ccc2[nH]5)C=C4)C=C3)cc1)C(C)(C)C)C(C)C
REMARK SMILES IDX 13 1 12 2 10 3 11 4 9 6 8 7 6 8 7 9 5 10 4 11 1 12 2 13 3 14
REMARK SMILES IDX 86 16 87 17 88 18 82 19 83 20 84 21 85 22 14 23 15 24 16 25
REMARK SMILES IDX 17 26 18 28 19 29 20 30 81 31 21 32 80 33 22 34 23 35 24 36
REMARK SMILES IDX 74 37 25 38 79 39 73 40 75 41 26 42 78 43 72 44 71 45 27 47
REMARK SMILES IDX 59 48 39 49 58 50 40 51 43 52 57 53 76 54 41 55 42 56 56 58
REMARK SMILES IDX 77 59 44 60 28 61 29 62 37 63 30 64 31 65 35 66 38 67 32 68
REMARK SMILES IDX 33 69 36 70 34 71 60 72 61 73 69 74 62 75 63 76 67 77 70 78
REMARK SMILES IDX 64 79 65 80 68 81 66 82 45 83 46 84 54 85 47 86 48 87 52 88
REMARK SMILES IDX 55 89 49 90 50 91 53 92 51 93
REMARK H PARENT 12 5 4 15 16 27 75 46 43 57
REMARK Flexibility Score: inf
ROOT
ATOM      1  C   UNL A   1      31.762  30.736  26.282  1.00  0.00     0.117 C 
ENDROOT
BRANCH   1   2
ATOM      2  N   UNL A   1      32.641  29.944  27.101  1.00  0.00    -0.354 N 
ATOM      3  C   UNL A   1      33.532  29.003  26.663  1.00  0.00     0.239 C 
ATOM      4  O   UNL A   1      34.481  28.727  27.402  1.00  0.00    -0.273 OA
ATOM      5  H   UNL A   1      32.596  30.093  28.072  1.00  0.00     0.163 HD
BRANCH   3   6
ATOM      6  C   UNL A   1      33.437  28.395  25.242  1.00  0.00     0.220 C 
BRANCH   6   7
ATOM      7  N   UNL A   1      32.330  27.456  24.983  1.00  0.00    -0.327 N 
BRANCH   7   8
ATOM      8  C   UNL A   1      31.982  26.416  25.872  1.00  0.00     0.246 C 
ATOM      9  O   UNL A   1      31.005  26.550  26.618  1.00  0.00    -0.272 OA
BRANCH   8  10
ATOM     10  C   UNL A   1      32.852  25.072  26.003  1.00  0.00     0.174 C 
BRANCH  10  11
ATOM     11  N   UNL A   1      33.436  24.629  24.730  1.00  0.00    -0.344 N 
ATOM     12  C   UNL A   1      35.742  24.132  25.469  1.00  0.00     0.114 C 
ATOM     13  C   UNL A   1      34.695  24.240  24.399  1.00  0.00     0.217 C 
ATOM     14  O   UNL A   1      34.937  23.981  23.221  1.00  0.00    -0.275 OA
ATOM     15  H   UNL A   1      32.799  24.611  23.980  1.00  0.00     0.164 HD
ENDBRANCH  10  11
BRANCH  10  16
ATOM     16  C   UNL A   1      31.943  23.893  26.503  1.00  0.00     0.015 C 
ATOM     17  C   UNL A   1      31.187  23.178  25.370  1.00  0.00     0.010 C 
ATOM     18  C   UNL A   1      32.732  22.847  27.295  1.00  0.00     0.010 C 
ENDBRANCH  10  16
ENDBRANCH   8  10
ENDBRANCH   7   8
BRANCH   7  19
ATOM     19  C   UNL A   1      31.544  27.631  23.683  1.00  0.00     0.035 C 
ATOM     20  C   UNL A   1      30.253  28.454  23.872  1.00  0.00     0.034 C 
ATOM     21  C   UNL A   1      32.438  28.313  22.622  1.00  0.00     0.034 C 
ATOM     22  C   UNL A   1      31.078  26.298  23.028  1.00  0.00     0.034 C 
ENDBRANCH   7  19
ENDBRANCH   6   7
ENDBRANCH   3   6
ENDBRANCH   1   2
BRANCH   1  23
ATOM     23  C   UNL A   1      31.476  32.135  26.773  1.00  0.00     0.042 C 
BRANCH  23  24
ATOM     24  C   UNL A   1      32.710  32.834  27.284  1.00  0.00     0.118 C 
BRANCH  24  25
ATOM     25  N   UNL A   1      32.450  34.233  27.597  1.00  0.00    -0.352 N 
ATOM     26  C   UNL A   1      32.992  35.008  28.593  1.00  0.00     0.251 C 
ATOM     27  H   UNL A   1      31.796  34.684  27.016  1.00  0.00     0.163 HD
ATOM     28  O   UNL A   1      32.510  36.104  28.862  1.00  0.00    -0.269 OA
BRANCH  26  29
ATOM     29  C   UNL A   1      34.150  34.500  29.356  1.00  0.00     0.039 A 
ATOM     30  C   UNL A   1      33.942  33.863  30.581  1.00  0.00     0.014 A 
ATOM     31  C   UNL A   1      35.440  34.625  28.838  1.00  0.00     0.014 A 
ATOM     32  C   UNL A   1      35.026  33.297  31.255  1.00  0.00     0.010 A 
ATOM     33  C   UNL A   1      36.493  33.957  29.444  1.00  0.00     0.010 A 
ATOM     34  C   UNL A   1      36.304  33.308  30.673  1.00  0.00    -0.014 A 
BRANCH  34  35
ATOM     35  C   UNL A   1      37.484  32.710  31.343  1.00  0.00     0.031 A 
ATOM     36  C   UNL A   1      38.212  31.578  30.667  1.00  0.00     0.074 A 
ATOM     37  C   UNL A   1      37.844  33.113  32.576  1.00  0.00     0.049 A 
ATOM     38  N   UNL A   1      39.165  30.810  31.130  1.00  0.00    -0.248 NA
ATOM     39  C   UNL A   1      37.778  31.237  29.301  1.00  0.00     0.031 C 
ATOM     40  C   UNL A   1      37.194  34.172  33.347  1.00  0.00     0.029 A 
ATOM     41  N   UNL A   1      38.839  32.661  33.406  1.00  0.00    -0.354 N 
ATOM     42  C   UNL A   1      39.415  29.880  30.128  1.00  0.00     0.074 A 
ATOM     43  C   UNL A   1      38.476  30.137  29.061  1.00  0.00     0.031 C 
ATOM     44  C   UNL A   1      37.820  34.304  34.528  1.00  0.00     0.029 A 
ATOM     45  C   UNL A   1      38.883  33.307  34.617  1.00  0.00     0.049 A 
ATOM     46  H   UNL A   1      39.463  31.941  33.158  1.00  0.00     0.167 HD
ATOM     47  C   UNL A   1      40.362  28.914  30.091  1.00  0.00     0.037 A 
ATOM     48  C   UNL A   1      39.681  33.105  35.682  1.00  0.00     0.037 A 
ATOM     49  C   UNL A   1      41.322  28.694  31.139  1.00  0.00     0.049 A 
ATOM     50  C   UNL A   1      40.726  32.021  35.618  1.00  0.00     0.074 A 
ATOM     51  C   UNL A   1      42.365  27.787  31.174  1.00  0.00     0.029 A 
ATOM     52  N   UNL A   1      41.355  29.394  32.336  1.00  0.00    -0.354 N 
ATOM     53  N   UNL A   1      40.995  31.186  34.643  1.00  0.00    -0.248 NA
ATOM     54  C   UNL A   1      41.583  31.855  36.800  1.00  0.00     0.031 C 
ATOM     55  C   UNL A   1      42.997  27.901  32.415  1.00  0.00     0.029 A 
ATOM     56  C   UNL A   1      42.390  28.923  33.127  1.00  0.00     0.049 A 
ATOM     57  H   UNL A   1      40.735  30.116  32.587  1.00  0.00     0.167 HD
ATOM     58  C   UNL A   1      42.075  30.428  35.075  1.00  0.00     0.074 A 
ATOM     59  C   UNL A   1      42.415  30.904  36.399  1.00  0.00     0.031 C 
ATOM     60  C   UNL A   1      42.731  29.433  34.430  1.00  0.00     0.037 A 
BRANCH  47  61
ATOM     61  C   UNL A   1      40.408  28.027  28.881  1.00  0.00     0.064 A 
ATOM     62  C   UNL A   1      41.173  28.355  27.751  1.00  0.00     0.173 A 
ATOM     63  C   UNL A   1      39.703  26.814  28.864  1.00  0.00     0.173 A 
ATOM     64  F   UNL A   1      41.856  29.509  27.709  1.00  0.00    -0.203 F 
ATOM     65  C   UNL A   1      41.205  27.519  26.638  1.00  0.00     0.198 A 
ATOM     66  C   UNL A   1      39.766  25.962  27.764  1.00  0.00     0.198 A 
ATOM     67  F   UNL A   1      38.959  26.448  29.918  1.00  0.00    -0.203 F 
ATOM     68  F   UNL A   1      41.897  27.882  25.549  1.00  0.00    -0.200 F 
ATOM     69  C   UNL A   1      40.509  26.320  26.649  1.00  0.00     0.200 A 
ATOM     70  F   UNL A   1      39.105  24.796  27.782  1.00  0.00    -0.200 F 
ATOM     71  F   UNL A   1      40.549  25.511  25.581  1.00  0.00    -0.200 F 
ENDBRANCH  47  61
BRANCH  48  72
ATOM     72  C   UNL A   1      39.546  33.960  36.891  1.00  0.00     0.064 A 
ATOM     73  C   UNL A   1      40.187  35.206  36.965  1.00  0.00     0.173 A 
ATOM     74  C   UNL A   1      38.792  33.551  38.000  1.00  0.00     0.173 A 
ATOM     75  F   UNL A   1      40.937  35.634  35.938  1.00  0.00    -0.203 F 
ATOM     76  C   UNL A   1      40.101  35.995  38.110  1.00  0.00     0.198 A 
ATOM     77  C   UNL A   1      38.681  34.355  39.133  1.00  0.00     0.198 A 
ATOM     78  F   UNL A   1      38.155  32.372  37.981  1.00  0.00    -0.203 F 
ATOM     79  F   UNL A   1      40.769  37.156  38.172  1.00  0.00    -0.200 F 
ATOM     80  C   UNL A   1      39.344  35.572  39.192  1.00  0.00     0.200 A 
ATOM     81  F   UNL A   1      37.936  33.949  40.171  1.00  0.00    -0.200 F 
ATOM     82  F   UNL A   1      39.262  36.331  40.292  1.00  0.00    -0.200 F 
ENDBRANCH  48  72
BRANCH  60  83
ATOM     83  C   UNL A   1      43.928  28.832  35.109  1.00  0.00     0.064 A 
ATOM     84  C   UNL A   1      43.824  27.710  35.942  1.00  0.00     0.173 A 
ATOM     85  C   UNL A   1      45.208  29.352  34.860  1.00  0.00     0.173 A 
ATOM     86  F   UNL A   1      42.622  27.184  36.221  1.00  0.00    -0.203 F 
ATOM     87  C   UNL A   1      44.958  27.141  36.516  1.00  0.00     0.198 A 
ATOM     88  C   UNL A   1      46.341  28.760  35.409  1.00  0.00     0.198 A 
ATOM     89  F   UNL A   1      45.361  30.421  34.063  1.00  0.00    -0.203 F 
ATOM     90  F   UNL A   1      44.834  26.093  37.342  1.00  0.00    -0.200 F 
ATOM     91  C   UNL A   1      46.215  27.658  36.241  1.00  0.00     0.200 A 
ATOM     92  F   UNL A   1      47.556  29.252  35.126  1.00  0.00    -0.200 F 
ATOM     93  F   UNL A   1      47.306  27.097  36.779  1.00  0.00    -0.200 F 
ENDBRANCH  60  83
ENDBRANCH  34  35
ENDBRANCH  26  29
ENDBRANCH  24  25
ENDBRANCH  23  24
ENDBRANCH   1  23
TORSDOF 16
ENDMDL
