MODEL 1
REMARK VINA RESULT:     -12.5      0.000      0.000
REMARK SMILES O=C1N[C@H](C(=O)N[C@H]2C=C[C@@H](C(=O)NCCCNC(=O)c3ccc(-c4c5nc(c(-c6c(F)c(F)c(F)c(F)c6F)c6ccc([nH]6)c(-c6c(F)c(F)c(F)c(F)c6F)c6nc(c(-c7c(F)c(F)c(F)c(F)c7F)c7ccc4[nH]7)C=C6)C=C5)cc3)C2)CS1
REMARK SMILES IDX 16 1 15 2 14 3 12 4 13 5 11 7 8 8 9 9 84 10 10 11 7 12 5 13
REMARK SMILES IDX 6 14 4 16 1 17 2 18 3 19 86 20 85 22 17 23 18 24 19 25 20 27
REMARK SMILES IDX 21 28 22 29 83 30 23 31 82 32 24 33 25 34 26 35 76 36 27 37
REMARK SMILES IDX 81 38 75 39 77 40 28 41 80 42 74 43 73 44 29 46 61 47 41 48
REMARK SMILES IDX 60 49 42 50 45 51 59 52 78 53 43 54 44 55 58 57 79 58 46 59
REMARK SMILES IDX 30 60 31 61 39 62 32 63 33 64 37 65 40 66 34 67 35 68 38 69
REMARK SMILES IDX 36 70 62 71 63 72 71 73 64 74 65 75 69 76 72 77 66 78 67 79
REMARK SMILES IDX 70 80 68 81 47 82 48 83 56 84 49 85 50 86 54 87 57 88 51 89
REMARK SMILES IDX 52 90 55 91 53 92
REMARK H PARENT 14 6 7 15 3 21 18 26 77 45 45 56
REMARK Flexibility Score: inf
ROOT
ATOM      1  C   UNL A   1      31.419  32.361  26.515  1.00  0.00     0.042 C 
ENDROOT
BRANCH   1   2
ATOM      2  C   UNL A   1      31.376  30.839  26.486  1.00  0.00     0.117 C 
BRANCH   2   3
ATOM      3  N   UNL A   1      31.645  30.291  25.170  1.00  0.00    -0.356 N 
ATOM      4  C   UNL A   1      32.023  29.048  24.770  1.00  0.00     0.227 C 
ATOM      5  O   UNL A   1      32.070  28.848  23.552  1.00  0.00    -0.274 OA
ATOM      6  H   UNL A   1      31.535  30.936  24.434  1.00  0.00     0.163 HD
BRANCH   4   7
ATOM      7  C   UNL A   1      32.449  27.940  25.741  1.00  0.00     0.103 C 
ATOM      8  C   UNL A   1      32.080  25.494  25.727  1.00  0.00     0.106 C 
ATOM      9  C   UNL A   1      33.501  25.866  25.432  1.00  0.00    -0.006 C 
ATOM     10  C   UNL A   1      31.383  26.851  25.889  1.00  0.00     0.047 C 
ATOM     11  C   UNL A   1      33.697  27.190  25.416  1.00  0.00    -0.016 C 
BRANCH   8  12
ATOM     12  N   UNL A   1      31.585  24.719  24.602  1.00  0.00    -0.348 N 
ATOM     13  C   UNL A   1      31.743  23.409  24.265  1.00  0.00     0.243 C 
ATOM     14  O   UNL A   1      31.120  23.014  23.274  1.00  0.00    -0.273 OA
ATOM     15  H   UNL A   1      31.034  25.234  23.969  1.00  0.00     0.164 HD
BRANCH  13  16
ATOM     16  C   UNL A   1      32.484  22.393  25.150  1.00  0.00     0.182 C 
ATOM     17  O   UNL A   1      32.296  18.863  25.471  1.00  0.00    -0.262 OA
ATOM     18  C   UNL A   1      32.673  20.004  25.296  1.00  0.00     0.279 C 
ATOM     19  N   UNL A   1      31.866  21.100  25.297  1.00  0.00    -0.334 N 
ATOM     20  S   UNL A   1      34.324  20.474  24.988  1.00  0.00    -0.062 SA
ATOM     21  H   UNL A   1      30.891  21.012  25.396  1.00  0.00     0.165 HD
ATOM     22  C   UNL A   1      33.911  22.206  24.648  1.00  0.00     0.115 C 
ENDBRANCH  13  16
ENDBRANCH   8  12
ENDBRANCH   4   7
ENDBRANCH   2   3
ENDBRANCH   1   2
BRANCH   1  23
ATOM     23  C   UNL A   1      32.639  32.942  27.222  1.00  0.00     0.118 C 
BRANCH  23  24
ATOM     24  N   UNL A   1      32.435  34.314  27.665  1.00  0.00    -0.352 N 
ATOM     25  C   UNL A   1      33.033  35.028  28.674  1.00  0.00     0.251 C 
ATOM     26  H   UNL A   1      31.755  34.813  27.157  1.00  0.00     0.163 HD
ATOM     27  O   UNL A   1      32.567  36.116  29.001  1.00  0.00    -0.269 OA
BRANCH  25  28
ATOM     28  C   UNL A   1      34.217  34.497  29.385  1.00  0.00     0.039 A 
ATOM     29  C   UNL A   1      34.033  33.855  30.614  1.00  0.00     0.014 A 
ATOM     30  C   UNL A   1      35.507  34.663  28.875  1.00  0.00     0.014 A 
ATOM     31  C   UNL A   1      35.130  33.315  31.290  1.00  0.00     0.010 A 
ATOM     32  C   UNL A   1      36.589  34.059  29.510  1.00  0.00     0.010 A 
ATOM     33  C   UNL A   1      36.413  33.377  30.724  1.00  0.00    -0.014 A 
BRANCH  33  34
ATOM     34  C   UNL A   1      37.580  32.730  31.375  1.00  0.00     0.031 A 
ATOM     35  C   UNL A   1      38.276  31.573  30.711  1.00  0.00     0.074 A 
ATOM     36  C   UNL A   1      37.967  33.134  32.601  1.00  0.00     0.049 A 
ATOM     37  N   UNL A   1      39.242  30.815  31.166  1.00  0.00    -0.248 NA
ATOM     38  C   UNL A   1      37.806  31.205  29.367  1.00  0.00     0.031 C 
ATOM     39  C   UNL A   1      37.350  34.218  33.367  1.00  0.00     0.029 A 
ATOM     40  N   UNL A   1      38.961  32.669  33.426  1.00  0.00    -0.354 N 
ATOM     41  C   UNL A   1      39.481  29.874  30.175  1.00  0.00     0.074 A 
ATOM     42  C   UNL A   1      38.528  30.124  29.115  1.00  0.00     0.031 C 
ATOM     43  C   UNL A   1      37.989  34.346  34.541  1.00  0.00     0.029 A 
ATOM     44  C   UNL A   1      39.030  33.327  34.630  1.00  0.00     0.049 A 
ATOM     45  H   UNL A   1      39.566  31.933  33.179  1.00  0.00     0.167 HD
ATOM     46  C   UNL A   1      40.425  28.901  30.143  1.00  0.00     0.037 A 
ATOM     47  C   UNL A   1      39.831  33.122  35.693  1.00  0.00     0.037 A 
ATOM     48  C   UNL A   1      41.386  28.670  31.188  1.00  0.00     0.049 A 
ATOM     49  C   UNL A   1      40.856  32.021  35.640  1.00  0.00     0.074 A 
ATOM     50  C   UNL A   1      42.419  27.749  31.223  1.00  0.00     0.029 A 
ATOM     51  N   UNL A   1      41.430  29.364  32.388  1.00  0.00    -0.354 N 
ATOM     52  N   UNL A   1      41.114  31.177  34.672  1.00  0.00    -0.248 NA
ATOM     53  C   UNL A   1      41.702  31.846  36.829  1.00  0.00     0.031 C 
ATOM     54  C   UNL A   1      43.059  27.854  32.462  1.00  0.00     0.029 A 
ATOM     55  C   UNL A   1      42.457  28.875  33.180  1.00  0.00     0.049 A 
ATOM     56  H   UNL A   1      40.823  30.097  32.641  1.00  0.00     0.167 HD
ATOM     57  C   UNL A   1      42.166  30.390  35.121  1.00  0.00     0.074 A 
ATOM     58  C   UNL A   1      42.509  30.867  36.445  1.00  0.00     0.031 C 
ATOM     59  C   UNL A   1      42.792  29.365  34.493  1.00  0.00     0.037 A 
BRANCH  46  60
ATOM     60  C   UNL A   1      40.464  28.010  28.934  1.00  0.00     0.064 A 
ATOM     61  C   UNL A   1      41.249  28.325  27.814  1.00  0.00     0.173 A 
ATOM     62  C   UNL A   1      39.743  26.807  28.911  1.00  0.00     0.173 A 
ATOM     63  F   UNL A   1      41.951  29.468  27.781  1.00  0.00    -0.203 F 
ATOM     64  C   UNL A   1      41.287  27.483  26.705  1.00  0.00     0.198 A 
ATOM     65  C   UNL A   1      39.808  25.953  27.813  1.00  0.00     0.198 A 
ATOM     66  F   UNL A   1      38.982  26.454  29.959  1.00  0.00    -0.203 F 
ATOM     67  F   UNL A   1      42.006  27.829  25.628  1.00  0.00    -0.200 F 
ATOM     68  C   UNL A   1      40.573  26.295  26.709  1.00  0.00     0.200 A 
ATOM     69  F   UNL A   1      39.128  24.798  27.823  1.00  0.00    -0.200 F 
ATOM     70  F   UNL A   1      40.617  25.482  25.645  1.00  0.00    -0.200 F 
ENDBRANCH  46  60
BRANCH  47  71
ATOM     71  C   UNL A   1      39.706  33.987  36.894  1.00  0.00     0.064 A 
ATOM     72  C   UNL A   1      38.899  33.604  37.975  1.00  0.00     0.173 A 
ATOM     73  C   UNL A   1      40.382  35.212  36.989  1.00  0.00     0.173 A 
ATOM     74  F   UNL A   1      38.214  32.452  37.922  1.00  0.00    -0.203 F 
ATOM     75  C   UNL A   1      38.758  34.420  39.094  1.00  0.00     0.198 A 
ATOM     76  C   UNL A   1      40.264  36.015  38.121  1.00  0.00     0.198 A 
ATOM     77  F   UNL A   1      41.170  35.624  35.984  1.00  0.00    -0.203 F 
ATOM     78  F   UNL A   1      37.945  34.050  40.093  1.00  0.00    -0.200 F 
ATOM     79  C   UNL A   1      39.446  35.622  39.170  1.00  0.00     0.200 A 
ATOM     80  F   UNL A   1      40.941  37.169  38.196  1.00  0.00    -0.200 F 
ATOM     81  F   UNL A   1      39.314  36.405  40.249  1.00  0.00    -0.200 F 
ENDBRANCH  47  71
BRANCH  59  82
ATOM     82  C   UNL A   1      43.934  28.709  35.213  1.00  0.00     0.064 A 
ATOM     83  C   UNL A   1      43.731  27.629  36.084  1.00  0.00     0.173 A 
ATOM     84  C   UNL A   1      45.252  29.137  34.990  1.00  0.00     0.173 A 
ATOM     85  F   UNL A   1      42.488  27.194  36.342  1.00  0.00    -0.203 F 
ATOM     86  C   UNL A   1      44.805  27.014  36.722  1.00  0.00     0.198 A 
ATOM     87  C   UNL A   1      46.325  28.499  35.607  1.00  0.00     0.198 A 
ATOM     88  F   UNL A   1      45.500  30.161  34.162  1.00  0.00    -0.203 F 
ATOM     89  F   UNL A   1      44.584  26.011  37.584  1.00  0.00    -0.200 F 
ATOM     90  C   UNL A   1      46.101  27.443  36.476  1.00  0.00     0.200 A 
ATOM     91  F   UNL A   1      47.577  28.907  35.357  1.00  0.00    -0.200 F 
ATOM     92  F   UNL A   1      47.134  26.842  37.083  1.00  0.00    -0.200 F 
ENDBRANCH  59  82
ENDBRANCH  33  34
ENDBRANCH  25  28
ENDBRANCH  23  24
ENDBRANCH   1  23
TORSDOF 12
ENDMDL
MODEL 2
REMARK VINA RESULT:     -12.4      5.508     11.022
REMARK SMILES O=C1N[C@H](C(=O)N[C@H]2C=C[C@@H](C(=O)NCCCNC(=O)c3ccc(-c4c5nc(c(-c6c(F)c(F)c(F)c(F)c6F)c6ccc([nH]6)c(-c6c(F)c(F)c(F)c(F)c6F)c6nc(c(-c7c(F)c(F)c(F)c(F)c7F)c7ccc4[nH]7)C=C6)C=C5)cc3)C2)CS1
REMARK SMILES IDX 16 1 15 2 14 3 12 4 13 5 11 7 8 8 9 9 84 10 10 11 7 12 5 13
REMARK SMILES IDX 6 14 4 16 1 17 2 18 3 19 86 20 85 22 17 23 18 24 19 25 20 27
REMARK SMILES IDX 21 28 22 29 83 30 23 31 82 32 24 33 25 34 26 35 76 36 27 37
REMARK SMILES IDX 81 38 75 39 77 40 28 41 80 42 74 43 73 44 29 46 61 47 41 48
REMARK SMILES IDX 60 49 42 50 45 51 59 52 78 53 43 54 44 55 58 57 79 58 46 59
REMARK SMILES IDX 30 60 31 61 39 62 32 63 33 64 37 65 40 66 34 67 35 68 38 69
REMARK SMILES IDX 36 70 62 71 63 72 71 73 64 74 65 75 69 76 72 77 66 78 67 79
REMARK SMILES IDX 70 80 68 81 47 82 48 83 56 84 49 85 50 86 54 87 57 88 51 89
REMARK SMILES IDX 52 90 55 91 53 92
REMARK H PARENT 14 6 7 15 3 21 18 26 77 45 45 56
REMARK Flexibility Score: inf
ROOT
ATOM      1  C   UNL A   1      37.967  19.615  25.026  1.00  0.00     0.042 C 
ENDROOT
BRANCH   1   2
ATOM      2  C   UNL A   1      36.819  20.613  24.940  1.00  0.00     0.117 C 
BRANCH   2   3
ATOM      3  N   UNL A   1      37.043  21.648  23.949  1.00  0.00    -0.356 N 
ATOM      4  C   UNL A   1      36.294  22.722  23.581  1.00  0.00     0.227 C 
ATOM      5  O   UNL A   1      36.805  23.500  22.768  1.00  0.00    -0.274 OA
ATOM      6  H   UNL A   1      37.888  21.555  23.452  1.00  0.00     0.163 HD
BRANCH   4   7
ATOM      7  C   UNL A   1      34.859  22.959  24.065  1.00  0.00     0.103 C 
ATOM      8  C   UNL A   1      33.450  24.991  24.137  1.00  0.00     0.106 C 
ATOM      9  C   UNL A   1      33.001  24.013  23.094  1.00  0.00    -0.006 C 
ATOM     10  C   UNL A   1      34.688  24.320  24.744  1.00  0.00     0.047 C 
ATOM     11  C   UNL A   1      33.777  22.924  23.038  1.00  0.00    -0.016 C 
BRANCH   8  12
ATOM     12  N   UNL A   1      33.741  26.247  23.468  1.00  0.00    -0.348 N 
ATOM     13  C   UNL A   1      33.793  27.528  23.928  1.00  0.00     0.243 C 
ATOM     14  O   UNL A   1      34.156  28.391  23.122  1.00  0.00    -0.273 OA
ATOM     15  H   UNL A   1      33.937  26.156  22.507  1.00  0.00     0.164 HD
BRANCH  13  16
ATOM     16  C   UNL A   1      33.613  27.901  25.409  1.00  0.00     0.182 C 
ATOM     17  O   UNL A   1      33.821  30.969  27.180  1.00  0.00    -0.262 OA
ATOM     18  C   UNL A   1      33.449  29.917  26.702  1.00  0.00     0.279 C 
ATOM     19  N   UNL A   1      34.167  29.164  25.823  1.00  0.00    -0.334 N 
ATOM     20  S   UNL A   1      31.912  29.160  27.026  1.00  0.00    -0.062 SA
ATOM     21  H   UNL A   1      35.037  29.474  25.483  1.00  0.00     0.165 HD
ATOM     22  C   UNL A   1      32.136  27.860  25.782  1.00  0.00     0.115 C 
ENDBRANCH  13  16
ENDBRANCH   8  12
ENDBRANCH   4   7
ENDBRANCH   2   3
ENDBRANCH   1   2
BRANCH   1  23
ATOM     23  C   UNL A   1      39.177  20.114  25.809  1.00  0.00     0.118 C 
BRANCH  23  24
ATOM     24  N   UNL A   1      40.248  19.130  25.881  1.00  0.00    -0.352 N 
ATOM     25  C   UNL A   1      41.594  19.285  26.101  1.00  0.00     0.251 C 
ATOM     26  H   UNL A   1      39.958  18.198  25.749  1.00  0.00     0.163 HD
ATOM     27  O   UNL A   1      42.348  18.332  25.926  1.00  0.00    -0.269 OA
BRANCH  25  28
ATOM     28  C   UNL A   1      42.150  20.587  26.529  1.00  0.00     0.039 A 
ATOM     29  C   UNL A   1      42.671  21.449  25.559  1.00  0.00     0.014 A 
ATOM     30  C   UNL A   1      42.203  20.949  27.878  1.00  0.00     0.014 A 
ATOM     31  C   UNL A   1      43.172  22.699  25.931  1.00  0.00     0.010 A 
ATOM     32  C   UNL A   1      42.632  22.223  28.240  1.00  0.00     0.010 A 
ATOM     33  C   UNL A   1      43.120  23.113  27.271  1.00  0.00    -0.014 A 
BRANCH  33  34
ATOM     34  C   UNL A   1      43.558  24.472  27.680  1.00  0.00     0.031 A 
ATOM     35  C   UNL A   1      42.543  25.525  28.030  1.00  0.00     0.074 A 
ATOM     36  C   UNL A   1      44.870  24.781  27.664  1.00  0.00     0.049 A 
ATOM     37  N   UNL A   1      42.725  26.792  28.309  1.00  0.00    -0.248 NA
ATOM     38  C   UNL A   1      41.134  25.104  28.042  1.00  0.00     0.031 C 
ATOM     39  C   UNL A   1      45.951  23.860  27.306  1.00  0.00     0.029 A 
ATOM     40  N   UNL A   1      45.517  25.960  27.939  1.00  0.00    -0.354 N 
ATOM     41  C   UNL A   1      41.457  27.319  28.512  1.00  0.00     0.074 A 
ATOM     42  C   UNL A   1      40.512  26.249  28.276  1.00  0.00     0.031 C 
ATOM     43  C   UNL A   1      47.125  24.503  27.401  1.00  0.00     0.029 A 
ATOM     44  C   UNL A   1      46.879  25.891  27.780  1.00  0.00     0.049 A 
ATOM     45  H   UNL A   1      45.048  26.779  28.222  1.00  0.00     0.167 HD
ATOM     46  C   UNL A   1      41.114  28.577  28.882  1.00  0.00     0.037 A 
ATOM     47  C   UNL A   1      47.824  26.842  27.911  1.00  0.00     0.037 A 
ATOM     48  C   UNL A   1      42.058  29.632  29.139  1.00  0.00     0.049 A 
ATOM     49  C   UNL A   1      47.414  28.237  28.302  1.00  0.00     0.074 A 
ATOM     50  C   UNL A   1      41.813  30.922  29.576  1.00  0.00     0.029 A 
ATOM     51  N   UNL A   1      43.432  29.519  28.977  1.00  0.00    -0.354 N 
ATOM     52  N   UNL A   1      46.218  28.708  28.551  1.00  0.00    -0.248 NA
ATOM     53  C   UNL A   1      48.488  29.231  28.430  1.00  0.00     0.031 C 
ATOM     54  C   UNL A   1      43.033  31.605  29.634  1.00  0.00     0.029 A 
ATOM     55  C   UNL A   1      44.043  30.725  29.282  1.00  0.00     0.049 A 
ATOM     56  H   UNL A   1      43.902  28.704  28.689  1.00  0.00     0.167 HD
ATOM     57  C   UNL A   1      46.395  30.042  28.891  1.00  0.00     0.074 A 
ATOM     58  C   UNL A   1      47.819  30.303  28.829  1.00  0.00     0.031 C 
ATOM     59  C   UNL A   1      45.463  30.968  29.224  1.00  0.00     0.037 A 
BRANCH  46  60
ATOM     60  C   UNL A   1      39.652  28.883  29.033  1.00  0.00     0.064 A 
ATOM     61  C   UNL A   1      39.001  28.773  30.271  1.00  0.00     0.173 A 
ATOM     62  C   UNL A   1      38.900  29.332  27.936  1.00  0.00     0.173 A 
ATOM     63  F   UNL A   1      39.671  28.340  31.350  1.00  0.00    -0.203 F 
ATOM     64  C   UNL A   1      37.647  29.073  30.400  1.00  0.00     0.198 A 
ATOM     65  C   UNL A   1      37.554  29.660  28.075  1.00  0.00     0.198 A 
ATOM     66  F   UNL A   1      39.474  29.461  26.730  1.00  0.00    -0.203 F 
ATOM     67  F   UNL A   1      37.037  28.914  31.583  1.00  0.00    -0.200 F 
ATOM     68  C   UNL A   1      36.927  29.523  29.304  1.00  0.00     0.200 A 
ATOM     69  F   UNL A   1      36.862  30.108  27.018  1.00  0.00    -0.200 F 
ATOM     70  F   UNL A   1      35.626  29.819  29.431  1.00  0.00    -0.200 F 
ENDBRANCH  46  60
BRANCH  47  71
ATOM     71  C   UNL A   1      49.253  26.505  27.683  1.00  0.00     0.064 A 
ATOM     72  C   UNL A   1      50.129  26.320  28.763  1.00  0.00     0.173 A 
ATOM     73  C   UNL A   1      49.776  26.365  26.390  1.00  0.00     0.173 A 
ATOM     74  F   UNL A   1      49.681  26.467  30.019  1.00  0.00    -0.203 F 
ATOM     75  C   UNL A   1      51.474  26.028  28.557  1.00  0.00     0.198 A 
ATOM     76  C   UNL A   1      51.116  26.043  26.185  1.00  0.00     0.198 A 
ATOM     77  F   UNL A   1      48.980  26.527  25.322  1.00  0.00    -0.203 F 
ATOM     78  F   UNL A   1      52.298  25.901  29.606  1.00  0.00    -0.200 F 
ATOM     79  C   UNL A   1      51.966  25.883  27.269  1.00  0.00     0.200 A 
ATOM     80  F   UNL A   1      51.584  25.890  24.938  1.00  0.00    -0.200 F 
ATOM     81  F   UNL A   1      53.260  25.597  27.072  1.00  0.00    -0.200 F 
ENDBRANCH  47  71
BRANCH  59  82
ATOM     82  C   UNL A   1      45.951  32.341  29.581  1.00  0.00     0.064 A 
ATOM     83  C   UNL A   1      46.296  32.681  30.897  1.00  0.00     0.173 A 
ATOM     84  C   UNL A   1      46.122  33.314  28.584  1.00  0.00     0.173 A 
ATOM     85  F   UNL A   1      46.136  31.791  31.888  1.00  0.00    -0.203 F 
ATOM     86  C   UNL A   1      46.775  33.952  31.205  1.00  0.00     0.198 A 
ATOM     87  C   UNL A   1      46.629  34.574  28.892  1.00  0.00     0.198 A 
ATOM     88  F   UNL A   1      45.812  33.038  27.309  1.00  0.00    -0.203 F 
ATOM     89  F   UNL A   1      47.057  34.269  32.477  1.00  0.00    -0.200 F 
ATOM     90  C   UNL A   1      46.949  34.893  30.202  1.00  0.00     0.200 A 
ATOM     91  F   UNL A   1      46.809  35.478  27.919  1.00  0.00    -0.200 F 
ATOM     92  F   UNL A   1      47.419  36.113  30.500  1.00  0.00    -0.200 F 
ENDBRANCH  59  82
ENDBRANCH  33  34
ENDBRANCH  25  28
ENDBRANCH  23  24
ENDBRANCH   1  23
TORSDOF 12
ENDMDL
MODEL 3
REMARK VINA RESULT:     -12.4      4.724     10.374
REMARK SMILES O=C1N[C@H](C(=O)N[C@H]2C=C[C@@H](C(=O)NCCCNC(=O)c3ccc(-c4c5nc(c(-c6c(F)c(F)c(F)c(F)c6F)c6ccc([nH]6)c(-c6c(F)c(F)c(F)c(F)c6F)c6nc(c(-c7c(F)c(F)c(F)c(F)c7F)c7ccc4[nH]7)C=C6)C=C5)cc3)C2)CS1
REMARK SMILES IDX 16 1 15 2 14 3 12 4 13 5 11 7 8 8 9 9 84 10 10 11 7 12 5 13
REMARK SMILES IDX 6 14 4 16 1 17 2 18 3 19 86 20 85 22 17 23 18 24 19 25 20 27
REMARK SMILES IDX 21 28 22 29 83 30 23 31 82 32 24 33 25 34 26 35 76 36 27 37
REMARK SMILES IDX 81 38 75 39 77 40 28 41 80 42 74 43 73 44 29 46 61 47 41 48
REMARK SMILES IDX 60 49 42 50 45 51 59 52 78 53 43 54 44 55 58 57 79 58 46 59
REMARK SMILES IDX 30 60 31 61 39 62 32 63 33 64 37 65 40 66 34 67 35 68 38 69
REMARK SMILES IDX 36 70 62 71 63 72 71 73 64 74 65 75 69 76 72 77 66 78 67 79
REMARK SMILES IDX 70 80 68 81 47 82 48 83 56 84 49 85 50 86 54 87 57 88 51 89
REMARK SMILES IDX 52 90 55 91 53 92
REMARK H PARENT 14 6 7 15 3 21 18 26 77 45 45 56
REMARK Flexibility Score: inf
ROOT
ATOM      1  C   UNL A   1      34.128  33.898  28.343  1.00  0.00     0.042 C 
ENDROOT
BRANCH   1   2
ATOM      2  C   UNL A   1      34.406  34.595  29.669  1.00  0.00     0.117 C 
BRANCH   2   3
ATOM      3  N   UNL A   1      33.808  33.913  30.801  1.00  0.00    -0.356 N 
ATOM      4  C   UNL A   1      34.322  33.540  32.003  1.00  0.00     0.227 C 
ATOM      5  O   UNL A   1      33.528  33.065  32.822  1.00  0.00    -0.274 OA
ATOM      6  H   UNL A   1      32.860  33.678  30.677  1.00  0.00     0.163 HD
BRANCH   4   7
ATOM      7  C   UNL A   1      35.815  33.616  32.346  1.00  0.00     0.103 C 
ATOM      8  C   UNL A   1      37.424  31.908  33.129  1.00  0.00     0.106 C 
ATOM      9  C   UNL A   1      37.665  32.323  31.709  1.00  0.00    -0.006 C 
ATOM     10  C   UNL A   1      36.189  32.724  33.531  1.00  0.00     0.047 C 
ATOM     11  C   UNL A   1      36.781  33.229  31.277  1.00  0.00    -0.016 C 
BRANCH   8  12
ATOM     12  N   UNL A   1      37.197  30.473  33.136  1.00  0.00    -0.348 N 
ATOM     13  C   UNL A   1      38.052  29.422  33.274  1.00  0.00     0.243 C 
ATOM     14  O   UNL A   1      37.543  28.297  33.323  1.00  0.00    -0.273 OA
ATOM     15  H   UNL A   1      36.255  30.213  33.022  1.00  0.00     0.164 HD
BRANCH  13  16
ATOM     16  C   UNL A   1      39.555  29.587  33.556  1.00  0.00     0.182 C 
ATOM     17  O   UNL A   1      41.496  29.453  36.524  1.00  0.00    -0.262 OA
ATOM     18  C   UNL A   1      41.036  29.262  35.417  1.00  0.00     0.279 C 
ATOM     19  N   UNL A   1      39.924  29.869  34.919  1.00  0.00    -0.334 N 
ATOM     20  S   UNL A   1      41.694  28.155  34.241  1.00  0.00    -0.062 SA
ATOM     21  H   UNL A   1      39.390  30.482  35.474  1.00  0.00     0.165 HD
ATOM     22  C   UNL A   1      40.315  28.354  33.081  1.00  0.00     0.115 C 
ENDBRANCH  13  16
ENDBRANCH   8  12
ENDBRANCH   4   7
ENDBRANCH   2   3
ENDBRANCH   1   2
BRANCH   1  23
ATOM     23  C   UNL A   1      35.087  32.756  28.020  1.00  0.00     0.118 C 
BRANCH  23  24
ATOM     24  N   UNL A   1      34.404  31.485  27.822  1.00  0.00    -0.352 N 
ATOM     25  C   UNL A   1      34.894  30.204  27.771  1.00  0.00     0.251 C 
ATOM     26  H   UNL A   1      33.429  31.556  27.705  1.00  0.00     0.163 HD
ATOM     27  O   UNL A   1      34.161  29.291  27.398  1.00  0.00    -0.269 OA
BRANCH  25  28
ATOM     28  C   UNL A   1      36.295  29.908  28.141  1.00  0.00     0.039 A 
ATOM     29  C   UNL A   1      36.567  29.432  29.428  1.00  0.00     0.014 A 
ATOM     30  C   UNL A   1      37.347  30.137  27.251  1.00  0.00     0.014 A 
ATOM     31  C   UNL A   1      37.877  29.114  29.794  1.00  0.00     0.010 A 
ATOM     32  C   UNL A   1      38.642  29.748  27.588  1.00  0.00     0.010 A 
ATOM     33  C   UNL A   1      38.920  29.231  28.862  1.00  0.00    -0.014 A 
BRANCH  33  34
ATOM     34  C   UNL A   1      40.306  28.810  29.193  1.00  0.00     0.031 A 
ATOM     35  C   UNL A   1      41.219  29.733  29.953  1.00  0.00     0.074 A 
ATOM     36  C   UNL A   1      40.768  27.627  28.742  1.00  0.00     0.049 A 
ATOM     37  N   UNL A   1      42.488  29.589  30.245  1.00  0.00    -0.248 NA
ATOM     38  C   UNL A   1      40.635  30.997  30.425  1.00  0.00     0.031 C 
ATOM     39  C   UNL A   1      39.995  26.660  27.962  1.00  0.00     0.029 A 
ATOM     40  N   UNL A   1      42.005  27.043  28.861  1.00  0.00    -0.354 N 
ATOM     41  C   UNL A   1      42.854  30.746  30.917  1.00  0.00     0.074 A 
ATOM     42  C   UNL A   1      41.689  31.604  30.947  1.00  0.00     0.031 C 
ATOM     43  C   UNL A   1      40.768  25.598  27.687  1.00  0.00     0.029 A 
ATOM     44  C   UNL A   1      42.103  25.827  28.232  1.00  0.00     0.049 A 
ATOM     45  H   UNL A   1      42.752  27.459  29.350  1.00  0.00     0.167 HD
ATOM     46  C   UNL A   1      44.049  31.056  31.477  1.00  0.00     0.037 A 
ATOM     47  C   UNL A   1      43.153  24.996  28.094  1.00  0.00     0.037 A 
ATOM     48  C   UNL A   1      45.198  30.191  31.465  1.00  0.00     0.049 A 
ATOM     49  C   UNL A   1      44.475  25.374  28.707  1.00  0.00     0.074 A 
ATOM     50  C   UNL A   1      46.435  30.389  32.056  1.00  0.00     0.029 A 
ATOM     51  N   UNL A   1      45.255  28.961  30.826  1.00  0.00    -0.354 N 
ATOM     52  N   UNL A   1      44.793  26.444  29.393  1.00  0.00    -0.248 NA
ATOM     53  C   UNL A   1      45.584  24.428  28.525  1.00  0.00     0.031 C 
ATOM     54  C   UNL A   1      47.254  29.302  31.734  1.00  0.00     0.029 A 
ATOM     55  C   UNL A   1      46.513  28.402  30.987  1.00  0.00     0.049 A 
ATOM     56  H   UNL A   1      44.511  28.546  30.331  1.00  0.00     0.167 HD
ATOM     57  C   UNL A   1      46.126  26.288  29.749  1.00  0.00     0.074 A 
ATOM     58  C   UNL A   1      46.555  25.013  29.213  1.00  0.00     0.031 C 
ATOM     59  C   UNL A   1      46.923  27.126  30.455  1.00  0.00     0.037 A 
BRANCH  46  60
ATOM     60  C   UNL A   1      44.175  32.392  32.152  1.00  0.00     0.064 A 
ATOM     61  C   UNL A   1      44.597  33.533  31.452  1.00  0.00     0.173 A 
ATOM     62  C   UNL A   1      43.831  32.543  33.504  1.00  0.00     0.173 A 
ATOM     63  F   UNL A   1      44.948  33.441  30.160  1.00  0.00    -0.203 F 
ATOM     64  C   UNL A   1      44.697  34.768  32.087  1.00  0.00     0.198 A 
ATOM     65  C   UNL A   1      43.903  33.786  34.127  1.00  0.00     0.198 A 
ATOM     66  F   UNL A   1      43.415  31.486  34.217  1.00  0.00    -0.203 F 
ATOM     67  F   UNL A   1      45.148  35.834  31.410  1.00  0.00    -0.200 F 
ATOM     68  C   UNL A   1      44.342  34.895  33.421  1.00  0.00     0.200 A 
ATOM     69  F   UNL A   1      43.546  33.911  35.413  1.00  0.00    -0.200 F 
ATOM     70  F   UNL A   1      44.431  36.086  34.029  1.00  0.00    -0.200 F 
ENDBRANCH  46  60
BRANCH  47  71
ATOM     71  C   UNL A   1      42.996  23.715  27.357  1.00  0.00     0.064 A 
ATOM     72  C   UNL A   1      42.432  22.592  27.979  1.00  0.00     0.173 A 
ATOM     73  C   UNL A   1      43.405  23.583  26.022  1.00  0.00     0.173 A 
ATOM     74  F   UNL A   1      42.046  22.663  29.262  1.00  0.00    -0.203 F 
ATOM     75  C   UNL A   1      42.303  21.382  27.302  1.00  0.00     0.198 A 
ATOM     76  C   UNL A   1      43.248  22.381  25.336  1.00  0.00     0.198 A 
ATOM     77  F   UNL A   1      43.947  24.628  25.379  1.00  0.00    -0.203 F 
ATOM     78  F   UNL A   1      41.803  20.313  27.936  1.00  0.00    -0.200 F 
ATOM     79  C   UNL A   1      42.705  21.279  25.979  1.00  0.00     0.200 A 
ATOM     80  F   UNL A   1      43.626  22.289  24.053  1.00  0.00    -0.200 F 
ATOM     81  F   UNL A   1      42.576  20.116  25.327  1.00  0.00    -0.200 F 
ENDBRANCH  47  71
BRANCH  59  82
ATOM     82  C   UNL A   1      48.331  26.680  30.720  1.00  0.00     0.064 A 
ATOM     83  C   UNL A   1      48.656  25.894  31.835  1.00  0.00     0.173 A 
ATOM     84  C   UNL A   1      49.359  27.004  29.820  1.00  0.00     0.173 A 
ATOM     85  F   UNL A   1      47.712  25.572  32.732  1.00  0.00    -0.203 F 
ATOM     86  C   UNL A   1      49.963  25.465  32.049  1.00  0.00     0.198 A 
ATOM     87  C   UNL A   1      50.658  26.547  30.024  1.00  0.00     0.198 A 
ATOM     88  F   UNL A   1      49.099  27.748  28.736  1.00  0.00    -0.203 F 
ATOM     89  F   UNL A   1      50.260  24.750  33.145  1.00  0.00    -0.200 F 
ATOM     90  C   UNL A   1      50.960  25.784  31.140  1.00  0.00     0.200 A 
ATOM     91  F   UNL A   1      51.617  26.846  29.136  1.00  0.00    -0.200 F 
ATOM     92  F   UNL A   1      52.216  25.361  31.345  1.00  0.00    -0.200 F 
ENDBRANCH  59  82
ENDBRANCH  33  34
ENDBRANCH  25  28
ENDBRANCH  23  24
ENDBRANCH   1  23
TORSDOF 12
ENDMDL
