MODEL 1
REMARK VINA RESULT:     -12.9      0.000      0.000
REMARK SMILES O=C(CCC(=O)N1N=C(c2ccc(F)cc2)C[C@@H]1c1ccc2nccnc2c1)NCCCNC(=O)c1ccc(-c2c3nc(c(-c4c(F)c(F)c(F)c(F)c4F)c4ccc([nH]4)c(-c4c(F)c(F)c(F)c(F)c4F)c4nc(c(-c5c(F)c(F)c(F)c(F)c5F)c5ccc2[nH]5)C=C4)C=C3)cc1
REMARK SMILES IDX 30 1 29 2 1 3 2 4 3 6 4 7 5 8 6 9 7 10 8 11 18 12 9 13 17 14
REMARK SMILES IDX 19 15 20 16 28 17 21 18 27 19 22 20 26 21 23 22 25 23 24 24
REMARK SMILES IDX 10 25 11 26 16 27 12 28 15 29 13 30 14 31 31 32 32 33 33 34
REMARK SMILES IDX 34 35 35 37 36 38 37 39 98 40 38 41 97 42 39 43 40 44 41 45
REMARK SMILES IDX 91 46 42 47 96 48 90 49 92 50 43 51 95 52 89 53 88 54 44 56
REMARK SMILES IDX 76 57 56 58 75 59 57 60 60 61 74 62 93 63 58 64 59 65 73 67
REMARK SMILES IDX 94 68 61 69 45 70 46 71 54 72 47 73 48 74 52 75 55 76 49 77
REMARK SMILES IDX 50 78 53 79 51 80 77 81 78 82 86 83 79 84 80 85 84 86 87 87
REMARK SMILES IDX 81 88 82 89 85 90 83 91 62 92 63 93 71 94 64 95 65 96 69 97
REMARK SMILES IDX 72 98 66 99 67 100 70 101 68 102
REMARK H PARENT 29 5 33 36 92 55 60 66
REMARK Flexibility Score: inf
ROOT
ATOM      1  C   UNL A   1      31.034  27.506  26.061  1.00  0.00     0.117 C 
ENDROOT
BRANCH   1   2
ATOM      2  N   UNL A   1      31.417  26.306  26.830  1.00  0.00    -0.356 N 
ATOM      3  O   UNL A   1      29.960  24.855  25.811  1.00  0.00    -0.275 OA
ATOM      4  C   UNL A   1      30.972  25.032  26.491  1.00  0.00     0.220 C 
ATOM      5  H   UNL A   1      32.009  26.410  27.610  1.00  0.00     0.163 HD
BRANCH   4   6
ATOM      6  C   UNL A   1      31.884  23.865  26.918  1.00  0.00     0.110 C 
BRANCH   6   7
ATOM      7  C   UNL A   1      31.421  22.532  26.295  1.00  0.00     0.112 C 
BRANCH   7   8
ATOM      8  C   UNL A   1      32.354  21.624  25.458  1.00  0.00     0.243 C 
ATOM      9  O   UNL A   1      31.891  20.591  24.962  1.00  0.00    -0.273 OA
BRANCH   8  10
ATOM     10  N   UNL A   1      33.606  22.099  25.097  1.00  0.00    -0.225 N 
ATOM     11  N   UNL A   1      34.733  21.513  25.710  1.00  0.00    -0.174 NA
ATOM     12  C   UNL A   1      33.947  22.701  23.829  1.00  0.00     0.147 C 
ATOM     13  C   UNL A   1      35.752  21.777  24.949  1.00  0.00     0.071 C 
ATOM     14  C   UNL A   1      35.446  22.588  23.735  1.00  0.00     0.091 C 
BRANCH  12  15
ATOM     15  C   UNL A   1      33.356  24.058  23.457  1.00  0.00    -0.021 A 
ATOM     16  C   UNL A   1      32.043  24.094  22.971  1.00  0.00     0.008 A 
ATOM     17  C   UNL A   1      33.982  25.300  23.575  1.00  0.00     0.036 A 
ATOM     18  C   UNL A   1      31.366  25.245  22.614  1.00  0.00     0.031 A 
ATOM     19  C   UNL A   1      33.322  26.498  23.227  1.00  0.00     0.089 A 
ATOM     20  C   UNL A   1      31.987  26.450  22.738  1.00  0.00     0.089 A 
ATOM     21  N   UNL A   1      33.925  27.696  23.348  1.00  0.00    -0.253 NA
ATOM     22  N   UNL A   1      31.276  27.528  22.383  1.00  0.00    -0.253 NA
ATOM     23  C   UNL A   1      33.197  28.787  22.994  1.00  0.00     0.132 A 
ATOM     24  C   UNL A   1      31.902  28.707  22.522  1.00  0.00     0.132 A 
ENDBRANCH  12  15
BRANCH  13  25
ATOM     25  C   UNL A   1      37.142  21.291  25.083  1.00  0.00    -0.002 A 
ATOM     26  C   UNL A   1      37.391  19.934  24.833  1.00  0.00     0.013 A 
ATOM     27  C   UNL A   1      38.124  22.079  25.697  1.00  0.00     0.013 A 
ATOM     28  C   UNL A   1      38.608  19.361  25.203  1.00  0.00     0.040 A 
ATOM     29  C   UNL A   1      39.344  21.496  26.071  1.00  0.00     0.040 A 
ATOM     30  C   UNL A   1      39.571  20.143  25.828  1.00  0.00     0.123 A 
ATOM     31  F   UNL A   1      40.721  19.581  26.222  1.00  0.00    -0.207 F 
ENDBRANCH  13  25
ENDBRANCH   8  10
ENDBRANCH   7   8
ENDBRANCH   6   7
ENDBRANCH   4   6
ENDBRANCH   1   2
BRANCH   1  32
ATOM     32  C   UNL A   1      31.895  28.813  26.193  1.00  0.00     0.042 C 
BRANCH  32  33
ATOM     33  C   UNL A   1      33.057  29.057  27.221  1.00  0.00     0.118 C 
BRANCH  33  34
ATOM     34  N   UNL A   1      33.279  30.405  27.700  1.00  0.00    -0.352 N 
ATOM     35  C   UNL A   1      34.400  31.004  28.252  1.00  0.00     0.251 C 
ATOM     36  H   UNL A   1      32.498  30.999  27.622  1.00  0.00     0.163 HD
ATOM     37  O   UNL A   1      34.279  32.182  28.592  1.00  0.00    -0.269 OA
BRANCH  35  38
ATOM     38  C   UNL A   1      35.720  30.337  28.526  1.00  0.00     0.039 A 
ATOM     39  C   UNL A   1      36.597  30.249  27.429  1.00  0.00     0.014 A 
ATOM     40  C   UNL A   1      36.133  29.744  29.726  1.00  0.00     0.014 A 
ATOM     41  C   UNL A   1      37.880  29.694  27.551  1.00  0.00     0.010 A 
ATOM     42  C   UNL A   1      37.442  29.210  29.861  1.00  0.00     0.010 A 
ATOM     43  C   UNL A   1      38.350  29.231  28.790  1.00  0.00    -0.014 A 
BRANCH  43  44
ATOM     44  C   UNL A   1      39.829  29.043  28.956  1.00  0.00     0.031 A 
ATOM     45  C   UNL A   1      40.589  27.848  28.452  1.00  0.00     0.074 A 
ATOM     46  C   UNL A   1      40.512  30.055  29.536  1.00  0.00     0.049 A 
ATOM     47  N   UNL A   1      41.888  27.667  28.381  1.00  0.00    -0.248 NA
ATOM     48  C   UNL A   1      39.802  26.703  27.980  1.00  0.00     0.031 C 
ATOM     49  C   UNL A   1      39.890  31.254  30.101  1.00  0.00     0.029 A 
ATOM     50  N   UNL A   1      41.859  30.273  29.711  1.00  0.00    -0.354 N 
ATOM     51  C   UNL A   1      42.078  26.400  27.841  1.00  0.00     0.074 A 
ATOM     52  C   UNL A   1      40.754  25.837  27.646  1.00  0.00     0.031 C 
ATOM     53  C   UNL A   1      40.844  32.108  30.492  1.00  0.00     0.029 A 
ATOM     54  C   UNL A   1      42.150  31.507  30.246  1.00  0.00     0.049 A 
ATOM     55  H   UNL A   1      42.548  29.610  29.476  1.00  0.00     0.167 HD
ATOM     56  C   UNL A   1      43.243  25.774  27.528  1.00  0.00     0.037 A 
ATOM     57  C   UNL A   1      43.330  32.108  30.498  1.00  0.00     0.037 A 
ATOM     58  C   UNL A   1      44.558  26.337  27.742  1.00  0.00     0.049 A 
ATOM     59  C   UNL A   1      44.603  31.394  30.139  1.00  0.00     0.074 A 
ATOM     60  C   UNL A   1      45.795  25.790  27.432  1.00  0.00     0.029 A 
ATOM     61  N   UNL A   1      44.812  27.570  28.327  1.00  0.00    -0.354 N 
ATOM     62  N   UNL A   1      44.759  30.225  29.568  1.00  0.00    -0.248 NA
ATOM     63  C   UNL A   1      45.861  32.084  30.452  1.00  0.00     0.031 C 
ATOM     64  C   UNL A   1      46.792  26.664  27.881  1.00  0.00     0.029 A 
ATOM     65  C   UNL A   1      46.181  27.787  28.413  1.00  0.00     0.049 A 
ATOM     66  H   UNL A   1      44.122  28.200  28.637  1.00  0.00     0.167 HD
ATOM     67  C   UNL A   1      46.129  30.041  29.444  1.00  0.00     0.074 A 
ATOM     68  C   UNL A   1      46.758  31.238  29.965  1.00  0.00     0.031 C 
ATOM     69  C   UNL A   1      46.802  28.972  28.952  1.00  0.00     0.037 A 
BRANCH  56  70
ATOM     70  C   UNL A   1      43.169  24.400  26.913  1.00  0.00     0.064 A 
ATOM     71  C   UNL A   1      42.879  23.272  27.699  1.00  0.00     0.173 A 
ATOM     72  C   UNL A   1      43.475  24.186  25.560  1.00  0.00     0.173 A 
ATOM     73  F   UNL A   1      42.598  23.412  29.003  1.00  0.00    -0.203 F 
ATOM     74  C   UNL A   1      42.904  21.988  27.157  1.00  0.00     0.198 A 
ATOM     75  C   UNL A   1      43.471  22.902  25.014  1.00  0.00     0.198 A 
ATOM     76  F   UNL A   1      43.764  25.224  24.761  1.00  0.00    -0.203 F 
ATOM     77  F   UNL A   1      42.655  20.927  27.938  1.00  0.00    -0.200 F 
ATOM     78  C   UNL A   1      43.193  21.804  25.814  1.00  0.00     0.200 A 
ATOM     79  F   UNL A   1      43.733  22.730  23.711  1.00  0.00    -0.200 F 
ATOM     80  F   UNL A   1      43.204  20.570  25.291  1.00  0.00    -0.200 F 
ENDBRANCH  56  70
BRANCH  57  81
ATOM     81  C   UNL A   1      43.350  33.477  31.084  1.00  0.00     0.064 A 
ATOM     82  C   UNL A   1      43.352  34.618  30.268  1.00  0.00     0.173 A 
ATOM     83  C   UNL A   1      43.406  33.672  32.472  1.00  0.00     0.173 A 
ATOM     84  F   UNL A   1      43.305  34.489  28.934  1.00  0.00    -0.203 F 
ATOM     85  C   UNL A   1      43.438  35.897  30.814  1.00  0.00     0.198 A 
ATOM     86  C   UNL A   1      43.458  34.954  33.019  1.00  0.00     0.198 A 
ATOM     87  F   UNL A   1      43.388  32.616  33.299  1.00  0.00    -0.203 F 
ATOM     88  F   UNL A   1      43.488  36.966  30.007  1.00  0.00    -0.200 F 
ATOM     89  C   UNL A   1      43.486  36.065  32.189  1.00  0.00     0.200 A 
ATOM     90  F   UNL A   1      43.477  35.112  34.349  1.00  0.00    -0.200 F 
ATOM     91  F   UNL A   1      43.558  37.295  32.714  1.00  0.00    -0.200 F 
ENDBRANCH  57  81
BRANCH  69  92
ATOM     92  C   UNL A   1      48.305  29.047  28.961  1.00  0.00     0.064 A 
ATOM     93  C   UNL A   1      49.001  29.592  27.871  1.00  0.00     0.173 A 
ATOM     94  C   UNL A   1      49.058  28.553  30.037  1.00  0.00     0.173 A 
ATOM     95  F   UNL A   1      48.333  30.073  26.812  1.00  0.00    -0.203 F 
ATOM     96  C   UNL A   1      50.393  29.637  27.858  1.00  0.00     0.198 A 
ATOM     97  C   UNL A   1      50.449  28.633  30.036  1.00  0.00     0.198 A 
ATOM     98  F   UNL A   1      48.443  28.034  31.110  1.00  0.00    -0.203 F 
ATOM     99  F   UNL A   1      51.036  30.138  26.795  1.00  0.00    -0.200 F 
ATOM    100  C   UNL A   1      51.115  29.168  28.945  1.00  0.00     0.200 A 
ATOM    101  F   UNL A   1      51.142  28.209  31.103  1.00  0.00    -0.200 F 
ATOM    102  F   UNL A   1      52.453  29.238  28.943  1.00  0.00    -0.200 F 
ENDBRANCH  69  92
ENDBRANCH  43  44
ENDBRANCH  35  38
ENDBRANCH  33  34
ENDBRANCH  32  33
ENDBRANCH   1  32
TORSDOF 15
ENDMDL
MODEL 2
REMARK VINA RESULT:     -12.5      1.289      7.178
REMARK SMILES O=C(CCC(=O)N1N=C(c2ccc(F)cc2)C[C@@H]1c1ccc2nccnc2c1)NCCCNC(=O)c1ccc(-c2c3nc(c(-c4c(F)c(F)c(F)c(F)c4F)c4ccc([nH]4)c(-c4c(F)c(F)c(F)c(F)c4F)c4nc(c(-c5c(F)c(F)c(F)c(F)c5F)c5ccc2[nH]5)C=C4)C=C3)cc1
REMARK SMILES IDX 30 1 29 2 1 3 2 4 3 6 4 7 5 8 6 9 7 10 8 11 18 12 9 13 17 14
REMARK SMILES IDX 19 15 20 16 28 17 21 18 27 19 22 20 26 21 23 22 25 23 24 24
REMARK SMILES IDX 10 25 11 26 16 27 12 28 15 29 13 30 14 31 31 32 32 33 33 34
REMARK SMILES IDX 34 35 35 37 36 38 37 39 98 40 38 41 97 42 39 43 40 44 41 45
REMARK SMILES IDX 91 46 42 47 96 48 90 49 92 50 43 51 95 52 89 53 88 54 44 56
REMARK SMILES IDX 76 57 56 58 75 59 57 60 60 61 74 62 93 63 58 64 59 65 73 67
REMARK SMILES IDX 94 68 61 69 45 70 46 71 54 72 47 73 48 74 52 75 55 76 49 77
REMARK SMILES IDX 50 78 53 79 51 80 77 81 78 82 86 83 79 84 80 85 84 86 87 87
REMARK SMILES IDX 81 88 82 89 85 90 83 91 62 92 63 93 71 94 64 95 65 96 69 97
REMARK SMILES IDX 72 98 66 99 67 100 70 101 68 102
REMARK H PARENT 29 5 33 36 92 55 60 66
REMARK Flexibility Score: inf
ROOT
ATOM      1  C   UNL A   1      31.352  27.852  26.160  1.00  0.00     0.117 C 
ENDROOT
BRANCH   1   2
ATOM      2  N   UNL A   1      31.581  26.593  26.894  1.00  0.00    -0.356 N 
ATOM      3  O   UNL A   1      30.099  25.310  25.699  1.00  0.00    -0.275 OA
ATOM      4  C   UNL A   1      31.066  25.375  26.460  1.00  0.00     0.220 C 
ATOM      5  H   UNL A   1      32.116  26.614  27.720  1.00  0.00     0.163 HD
BRANCH   4   6
ATOM      6  C   UNL A   1      31.849  24.120  26.894  1.00  0.00     0.110 C 
BRANCH   6   7
ATOM      7  C   UNL A   1      31.284  22.847  26.233  1.00  0.00     0.112 C 
BRANCH   7   8
ATOM      8  C   UNL A   1      32.157  21.855  25.428  1.00  0.00     0.243 C 
ATOM      9  O   UNL A   1      31.636  20.826  24.985  1.00  0.00    -0.273 OA
BRANCH   8  10
ATOM     10  N   UNL A   1      33.427  22.250  25.031  1.00  0.00    -0.225 N 
ATOM     11  N   UNL A   1      34.531  21.593  25.614  1.00  0.00    -0.174 NA
ATOM     12  C   UNL A   1      33.771  22.828  23.753  1.00  0.00     0.147 C 
ATOM     13  C   UNL A   1      35.544  21.791  24.825  1.00  0.00     0.071 C 
ATOM     14  C   UNL A   1      35.256  22.618  23.618  1.00  0.00     0.091 C 
BRANCH  12  15
ATOM     15  C   UNL A   1      33.258  24.219  23.394  1.00  0.00    -0.021 A 
ATOM     16  C   UNL A   1      31.952  24.332  22.899  1.00  0.00     0.008 A 
ATOM     17  C   UNL A   1      33.950  25.423  23.533  1.00  0.00     0.036 A 
ATOM     18  C   UNL A   1      31.342  25.524  22.552  1.00  0.00     0.031 A 
ATOM     19  C   UNL A   1      33.358  26.660  23.195  1.00  0.00     0.089 A 
ATOM     20  C   UNL A   1      32.027  26.691  22.696  1.00  0.00     0.089 A 
ATOM     21  N   UNL A   1      34.025  27.822  23.335  1.00  0.00    -0.253 NA
ATOM     22  N   UNL A   1      31.378  27.811  22.350  1.00  0.00    -0.253 NA
ATOM     23  C   UNL A   1      33.361  28.955  22.990  1.00  0.00     0.132 A 
ATOM     24  C   UNL A   1      32.067  28.952  22.508  1.00  0.00     0.132 A 
ENDBRANCH  12  15
BRANCH  13  25
ATOM     25  C   UNL A   1      36.902  21.217  24.922  1.00  0.00    -0.002 A 
ATOM     26  C   UNL A   1      37.057  19.848  24.665  1.00  0.00     0.013 A 
ATOM     27  C   UNL A   1      37.949  21.940  25.510  1.00  0.00     0.013 A 
ATOM     28  C   UNL A   1      38.245  19.197  25.003  1.00  0.00     0.040 A 
ATOM     29  C   UNL A   1      39.139  21.279  25.851  1.00  0.00     0.040 A 
ATOM     30  C   UNL A   1      39.272  19.915  25.602  1.00  0.00     0.123 A 
ATOM     31  F   UNL A   1      40.395  19.280  25.965  1.00  0.00    -0.207 F 
ENDBRANCH  13  25
ENDBRANCH   8  10
ENDBRANCH   7   8
ENDBRANCH   6   7
ENDBRANCH   4   6
ENDBRANCH   1   2
BRANCH   1  32
ATOM     32  C   UNL A   1      32.429  28.994  26.235  1.00  0.00     0.042 C 
BRANCH  32  33
ATOM     33  C   UNL A   1      33.600  29.096  27.277  1.00  0.00     0.118 C 
BRANCH  33  34
ATOM     34  N   UNL A   1      33.774  30.342  27.994  1.00  0.00    -0.352 N 
ATOM     35  C   UNL A   1      34.871  30.866  28.658  1.00  0.00     0.251 C 
ATOM     36  H   UNL A   1      32.975  30.916  28.014  1.00  0.00     0.163 HD
ATOM     37  O   UNL A   1      34.710  31.959  29.203  1.00  0.00    -0.269 OA
BRANCH  35  38
ATOM     38  C   UNL A   1      36.211  30.202  28.823  1.00  0.00     0.039 A 
ATOM     39  C   UNL A   1      37.082  30.305  27.723  1.00  0.00     0.014 A 
ATOM     40  C   UNL A   1      36.648  29.445  29.918  1.00  0.00     0.014 A 
ATOM     41  C   UNL A   1      38.380  29.773  27.755  1.00  0.00     0.010 A 
ATOM     42  C   UNL A   1      37.971  28.932  29.967  1.00  0.00     0.010 A 
ATOM     43  C   UNL A   1      38.871  29.141  28.908  1.00  0.00    -0.014 A 
BRANCH  43  44
ATOM     44  C   UNL A   1      40.356  28.970  29.040  1.00  0.00     0.031 A 
ATOM     45  C   UNL A   1      41.249  29.909  29.803  1.00  0.00     0.074 A 
ATOM     46  C   UNL A   1      40.894  27.858  28.491  1.00  0.00     0.049 A 
ATOM     47  N   UNL A   1      42.511  29.761  30.132  1.00  0.00    -0.248 NA
ATOM     48  C   UNL A   1      40.664  31.181  30.242  1.00  0.00     0.031 C 
ATOM     49  C   UNL A   1      40.144  26.886  27.693  1.00  0.00     0.029 A 
ATOM     50  N   UNL A   1      42.162  27.328  28.546  1.00  0.00    -0.354 N 
ATOM     51  C   UNL A   1      42.870  30.908  30.832  1.00  0.00     0.074 A 
ATOM     52  C   UNL A   1      41.699  31.765  30.838  1.00  0.00     0.031 C 
ATOM     53  C   UNL A   1      40.937  25.849  27.396  1.00  0.00     0.029 A 
ATOM     54  C   UNL A   1      42.266  26.094  27.943  1.00  0.00     0.049 A 
ATOM     55  H   UNL A   1      42.920  27.785  28.975  1.00  0.00     0.167 HD
ATOM     56  C   UNL A   1      44.058  31.208  31.421  1.00  0.00     0.037 A 
ATOM     57  C   UNL A   1      43.304  25.239  27.851  1.00  0.00     0.037 A 
ATOM     58  C   UNL A   1      45.224  30.353  31.395  1.00  0.00     0.049 A 
ATOM     59  C   UNL A   1      44.604  25.595  28.515  1.00  0.00     0.074 A 
ATOM     60  C   UNL A   1      46.462  30.560  31.986  1.00  0.00     0.029 A 
ATOM     61  N   UNL A   1      45.305  29.133  30.737  1.00  0.00    -0.354 N 
ATOM     62  N   UNL A   1      44.902  26.653  29.227  1.00  0.00    -0.248 NA
ATOM     63  C   UNL A   1      45.707  24.637  28.367  1.00  0.00     0.031 C 
ATOM     64  C   UNL A   1      47.303  29.497  31.638  1.00  0.00     0.029 A 
ATOM     65  C   UNL A   1      46.576  28.593  30.884  1.00  0.00     0.049 A 
ATOM     66  H   UNL A   1      44.567  28.712  30.239  1.00  0.00     0.167 HD
ATOM     67  C   UNL A   1      46.222  26.487  29.622  1.00  0.00     0.074 A 
ATOM     68  C   UNL A   1      46.654  25.206  29.100  1.00  0.00     0.031 C 
ATOM     69  C   UNL A   1      47.006  27.326  30.343  1.00  0.00     0.037 A 
BRANCH  56  70
ATOM     70  C   UNL A   1      44.174  32.518  32.157  1.00  0.00     0.064 A 
ATOM     71  C   UNL A   1      43.794  32.624  33.506  1.00  0.00     0.173 A 
ATOM     72  C   UNL A   1      44.576  33.693  31.503  1.00  0.00     0.173 A 
ATOM     73  F   UNL A   1      43.382  31.539  34.179  1.00  0.00    -0.203 F 
ATOM     74  C   UNL A   1      43.807  33.851  34.166  1.00  0.00     0.198 A 
ATOM     75  C   UNL A   1      44.615  34.915  32.174  1.00  0.00     0.198 A 
ATOM     76  F   UNL A   1      44.946  33.655  30.214  1.00  0.00    -0.203 F 
ATOM     77  F   UNL A   1      43.407  33.929  35.443  1.00  0.00    -0.200 F 
ATOM     78  C   UNL A   1      44.223  34.995  33.502  1.00  0.00     0.200 A 
ATOM     79  F   UNL A   1      45.036  36.015  31.535  1.00  0.00    -0.200 F 
ATOM     80  F   UNL A   1      44.247  36.173  34.141  1.00  0.00    -0.200 F 
ENDBRANCH  56  70
BRANCH  57  81
ATOM     81  C   UNL A   1      43.130  23.945  27.133  1.00  0.00     0.064 A 
ATOM     82  C   UNL A   1      42.671  22.800  27.800  1.00  0.00     0.173 A 
ATOM     83  C   UNL A   1      43.457  23.818  25.775  1.00  0.00     0.173 A 
ATOM     84  F   UNL A   1      42.349  22.863  29.100  1.00  0.00    -0.203 F 
ATOM     85  C   UNL A   1      42.571  21.573  27.146  1.00  0.00     0.198 A 
ATOM     86  C   UNL A   1      43.326  22.598  25.113  1.00  0.00     0.198 A 
ATOM     87  F   UNL A   1      43.883  24.886  25.086  1.00  0.00    -0.203 F 
ATOM     88  F   UNL A   1      42.177  20.486  27.822  1.00  0.00    -0.200 F 
ATOM     89  C   UNL A   1      42.894  21.474  25.802  1.00  0.00     0.200 A 
ATOM     90  F   UNL A   1      43.613  22.513  23.807  1.00  0.00    -0.200 F 
ATOM     91  F   UNL A   1      42.789  20.297  25.170  1.00  0.00    -0.200 F 
ENDBRANCH  57  81
BRANCH  69  92
ATOM     92  C   UNL A   1      48.421  26.886  30.605  1.00  0.00     0.064 A 
ATOM     93  C   UNL A   1      48.726  26.078  31.711  1.00  0.00     0.173 A 
ATOM     94  C   UNL A   1      49.480  27.286  29.776  1.00  0.00     0.173 A 
ATOM     95  F   UNL A   1      47.755  25.670  32.541  1.00  0.00    -0.203 F 
ATOM     96  C   UNL A   1      50.037  25.690  31.977  1.00  0.00     0.198 A 
ATOM     97  C   UNL A   1      50.784  26.867  30.024  1.00  0.00     0.198 A 
ATOM     98  F   UNL A   1      49.243  28.047  28.697  1.00  0.00    -0.203 F 
ATOM     99  F   UNL A   1      50.307  24.940  33.054  1.00  0.00    -0.200 F 
ATOM    100  C   UNL A   1      51.063  26.076  31.128  1.00  0.00     0.200 A 
ATOM    101  F   UNL A   1      51.769  27.214  29.183  1.00  0.00    -0.200 F 
ATOM    102  F   UNL A   1      52.320  25.679  31.370  1.00  0.00    -0.200 F 
ENDBRANCH  69  92
ENDBRANCH  43  44
ENDBRANCH  35  38
ENDBRANCH  33  34
ENDBRANCH  32  33
ENDBRANCH   1  32
TORSDOF 15
ENDMDL
MODEL 3
REMARK VINA RESULT:     -12.5      3.744      8.492
REMARK SMILES O=C(CCC(=O)N1N=C(c2ccc(F)cc2)C[C@@H]1c1ccc2nccnc2c1)NCCCNC(=O)c1ccc(-c2c3nc(c(-c4c(F)c(F)c(F)c(F)c4F)c4ccc([nH]4)c(-c4c(F)c(F)c(F)c(F)c4F)c4nc(c(-c5c(F)c(F)c(F)c(F)c5F)c5ccc2[nH]5)C=C4)C=C3)cc1
REMARK SMILES IDX 30 1 29 2 1 3 2 4 3 6 4 7 5 8 6 9 7 10 8 11 18 12 9 13 17 14
REMARK SMILES IDX 19 15 20 16 28 17 21 18 27 19 22 20 26 21 23 22 25 23 24 24
REMARK SMILES IDX 10 25 11 26 16 27 12 28 15 29 13 30 14 31 31 32 32 33 33 34
REMARK SMILES IDX 34 35 35 37 36 38 37 39 98 40 38 41 97 42 39 43 40 44 41 45
REMARK SMILES IDX 91 46 42 47 96 48 90 49 92 50 43 51 95 52 89 53 88 54 44 56
REMARK SMILES IDX 76 57 56 58 75 59 57 60 60 61 74 62 93 63 58 64 59 65 73 67
REMARK SMILES IDX 94 68 61 69 45 70 46 71 54 72 47 73 48 74 52 75 55 76 49 77
REMARK SMILES IDX 50 78 53 79 51 80 77 81 78 82 86 83 79 84 80 85 84 86 87 87
REMARK SMILES IDX 81 88 82 89 85 90 83 91 62 92 63 93 71 94 64 95 65 96 69 97
REMARK SMILES IDX 72 98 66 99 67 100 70 101 68 102
REMARK H PARENT 29 5 33 36 92 55 60 66
REMARK Flexibility Score: inf
ROOT
ATOM      1  C   UNL A   1      41.798  20.046  26.839  1.00  0.00     0.117 C 
ENDROOT
BRANCH   1   2
ATOM      2  N   UNL A   1      40.569  20.740  26.410  1.00  0.00    -0.356 N 
ATOM      3  O   UNL A   1      40.604  22.375  28.020  1.00  0.00    -0.275 OA
ATOM      4  C   UNL A   1      40.190  21.973  26.932  1.00  0.00     0.220 C 
ATOM      5  H   UNL A   1      39.996  20.317  25.730  1.00  0.00     0.163 HD
BRANCH   4   6
ATOM      6  C   UNL A   1      39.316  22.851  26.015  1.00  0.00     0.110 C 
BRANCH   6   7
ATOM      7  C   UNL A   1      38.079  22.080  25.510  1.00  0.00     0.112 C 
BRANCH   7   8
ATOM      8  C   UNL A   1      36.628  22.511  25.831  1.00  0.00     0.243 C 
ATOM      9  O   UNL A   1      36.444  23.533  26.501  1.00  0.00    -0.273 OA
BRANCH   8  10
ATOM     10  N   UNL A   1      35.580  21.881  25.174  1.00  0.00    -0.225 N 
ATOM     11  N   UNL A   1      35.674  20.488  24.974  1.00  0.00    -0.174 NA
ATOM     12  C   UNL A   1      34.206  22.327  25.154  1.00  0.00     0.147 C 
ATOM     13  C   UNL A   1      34.467  20.059  24.757  1.00  0.00     0.071 C 
ATOM     14  C   UNL A   1      33.408  21.109  24.767  1.00  0.00     0.091 C 
BRANCH  12  15
ATOM     15  C   UNL A   1      33.846  23.619  24.428  1.00  0.00    -0.021 A 
ATOM     16  C   UNL A   1      33.626  23.558  23.046  1.00  0.00     0.008 A 
ATOM     17  C   UNL A   1      33.679  24.879  25.003  1.00  0.00     0.036 A 
ATOM     18  C   UNL A   1      33.273  24.637  22.256  1.00  0.00     0.031 A 
ATOM     19  C   UNL A   1      33.312  26.004  24.231  1.00  0.00     0.089 A 
ATOM     20  C   UNL A   1      33.109  25.860  22.831  1.00  0.00     0.089 A 
ATOM     21  N   UNL A   1      33.146  27.218  24.789  1.00  0.00    -0.253 NA
ATOM     22  N   UNL A   1      32.759  26.862  22.014  1.00  0.00    -0.253 NA
ATOM     23  C   UNL A   1      32.784  28.229  23.958  1.00  0.00     0.132 A 
ATOM     24  C   UNL A   1      32.594  28.057  22.601  1.00  0.00     0.132 A 
ENDBRANCH  12  15
BRANCH  13  25
ATOM     25  C   UNL A   1      34.008  18.662  24.605  1.00  0.00    -0.002 A 
ATOM     26  C   UNL A   1      32.684  18.364  24.960  1.00  0.00     0.013 A 
ATOM     27  C   UNL A   1      34.921  17.624  24.381  1.00  0.00     0.013 A 
ATOM     28  C   UNL A   1      32.274  17.037  25.101  1.00  0.00     0.040 A 
ATOM     29  C   UNL A   1      34.504  16.293  24.530  1.00  0.00     0.040 A 
ATOM     30  C   UNL A   1      33.189  16.013  24.895  1.00  0.00     0.123 A 
ATOM     31  F   UNL A   1      32.805  14.742  25.075  1.00  0.00    -0.207 F 
ENDBRANCH  13  25
ENDBRANCH   8  10
ENDBRANCH   7   8
ENDBRANCH   6   7
ENDBRANCH   4   6
ENDBRANCH   1   2
BRANCH   1  32
ATOM     32  C   UNL A   1      42.411  18.927  25.923  1.00  0.00     0.042 C 
BRANCH  32  33
ATOM     33  C   UNL A   1      43.786  18.199  26.142  1.00  0.00     0.118 C 
BRANCH  33  34
ATOM     34  N   UNL A   1      44.796  18.315  25.111  1.00  0.00    -0.352 N 
ATOM     35  C   UNL A   1      45.365  19.427  24.513  1.00  0.00     0.251 C 
ATOM     36  H   UNL A   1      45.136  17.454  24.776  1.00  0.00     0.163 HD
ATOM     37  O   UNL A   1      46.199  19.208  23.633  1.00  0.00    -0.269 OA
BRANCH  35  38
ATOM     38  C   UNL A   1      45.018  20.863  24.795  1.00  0.00     0.039 A 
ATOM     39  C   UNL A   1      45.231  21.293  26.117  1.00  0.00     0.014 A 
ATOM     40  C   UNL A   1      44.449  21.784  23.906  1.00  0.00     0.014 A 
ATOM     41  C   UNL A   1      44.995  22.619  26.512  1.00  0.00     0.010 A 
ATOM     42  C   UNL A   1      44.239  23.135  24.293  1.00  0.00     0.010 A 
ATOM     43  C   UNL A   1      44.564  23.580  25.584  1.00  0.00    -0.014 A 
BRANCH  43  44
ATOM     44  C   UNL A   1      44.726  25.028  25.943  1.00  0.00     0.031 A 
ATOM     45  C   UNL A   1      43.642  25.873  26.553  1.00  0.00     0.074 A 
ATOM     46  C   UNL A   1      45.953  25.567  25.764  1.00  0.00     0.049 A 
ATOM     47  N   UNL A   1      43.728  27.078  27.067  1.00  0.00    -0.248 NA
ATOM     48  C   UNL A   1      42.288  25.308  26.579  1.00  0.00     0.031 C 
ATOM     49  C   UNL A   1      47.081  24.866  25.148  1.00  0.00     0.029 A 
ATOM     50  N   UNL A   1      46.478  26.790  26.112  1.00  0.00    -0.354 N 
ATOM     51  C   UNL A   1      42.448  27.412  27.496  1.00  0.00     0.074 A 
ATOM     52  C   UNL A   1      41.593  26.295  27.137  1.00  0.00     0.031 C 
ATOM     53  C   UNL A   1      48.176  25.633  25.225  1.00  0.00     0.029 A 
ATOM     54  C   UNL A   1      47.827  26.900  25.858  1.00  0.00     0.049 A 
ATOM     55  H   UNL A   1      45.942  27.516  26.505  1.00  0.00     0.167 HD
ATOM     56  C   UNL A   1      42.032  28.536  28.137  1.00  0.00     0.037 A 
ATOM     57  C   UNL A   1      48.699  27.894  26.116  1.00  0.00     0.037 A 
ATOM     58  C   UNL A   1      42.889  29.651  28.476  1.00  0.00     0.049 A 
ATOM     59  C   UNL A   1      48.212  29.124  26.829  1.00  0.00     0.074 A 
ATOM     60  C   UNL A   1      42.564  30.819  29.148  1.00  0.00     0.029 A 
ATOM     61  N   UNL A   1      44.238  29.744  28.161  1.00  0.00    -0.354 N 
ATOM     62  N   UNL A   1      47.013  29.392  27.285  1.00  0.00    -0.248 NA
ATOM     63  C   UNL A   1      49.199  30.185  27.069  1.00  0.00     0.031 C 
ATOM     64  C   UNL A   1      43.698  31.639  29.188  1.00  0.00     0.029 A 
ATOM     65  C   UNL A   1      44.750  30.958  28.599  1.00  0.00     0.049 A 
ATOM     66  H   UNL A   1      44.757  29.049  27.695  1.00  0.00     0.167 HD
ATOM     67  C   UNL A   1      47.100  30.645  27.874  1.00  0.00     0.074 A 
ATOM     68  C   UNL A   1      48.481  31.068  27.750  1.00  0.00     0.031 C 
ATOM     69  C   UNL A   1      46.122  31.382  28.454  1.00  0.00     0.037 A 
BRANCH  56  70
ATOM     70  C   UNL A   1      40.580  28.634  28.528  1.00  0.00     0.064 A 
ATOM     71  C   UNL A   1      39.627  29.161  27.640  1.00  0.00     0.173 A 
ATOM     72  C   UNL A   1      40.144  28.292  29.818  1.00  0.00     0.173 A 
ATOM     73  F   UNL A   1      39.988  29.524  26.400  1.00  0.00    -0.203 F 
ATOM     74  C   UNL A   1      38.301  29.345  28.029  1.00  0.00     0.198 A 
ATOM     75  C   UNL A   1      38.811  28.451  30.194  1.00  0.00     0.198 A 
ATOM     76  F   UNL A   1      41.009  27.789  30.711  1.00  0.00    -0.203 F 
ATOM     77  F   UNL A   1      37.420  29.880  27.171  1.00  0.00    -0.200 F 
ATOM     78  C   UNL A   1      37.892  28.984  29.302  1.00  0.00     0.200 A 
ATOM     79  F   UNL A   1      38.415  28.083  31.421  1.00  0.00    -0.200 F 
ATOM     80  F   UNL A   1      36.614  29.149  29.672  1.00  0.00    -0.200 F 
ENDBRANCH  56  70
BRANCH  57  81
ATOM     81  C   UNL A   1      50.129  27.738  25.731  1.00  0.00     0.064 A 
ATOM     82  C   UNL A   1      50.541  27.863  24.396  1.00  0.00     0.173 A 
ATOM     83  C   UNL A   1      51.108  27.423  26.686  1.00  0.00     0.173 A 
ATOM     84  F   UNL A   1      49.646  28.158  23.442  1.00  0.00    -0.203 F 
ATOM     85  C   UNL A   1      51.868  27.651  24.026  1.00  0.00     0.198 A 
ATOM     86  C   UNL A   1      52.442  27.244  26.319  1.00  0.00     0.198 A 
ATOM     87  F   UNL A   1      50.772  27.310  27.978  1.00  0.00    -0.203 F 
ATOM     88  F   UNL A   1      52.221  27.729  22.736  1.00  0.00    -0.200 F 
ATOM     89  C   UNL A   1      52.818  27.347  24.988  1.00  0.00     0.200 A 
ATOM     90  F   UNL A   1      53.361  26.977  27.255  1.00  0.00    -0.200 F 
ATOM     91  F   UNL A   1      54.096  27.154  24.633  1.00  0.00    -0.200 F 
ENDBRANCH  57  81
BRANCH  69  92
ATOM     92  C   UNL A   1      46.510  32.730  28.997  1.00  0.00     0.064 A 
ATOM     93  C   UNL A   1      46.444  33.875  28.186  1.00  0.00     0.173 A 
ATOM     94  C   UNL A   1      46.973  32.887  30.312  1.00  0.00     0.173 A 
ATOM     95  F   UNL A   1      46.015  33.783  26.919  1.00  0.00    -0.203 F 
ATOM     96  C   UNL A   1      46.830  35.121  28.672  1.00  0.00     0.198 A 
ATOM     97  C   UNL A   1      47.323  34.142  30.805  1.00  0.00     0.198 A 
ATOM     98  F   UNL A   1      47.042  31.830  31.134  1.00  0.00    -0.203 F 
ATOM     99  F   UNL A   1      46.783  36.195  27.871  1.00  0.00    -0.200 F 
ATOM    100  C   UNL A   1      47.258  35.256  29.984  1.00  0.00     0.200 A 
ATOM    101  F   UNL A   1      47.705  34.273  32.084  1.00  0.00    -0.200 F 
ATOM    102  F   UNL A   1      47.602  36.461  30.458  1.00  0.00    -0.200 F 
ENDBRANCH  69  92
ENDBRANCH  43  44
ENDBRANCH  35  38
ENDBRANCH  33  34
ENDBRANCH  32  33
ENDBRANCH   1  32
TORSDOF 15
ENDMDL
