MODEL 1
REMARK VINA RESULT:     -12.6      0.000      0.000
REMARK SMILES C[C@@H](C(=O)NCCCNC(=O)c1ccc(-c2c3nc(c(-c4c(F)c(F)c(F)c(F)c4F)c4ccc([nH]4)c(-c4c(F)c(F)c(F)c(F)c4F)c4nc(c(-c5c(F)c(F)c(F)c(F)c5F)c5ccc2[nH]5)C=C4)C=C3)cc1)c1ccc(-c2cccc(OC(=O)NC3CC3)c2)c(F)c1
REMARK SMILES IDX 3 1 4 2 5 3 2 5 1 6 75 7 76 8 94 9 77 10 92 11 78 12 93 13
REMARK SMILES IDX 79 14 80 15 91 16 81 17 83 18 82 19 84 20 85 21 86 22 87 23
REMARK SMILES IDX 88 25 89 26 90 27 6 28 7 29 8 30 9 31 10 32 11 34 12 35
REMARK SMILES IDX 13 36 74 37 14 38 73 39 15 40 16 41 17 42 67 43 18 44 72 45
REMARK SMILES IDX 66 46 68 47 19 48 71 49 65 50 64 51 20 53 52 54 32 55 51 56
REMARK SMILES IDX 33 57 36 58 50 59 69 60 34 61 35 62 49 64 70 65 37 66 21 67
REMARK SMILES IDX 22 68 30 69 23 70 24 71 28 72 31 73 25 74 26 75 29 76 27 77
REMARK SMILES IDX 53 78 54 79 62 80 55 81 56 82 60 83 63 84 57 85 58 86 61 87
REMARK SMILES IDX 59 88 38 89 39 90 47 91 40 92 41 93 45 94 48 95 42 96 43 97
REMARK SMILES IDX 46 98 44 99
REMARK H PARENT 5 4 87 24 9 33 68 52 36 63
REMARK Flexibility Score: inf
ROOT
ATOM      1  C   UNL A   1      35.304  32.886  28.207  1.00  0.00     0.227 C 
ATOM      2  O   UNL A   1      36.000  33.230  27.250  1.00  0.00    -0.274 OA
ATOM      3  N   UNL A   1      34.684  33.890  28.887  1.00  0.00    -0.356 N 
ATOM      4  H   UNL A   1      34.783  34.784  28.488  1.00  0.00     0.163 HD
ENDROOT
BRANCH   1   5
ATOM      5  C   UNL A   1      35.084  31.423  28.624  1.00  0.00     0.105 C 
ATOM      6  C   UNL A   1      36.395  30.645  28.783  1.00  0.00     0.023 C 
BRANCH   5   7
ATOM      7  C   UNL A   1      34.186  30.670  27.653  1.00  0.00    -0.033 A 
ATOM      8  C   UNL A   1      32.983  31.235  27.210  1.00  0.00     0.005 A 
ATOM      9  C   UNL A   1      34.521  29.377  27.227  1.00  0.00     0.044 A 
ATOM     10  C   UNL A   1      32.118  30.507  26.387  1.00  0.00     0.012 A 
ATOM     11  C   UNL A   1      33.661  28.664  26.405  1.00  0.00     0.131 A 
ATOM     12  C   UNL A   1      32.435  29.199  25.989  1.00  0.00     0.018 A 
ATOM     13  F   UNL A   1      34.019  27.422  26.042  1.00  0.00    -0.206 F 
BRANCH  12  14
ATOM     14  C   UNL A   1      31.470  28.377  25.256  1.00  0.00    -0.012 A 
ATOM     15  C   UNL A   1      31.302  27.010  25.513  1.00  0.00     0.009 A 
ATOM     16  C   UNL A   1      30.697  28.975  24.246  1.00  0.00     0.056 A 
ATOM     17  C   UNL A   1      30.376  26.260  24.782  1.00  0.00     0.004 A 
ATOM     18  C   UNL A   1      29.779  28.230  23.520  1.00  0.00     0.133 A 
ATOM     19  C   UNL A   1      29.614  26.870  23.784  1.00  0.00     0.047 A 
BRANCH  18  20
ATOM     20  O   UNL A   1      28.968  28.761  22.488  1.00  0.00    -0.410 OA
BRANCH  20  21
ATOM     21  C   UNL A   1      27.654  29.203  22.616  1.00  0.00     0.412 C 
ATOM     22  O   UNL A   1      26.746  28.630  23.213  1.00  0.00    -0.224 OA
ATOM     23  N   UNL A   1      27.402  30.393  21.987  1.00  0.00    -0.318 N 
ATOM     24  H   UNL A   1      26.467  30.698  22.026  1.00  0.00     0.167 HD
BRANCH  23  25
ATOM     25  C   UNL A   1      28.290  31.257  21.285  1.00  0.00     0.085 C 
ATOM     26  C   UNL A   1      27.927  32.501  20.524  1.00  0.00     0.027 C 
ATOM     27  C   UNL A   1      28.575  32.617  21.869  1.00  0.00     0.027 C 
ENDBRANCH  23  25
ENDBRANCH  20  21
ENDBRANCH  18  20
ENDBRANCH  12  14
ENDBRANCH   5   7
ENDBRANCH   1   5
BRANCH   3  28
ATOM     28  C   UNL A   1      33.901  33.851  30.103  1.00  0.00     0.117 C 
BRANCH  28  29
ATOM     29  C   UNL A   1      34.797  33.908  31.338  1.00  0.00     0.042 C 
BRANCH  29  30
ATOM     30  C   UNL A   1      35.109  32.544  31.947  1.00  0.00     0.118 C 
BRANCH  30  31
ATOM     31  N   UNL A   1      35.675  32.650  33.282  1.00  0.00    -0.352 N 
ATOM     32  C   UNL A   1      36.913  32.306  33.757  1.00  0.00     0.251 C 
ATOM     33  H   UNL A   1      35.068  33.031  33.957  1.00  0.00     0.163 HD
ATOM     34  O   UNL A   1      37.102  32.278  34.971  1.00  0.00    -0.269 OA
BRANCH  32  35
ATOM     35  C   UNL A   1      38.018  31.956  32.838  1.00  0.00     0.039 A 
ATOM     36  C   UNL A   1      39.046  31.143  33.321  1.00  0.00     0.014 A 
ATOM     37  C   UNL A   1      38.085  32.459  31.534  1.00  0.00     0.014 A 
ATOM     38  C   UNL A   1      40.107  30.793  32.487  1.00  0.00     0.010 A 
ATOM     39  C   UNL A   1      39.102  32.042  30.676  1.00  0.00     0.010 A 
ATOM     40  C   UNL A   1      40.128  31.209  31.145  1.00  0.00    -0.014 A 
BRANCH  40  41
ATOM     41  C   UNL A   1      41.208  30.747  30.235  1.00  0.00     0.031 A 
ATOM     42  C   UNL A   1      42.357  31.648  29.875  1.00  0.00     0.074 A 
ATOM     43  C   UNL A   1      41.138  29.505  29.717  1.00  0.00     0.049 A 
ATOM     44  N   UNL A   1      43.400  31.395  29.122  1.00  0.00    -0.248 NA
ATOM     45  C   UNL A   1      42.324  33.017  30.412  1.00  0.00     0.031 C 
ATOM     46  C   UNL A   1      40.043  28.560  29.942  1.00  0.00     0.029 A 
ATOM     47  N   UNL A   1      42.004  28.822  28.901  1.00  0.00    -0.354 N 
ATOM     48  C   UNL A   1      44.145  32.567  29.100  1.00  0.00     0.074 A 
ATOM     49  C   UNL A   1      43.404  33.552  29.859  1.00  0.00     0.031 C 
ATOM     50  C   UNL A   1      40.320  27.408  29.314  1.00  0.00     0.029 A 
ATOM     51  C   UNL A   1      41.590  27.545  28.607  1.00  0.00     0.049 A 
ATOM     52  H   UNL A   1      42.841  29.209  28.559  1.00  0.00     0.167 HD
ATOM     53  C   UNL A   1      45.350  32.793  28.522  1.00  0.00     0.037 A 
ATOM     54  C   UNL A   1      42.166  26.592  27.852  1.00  0.00     0.037 A 
ATOM     55  C   UNL A   1      46.085  31.809  27.767  1.00  0.00     0.049 A 
ATOM     56  C   UNL A   1      43.498  26.874  27.212  1.00  0.00     0.074 A 
ATOM     57  C   UNL A   1      47.331  31.926  27.178  1.00  0.00     0.029 A 
ATOM     58  N   UNL A   1      45.632  30.527  27.488  1.00  0.00    -0.354 N 
ATOM     59  N   UNL A   1      44.230  27.960  27.264  1.00  0.00    -0.248 NA
ATOM     60  C   UNL A   1      44.090  25.790  26.418  1.00  0.00     0.031 C 
ATOM     61  C   UNL A   1      47.609  30.737  26.496  1.00  0.00     0.029 A 
ATOM     62  C   UNL A   1      46.565  29.853  26.712  1.00  0.00     0.049 A 
ATOM     63  H   UNL A   1      44.776  30.151  27.795  1.00  0.00     0.167 HD
ATOM     64  C   UNL A   1      45.374  27.686  26.528  1.00  0.00     0.074 A 
ATOM     65  C   UNL A   1      45.254  26.317  26.070  1.00  0.00     0.031 C 
ATOM     66  C   UNL A   1      46.427  28.495  26.251  1.00  0.00     0.037 A 
BRANCH  53  67
ATOM     67  C   UNL A   1      45.956  34.159  28.688  1.00  0.00     0.064 A 
ATOM     68  C   UNL A   1      46.803  34.462  29.766  1.00  0.00     0.173 A 
ATOM     69  C   UNL A   1      45.726  35.164  27.737  1.00  0.00     0.173 A 
ATOM     70  F   UNL A   1      47.052  33.541  30.710  1.00  0.00    -0.203 F 
ATOM     71  C   UNL A   1      47.372  35.726  29.899  1.00  0.00     0.198 A 
ATOM     72  C   UNL A   1      46.324  36.417  27.855  1.00  0.00     0.198 A 
ATOM     73  F   UNL A   1      44.930  34.929  26.682  1.00  0.00    -0.203 F 
ATOM     74  F   UNL A   1      48.137  36.006  30.964  1.00  0.00    -0.200 F 
ATOM     75  C   UNL A   1      47.139  36.700  28.941  1.00  0.00     0.200 A 
ATOM     76  F   UNL A   1      46.110  37.352  26.919  1.00  0.00    -0.200 F 
ATOM     77  F   UNL A   1      47.696  37.913  29.065  1.00  0.00    -0.200 F 
ENDBRANCH  53  67
BRANCH  54  78
ATOM     78  C   UNL A   1      41.494  25.278  27.675  1.00  0.00     0.064 A 
ATOM     79  C   UNL A   1      41.933  24.139  28.365  1.00  0.00     0.173 A 
ATOM     80  C   UNL A   1      40.403  25.132  26.805  1.00  0.00     0.173 A 
ATOM     81  F   UNL A   1      42.983  24.222  29.195  1.00  0.00    -0.203 F 
ATOM     82  C   UNL A   1      41.324  22.901  28.172  1.00  0.00     0.198 A 
ATOM     83  C   UNL A   1      39.773  23.901  26.639  1.00  0.00     0.198 A 
ATOM     84  F   UNL A   1      39.938  26.191  26.126  1.00  0.00    -0.203 F 
ATOM     85  F   UNL A   1      41.798  21.818  28.803  1.00  0.00    -0.200 F 
ATOM     86  C   UNL A   1      40.240  22.784  27.314  1.00  0.00     0.200 A 
ATOM     87  F   UNL A   1      38.715  23.797  25.825  1.00  0.00    -0.200 F 
ATOM     88  F   UNL A   1      39.652  21.594  27.132  1.00  0.00    -0.200 F 
ENDBRANCH  54  78
BRANCH  66  89
ATOM     89  C   UNL A   1      47.539  27.906  25.427  1.00  0.00     0.064 A 
ATOM     90  C   UNL A   1      48.674  27.332  26.022  1.00  0.00     0.173 A 
ATOM     91  C   UNL A   1      47.468  27.915  24.026  1.00  0.00     0.173 A 
ATOM     92  F   UNL A   1      48.797  27.311  27.358  1.00  0.00    -0.203 F 
ATOM     93  C   UNL A   1      49.715  26.833  25.245  1.00  0.00     0.198 A 
ATOM     94  C   UNL A   1      48.495  27.379  23.252  1.00  0.00     0.198 A 
ATOM     95  F   UNL A   1      46.404  28.442  23.404  1.00  0.00    -0.203 F 
ATOM     96  F   UNL A   1      50.820  26.356  25.835  1.00  0.00    -0.200 F 
ATOM     97  C   UNL A   1      49.623  26.851  23.862  1.00  0.00     0.200 A 
ATOM     98  F   UNL A   1      48.397  27.383  21.916  1.00  0.00    -0.200 F 
ATOM     99  F   UNL A   1      50.628  26.373  23.116  1.00  0.00    -0.200 F 
ENDBRANCH  66  89
ENDBRANCH  40  41
ENDBRANCH  32  35
ENDBRANCH  30  31
ENDBRANCH  29  30
ENDBRANCH  28  29
ENDBRANCH   3  28
TORSDOF 15
ENDMDL
MODEL 2
REMARK VINA RESULT:     -12.4      4.433      8.866
REMARK SMILES C[C@@H](C(=O)NCCCNC(=O)c1ccc(-c2c3nc(c(-c4c(F)c(F)c(F)c(F)c4F)c4ccc([nH]4)c(-c4c(F)c(F)c(F)c(F)c4F)c4nc(c(-c5c(F)c(F)c(F)c(F)c5F)c5ccc2[nH]5)C=C4)C=C3)cc1)c1ccc(-c2cccc(OC(=O)NC3CC3)c2)c(F)c1
REMARK SMILES IDX 3 1 4 2 5 3 2 5 1 6 75 7 76 8 94 9 77 10 92 11 78 12 93 13
REMARK SMILES IDX 79 14 80 15 91 16 81 17 83 18 82 19 84 20 85 21 86 22 87 23
REMARK SMILES IDX 88 25 89 26 90 27 6 28 7 29 8 30 9 31 10 32 11 34 12 35
REMARK SMILES IDX 13 36 74 37 14 38 73 39 15 40 16 41 17 42 67 43 18 44 72 45
REMARK SMILES IDX 66 46 68 47 19 48 71 49 65 50 64 51 20 53 52 54 32 55 51 56
REMARK SMILES IDX 33 57 36 58 50 59 69 60 34 61 35 62 49 64 70 65 37 66 21 67
REMARK SMILES IDX 22 68 30 69 23 70 24 71 28 72 31 73 25 74 26 75 29 76 27 77
REMARK SMILES IDX 53 78 54 79 62 80 55 81 56 82 60 83 63 84 57 85 58 86 61 87
REMARK SMILES IDX 59 88 38 89 39 90 47 91 40 92 41 93 45 94 48 95 42 96 43 97
REMARK SMILES IDX 46 98 44 99
REMARK H PARENT 5 4 87 24 9 33 68 52 36 63
REMARK Flexibility Score: inf
ROOT
ATOM      1  C   UNL A   1      34.257  34.818  31.047  1.00  0.00     0.227 C 
ATOM      2  O   UNL A   1      33.823  35.335  32.078  1.00  0.00    -0.274 OA
ATOM      3  N   UNL A   1      33.977  35.472  29.886  1.00  0.00    -0.356 N 
ATOM      4  H   UNL A   1      33.531  36.343  29.997  1.00  0.00     0.163 HD
ENDROOT
BRANCH   1   5
ATOM      5  C   UNL A   1      35.103  33.534  31.023  1.00  0.00     0.105 C 
ATOM      6  C   UNL A   1      35.015  32.738  32.329  1.00  0.00     0.023 C 
BRANCH   5   7
ATOM      7  C   UNL A   1      36.569  33.810  30.719  1.00  0.00    -0.033 A 
ATOM      8  C   UNL A   1      37.103  33.520  29.456  1.00  0.00     0.005 A 
ATOM      9  C   UNL A   1      37.421  34.309  31.714  1.00  0.00     0.044 A 
ATOM     10  C   UNL A   1      38.468  33.692  29.207  1.00  0.00     0.012 A 
ATOM     11  C   UNL A   1      38.774  34.483  31.456  1.00  0.00     0.131 A 
ATOM     12  C   UNL A   1      39.329  34.157  30.212  1.00  0.00     0.018 A 
ATOM     13  F   UNL A   1      39.551  34.945  32.448  1.00  0.00    -0.206 F 
BRANCH  12  14
ATOM     14  C   UNL A   1      40.779  34.196  30.007  1.00  0.00    -0.012 A 
ATOM     15  C   UNL A   1      41.650  33.299  30.639  1.00  0.00     0.009 A 
ATOM     16  C   UNL A   1      41.318  35.179  29.160  1.00  0.00     0.056 A 
ATOM     17  C   UNL A   1      43.028  33.378  30.423  1.00  0.00     0.004 A 
ATOM     18  C   UNL A   1      42.688  35.258  28.947  1.00  0.00     0.133 A 
ATOM     19  C   UNL A   1      43.548  34.359  29.577  1.00  0.00     0.047 A 
BRANCH  18  20
ATOM     20  O   UNL A   1      43.304  36.221  28.112  1.00  0.00    -0.410 OA
BRANCH  20  21
ATOM     21  C   UNL A   1      42.812  36.698  26.900  1.00  0.00     0.412 C 
ATOM     22  O   UNL A   1      42.256  37.777  26.713  1.00  0.00    -0.224 OA
ATOM     23  N   UNL A   1      42.981  35.835  25.850  1.00  0.00    -0.318 N 
ATOM     24  H   UNL A   1      42.596  36.136  24.995  1.00  0.00     0.167 HD
BRANCH  23  25
ATOM     25  C   UNL A   1      43.631  34.568  25.809  1.00  0.00     0.085 C 
ATOM     26  C   UNL A   1      43.785  33.671  24.615  1.00  0.00     0.027 C 
ATOM     27  C   UNL A   1      44.956  34.468  25.098  1.00  0.00     0.027 C 
ENDBRANCH  23  25
ENDBRANCH  20  21
ENDBRANCH  18  20
ENDBRANCH  12  14
ENDBRANCH   5   7
ENDBRANCH   1   5
BRANCH   3  28
ATOM     28  C   UNL A   1      34.230  35.091  28.513  1.00  0.00     0.117 C 
BRANCH  28  29
ATOM     29  C   UNL A   1      33.318  33.945  28.081  1.00  0.00     0.042 C 
BRANCH  29  30
ATOM     30  C   UNL A   1      33.789  32.567  28.538  1.00  0.00     0.118 C 
BRANCH  30  31
ATOM     31  N   UNL A   1      33.468  31.525  27.576  1.00  0.00    -0.352 N 
ATOM     32  C   UNL A   1      34.199  30.446  27.150  1.00  0.00     0.251 C 
ATOM     33  H   UNL A   1      32.580  31.608  27.160  1.00  0.00     0.163 HD
ATOM     34  O   UNL A   1      33.820  29.818  26.165  1.00  0.00    -0.269 OA
BRANCH  32  35
ATOM     35  C   UNL A   1      35.438  30.036  27.846  1.00  0.00     0.039 A 
ATOM     36  C   UNL A   1      36.639  30.078  27.134  1.00  0.00     0.014 A 
ATOM     37  C   UNL A   1      35.428  29.562  29.162  1.00  0.00     0.014 A 
ATOM     38  C   UNL A   1      37.829  29.696  27.753  1.00  0.00     0.010 A 
ATOM     39  C   UNL A   1      36.627  29.260  29.806  1.00  0.00     0.010 A 
ATOM     40  C   UNL A   1      37.841  29.318  29.106  1.00  0.00    -0.014 A 
BRANCH  40  41
ATOM     41  C   UNL A   1      39.126  29.013  29.786  1.00  0.00     0.031 A 
ATOM     42  C   UNL A   1      39.532  29.740  31.039  1.00  0.00     0.074 A 
ATOM     43  C   UNL A   1      39.941  28.081  29.255  1.00  0.00     0.049 A 
ATOM     44  N   UNL A   1      40.603  29.577  31.777  1.00  0.00    -0.248 NA
ATOM     45  C   UNL A   1      38.632  30.801  31.514  1.00  0.00     0.031 C 
ATOM     46  C   UNL A   1      39.687  27.352  28.010  1.00  0.00     0.029 A 
ATOM     47  N   UNL A   1      41.142  27.583  29.692  1.00  0.00    -0.354 N 
ATOM     48  C   UNL A   1      40.501  30.508  32.803  1.00  0.00     0.074 A 
ATOM     49  C   UNL A   1      39.300  31.277  32.556  1.00  0.00     0.031 C 
ATOM     50  C   UNL A   1      40.680  26.473  27.804  1.00  0.00     0.029 A 
ATOM     51  C   UNL A   1      41.661  26.606  28.877  1.00  0.00     0.049 A 
ATOM     52  H   UNL A   1      41.590  27.896  30.510  1.00  0.00     0.167 HD
ATOM     53  C   UNL A   1      41.320  30.687  33.868  1.00  0.00     0.037 A 
ATOM     54  C   UNL A   1      42.800  25.896  28.980  1.00  0.00     0.037 A 
ATOM     55  C   UNL A   1      42.516  29.918  34.110  1.00  0.00     0.049 A 
ATOM     56  C   UNL A   1      43.696  26.123  30.166  1.00  0.00     0.074 A 
ATOM     57  C   UNL A   1      43.389  29.993  35.181  1.00  0.00     0.029 A 
ATOM     58  N   UNL A   1      43.010  28.938  33.262  1.00  0.00    -0.354 N 
ATOM     59  N   UNL A   1      43.549  26.952  31.171  1.00  0.00    -0.248 NA
ATOM     60  C   UNL A   1      44.914  25.305  30.238  1.00  0.00     0.031 C 
ATOM     61  C   UNL A   1      44.442  29.101  34.953  1.00  0.00     0.029 A 
ATOM     62  C   UNL A   1      44.193  28.421  33.772  1.00  0.00     0.049 A 
ATOM     63  H   UNL A   1      42.586  28.652  32.421  1.00  0.00     0.167 HD
ATOM     64  C   UNL A   1      44.641  26.743  32.002  1.00  0.00     0.074 A 
ATOM     65  C   UNL A   1      45.424  25.684  31.400  1.00  0.00     0.031 C 
ATOM     66  C   UNL A   1      44.970  27.375  33.156  1.00  0.00     0.037 A 
BRANCH  53  67
ATOM     67  C   UNL A   1      40.949  31.754  34.860  1.00  0.00     0.064 A 
ATOM     68  C   UNL A   1      41.466  33.056  34.767  1.00  0.00     0.173 A 
ATOM     69  C   UNL A   1      40.033  31.488  35.889  1.00  0.00     0.173 A 
ATOM     70  F   UNL A   1      42.353  33.364  33.808  1.00  0.00    -0.203 F 
ATOM     71  C   UNL A   1      41.101  34.041  35.682  1.00  0.00     0.198 A 
ATOM     72  C   UNL A   1      39.644  32.485  36.782  1.00  0.00     0.198 A 
ATOM     73  F   UNL A   1      39.501  30.263  36.022  1.00  0.00    -0.203 F 
ATOM     74  F   UNL A   1      41.647  35.263  35.601  1.00  0.00    -0.200 F 
ATOM     75  C   UNL A   1      40.186  33.757  36.683  1.00  0.00     0.200 A 
ATOM     76  F   UNL A   1      38.747  32.213  37.738  1.00  0.00    -0.200 F 
ATOM     77  F   UNL A   1      39.827  34.710  37.556  1.00  0.00    -0.200 F 
ENDBRANCH  53  67
BRANCH  54  78
ATOM     78  C   UNL A   1      43.146  24.892  27.938  1.00  0.00     0.064 A 
ATOM     79  C   UNL A   1      42.764  23.550  28.069  1.00  0.00     0.173 A 
ATOM     80  C   UNL A   1      43.874  25.255  26.795  1.00  0.00     0.173 A 
ATOM     81  F   UNL A   1      42.083  23.149  29.152  1.00  0.00    -0.203 F 
ATOM     82  C   UNL A   1      43.119  22.604  27.109  1.00  0.00     0.198 A 
ATOM     83  C   UNL A   1      44.197  24.315  25.819  1.00  0.00     0.198 A 
ATOM     84  F   UNL A   1      44.257  26.527  26.618  1.00  0.00    -0.203 F 
ATOM     85  F   UNL A   1      42.788  21.318  27.286  1.00  0.00    -0.200 F 
ATOM     86  C   UNL A   1      43.829  22.988  25.982  1.00  0.00     0.200 A 
ATOM     87  F   UNL A   1      44.867  24.695  24.723  1.00  0.00    -0.200 F 
ATOM     88  F   UNL A   1      44.167  22.079  25.057  1.00  0.00    -0.200 F 
ENDBRANCH  54  78
BRANCH  66  89
ATOM     89  C   UNL A   1      46.224  26.918  33.848  1.00  0.00     0.064 A 
ATOM     90  C   UNL A   1      46.209  25.879  34.792  1.00  0.00     0.173 A 
ATOM     91  C   UNL A   1      47.457  27.525  33.563  1.00  0.00     0.173 A 
ATOM     92  F   UNL A   1      45.055  25.273  35.111  1.00  0.00    -0.203 F 
ATOM     93  C   UNL A   1      47.371  25.498  35.457  1.00  0.00     0.198 A 
ATOM     94  C   UNL A   1      48.624  27.115  34.203  1.00  0.00     0.198 A 
ATOM     95  F   UNL A   1      47.531  28.518  32.664  1.00  0.00    -0.203 F 
ATOM     96  F   UNL A   1      47.318  24.553  36.406  1.00  0.00    -0.200 F 
ATOM     97  C   UNL A   1      48.577  26.112  35.159  1.00  0.00     0.200 A 
ATOM     98  F   UNL A   1      49.792  27.699  33.902  1.00  0.00    -0.200 F 
ATOM     99  F   UNL A   1      49.694  25.746  35.803  1.00  0.00    -0.200 F 
ENDBRANCH  66  89
ENDBRANCH  40  41
ENDBRANCH  32  35
ENDBRANCH  30  31
ENDBRANCH  29  30
ENDBRANCH  28  29
ENDBRANCH   3  28
TORSDOF 15
ENDMDL
MODEL 3
REMARK VINA RESULT:     -12.4      4.070     10.261
REMARK SMILES C[C@@H](C(=O)NCCCNC(=O)c1ccc(-c2c3nc(c(-c4c(F)c(F)c(F)c(F)c4F)c4ccc([nH]4)c(-c4c(F)c(F)c(F)c(F)c4F)c4nc(c(-c5c(F)c(F)c(F)c(F)c5F)c5ccc2[nH]5)C=C4)C=C3)cc1)c1ccc(-c2cccc(OC(=O)NC3CC3)c2)c(F)c1
REMARK SMILES IDX 3 1 4 2 5 3 2 5 1 6 75 7 76 8 94 9 77 10 92 11 78 12 93 13
REMARK SMILES IDX 79 14 80 15 91 16 81 17 83 18 82 19 84 20 85 21 86 22 87 23
REMARK SMILES IDX 88 25 89 26 90 27 6 28 7 29 8 30 9 31 10 32 11 34 12 35
REMARK SMILES IDX 13 36 74 37 14 38 73 39 15 40 16 41 17 42 67 43 18 44 72 45
REMARK SMILES IDX 66 46 68 47 19 48 71 49 65 50 64 51 20 53 52 54 32 55 51 56
REMARK SMILES IDX 33 57 36 58 50 59 69 60 34 61 35 62 49 64 70 65 37 66 21 67
REMARK SMILES IDX 22 68 30 69 23 70 24 71 28 72 31 73 25 74 26 75 29 76 27 77
REMARK SMILES IDX 53 78 54 79 62 80 55 81 56 82 60 83 63 84 57 85 58 86 61 87
REMARK SMILES IDX 59 88 38 89 39 90 47 91 40 92 41 93 45 94 48 95 42 96 43 97
REMARK SMILES IDX 46 98 44 99
REMARK H PARENT 5 4 87 24 9 33 68 52 36 63
REMARK Flexibility Score: inf
ROOT
ATOM      1  C   UNL A   1      36.843  33.966  32.979  1.00  0.00     0.227 C 
ATOM      2  O   UNL A   1      36.767  34.957  33.708  1.00  0.00    -0.274 OA
ATOM      3  N   UNL A   1      35.695  33.600  32.345  1.00  0.00    -0.356 N 
ATOM      4  H   UNL A   1      34.939  34.219  32.463  1.00  0.00     0.163 HD
ENDROOT
BRANCH   1   5
ATOM      5  C   UNL A   1      38.142  33.181  32.736  1.00  0.00     0.105 C 
ATOM      6  C   UNL A   1      38.955  32.961  34.016  1.00  0.00     0.023 C 
BRANCH   5   7
ATOM      7  C   UNL A   1      39.037  33.844  31.699  1.00  0.00    -0.033 A 
ATOM      8  C   UNL A   1      38.628  33.942  30.362  1.00  0.00     0.005 A 
ATOM      9  C   UNL A   1      40.307  34.320  32.052  1.00  0.00     0.044 A 
ATOM     10  C   UNL A   1      39.488  34.474  29.394  1.00  0.00     0.012 A 
ATOM     11  C   UNL A   1      41.151  34.852  31.088  1.00  0.00     0.131 A 
ATOM     12  C   UNL A   1      40.773  34.917  29.740  1.00  0.00     0.018 A 
ATOM     13  F   UNL A   1      42.364  35.275  31.475  1.00  0.00    -0.206 F 
BRANCH  12  14
ATOM     14  C   UNL A   1      41.732  35.332  28.714  1.00  0.00    -0.012 A 
ATOM     15  C   UNL A   1      41.598  36.533  28.005  1.00  0.00     0.009 A 
ATOM     16  C   UNL A   1      42.813  34.486  28.415  1.00  0.00     0.056 A 
ATOM     17  C   UNL A   1      42.531  36.884  27.026  1.00  0.00     0.004 A 
ATOM     18  C   UNL A   1      43.739  34.836  27.441  1.00  0.00     0.133 A 
ATOM     19  C   UNL A   1      43.602  36.035  26.743  1.00  0.00     0.047 A 
BRANCH  18  20
ATOM     20  O   UNL A   1      44.852  34.036  27.084  1.00  0.00    -0.410 OA
BRANCH  20  21
ATOM     21  C   UNL A   1      45.066  33.422  25.853  1.00  0.00     0.412 C 
ATOM     22  O   UNL A   1      45.292  33.985  24.786  1.00  0.00    -0.224 OA
ATOM     23  N   UNL A   1      44.996  32.055  25.893  1.00  0.00    -0.318 N 
ATOM     24  H   UNL A   1      45.098  31.605  25.023  1.00  0.00     0.167 HD
BRANCH  23  25
ATOM     25  C   UNL A   1      44.799  31.186  27.003  1.00  0.00     0.085 C 
ATOM     26  C   UNL A   1      44.063  29.876  27.006  1.00  0.00     0.027 C 
ATOM     27  C   UNL A   1      45.560  29.884  27.035  1.00  0.00     0.027 C 
ENDBRANCH  23  25
ENDBRANCH  20  21
ENDBRANCH  18  20
ENDBRANCH  12  14
ENDBRANCH   5   7
ENDBRANCH   1   5
BRANCH   3  28
ATOM     28  C   UNL A   1      35.409  32.443  31.524  1.00  0.00     0.117 C 
BRANCH  28  29
ATOM     29  C   UNL A   1      34.546  32.819  30.322  1.00  0.00     0.042 C 
BRANCH  29  30
ATOM     30  C   UNL A   1      35.106  32.353  28.981  1.00  0.00     0.118 C 
BRANCH  30  31
ATOM     31  N   UNL A   1      34.527  31.092  28.547  1.00  0.00    -0.352 N 
ATOM     32  C   UNL A   1      35.124  29.918  28.170  1.00  0.00     0.251 C 
ATOM     33  H   UNL A   1      33.543  31.079  28.519  1.00  0.00     0.163 HD
ATOM     34  O   UNL A   1      34.446  29.049  27.629  1.00  0.00    -0.269 OA
BRANCH  32  35
ATOM     35  C   UNL A   1      36.568  29.686  28.391  1.00  0.00     0.039 A 
ATOM     36  C   UNL A   1      36.981  29.247  29.651  1.00  0.00     0.014 A 
ATOM     37  C   UNL A   1      37.521  29.947  27.400  1.00  0.00     0.014 A 
ATOM     38  C   UNL A   1      38.334  29.020  29.901  1.00  0.00     0.010 A 
ATOM     39  C   UNL A   1      38.863  29.641  27.624  1.00  0.00     0.010 A 
ATOM     40  C   UNL A   1      39.285  29.180  28.879  1.00  0.00    -0.014 A 
BRANCH  40  41
ATOM     41  C   UNL A   1      40.710  28.836  29.124  1.00  0.00     0.031 A 
ATOM     42  C   UNL A   1      41.280  27.521  28.667  1.00  0.00     0.074 A 
ATOM     43  C   UNL A   1      41.490  29.715  29.781  1.00  0.00     0.049 A 
ATOM     44  N   UNL A   1      42.507  27.073  28.770  1.00  0.00    -0.248 NA
ATOM     45  C   UNL A   1      40.349  26.577  28.030  1.00  0.00     0.031 C 
ATOM     46  C   UNL A   1      41.038  30.996  30.328  1.00  0.00     0.029 A 
ATOM     47  N   UNL A   1      42.825  29.672  30.097  1.00  0.00    -0.354 N 
ATOM     48  C   UNL A   1      42.496  25.803  28.208  1.00  0.00     0.074 A 
ATOM     49  C   UNL A   1      41.128  25.524  27.826  1.00  0.00     0.031 C 
ATOM     50  C   UNL A   1      42.083  31.634  30.877  1.00  0.00     0.029 A 
ATOM     51  C   UNL A   1      43.269  30.791  30.760  1.00  0.00     0.049 A 
ATOM     52  H   UNL A   1      43.407  28.912  29.872  1.00  0.00     0.167 HD
ATOM     53  C   UNL A   1      43.537  24.959  28.004  1.00  0.00     0.037 A 
ATOM     54  C   UNL A   1      44.493  31.104  31.222  1.00  0.00     0.037 A 
ATOM     55  C   UNL A   1      44.898  25.241  28.387  1.00  0.00     0.049 A 
ATOM     56  C   UNL A   1      45.627  30.143  30.993  1.00  0.00     0.074 A 
ATOM     57  C   UNL A   1      46.029  24.470  28.187  1.00  0.00     0.029 A 
ATOM     58  N   UNL A   1      45.309  26.384  29.058  1.00  0.00    -0.354 N 
ATOM     59  N   UNL A   1      45.619  28.979  30.391  1.00  0.00    -0.248 NA
ATOM     60  C   UNL A   1      46.945  30.546  31.500  1.00  0.00     0.031 C 
ATOM     61  C   UNL A   1      47.115  25.118  28.786  1.00  0.00     0.029 A 
ATOM     62  C   UNL A   1      46.674  26.325  29.303  1.00  0.00     0.049 A 
ATOM     63  H   UNL A   1      44.721  27.127  29.321  1.00  0.00     0.167 HD
ATOM     64  C   UNL A   1      46.929  28.520  30.428  1.00  0.00     0.074 A 
ATOM     65  C   UNL A   1      47.710  29.548  31.082  1.00  0.00     0.031 C 
ATOM     66  C   UNL A   1      47.438  27.350  29.968  1.00  0.00     0.037 A 
BRANCH  53  67
ATOM     67  C   UNL A   1      43.246  23.645  27.332  1.00  0.00     0.064 A 
ATOM     68  C   UNL A   1      42.620  22.592  28.016  1.00  0.00     0.173 A 
ATOM     69  C   UNL A   1      43.554  23.451  25.977  1.00  0.00     0.173 A 
ATOM     70  F   UNL A   1      42.309  22.719  29.315  1.00  0.00    -0.203 F 
ATOM     71  C   UNL A   1      42.340  21.386  27.377  1.00  0.00     0.198 A 
ATOM     72  C   UNL A   1      43.242  22.256  25.332  1.00  0.00     0.198 A 
ATOM     73  F   UNL A   1      44.148  24.426  25.271  1.00  0.00    -0.203 F 
ATOM     74  F   UNL A   1      41.786  20.378  28.065  1.00  0.00    -0.200 F 
ATOM     75  C   UNL A   1      42.644  21.222  26.035  1.00  0.00     0.200 A 
ATOM     76  F   UNL A   1      43.522  22.106  24.030  1.00  0.00    -0.200 F 
ATOM     77  F   UNL A   1      42.363  20.065  25.418  1.00  0.00    -0.200 F 
ENDBRANCH  53  67
BRANCH  54  78
ATOM     78  C   UNL A   1      44.712  32.392  31.932  1.00  0.00     0.064 A 
ATOM     79  C   UNL A   1      44.374  32.542  33.285  1.00  0.00     0.173 A 
ATOM     80  C   UNL A   1      45.256  33.503  31.269  1.00  0.00     0.173 A 
ATOM     81  F   UNL A   1      43.835  31.515  33.958  1.00  0.00    -0.203 F 
ATOM     82  C   UNL A   1      44.548  33.760  33.939  1.00  0.00     0.198 A 
ATOM     83  C   UNL A   1      45.461  34.709  31.934  1.00  0.00     0.198 A 
ATOM     84  F   UNL A   1      45.603  33.411  29.978  1.00  0.00    -0.203 F 
ATOM     85  F   UNL A   1      44.166  33.891  35.217  1.00  0.00    -0.200 F 
ATOM     86  C   UNL A   1      45.097  34.841  33.265  1.00  0.00     0.200 A 
ATOM     87  F   UNL A   1      46.010  35.744  31.285  1.00  0.00    -0.200 F 
ATOM     88  F   UNL A   1      45.268  36.010  33.896  1.00  0.00    -0.200 F 
ENDBRANCH  54  78
BRANCH  66  89
ATOM     89  C   UNL A   1      48.916  27.135  30.144  1.00  0.00     0.064 A 
ATOM     90  C   UNL A   1      49.437  26.478  31.270  1.00  0.00     0.173 A 
ATOM     91  C   UNL A   1      49.822  27.590  29.174  1.00  0.00     0.173 A 
ATOM     92  F   UNL A   1      48.615  26.035  32.233  1.00  0.00    -0.203 F 
ATOM     93  C   UNL A   1      50.810  26.327  31.440  1.00  0.00     0.198 A 
ATOM     94  C   UNL A   1      51.193  27.403  29.329  1.00  0.00     0.198 A 
ATOM     95  F   UNL A   1      49.380  28.217  28.074  1.00  0.00    -0.203 F 
ATOM     96  F   UNL A   1      51.287  25.761  32.557  1.00  0.00    -0.200 F 
ATOM     97  C   UNL A   1      51.686  26.785  30.468  1.00  0.00     0.200 A 
ATOM     98  F   UNL A   1      52.038  27.831  28.381  1.00  0.00    -0.200 F 
ATOM     99  F   UNL A   1      53.008  26.641  30.635  1.00  0.00    -0.200 F 
ENDBRANCH  66  89
ENDBRANCH  40  41
ENDBRANCH  32  35
ENDBRANCH  30  31
ENDBRANCH  29  30
ENDBRANCH  28  29
ENDBRANCH   3  28
TORSDOF 15
ENDMDL
