MODEL 1
REMARK VINA RESULT:     -12.7      0.000      0.000
REMARK SMILES C[C@@H]1CCC[C@H](C)N1C(=O)Cn1cccc1C(=O)NCCCNC(=O)c1ccc(-c2c3nc(c(-c4c(F)c(F)c(F)c(F)c4F)c4ccc([nH]4)c(-c4c(F)c(F)c(F)c(F)c4F)c4nc(c(-c5c(F)c(F)c(F)c(F)c5F)c5ccc2[nH]5)C=C4)C=C3)cc1
REMARK SMILES IDX 20 1 19 2 17 3 18 4 16 6 12 7 13 8 14 9 15 10 11 11 9 12
REMARK SMILES IDX 10 13 8 14 1 15 2 16 3 17 4 18 6 19 5 20 7 21 21 22 22 23
REMARK SMILES IDX 23 24 24 25 25 27 26 28 27 29 88 30 28 31 87 32 29 33 30 34
REMARK SMILES IDX 31 35 81 36 32 37 86 38 80 39 82 40 33 41 85 42 79 43 78 44
REMARK SMILES IDX 34 46 66 47 46 48 65 49 47 50 50 51 64 52 83 53 48 54 49 55
REMARK SMILES IDX 63 57 84 58 51 59 35 60 36 61 44 62 37 63 38 64 42 65 45 66
REMARK SMILES IDX 39 67 40 68 43 69 41 70 67 71 68 72 76 73 69 74 70 75 74 76
REMARK SMILES IDX 77 77 71 78 72 79 75 80 73 81 52 82 53 83 61 84 54 85 55 86
REMARK SMILES IDX 59 87 62 88 56 89 57 90 60 91 58 92
REMARK H PARENT 19 5 23 26 82 45 50 56
REMARK Flexibility Score: inf
ROOT
ATOM      1  C   UNL A   1      36.989  22.890  24.973  1.00  0.00     0.118 C 
ENDROOT
BRANCH   1   2
ATOM      2  N   UNL A   1      35.848  22.939  23.994  1.00  0.00    -0.351 N 
ATOM      3  C   UNL A   1      34.521  23.177  23.704  1.00  0.00     0.267 C 
ATOM      4  O   UNL A   1      34.433  23.311  22.469  1.00  0.00    -0.268 OA
ATOM      5  H   UNL A   1      36.246  22.665  23.136  1.00  0.00     0.163 HD
BRANCH   3   6
ATOM      6  C   UNL A   1      33.269  23.332  24.472  1.00  0.00     0.107 A 
ATOM      7  N   UNL A   1      31.944  23.666  24.221  1.00  0.00    -0.334 N 
ATOM      8  C   UNL A   1      31.185  23.554  25.387  1.00  0.00     0.087 A 
ATOM      9  C   UNL A   1      32.043  23.563  26.448  1.00  0.00     0.020 A 
ATOM     10  C   UNL A   1      33.326  23.430  25.885  1.00  0.00     0.033 A 
BRANCH   7  11
ATOM     11  C   UNL A   1      31.313  24.387  23.128  1.00  0.00     0.222 C 
BRANCH  11  12
ATOM     12  C   UNL A   1      31.729  25.812  22.915  1.00  0.00     0.242 C 
ATOM     13  O   UNL A   1      31.534  26.277  21.791  1.00  0.00    -0.273 OA
BRANCH  12  14
ATOM     14  N   UNL A   1      32.129  26.569  24.026  1.00  0.00    -0.336 N 
ATOM     15  C   UNL A   1      30.686  28.539  24.072  1.00  0.00     0.031 C 
ATOM     16  C   UNL A   1      31.067  27.232  24.774  1.00  0.00     0.082 C 
ATOM     17  C   UNL A   1      31.404  27.357  26.259  1.00  0.00     0.025 C 
ATOM     18  C   UNL A   1      32.801  27.897  26.540  1.00  0.00     0.004 C 
ATOM     19  C   UNL A   1      33.513  27.076  24.262  1.00  0.00     0.082 C 
ATOM     20  C   UNL A   1      33.837  27.099  25.763  1.00  0.00     0.025 C 
ATOM     21  C   UNL A   1      33.894  28.411  23.614  1.00  0.00     0.031 C 
ENDBRANCH  12  14
ENDBRANCH  11  12
ENDBRANCH   7  11
ENDBRANCH   3   6
ENDBRANCH   1   2
BRANCH   1  22
ATOM     22  C   UNL A   1      37.170  24.007  26.017  1.00  0.00     0.042 C 
BRANCH  22  23
ATOM     23  C   UNL A   1      38.419  24.282  26.852  1.00  0.00     0.118 C 
BRANCH  23  24
ATOM     24  N   UNL A   1      39.709  24.352  26.208  1.00  0.00    -0.352 N 
ATOM     25  C   UNL A   1      40.504  25.493  26.130  1.00  0.00     0.251 C 
ATOM     26  H   UNL A   1      40.052  23.530  25.790  1.00  0.00     0.163 HD
ATOM     27  O   UNL A   1      41.317  25.614  25.232  1.00  0.00    -0.269 OA
BRANCH  25  28
ATOM     28  C   UNL A   1      40.342  26.589  27.130  1.00  0.00     0.039 A 
ATOM     29  C   UNL A   1      40.541  27.915  26.728  1.00  0.00     0.014 A 
ATOM     30  C   UNL A   1      40.055  26.307  28.470  1.00  0.00     0.014 A 
ATOM     31  C   UNL A   1      40.428  28.938  27.667  1.00  0.00     0.010 A 
ATOM     32  C   UNL A   1      39.821  27.324  29.378  1.00  0.00     0.010 A 
ATOM     33  C   UNL A   1      40.064  28.637  28.990  1.00  0.00    -0.014 A 
BRANCH  33  34
ATOM     34  C   UNL A   1      39.987  29.740  29.970  1.00  0.00     0.031 A 
ATOM     35  C   UNL A   1      38.697  30.547  29.783  1.00  0.00     0.074 A 
ATOM     36  C   UNL A   1      41.105  29.920  30.743  1.00  0.00     0.049 A 
ATOM     37  N   UNL A   1      38.528  31.828  29.697  1.00  0.00    -0.248 NA
ATOM     38  C   UNL A   1      37.421  29.823  29.535  1.00  0.00     0.031 C 
ATOM     39  C   UNL A   1      42.219  28.947  30.863  1.00  0.00     0.029 A 
ATOM     40  N   UNL A   1      41.561  30.932  31.567  1.00  0.00    -0.354 N 
ATOM     41  C   UNL A   1      37.144  32.082  29.553  1.00  0.00     0.074 A 
ATOM     42  C   UNL A   1      36.531  30.804  29.334  1.00  0.00     0.031 C 
ATOM     43  C   UNL A   1      43.232  29.443  31.602  1.00  0.00     0.029 A 
ATOM     44  C   UNL A   1      42.910  30.791  32.012  1.00  0.00     0.049 A 
ATOM     45  H   UNL A   1      40.997  31.696  31.827  1.00  0.00     0.167 HD
ATOM     46  C   UNL A   1      36.602  33.323  29.766  1.00  0.00     0.037 A 
ATOM     47  C   UNL A   1      43.739  31.720  32.586  1.00  0.00     0.037 A 
ATOM     48  C   UNL A   1      37.637  34.212  30.180  1.00  0.00     0.049 A 
ATOM     49  C   UNL A   1      42.903  32.918  32.722  1.00  0.00     0.074 A 
ATOM     50  C   UNL A   1      38.665  34.809  29.501  1.00  0.00     0.029 A 
ATOM     51  N   UNL A   1      37.903  34.245  31.529  1.00  0.00    -0.354 N 
ATOM     52  N   UNL A   1      41.955  33.063  33.595  1.00  0.00    -0.248 NA
ATOM     53  C   UNL A   1      43.045  33.981  31.718  1.00  0.00     0.031 C 
ATOM     54  C   UNL A   1      39.737  34.712  30.409  1.00  0.00     0.029 A 
ATOM     55  C   UNL A   1      39.263  34.336  31.673  1.00  0.00     0.049 A 
ATOM     56  H   UNL A   1      37.240  34.209  32.256  1.00  0.00     0.167 HD
ATOM     57  C   UNL A   1      41.197  34.058  33.028  1.00  0.00     0.074 A 
ATOM     58  C   UNL A   1      42.057  34.776  32.115  1.00  0.00     0.031 C 
ATOM     59  C   UNL A   1      39.855  33.883  32.907  1.00  0.00     0.037 A 
BRANCH  46  60
ATOM     60  C   UNL A   1      35.200  33.851  29.921  1.00  0.00     0.064 A 
ATOM     61  C   UNL A   1      34.666  34.639  28.864  1.00  0.00     0.173 A 
ATOM     62  C   UNL A   1      34.536  33.941  31.148  1.00  0.00     0.173 A 
ATOM     63  F   UNL A   1      35.187  34.578  27.628  1.00  0.00    -0.203 F 
ATOM     64  C   UNL A   1      33.654  35.574  29.071  1.00  0.00     0.198 A 
ATOM     65  C   UNL A   1      33.482  34.844  31.338  1.00  0.00     0.198 A 
ATOM     66  F   UNL A   1      34.950  33.239  32.210  1.00  0.00    -0.203 F 
ATOM     67  F   UNL A   1      33.296  36.406  28.082  1.00  0.00    -0.200 F 
ATOM     68  C   UNL A   1      33.076  35.691  30.318  1.00  0.00     0.200 A 
ATOM     69  F   UNL A   1      32.911  34.948  32.546  1.00  0.00    -0.200 F 
ATOM     70  F   UNL A   1      32.155  36.638  30.547  1.00  0.00    -0.200 F 
ENDBRANCH  46  60
BRANCH  47  71
ATOM     71  C   UNL A   1      45.209  31.880  32.924  1.00  0.00     0.064 A 
ATOM     72  C   UNL A   1      45.757  32.042  34.202  1.00  0.00     0.173 A 
ATOM     73  C   UNL A   1      46.186  31.812  31.886  1.00  0.00     0.173 A 
ATOM     74  F   UNL A   1      44.976  32.275  35.263  1.00  0.00    -0.203 F 
ATOM     75  C   UNL A   1      47.149  31.997  34.431  1.00  0.00     0.198 A 
ATOM     76  C   UNL A   1      47.558  31.711  32.114  1.00  0.00     0.198 A 
ATOM     77  F   UNL A   1      45.846  31.843  30.591  1.00  0.00    -0.203 F 
ATOM     78  F   UNL A   1      47.623  32.150  35.675  1.00  0.00    -0.200 F 
ATOM     79  C   UNL A   1      48.042  31.785  33.395  1.00  0.00     0.200 A 
ATOM     80  F   UNL A   1      48.391  31.529  31.079  1.00  0.00    -0.200 F 
ATOM     81  F   UNL A   1      49.358  31.676  33.625  1.00  0.00    -0.200 F 
ENDBRANCH  47  71
BRANCH  59  82
ATOM     82  C   UNL A   1      39.269  32.893  33.902  1.00  0.00     0.064 A 
ATOM     83  C   UNL A   1      39.348  33.163  35.278  1.00  0.00     0.173 A 
ATOM     84  C   UNL A   1      38.756  31.631  33.557  1.00  0.00     0.173 A 
ATOM     85  F   UNL A   1      39.801  34.353  35.699  1.00  0.00    -0.203 F 
ATOM     86  C   UNL A   1      38.972  32.221  36.239  1.00  0.00     0.198 A 
ATOM     87  C   UNL A   1      38.373  30.687  34.514  1.00  0.00     0.198 A 
ATOM     88  F   UNL A   1      38.615  31.281  32.281  1.00  0.00    -0.203 F 
ATOM     89  F   UNL A   1      39.075  32.519  37.542  1.00  0.00    -0.200 F 
ATOM     90  C   UNL A   1      38.489  30.980  35.859  1.00  0.00     0.200 A 
ATOM     91  F   UNL A   1      37.889  29.496  34.128  1.00  0.00    -0.200 F 
ATOM     92  F   UNL A   1      38.119  30.080  36.781  1.00  0.00    -0.200 F 
ENDBRANCH  59  82
ENDBRANCH  33  34
ENDBRANCH  25  28
ENDBRANCH  23  24
ENDBRANCH  22  23
ENDBRANCH   1  22
TORSDOF 13
ENDMDL
MODEL 2
REMARK VINA RESULT:     -12.5      5.097     11.217
REMARK SMILES C[C@@H]1CCC[C@H](C)N1C(=O)Cn1cccc1C(=O)NCCCNC(=O)c1ccc(-c2c3nc(c(-c4c(F)c(F)c(F)c(F)c4F)c4ccc([nH]4)c(-c4c(F)c(F)c(F)c(F)c4F)c4nc(c(-c5c(F)c(F)c(F)c(F)c5F)c5ccc2[nH]5)C=C4)C=C3)cc1
REMARK SMILES IDX 20 1 19 2 17 3 18 4 16 6 12 7 13 8 14 9 15 10 11 11 9 12
REMARK SMILES IDX 10 13 8 14 1 15 2 16 3 17 4 18 6 19 5 20 7 21 21 22 22 23
REMARK SMILES IDX 23 24 24 25 25 27 26 28 27 29 88 30 28 31 87 32 29 33 30 34
REMARK SMILES IDX 31 35 81 36 32 37 86 38 80 39 82 40 33 41 85 42 79 43 78 44
REMARK SMILES IDX 34 46 66 47 46 48 65 49 47 50 50 51 64 52 83 53 48 54 49 55
REMARK SMILES IDX 63 57 84 58 51 59 35 60 36 61 44 62 37 63 38 64 42 65 45 66
REMARK SMILES IDX 39 67 40 68 43 69 41 70 67 71 68 72 76 73 69 74 70 75 74 76
REMARK SMILES IDX 77 77 71 78 72 79 75 80 73 81 52 82 53 83 61 84 54 85 55 86
REMARK SMILES IDX 59 87 62 88 56 89 57 90 60 91 58 92
REMARK H PARENT 19 5 23 26 82 45 50 56
REMARK Flexibility Score: inf
ROOT
ATOM      1  C   UNL A   1      35.860  33.872  28.386  1.00  0.00     0.118 C 
ENDROOT
BRANCH   1   2
ATOM      2  N   UNL A   1      34.506  34.204  28.950  1.00  0.00    -0.351 N 
ATOM      3  C   UNL A   1      33.716  34.795  29.914  1.00  0.00     0.267 C 
ATOM      4  O   UNL A   1      32.571  34.903  29.436  1.00  0.00    -0.268 OA
ATOM      5  H   UNL A   1      33.868  33.798  28.320  1.00  0.00     0.163 HD
BRANCH   3   6
ATOM      6  C   UNL A   1      33.910  35.324  31.279  1.00  0.00     0.107 A 
ATOM      7  N   UNL A   1      34.711  35.054  32.382  1.00  0.00    -0.334 N 
ATOM      8  C   UNL A   1      34.482  35.991  33.391  1.00  0.00     0.087 A 
ATOM      9  C   UNL A   1      33.283  36.592  33.139  1.00  0.00     0.020 A 
ATOM     10  C   UNL A   1      32.930  36.179  31.841  1.00  0.00     0.033 A 
BRANCH   7  11
ATOM     11  C   UNL A   1      35.443  33.864  32.785  1.00  0.00     0.222 C 
BRANCH  11  12
ATOM     12  C   UNL A   1      36.934  33.975  32.882  1.00  0.00     0.242 C 
ATOM     13  O   UNL A   1      37.386  35.091  33.143  1.00  0.00    -0.273 OA
BRANCH  12  14
ATOM     14  N   UNL A   1      37.699  32.799  32.859  1.00  0.00    -0.336 N 
ATOM     15  C   UNL A   1      37.741  31.959  35.151  1.00  0.00     0.031 C 
ATOM     16  C   UNL A   1      37.246  31.715  33.722  1.00  0.00     0.082 C 
ATOM     17  C   UNL A   1      37.574  30.342  33.138  1.00  0.00     0.025 C 
ATOM     18  C   UNL A   1      39.010  30.196  32.649  1.00  0.00     0.004 C 
ATOM     19  C   UNL A   1      39.105  32.703  32.366  1.00  0.00     0.082 C 
ATOM     20  C   UNL A   1      39.360  31.339  31.708  1.00  0.00     0.025 C 
ATOM     21  C   UNL A   1      40.223  33.033  33.360  1.00  0.00     0.031 C 
ENDBRANCH  12  14
ENDBRANCH  11  12
ENDBRANCH   7  11
ENDBRANCH   3   6
ENDBRANCH   1   2
BRANCH   1  22
ATOM     22  C   UNL A   1      36.817  32.940  29.151  1.00  0.00     0.042 C 
BRANCH  22  23
ATOM     23  C   UNL A   1      36.440  31.673  29.916  1.00  0.00     0.118 C 
BRANCH  23  24
ATOM     24  N   UNL A   1      35.577  30.694  29.297  1.00  0.00    -0.352 N 
ATOM     25  C   UNL A   1      36.002  29.678  28.445  1.00  0.00     0.251 C 
ATOM     26  H   UNL A   1      34.614  30.751  29.491  1.00  0.00     0.163 HD
ATOM     27  O   UNL A   1      35.233  29.197  27.632  1.00  0.00    -0.269 OA
BRANCH  25  28
ATOM     28  C   UNL A   1      37.411  29.192  28.502  1.00  0.00     0.039 A 
ATOM     29  C   UNL A   1      38.294  29.533  27.471  1.00  0.00     0.014 A 
ATOM     30  C   UNL A   1      37.845  28.355  29.536  1.00  0.00     0.014 A 
ATOM     31  C   UNL A   1      39.601  29.050  27.501  1.00  0.00     0.010 A 
ATOM     32  C   UNL A   1      39.172  27.974  29.636  1.00  0.00     0.010 A 
ATOM     33  C   UNL A   1      40.035  28.274  28.589  1.00  0.00    -0.014 A 
BRANCH  33  34
ATOM     34  C   UNL A   1      41.416  27.748  28.574  1.00  0.00     0.031 A 
ATOM     35  C   UNL A   1      41.458  26.342  27.965  1.00  0.00     0.074 A 
ATOM     36  C   UNL A   1      42.349  28.527  29.210  1.00  0.00     0.049 A 
ATOM     37  N   UNL A   1      42.026  25.266  28.410  1.00  0.00    -0.248 NA
ATOM     38  C   UNL A   1      40.653  26.056  26.748  1.00  0.00     0.031 C 
ATOM     39  C   UNL A   1      42.133  29.932  29.637  1.00  0.00     0.029 A 
ATOM     40  N   UNL A   1      43.643  28.323  29.649  1.00  0.00    -0.354 N 
ATOM     41  C   UNL A   1      41.800  24.229  27.475  1.00  0.00     0.074 A 
ATOM     42  C   UNL A   1      40.845  24.747  26.539  1.00  0.00     0.031 C 
ATOM     43  C   UNL A   1      43.183  30.403  30.337  1.00  0.00     0.029 A 
ATOM     44  C   UNL A   1      44.174  29.360  30.475  1.00  0.00     0.049 A 
ATOM     45  H   UNL A   1      44.161  27.521  29.411  1.00  0.00     0.167 HD
ATOM     46  C   UNL A   1      42.532  23.071  27.476  1.00  0.00     0.037 A 
ATOM     47  C   UNL A   1      45.281  29.347  31.283  1.00  0.00     0.037 A 
ATOM     48  C   UNL A   1      43.520  23.152  28.501  1.00  0.00     0.049 A 
ATOM     49  C   UNL A   1      45.876  28.024  31.065  1.00  0.00     0.074 A 
ATOM     50  C   UNL A   1      43.441  23.070  29.865  1.00  0.00     0.029 A 
ATOM     51  N   UNL A   1      44.710  23.744  28.148  1.00  0.00    -0.354 N 
ATOM     52  N   UNL A   1      46.518  27.669  29.995  1.00  0.00    -0.248 NA
ATOM     53  C   UNL A   1      45.617  26.973  32.059  1.00  0.00     0.031 C 
ATOM     54  C   UNL A   1      44.334  24.073  30.290  1.00  0.00     0.029 A 
ATOM     55  C   UNL A   1      45.112  24.511  29.210  1.00  0.00     0.049 A 
ATOM     56  H   UNL A   1      45.184  23.638  27.292  1.00  0.00     0.167 HD
ATOM     57  C   UNL A   1      46.432  26.299  30.055  1.00  0.00     0.074 A 
ATOM     58  C   UNL A   1      46.193  25.951  31.437  1.00  0.00     0.031 C 
ATOM     59  C   UNL A   1      46.008  25.613  28.962  1.00  0.00     0.037 A 
BRANCH  46  60
ATOM     60  C   UNL A   1      42.695  21.923  26.514  1.00  0.00     0.064 A 
ATOM     61  C   UNL A   1      42.216  20.645  26.916  1.00  0.00     0.173 A 
ATOM     62  C   UNL A   1      43.591  21.931  25.442  1.00  0.00     0.173 A 
ATOM     63  F   UNL A   1      41.302  20.528  27.893  1.00  0.00    -0.203 F 
ATOM     64  C   UNL A   1      42.732  19.460  26.396  1.00  0.00     0.198 A 
ATOM     65  C   UNL A   1      44.067  20.737  24.884  1.00  0.00     0.198 A 
ATOM     66  F   UNL A   1      44.102  23.078  24.978  1.00  0.00    -0.203 F 
ATOM     67  F   UNL A   1      42.364  18.281  26.921  1.00  0.00    -0.200 F 
ATOM     68  C   UNL A   1      43.676  19.507  25.392  1.00  0.00     0.200 A 
ATOM     69  F   UNL A   1      44.974  20.784  23.899  1.00  0.00    -0.200 F 
ATOM     70  F   UNL A   1      44.233  18.377  24.937  1.00  0.00    -0.200 F 
ENDBRANCH  46  60
BRANCH  47  71
ATOM     71  C   UNL A   1      45.901  30.194  32.379  1.00  0.00     0.064 A 
ATOM     72  C   UNL A   1      47.164  30.795  32.353  1.00  0.00     0.173 A 
ATOM     73  C   UNL A   1      45.149  30.490  33.556  1.00  0.00     0.173 A 
ATOM     74  F   UNL A   1      48.050  30.497  31.396  1.00  0.00    -0.203 F 
ATOM     75  C   UNL A   1      47.577  31.714  33.342  1.00  0.00     0.198 A 
ATOM     76  C   UNL A   1      45.530  31.439  34.504  1.00  0.00     0.198 A 
ATOM     77  F   UNL A   1      44.002  29.860  33.840  1.00  0.00    -0.203 F 
ATOM     78  F   UNL A   1      48.794  32.268  33.268  1.00  0.00    -0.200 F 
ATOM     79  C   UNL A   1      46.741  32.069  34.387  1.00  0.00     0.200 A 
ATOM     80  F   UNL A   1      44.700  31.737  35.515  1.00  0.00    -0.200 F 
ATOM     81  F   UNL A   1      47.109  32.993  35.286  1.00  0.00    -0.200 F 
ENDBRANCH  47  71
BRANCH  59  82
ATOM     82  C   UNL A   1      46.222  26.349  27.649  1.00  0.00     0.064 A 
ATOM     83  C   UNL A   1      45.112  26.721  26.872  1.00  0.00     0.173 A 
ATOM     84  C   UNL A   1      47.479  26.580  27.065  1.00  0.00     0.173 A 
ATOM     85  F   UNL A   1      43.873  26.560  27.360  1.00  0.00    -0.203 F 
ATOM     86  C   UNL A   1      45.253  27.254  25.587  1.00  0.00     0.198 A 
ATOM     87  C   UNL A   1      47.626  27.119  25.783  1.00  0.00     0.198 A 
ATOM     88  F   UNL A   1      48.597  26.289  27.723  1.00  0.00    -0.203 F 
ATOM     89  F   UNL A   1      44.164  27.583  24.879  1.00  0.00    -0.200 F 
ATOM     90  C   UNL A   1      46.509  27.449  25.039  1.00  0.00     0.200 A 
ATOM     91  F   UNL A   1      48.852  27.319  25.274  1.00  0.00    -0.200 F 
ATOM     92  F   UNL A   1      46.645  27.969  23.811  1.00  0.00    -0.200 F 
ENDBRANCH  59  82
ENDBRANCH  33  34
ENDBRANCH  25  28
ENDBRANCH  23  24
ENDBRANCH  22  23
ENDBRANCH   1  22
TORSDOF 13
ENDMDL
MODEL 3
REMARK VINA RESULT:     -12.5      2.641      8.270
REMARK SMILES C[C@@H]1CCC[C@H](C)N1C(=O)Cn1cccc1C(=O)NCCCNC(=O)c1ccc(-c2c3nc(c(-c4c(F)c(F)c(F)c(F)c4F)c4ccc([nH]4)c(-c4c(F)c(F)c(F)c(F)c4F)c4nc(c(-c5c(F)c(F)c(F)c(F)c5F)c5ccc2[nH]5)C=C4)C=C3)cc1
REMARK SMILES IDX 20 1 19 2 17 3 18 4 16 6 12 7 13 8 14 9 15 10 11 11 9 12
REMARK SMILES IDX 10 13 8 14 1 15 2 16 3 17 4 18 6 19 5 20 7 21 21 22 22 23
REMARK SMILES IDX 23 24 24 25 25 27 26 28 27 29 88 30 28 31 87 32 29 33 30 34
REMARK SMILES IDX 31 35 81 36 32 37 86 38 80 39 82 40 33 41 85 42 79 43 78 44
REMARK SMILES IDX 34 46 66 47 46 48 65 49 47 50 50 51 64 52 83 53 48 54 49 55
REMARK SMILES IDX 63 57 84 58 51 59 35 60 36 61 44 62 37 63 38 64 42 65 45 66
REMARK SMILES IDX 39 67 40 68 43 69 41 70 67 71 68 72 76 73 69 74 70 75 74 76
REMARK SMILES IDX 77 77 71 78 72 79 75 80 73 81 52 82 53 83 61 84 54 85 55 86
REMARK SMILES IDX 59 87 62 88 56 89 57 90 60 91 58 92
REMARK H PARENT 19 5 23 26 82 45 50 56
REMARK Flexibility Score: inf
ROOT
ATOM      1  C   UNL A   1      38.097  22.613  25.820  1.00  0.00     0.118 C 
ENDROOT
BRANCH   1   2
ATOM      2  N   UNL A   1      37.334  22.785  24.536  1.00  0.00    -0.351 N 
ATOM      3  C   UNL A   1      36.154  23.009  23.858  1.00  0.00     0.267 C 
ATOM      4  O   UNL A   1      36.456  23.360  22.701  1.00  0.00    -0.268 OA
ATOM      5  H   UNL A   1      38.013  22.689  23.829  1.00  0.00     0.163 HD
BRANCH   3   6
ATOM      6  C   UNL A   1      34.713  22.964  24.175  1.00  0.00     0.107 A 
ATOM      7  N   UNL A   1      33.508  23.165  23.514  1.00  0.00    -0.334 N 
ATOM      8  C   UNL A   1      32.435  22.880  24.360  1.00  0.00     0.087 A 
ATOM      9  C   UNL A   1      32.896  22.905  25.644  1.00  0.00     0.020 A 
ATOM     10  C   UNL A   1      34.298  22.960  25.530  1.00  0.00     0.033 A 
BRANCH   7  11
ATOM     11  C   UNL A   1      33.175  23.892  22.300  1.00  0.00     0.222 C 
BRANCH  11  12
ATOM     12  C   UNL A   1      33.257  25.388  22.350  1.00  0.00     0.242 C 
ATOM     13  O   UNL A   1      33.545  25.956  21.296  1.00  0.00    -0.273 OA
BRANCH  12  14
ATOM     14  N   UNL A   1      32.829  26.046  23.512  1.00  0.00    -0.336 N 
ATOM     15  C   UNL A   1      31.030  27.549  22.830  1.00  0.00     0.031 C 
ATOM     16  C   UNL A   1      31.397  26.293  23.627  1.00  0.00     0.082 C 
ATOM     17  C   UNL A   1      30.927  26.276  25.080  1.00  0.00     0.025 C 
ATOM     18  C   UNL A   1      31.784  27.108  26.026  1.00  0.00     0.004 C 
ATOM     19  C   UNL A   1      33.709  26.850  24.413  1.00  0.00     0.082 C 
ATOM     20  C   UNL A   1      33.249  26.729  25.874  1.00  0.00     0.025 C 
ATOM     21  C   UNL A   1      33.936  28.320  24.046  1.00  0.00     0.031 C 
ENDBRANCH  12  14
ENDBRANCH  11  12
ENDBRANCH   7  11
ENDBRANCH   3   6
ENDBRANCH   1   2
BRANCH   1  22
ATOM     22  C   UNL A   1      39.114  21.468  25.977  1.00  0.00     0.042 C 
BRANCH  22  23
ATOM     23  C   UNL A   1      40.459  21.534  26.699  1.00  0.00     0.118 C 
BRANCH  23  24
ATOM     24  N   UNL A   1      41.677  21.647  25.932  1.00  0.00    -0.352 N 
ATOM     25  C   UNL A   1      42.306  22.843  25.599  1.00  0.00     0.251 C 
ATOM     26  H   UNL A   1      42.094  20.812  25.620  1.00  0.00     0.163 HD
ATOM     27  O   UNL A   1      43.027  22.907  24.620  1.00  0.00    -0.269 OA
BRANCH  25  28
ATOM     28  C   UNL A   1      42.074  24.066  26.423  1.00  0.00     0.039 A 
ATOM     29  C   UNL A   1      42.613  25.287  26.001  1.00  0.00     0.014 A 
ATOM     30  C   UNL A   1      41.381  23.998  27.637  1.00  0.00     0.014 A 
ATOM     31  C   UNL A   1      42.431  26.423  26.786  1.00  0.00     0.010 A 
ATOM     32  C   UNL A   1      41.093  25.143  28.358  1.00  0.00     0.010 A 
ATOM     33  C   UNL A   1      41.667  26.346  27.963  1.00  0.00    -0.014 A 
BRANCH  33  34
ATOM     34  C   UNL A   1      41.522  27.560  28.792  1.00  0.00     0.031 A 
ATOM     35  C   UNL A   1      42.424  27.488  30.029  1.00  0.00     0.074 A 
ATOM     36  C   UNL A   1      40.543  28.432  28.392  1.00  0.00     0.049 A 
ATOM     37  N   UNL A   1      42.141  27.711  31.273  1.00  0.00    -0.248 NA
ATOM     38  C   UNL A   1      43.813  26.976  29.882  1.00  0.00     0.031 C 
ATOM     39  C   UNL A   1      39.849  28.386  27.080  1.00  0.00     0.029 A 
ATOM     40  N   UNL A   1      39.908  29.512  28.977  1.00  0.00    -0.354 N 
ATOM     41  C   UNL A   1      43.321  27.535  32.033  1.00  0.00     0.074 A 
ATOM     42  C   UNL A   1      44.283  26.963  31.137  1.00  0.00     0.031 C 
ATOM     43  C   UNL A   1      38.856  29.296  27.013  1.00  0.00     0.029 A 
ATOM     44  C   UNL A   1      38.770  30.003  28.270  1.00  0.00     0.049 A 
ATOM     45  H   UNL A   1      40.219  29.912  29.822  1.00  0.00     0.167 HD
ATOM     46  C   UNL A   1      43.444  28.010  33.312  1.00  0.00     0.037 A 
ATOM     47  C   UNL A   1      37.778  30.848  28.698  1.00  0.00     0.037 A 
ATOM     48  C   UNL A   1      42.249  28.705  33.662  1.00  0.00     0.049 A 
ATOM     49  C   UNL A   1      38.177  31.217  30.060  1.00  0.00     0.074 A 
ATOM     50  C   UNL A   1      40.989  28.270  33.975  1.00  0.00     0.029 A 
ATOM     51  N   UNL A   1      42.199  30.035  33.317  1.00  0.00    -0.354 N 
ATOM     52  N   UNL A   1      39.145  32.029  30.354  1.00  0.00    -0.248 NA
ATOM     53  C   UNL A   1      37.534  30.521  31.184  1.00  0.00     0.031 C 
ATOM     54  C   UNL A   1      40.165  29.201  33.312  1.00  0.00     0.029 A 
ATOM     55  C   UNL A   1      40.927  30.295  32.880  1.00  0.00     0.049 A 
ATOM     56  H   UNL A   1      42.940  30.681  33.373  1.00  0.00     0.167 HD
ATOM     57  C   UNL A   1      39.431  31.673  31.649  1.00  0.00     0.074 A 
ATOM     58  C   UNL A   1      38.249  31.031  32.181  1.00  0.00     0.031 C 
ATOM     59  C   UNL A   1      40.718  31.416  31.999  1.00  0.00     0.037 A 
BRANCH  46  60
ATOM     60  C   UNL A   1      44.596  28.190  34.267  1.00  0.00     0.064 A 
ATOM     61  C   UNL A   1      44.427  27.739  35.605  1.00  0.00     0.173 A 
ATOM     62  C   UNL A   1      45.651  29.080  34.048  1.00  0.00     0.173 A 
ATOM     63  F   UNL A   1      43.485  26.833  35.913  1.00  0.00    -0.203 F 
ATOM     64  C   UNL A   1      45.152  28.275  36.667  1.00  0.00     0.198 A 
ATOM     65  C   UNL A   1      46.414  29.576  35.114  1.00  0.00     0.198 A 
ATOM     66  F   UNL A   1      45.904  29.565  32.827  1.00  0.00    -0.203 F 
ATOM     67  F   UNL A   1      44.845  27.934  37.928  1.00  0.00    -0.200 F 
ATOM     68  C   UNL A   1      46.133  29.212  36.422  1.00  0.00     0.200 A 
ATOM     69  F   UNL A   1      47.377  30.477  34.873  1.00  0.00    -0.200 F 
ATOM     70  F   UNL A   1      46.784  29.788  37.442  1.00  0.00    -0.200 F 
ENDBRANCH  46  60
BRANCH  47  71
ATOM     71  C   UNL A   1      36.409  31.320  28.243  1.00  0.00     0.064 A 
ATOM     72  C   UNL A   1      35.336  30.510  27.856  1.00  0.00     0.173 A 
ATOM     73  C   UNL A   1      36.106  32.714  28.239  1.00  0.00     0.173 A 
ATOM     74  F   UNL A   1      35.497  29.197  27.659  1.00  0.00    -0.203 F 
ATOM     75  C   UNL A   1      34.046  31.036  27.626  1.00  0.00     0.198 A 
ATOM     76  C   UNL A   1      34.823  33.231  28.068  1.00  0.00     0.198 A 
ATOM     77  F   UNL A   1      37.056  33.645  28.402  1.00  0.00    -0.203 F 
ATOM     78  F   UNL A   1      33.049  30.218  27.264  1.00  0.00    -0.200 F 
ATOM     79  C   UNL A   1      33.783  32.387  27.779  1.00  0.00     0.200 A 
ATOM     80  F   UNL A   1      34.615  34.550  28.202  1.00  0.00    -0.200 F 
ATOM     81  F   UNL A   1      32.543  32.873  27.626  1.00  0.00    -0.200 F 
ENDBRANCH  47  71
BRANCH  59  82
ATOM     82  C   UNL A   1      41.747  32.090  31.104  1.00  0.00     0.064 A 
ATOM     83  C   UNL A   1      41.807  33.492  31.050  1.00  0.00     0.173 A 
ATOM     84  C   UNL A   1      42.580  31.408  30.202  1.00  0.00     0.173 A 
ATOM     85  F   UNL A   1      41.065  34.225  31.892  1.00  0.00    -0.203 F 
ATOM     86  C   UNL A   1      42.620  34.162  30.130  1.00  0.00     0.198 A 
ATOM     87  C   UNL A   1      43.399  32.073  29.284  1.00  0.00     0.198 A 
ATOM     88  F   UNL A   1      42.620  30.079  30.186  1.00  0.00    -0.203 F 
ATOM     89  F   UNL A   1      42.636  35.502  30.107  1.00  0.00    -0.200 F 
ATOM     90  C   UNL A   1      43.413  33.454  29.243  1.00  0.00     0.200 A 
ATOM     91  F   UNL A   1      44.176  31.371  28.444  1.00  0.00    -0.200 F 
ATOM     92  F   UNL A   1      44.199  34.096  28.368  1.00  0.00    -0.200 F 
ENDBRANCH  59  82
ENDBRANCH  33  34
ENDBRANCH  25  28
ENDBRANCH  23  24
ENDBRANCH  22  23
ENDBRANCH   1  22
TORSDOF 13
ENDMDL
