MODEL 1
REMARK VINA RESULT:     -11.9      0.000      0.000
REMARK SMILES CC(C)=CC[C@@]1(C(=O)NCCCNC(=O)c2ccc(-c3c4nc(c(-c5c(F)c(F)c(F)c(F)c5F)c5ccc([nH]5)c(-c5c(F)c(F)c(F)c(F)c5F)c5nc(c(-c6c(F)c(F)c(F)c(F)c6F)c6ccc3[nH]6)C=C5)C=C4)cc2)CCC[C@H](C)C1
REMARK SMILES IDX 11 1 10 2 9 3 7 4 8 5 6 7 79 8 84 9 80 10 82 11 81 12 83 13
REMARK SMILES IDX 5 14 4 15 1 16 2 17 3 18 12 19 13 20 14 21 15 23 16 24 17 25
REMARK SMILES IDX 78 26 18 27 77 28 19 29 20 30 21 31 71 32 22 33 76 34 70 35
REMARK SMILES IDX 72 36 23 37 75 38 69 39 68 40 24 42 56 43 36 44 55 45 37 46
REMARK SMILES IDX 40 47 54 48 73 49 38 50 39 51 53 53 74 54 41 55 25 56 26 57
REMARK SMILES IDX 34 58 27 59 28 60 32 61 35 62 29 63 30 64 33 65 31 66 57 67
REMARK SMILES IDX 58 68 66 69 59 70 60 71 64 72 67 73 61 74 62 75 65 76 63 77
REMARK SMILES IDX 42 78 43 79 51 80 44 81 45 82 49 83 52 84 46 85 47 86 50 87
REMARK SMILES IDX 48 88
REMARK H PARENT 9 6 13 22 72 41 40 52
REMARK Flexibility Score: inf
ROOT
ATOM      1  C   UNL A   1      31.405  32.467  26.757  1.00  0.00     0.042 C 
ENDROOT
BRANCH   1   2
ATOM      2  C   UNL A   1      31.513  30.960  26.550  1.00  0.00     0.117 C 
BRANCH   2   3
ATOM      3  N   UNL A   1      32.859  30.521  26.864  1.00  0.00    -0.356 N 
ATOM      4  C   UNL A   1      33.436  29.290  26.868  1.00  0.00     0.226 C 
ATOM      5  O   UNL A   1      34.399  29.163  27.630  1.00  0.00    -0.274 OA
ATOM      6  H   UNL A   1      33.469  31.249  27.125  1.00  0.00     0.163 HD
BRANCH   4   7
ATOM      7  C   UNL A   1      32.931  28.131  25.986  1.00  0.00     0.053 C 
ATOM      8  C   UNL A   1      31.672  27.528  26.679  1.00  0.00     0.017 C 
ATOM      9  C   UNL A   1      34.022  27.016  25.953  1.00  0.00     0.020 C 
ATOM     10  C   UNL A   1      31.212  26.177  26.131  1.00  0.00     0.001 C 
ATOM     11  C   UNL A   1      33.546  25.696  25.329  1.00  0.00    -0.013 C 
ATOM     12  C   UNL A   1      32.337  25.156  26.097  1.00  0.00     0.003 C 
ATOM     13  C   UNL A   1      34.675  24.668  25.319  1.00  0.00     0.007 C 
BRANCH   7  14
ATOM     14  C   UNL A   1      32.619  28.626  24.539  1.00  0.00     0.044 C 
BRANCH  14  15
ATOM     15  C   UNL A   1      31.220  28.765  23.970  1.00  0.00    -0.027 C 
ATOM     16  C   UNL A   1      30.841  26.794  22.390  1.00  0.00     0.039 C 
ATOM     17  C   UNL A   1      30.464  28.055  23.107  1.00  0.00    -0.080 C 
ATOM     18  C   UNL A   1      29.089  28.575  22.754  1.00  0.00     0.039 C 
ENDBRANCH  14  15
ENDBRANCH   7  14
ENDBRANCH   4   7
ENDBRANCH   2   3
ENDBRANCH   1   2
BRANCH   1  19
ATOM     19  C   UNL A   1      32.714  33.083  27.236  1.00  0.00     0.118 C 
BRANCH  19  20
ATOM     20  N   UNL A   1      32.520  34.444  27.714  1.00  0.00    -0.352 N 
ATOM     21  C   UNL A   1      33.067  35.053  28.813  1.00  0.00     0.251 C 
ATOM     22  H   UNL A   1      31.915  35.003  27.175  1.00  0.00     0.163 HD
ATOM     23  O   UNL A   1      32.623  36.124  29.211  1.00  0.00    -0.269 OA
BRANCH  21  24
ATOM     24  C   UNL A   1      34.191  34.409  29.523  1.00  0.00     0.039 A 
ATOM     25  C   UNL A   1      35.485  34.576  29.026  1.00  0.00     0.014 A 
ATOM     26  C   UNL A   1      33.963  33.618  30.654  1.00  0.00     0.014 A 
ATOM     27  C   UNL A   1      36.558  33.971  29.682  1.00  0.00     0.010 A 
ATOM     28  C   UNL A   1      35.039  33.073  31.345  1.00  0.00     0.010 A 
ATOM     29  C   UNL A   1      36.344  33.228  30.853  1.00  0.00    -0.014 A 
BRANCH  29  30
ATOM     30  C   UNL A   1      37.472  32.570  31.554  1.00  0.00     0.031 A 
ATOM     31  C   UNL A   1      38.185  31.417  30.907  1.00  0.00     0.074 A 
ATOM     32  C   UNL A   1      37.819  32.978  32.788  1.00  0.00     0.049 A 
ATOM     33  N   UNL A   1      39.160  30.678  31.372  1.00  0.00    -0.248 NA
ATOM     34  C   UNL A   1      37.722  31.022  29.566  1.00  0.00     0.031 C 
ATOM     35  C   UNL A   1      37.169  34.055  33.536  1.00  0.00     0.029 A 
ATOM     36  N   UNL A   1      38.801  32.530  33.635  1.00  0.00    -0.354 N 
ATOM     37  C   UNL A   1      39.415  29.728  30.392  1.00  0.00     0.074 A 
ATOM     38  C   UNL A   1      38.457  29.947  29.330  1.00  0.00     0.031 C 
ATOM     39  C   UNL A   1      37.783  34.200  34.721  1.00  0.00     0.029 A 
ATOM     40  C   UNL A   1      38.847  33.206  34.828  1.00  0.00     0.049 A 
ATOM     41  H   UNL A   1      39.413  31.793  33.408  1.00  0.00     0.167 HD
ATOM     42  C   UNL A   1      40.375  28.774  30.370  1.00  0.00     0.037 A 
ATOM     43  C   UNL A   1      39.660  33.040  35.890  1.00  0.00     0.037 A 
ATOM     44  C   UNL A   1      41.343  28.580  31.417  1.00  0.00     0.049 A 
ATOM     45  C   UNL A   1      40.726  31.979  35.836  1.00  0.00     0.074 A 
ATOM     46  C   UNL A   1      42.396  27.684  31.465  1.00  0.00     0.029 A 
ATOM     47  N   UNL A   1      41.376  29.302  32.602  1.00  0.00    -0.354 N 
ATOM     48  N   UNL A   1      41.001  31.131  34.875  1.00  0.00    -0.248 NA
ATOM     49  C   UNL A   1      41.600  31.861  37.010  1.00  0.00     0.031 C 
ATOM     50  C   UNL A   1      43.041  27.835  32.698  1.00  0.00     0.029 A 
ATOM     51  C   UNL A   1      42.419  28.857  33.397  1.00  0.00     0.049 A 
ATOM     52  H   UNL A   1      40.749  30.022  32.842  1.00  0.00     0.167 HD
ATOM     53  C   UNL A   1      42.095  30.398  35.316  1.00  0.00     0.074 A 
ATOM     54  C   UNL A   1      42.441  30.911  36.625  1.00  0.00     0.031 C 
ATOM     55  C   UNL A   1      42.752  29.389  34.693  1.00  0.00     0.037 A 
BRANCH  42  56
ATOM     56  C   UNL A   1      40.427  27.870  29.173  1.00  0.00     0.064 A 
ATOM     57  C   UNL A   1      39.669  26.689  29.111  1.00  0.00     0.173 A 
ATOM     58  C   UNL A   1      41.221  28.198  28.065  1.00  0.00     0.173 A 
ATOM     59  F   UNL A   1      38.903  26.324  30.150  1.00  0.00    -0.203 F 
ATOM     60  C   UNL A   1      39.729  25.857  27.997  1.00  0.00     0.198 A 
ATOM     61  C   UNL A   1      41.255  27.378  26.939  1.00  0.00     0.198 A 
ATOM     62  F   UNL A   1      41.961  29.317  28.069  1.00  0.00    -0.203 F 
ATOM     63  F   UNL A   1      39.036  24.710  27.981  1.00  0.00    -0.200 F 
ATOM     64  C   UNL A   1      40.517  26.204  26.910  1.00  0.00     0.200 A 
ATOM     65  F   UNL A   1      42.008  27.721  25.885  1.00  0.00    -0.200 F 
ATOM     66  F   UNL A   1      40.569  25.405  25.835  1.00  0.00    -0.200 F 
ENDBRANCH  42  56
BRANCH  43  67
ATOM     67  C   UNL A   1      39.518  33.922  37.075  1.00  0.00     0.064 A 
ATOM     68  C   UNL A   1      38.769  33.516  38.188  1.00  0.00     0.173 A 
ATOM     69  C   UNL A   1      40.127  35.184  37.124  1.00  0.00     0.173 A 
ATOM     70  F   UNL A   1      38.152  32.325  38.179  1.00  0.00    -0.203 F 
ATOM     71  C   UNL A   1      38.619  34.345  39.296  1.00  0.00     0.198 A 
ATOM     72  C   UNL A   1      39.997  36.002  38.244  1.00  0.00     0.198 A 
ATOM     73  F   UNL A   1      40.860  35.617  36.088  1.00  0.00    -0.203 F 
ATOM     74  F   UNL A   1      37.862  33.949  40.329  1.00  0.00    -0.200 F 
ATOM     75  C   UNL A   1      39.238  35.586  39.326  1.00  0.00     0.200 A 
ATOM     76  F   UNL A   1      40.609  37.194  38.275  1.00  0.00    -0.200 F 
ATOM     77  F   UNL A   1      39.095  36.381  40.395  1.00  0.00    -0.200 F 
ENDBRANCH  43  67
BRANCH  55  78
ATOM     78  C   UNL A   1      43.934  28.799  35.405  1.00  0.00     0.064 A 
ATOM     79  C   UNL A   1      45.236  29.269  35.181  1.00  0.00     0.173 A 
ATOM     80  C   UNL A   1      43.755  27.780  36.353  1.00  0.00     0.173 A 
ATOM     81  F   UNL A   1      45.460  30.232  34.274  1.00  0.00    -0.203 F 
ATOM     82  C   UNL A   1      46.319  28.722  35.864  1.00  0.00     0.198 A 
ATOM     83  C   UNL A   1      44.836  27.256  37.053  1.00  0.00     0.198 A 
ATOM     84  F   UNL A   1      42.527  27.302  36.606  1.00  0.00    -0.203 F 
ATOM     85  F   UNL A   1      47.561  29.154  35.602  1.00  0.00    -0.200 F 
ATOM     86  C   UNL A   1      46.118  27.722  36.804  1.00  0.00     0.200 A 
ATOM     87  F   UNL A   1      44.638  26.298  37.970  1.00  0.00    -0.200 F 
ATOM     88  F   UNL A   1      47.161  27.201  37.464  1.00  0.00    -0.200 F 
ENDBRANCH  55  78
ENDBRANCH  29  30
ENDBRANCH  21  24
ENDBRANCH  19  20
ENDBRANCH   1  19
TORSDOF 12
ENDMDL
MODEL 2
REMARK VINA RESULT:     -11.9      0.639      1.804
REMARK SMILES CC(C)=CC[C@@]1(C(=O)NCCCNC(=O)c2ccc(-c3c4nc(c(-c5c(F)c(F)c(F)c(F)c5F)c5ccc([nH]5)c(-c5c(F)c(F)c(F)c(F)c5F)c5nc(c(-c6c(F)c(F)c(F)c(F)c6F)c6ccc3[nH]6)C=C5)C=C4)cc2)CCC[C@H](C)C1
REMARK SMILES IDX 11 1 10 2 9 3 7 4 8 5 6 7 79 8 84 9 80 10 82 11 81 12 83 13
REMARK SMILES IDX 5 14 4 15 1 16 2 17 3 18 12 19 13 20 14 21 15 23 16 24 17 25
REMARK SMILES IDX 78 26 18 27 77 28 19 29 20 30 21 31 71 32 22 33 76 34 70 35
REMARK SMILES IDX 72 36 23 37 75 38 69 39 68 40 24 42 56 43 36 44 55 45 37 46
REMARK SMILES IDX 40 47 54 48 73 49 38 50 39 51 53 53 74 54 41 55 25 56 26 57
REMARK SMILES IDX 34 58 27 59 28 60 32 61 35 62 29 63 30 64 33 65 31 66 57 67
REMARK SMILES IDX 58 68 66 69 59 70 60 71 64 72 67 73 61 74 62 75 65 76 63 77
REMARK SMILES IDX 42 78 43 79 51 80 44 81 45 82 49 83 52 84 46 85 47 86 50 87
REMARK SMILES IDX 48 88
REMARK H PARENT 9 6 13 22 72 41 40 52
REMARK Flexibility Score: inf
ROOT
ATOM      1  C   UNL A   1      31.354  32.290  26.838  1.00  0.00     0.042 C 
ENDROOT
BRANCH   1   2
ATOM      2  C   UNL A   1      31.545  30.952  26.132  1.00  0.00     0.117 C 
BRANCH   2   3
ATOM      3  N   UNL A   1      31.820  29.920  27.112  1.00  0.00    -0.356 N 
ATOM      4  C   UNL A   1      31.896  28.566  27.009  1.00  0.00     0.226 C 
ATOM      5  O   UNL A   1      31.651  27.946  28.048  1.00  0.00    -0.274 OA
ATOM      6  H   UNL A   1      31.981  30.261  28.022  1.00  0.00     0.163 HD
BRANCH   4   7
ATOM      7  C   UNL A   1      32.264  27.850  25.694  1.00  0.00     0.053 C 
ATOM      8  C   UNL A   1      33.587  28.485  25.169  1.00  0.00     0.017 C 
ATOM      9  C   UNL A   1      31.156  28.146  24.637  1.00  0.00     0.020 C 
ATOM     10  C   UNL A   1      33.949  28.135  23.725  1.00  0.00     0.001 C 
ATOM     11  C   UNL A   1      31.525  27.714  23.209  1.00  0.00    -0.013 C 
ATOM     12  C   UNL A   1      32.809  28.416  22.761  1.00  0.00     0.003 C 
ATOM     13  C   UNL A   1      30.383  28.021  22.243  1.00  0.00     0.007 C 
BRANCH   7  14
ATOM     14  C   UNL A   1      32.403  26.312  25.917  1.00  0.00     0.044 C 
BRANCH  14  15
ATOM     15  C   UNL A   1      33.726  25.571  25.931  1.00  0.00    -0.027 C 
ATOM     16  C   UNL A   1      33.993  24.447  23.652  1.00  0.00     0.039 C 
ATOM     17  C   UNL A   1      34.406  24.810  25.046  1.00  0.00    -0.080 C 
ATOM     18  C   UNL A   1      35.716  24.194  25.480  1.00  0.00     0.039 C 
ENDBRANCH  14  15
ENDBRANCH   7  14
ENDBRANCH   4   7
ENDBRANCH   2   3
ENDBRANCH   1   2
BRANCH   1  19
ATOM     19  C   UNL A   1      32.678  32.979  27.147  1.00  0.00     0.118 C 
BRANCH  19  20
ATOM     20  N   UNL A   1      32.475  34.338  27.626  1.00  0.00    -0.352 N 
ATOM     21  C   UNL A   1      33.034  34.956  28.714  1.00  0.00     0.251 C 
ATOM     22  H   UNL A   1      31.853  34.887  27.097  1.00  0.00     0.163 HD
ATOM     23  O   UNL A   1      32.583  36.022  29.118  1.00  0.00    -0.269 OA
BRANCH  21  24
ATOM     24  C   UNL A   1      34.180  34.329  29.404  1.00  0.00     0.039 A 
ATOM     25  C   UNL A   1      35.470  34.585  28.935  1.00  0.00     0.014 A 
ATOM     26  C   UNL A   1      33.977  33.466  30.486  1.00  0.00     0.014 A 
ATOM     27  C   UNL A   1      36.563  33.998  29.573  1.00  0.00     0.010 A 
ATOM     28  C   UNL A   1      35.070  32.936  31.162  1.00  0.00     0.010 A 
ATOM     29  C   UNL A   1      36.371  33.181  30.699  1.00  0.00    -0.014 A 
BRANCH  29  30
ATOM     30  C   UNL A   1      37.522  32.540  31.379  1.00  0.00     0.031 A 
ATOM     31  C   UNL A   1      38.244  31.401  30.716  1.00  0.00     0.074 A 
ATOM     32  C   UNL A   1      37.883  32.951  32.608  1.00  0.00     0.049 A 
ATOM     33  N   UNL A   1      39.240  30.679  31.162  1.00  0.00    -0.248 NA
ATOM     34  C   UNL A   1      37.766  31.003  29.382  1.00  0.00     0.031 C 
ATOM     35  C   UNL A   1      37.226  34.014  33.370  1.00  0.00     0.029 A 
ATOM     36  N   UNL A   1      38.885  32.517  33.437  1.00  0.00    -0.354 N 
ATOM     37  C   UNL A   1      39.494  29.736  30.175  1.00  0.00     0.074 A 
ATOM     38  C   UNL A   1      38.516  29.942  29.129  1.00  0.00     0.031 C 
ATOM     39  C   UNL A   1      37.857  34.165  34.546  1.00  0.00     0.029 A 
ATOM     40  C   UNL A   1      38.940  33.190  34.632  1.00  0.00     0.049 A 
ATOM     41  H   UNL A   1      39.507  31.791  33.198  1.00  0.00     0.167 HD
ATOM     42  C   UNL A   1      40.471  28.799  30.135  1.00  0.00     0.037 A 
ATOM     43  C   UNL A   1      39.772  33.034  35.680  1.00  0.00     0.037 A 
ATOM     44  C   UNL A   1      41.459  28.619  31.165  1.00  0.00     0.049 A 
ATOM     45  C   UNL A   1      40.856  31.993  35.605  1.00  0.00     0.074 A 
ATOM     46  C   UNL A   1      42.527  27.740  31.193  1.00  0.00     0.029 A 
ATOM     47  N   UNL A   1      41.498  29.337  32.352  1.00  0.00    -0.354 N 
ATOM     48  N   UNL A   1      41.130  31.152  34.637  1.00  0.00    -0.248 NA
ATOM     49  C   UNL A   1      41.751  31.886  36.764  1.00  0.00     0.031 C 
ATOM     50  C   UNL A   1      43.190  27.898  32.416  1.00  0.00     0.029 A 
ATOM     51  C   UNL A   1      42.562  28.908  33.128  1.00  0.00     0.049 A 
ATOM     52  H   UNL A   1      40.864  30.045  32.604  1.00  0.00     0.167 HD
ATOM     53  C   UNL A   1      42.242  30.437  35.057  1.00  0.00     0.074 A 
ATOM     54  C   UNL A   1      42.601  30.952  36.362  1.00  0.00     0.031 C 
ATOM     55  C   UNL A   1      42.907  29.442  34.421  1.00  0.00     0.037 A 
BRANCH  42  56
ATOM     56  C   UNL A   1      40.519  27.900  28.934  1.00  0.00     0.064 A 
ATOM     57  C   UNL A   1      39.765  26.716  28.872  1.00  0.00     0.173 A 
ATOM     58  C   UNL A   1      41.304  28.235  27.822  1.00  0.00     0.173 A 
ATOM     59  F   UNL A   1      39.007  26.344  29.914  1.00  0.00    -0.203 F 
ATOM     60  C   UNL A   1      39.821  25.889  27.754  1.00  0.00     0.198 A 
ATOM     61  C   UNL A   1      41.335  27.419  26.693  1.00  0.00     0.198 A 
ATOM     62  F   UNL A   1      42.040  29.357  27.826  1.00  0.00    -0.203 F 
ATOM     63  F   UNL A   1      39.133  24.739  27.739  1.00  0.00    -0.200 F 
ATOM     64  C   UNL A   1      40.601  26.243  26.663  1.00  0.00     0.200 A 
ATOM     65  F   UNL A   1      42.079  27.770  25.635  1.00  0.00    -0.200 F 
ATOM     66  F   UNL A   1      40.650  25.449  25.585  1.00  0.00    -0.200 F 
ENDBRANCH  42  56
BRANCH  43  67
ATOM     67  C   UNL A   1      39.635  33.910  36.870  1.00  0.00     0.064 A 
ATOM     68  C   UNL A   1      38.848  33.520  37.963  1.00  0.00     0.173 A 
ATOM     69  C   UNL A   1      40.285  35.150  36.944  1.00  0.00     0.173 A 
ATOM     70  F   UNL A   1      38.191  32.351  37.930  1.00  0.00    -0.203 F 
ATOM     71  C   UNL A   1      38.702  34.344  39.075  1.00  0.00     0.198 A 
ATOM     72  C   UNL A   1      40.158  35.962  38.069  1.00  0.00     0.198 A 
ATOM     73  F   UNL A   1      41.054  35.568  35.928  1.00  0.00    -0.203 F 
ATOM     74  F   UNL A   1      37.910  33.964  40.088  1.00  0.00    -0.200 F 
ATOM     75  C   UNL A   1      39.362  35.562  39.131  1.00  0.00     0.200 A 
ATOM     76  F   UNL A   1      40.810  37.133  38.125  1.00  0.00    -0.200 F 
ATOM     77  F   UNL A   1      39.223  36.352  40.204  1.00  0.00    -0.200 F 
ENDBRANCH  43  67
BRANCH  55  78
ATOM     78  C   UNL A   1      44.110  28.870  35.111  1.00  0.00     0.064 A 
ATOM     79  C   UNL A   1      45.388  29.419  34.935  1.00  0.00     0.173 A 
ATOM     80  C   UNL A   1      43.974  27.786  35.992  1.00  0.00     0.173 A 
ATOM     81  F   UNL A   1      45.572  30.446  34.092  1.00  0.00    -0.203 F 
ATOM     82  C   UNL A   1      46.491  28.887  35.598  1.00  0.00     0.198 A 
ATOM     83  C   UNL A   1      45.074  27.275  36.673  1.00  0.00     0.198 A 
ATOM     84  F   UNL A   1      42.770  27.230  36.198  1.00  0.00    -0.203 F 
ATOM     85  F   UNL A   1      47.711  29.398  35.380  1.00  0.00    -0.200 F 
ATOM     86  C   UNL A   1      46.332  27.821  36.471  1.00  0.00     0.200 A 
ATOM     87  F   UNL A   1      44.916  26.253  37.526  1.00  0.00    -0.200 F 
ATOM     88  F   UNL A   1      47.394  27.314  37.112  1.00  0.00    -0.200 F 
ENDBRANCH  55  78
ENDBRANCH  29  30
ENDBRANCH  21  24
ENDBRANCH  19  20
ENDBRANCH   1  19
TORSDOF 12
ENDMDL
MODEL 3
REMARK VINA RESULT:     -11.9      6.233     11.621
REMARK SMILES CC(C)=CC[C@@]1(C(=O)NCCCNC(=O)c2ccc(-c3c4nc(c(-c5c(F)c(F)c(F)c(F)c5F)c5ccc([nH]5)c(-c5c(F)c(F)c(F)c(F)c5F)c5nc(c(-c6c(F)c(F)c(F)c(F)c6F)c6ccc3[nH]6)C=C5)C=C4)cc2)CCC[C@H](C)C1
REMARK SMILES IDX 11 1 10 2 9 3 7 4 8 5 6 7 79 8 84 9 80 10 82 11 81 12 83 13
REMARK SMILES IDX 5 14 4 15 1 16 2 17 3 18 12 19 13 20 14 21 15 23 16 24 17 25
REMARK SMILES IDX 78 26 18 27 77 28 19 29 20 30 21 31 71 32 22 33 76 34 70 35
REMARK SMILES IDX 72 36 23 37 75 38 69 39 68 40 24 42 56 43 36 44 55 45 37 46
REMARK SMILES IDX 40 47 54 48 73 49 38 50 39 51 53 53 74 54 41 55 25 56 26 57
REMARK SMILES IDX 34 58 27 59 28 60 32 61 35 62 29 63 30 64 33 65 31 66 57 67
REMARK SMILES IDX 58 68 66 69 59 70 60 71 64 72 67 73 61 74 62 75 65 76 63 77
REMARK SMILES IDX 42 78 43 79 51 80 44 81 45 82 49 83 52 84 46 85 47 86 50 87
REMARK SMILES IDX 48 88
REMARK H PARENT 9 6 13 22 72 41 40 52
REMARK Flexibility Score: inf
ROOT
ATOM      1  C   UNL A   1      38.581  19.287  25.031  1.00  0.00     0.042 C 
ENDROOT
BRANCH   1   2
ATOM      2  C   UNL A   1      37.628  20.414  24.646  1.00  0.00     0.117 C 
BRANCH   2   3
ATOM      3  N   UNL A   1      37.911  21.587  25.449  1.00  0.00    -0.356 N 
ATOM      4  C   UNL A   1      37.303  22.799  25.533  1.00  0.00     0.226 C 
ATOM      5  O   UNL A   1      38.028  23.727  25.903  1.00  0.00    -0.274 OA
ATOM      6  H   UNL A   1      38.690  21.488  26.045  1.00  0.00     0.163 HD
BRANCH   4   7
ATOM      7  C   UNL A   1      35.813  23.009  25.195  1.00  0.00     0.053 C 
ATOM      8  C   UNL A   1      35.671  22.946  23.644  1.00  0.00     0.017 C 
ATOM      9  C   UNL A   1      35.397  24.444  25.641  1.00  0.00     0.020 C 
ATOM     10  C   UNL A   1      34.334  23.441  23.092  1.00  0.00     0.001 C 
ATOM     11  C   UNL A   1      34.015  24.881  25.129  1.00  0.00    -0.013 C 
ATOM     12  C   UNL A   1      33.980  24.829  23.600  1.00  0.00     0.003 C 
ATOM     13  C   UNL A   1      33.678  26.285  25.624  1.00  0.00     0.007 C 
BRANCH   7  14
ATOM     14  C   UNL A   1      34.924  21.942  25.906  1.00  0.00     0.044 C 
BRANCH  14  15
ATOM     15  C   UNL A   1      34.179  20.836  25.183  1.00  0.00    -0.027 C 
ATOM     16  C   UNL A   1      31.735  21.558  25.001  1.00  0.00     0.039 C 
ATOM     17  C   UNL A   1      32.901  20.638  24.797  1.00  0.00    -0.080 C 
ATOM     18  C   UNL A   1      32.545  19.335  24.118  1.00  0.00     0.039 C 
ENDBRANCH  14  15
ENDBRANCH   7  14
ENDBRANCH   4   7
ENDBRANCH   2   3
ENDBRANCH   1   2
BRANCH   1  19
ATOM     19  C   UNL A   1      39.593  19.717  26.086  1.00  0.00     0.118 C 
BRANCH  19  20
ATOM     20  N   UNL A   1      40.745  18.828  26.116  1.00  0.00    -0.352 N 
ATOM     21  C   UNL A   1      42.077  19.149  26.120  1.00  0.00     0.251 C 
ATOM     22  H   UNL A   1      40.539  17.865  26.138  1.00  0.00     0.163 HD
ATOM     23  O   UNL A   1      42.921  18.285  25.910  1.00  0.00    -0.269 OA
BRANCH  21  24
ATOM     24  C   UNL A   1      42.493  20.544  26.373  1.00  0.00     0.039 A 
ATOM     25  C   UNL A   1      42.776  21.370  25.283  1.00  0.00     0.014 A 
ATOM     26  C   UNL A   1      42.634  21.021  27.680  1.00  0.00     0.014 A 
ATOM     27  C   UNL A   1      43.175  22.688  25.504  1.00  0.00     0.010 A 
ATOM     28  C   UNL A   1      42.966  22.353  27.897  1.00  0.00     0.010 A 
ATOM     29  C   UNL A   1      43.258  23.193  26.812  1.00  0.00    -0.014 A 
BRANCH  29  30
ATOM     30  C   UNL A   1      43.692  24.588  27.063  1.00  0.00     0.031 A 
ATOM     31  C   UNL A   1      42.701  25.602  27.562  1.00  0.00     0.074 A 
ATOM     32  C   UNL A   1      44.960  24.950  26.795  1.00  0.00     0.049 A 
ATOM     33  N   UNL A   1      42.869  26.878  27.798  1.00  0.00    -0.248 NA
ATOM     34  C   UNL A   1      41.331  25.122  27.805  1.00  0.00     0.031 C 
ATOM     35  C   UNL A   1      45.996  24.065  26.262  1.00  0.00     0.029 A 
ATOM     36  N   UNL A   1      45.590  26.161  26.927  1.00  0.00    -0.354 N 
ATOM     37  C   UNL A   1      41.627  27.354  28.199  1.00  0.00     0.074 A 
ATOM     38  C   UNL A   1      40.703  26.243  28.124  1.00  0.00     0.031 C 
ATOM     39  C   UNL A   1      47.140  24.757  26.133  1.00  0.00     0.029 A 
ATOM     40  C   UNL A   1      46.908  26.138  26.544  1.00  0.00     0.049 A 
ATOM     41  H   UNL A   1      45.140  26.969  27.264  1.00  0.00     0.167 HD
ATOM     42  C   UNL A   1      41.294  28.598  28.614  1.00  0.00     0.037 A 
ATOM     43  C   UNL A   1      47.825  27.125  26.527  1.00  0.00     0.037 A 
ATOM     44  C   UNL A   1      42.225  29.691  28.714  1.00  0.00     0.049 A 
ATOM     45  C   UNL A   1      47.431  28.497  27.004  1.00  0.00     0.074 A 
ATOM     46  C   UNL A   1      42.004  30.975  29.182  1.00  0.00     0.029 A 
ATOM     47  N   UNL A   1      43.560  29.624  28.341  1.00  0.00    -0.354 N 
ATOM     48  N   UNL A   1      46.272  28.919  27.446  1.00  0.00    -0.248 NA
ATOM     49  C   UNL A   1      48.479  29.527  26.989  1.00  0.00     0.031 C 
ATOM     50  C   UNL A   1      43.195  31.697  29.053  1.00  0.00     0.029 A 
ATOM     51  C   UNL A   1      44.170  30.850  28.550  1.00  0.00     0.049 A 
ATOM     52  H   UNL A   1      44.006  28.825  27.981  1.00  0.00     0.167 HD
ATOM     53  C   UNL A   1      46.455  30.252  27.787  1.00  0.00     0.074 A 
ATOM     54  C   UNL A   1      47.842  30.565  27.513  1.00  0.00     0.031 C 
ATOM     55  C   UNL A   1      45.555  31.137  28.280  1.00  0.00     0.037 A 
BRANCH  42  56
ATOM     56  C   UNL A   1      39.863  28.842  28.996  1.00  0.00     0.064 A 
ATOM     57  C   UNL A   1      39.411  28.653  30.312  1.00  0.00     0.173 A 
ATOM     58  C   UNL A   1      38.938  29.296  28.044  1.00  0.00     0.173 A 
ATOM     59  F   UNL A   1      40.253  28.208  31.257  1.00  0.00    -0.203 F 
ATOM     60  C   UNL A   1      38.080  28.879  30.652  1.00  0.00     0.198 A 
ATOM     61  C   UNL A   1      37.614  29.550  28.395  1.00  0.00     0.198 A 
ATOM     62  F   UNL A   1      39.318  29.499  26.774  1.00  0.00    -0.203 F 
ATOM     63  F   UNL A   1      37.660  28.642  31.902  1.00  0.00    -0.200 F 
ATOM     64  C   UNL A   1      37.184  29.333  29.696  1.00  0.00     0.200 A 
ATOM     65  F   UNL A   1      36.753  30.000  27.472  1.00  0.00    -0.200 F 
ATOM     66  F   UNL A   1      35.905  29.556  30.025  1.00  0.00    -0.200 F 
ENDBRANCH  42  56
BRANCH  43  67
ATOM     67  C   UNL A   1      49.210  26.840  26.076  1.00  0.00     0.064 A 
ATOM     68  C   UNL A   1      49.582  27.023  24.737  1.00  0.00     0.173 A 
ATOM     69  C   UNL A   1      50.190  26.384  26.970  1.00  0.00     0.173 A 
ATOM     70  F   UNL A   1      48.674  27.440  23.842  1.00  0.00    -0.203 F 
ATOM     71  C   UNL A   1      50.875  26.742  24.305  1.00  0.00     0.198 A 
ATOM     72  C   UNL A   1      51.490  26.128  26.540  1.00  0.00     0.198 A 
ATOM     73  F   UNL A   1      49.887  26.199  28.263  1.00  0.00    -0.203 F 
ATOM     74  F   UNL A   1      51.192  26.886  23.011  1.00  0.00    -0.200 F 
ATOM     75  C   UNL A   1      51.831  26.300  25.207  1.00  0.00     0.200 A 
ATOM     76  F   UNL A   1      52.415  25.715  27.419  1.00  0.00    -0.200 F 
ATOM     77  F   UNL A   1      53.076  26.034  24.790  1.00  0.00    -0.200 F 
ENDBRANCH  43  67
BRANCH  55  78
ATOM     78  C   UNL A   1      46.053  32.519  28.589  1.00  0.00     0.064 A 
ATOM     79  C   UNL A   1      46.607  32.838  29.837  1.00  0.00     0.173 A 
ATOM     80  C   UNL A   1      46.011  33.524  27.610  1.00  0.00     0.173 A 
ATOM     81  F   UNL A   1      46.655  31.916  30.810  1.00  0.00    -0.203 F 
ATOM     82  C   UNL A   1      47.081  34.121  30.101  1.00  0.00     0.198 A 
ATOM     83  C   UNL A   1      46.511  34.796  27.869  1.00  0.00     0.198 A 
ATOM     84  F   UNL A   1      45.496  33.265  26.399  1.00  0.00    -0.203 F 
ATOM     85  F   UNL A   1      47.565  34.416  31.316  1.00  0.00    -0.200 F 
ATOM     86  C   UNL A   1      47.038  35.096  29.115  1.00  0.00     0.200 A 
ATOM     87  F   UNL A   1      46.481  35.733  26.911  1.00  0.00    -0.200 F 
ATOM     88  F   UNL A   1      47.500  36.327  29.370  1.00  0.00    -0.200 F 
ENDBRANCH  55  78
ENDBRANCH  29  30
ENDBRANCH  21  24
ENDBRANCH  19  20
ENDBRANCH   1  19
TORSDOF 12
ENDMDL
