MODEL 1
REMARK VINA RESULT:     -12.5      0.000      0.000
REMARK SMILES CN(c1ccccc1)c1nc(OCC(=O)NCCCNC(=O)c2ccc(-c3c4nc(c(-c5c(F)c(F)c(F)c(F)c5F)c5ccc([nH]5)c(-c5c(F)c(F)c(F)c(F)c5F)c5nc(c(-c6c(F)c(F)c(F)c(F)c6F)c6ccc3[nH]6)C=C5)C=C4)cc2)cc(-c2ccncc2)n1
REMARK SMILES IDX 17 1 16 2 14 3 15 4 13 6 12 7 11 8 9 9 10 10 94 11 87 12
REMARK SMILES IDX 86 13 2 14 1 15 3 16 4 17 8 18 5 19 7 20 6 21 88 22 89 23
REMARK SMILES IDX 93 24 90 25 92 26 91 27 18 28 19 29 20 30 21 31 22 33 23 34
REMARK SMILES IDX 24 35 85 36 25 37 84 38 26 39 27 40 28 41 78 42 29 43 83 44
REMARK SMILES IDX 77 45 79 46 30 47 82 48 76 49 75 50 31 52 63 53 43 54 62 55
REMARK SMILES IDX 44 56 47 57 61 58 80 59 45 60 46 61 60 63 81 64 48 65 32 66
REMARK SMILES IDX 33 67 41 68 34 69 35 70 39 71 42 72 36 73 37 74 40 75 38 76
REMARK SMILES IDX 64 77 65 78 73 79 66 80 67 81 71 82 74 83 68 84 69 85 72 86
REMARK SMILES IDX 70 87 49 88 50 89 58 90 51 91 52 92 56 93 59 94 53 95 54 96
REMARK SMILES IDX 57 97 55 98
REMARK H PARENT 16 5 20 32 79 51 47 62
REMARK Flexibility Score: inf
ROOT
ATOM      1  C   UNL A   1      32.376  26.663  25.934  1.00  0.00     0.117 C 
ENDROOT
BRANCH   1   2
ATOM      2  N   UNL A   1      31.233  26.025  26.562  1.00  0.00    -0.353 N 
ATOM      3  C   UNL A   1      30.730  24.777  26.345  1.00  0.00     0.258 C 
ATOM      4  O   UNL A   1      29.730  24.425  26.973  1.00  0.00    -0.271 OA
ATOM      5  H   UNL A   1      30.757  26.566  27.232  1.00  0.00     0.163 HD
BRANCH   3   6
ATOM      6  C   UNL A   1      31.412  23.841  25.343  1.00  0.00     0.331 C 
BRANCH   6   7
ATOM      7  O   UNL A   1      31.306  22.457  25.619  1.00  0.00    -0.467 OA
BRANCH   7   8
ATOM      8  C   UNL A   1      32.355  21.649  25.295  1.00  0.00     0.219 A 
ATOM      9  C   UNL A   1      34.535  21.684  24.520  1.00  0.00     0.233 A 
ATOM     10  N   UNL A   1      33.430  22.345  24.909  1.00  0.00    -0.177 NA
ATOM     11  N   UNL A   1      34.586  20.342  24.470  1.00  0.00    -0.212 NA
ATOM     12  C   UNL A   1      33.507  19.660  24.901  1.00  0.00     0.080 A 
ATOM     13  C   UNL A   1      32.359  20.282  25.340  1.00  0.00     0.097 A 
BRANCH   9  14
ATOM     14  N   UNL A   1      35.673  22.438  24.192  1.00  0.00    -0.314 N 
ATOM     15  C   UNL A   1      35.560  23.224  22.972  1.00  0.00     0.153 C 
BRANCH  14  16
ATOM     16  C   UNL A   1      36.837  22.527  24.971  1.00  0.00     0.043 A 
ATOM     17  C   UNL A   1      37.127  23.719  25.662  1.00  0.00     0.026 A 
ATOM     18  C   UNL A   1      37.748  21.470  25.105  1.00  0.00     0.026 A 
ATOM     19  C   UNL A   1      38.265  23.849  26.462  1.00  0.00     0.002 A 
ATOM     20  C   UNL A   1      38.898  21.600  25.895  1.00  0.00     0.002 A 
ATOM     21  C   UNL A   1      39.153  22.787  26.576  1.00  0.00     0.000 A 
ENDBRANCH  14  16
ENDBRANCH   9  14
BRANCH  12  22
ATOM     22  C   UNL A   1      33.621  18.199  24.935  1.00  0.00     0.004 A 
ATOM     23  C   UNL A   1      32.588  17.401  25.445  1.00  0.00     0.030 A 
ATOM     24  C   UNL A   1      34.798  17.564  24.523  1.00  0.00     0.030 A 
ATOM     25  C   UNL A   1      32.782  16.032  25.538  1.00  0.00     0.111 A 
ATOM     26  C   UNL A   1      34.901  16.190  24.665  1.00  0.00     0.111 A 
ATOM     27  N   UNL A   1      33.919  15.411  25.166  1.00  0.00    -0.265 NA
ENDBRANCH  12  22
ENDBRANCH   7   8
ENDBRANCH   6   7
ENDBRANCH   3   6
ENDBRANCH   1   2
BRANCH   1  28
ATOM     28  C   UNL A   1      33.007  27.735  26.817  1.00  0.00     0.042 C 
BRANCH  28  29
ATOM     29  C   UNL A   1      33.939  28.702  26.090  1.00  0.00     0.118 C 
BRANCH  29  30
ATOM     30  N   UNL A   1      33.800  30.083  26.533  1.00  0.00    -0.352 N 
ATOM     31  C   UNL A   1      34.532  30.814  27.433  1.00  0.00     0.251 C 
ATOM     32  H   UNL A   1      33.054  30.574  26.117  1.00  0.00     0.163 HD
ATOM     33  O   UNL A   1      34.140  31.938  27.752  1.00  0.00    -0.269 OA
BRANCH  31  34
ATOM     34  C   UNL A   1      35.768  30.277  28.044  1.00  0.00     0.039 A 
ATOM     35  C   UNL A   1      36.961  30.364  27.319  1.00  0.00     0.014 A 
ATOM     36  C   UNL A   1      35.760  29.649  29.292  1.00  0.00     0.014 A 
ATOM     37  C   UNL A   1      38.152  29.884  27.870  1.00  0.00     0.010 A 
ATOM     38  C   UNL A   1      36.959  29.232  29.870  1.00  0.00     0.010 A 
ATOM     39  C   UNL A   1      38.168  29.345  29.166  1.00  0.00    -0.014 A 
BRANCH  39  40
ATOM     40  C   UNL A   1      39.438  28.907  29.800  1.00  0.00     0.031 A 
ATOM     41  C   UNL A   1      39.991  29.643  30.989  1.00  0.00     0.074 A 
ATOM     42  C   UNL A   1      40.127  27.879  29.266  1.00  0.00     0.049 A 
ATOM     43  N   UNL A   1      41.116  29.450  31.633  1.00  0.00    -0.248 NA
ATOM     44  C   UNL A   1      39.186  30.758  31.509  1.00  0.00     0.031 C 
ATOM     45  C   UNL A   1      39.721  27.111  28.090  1.00  0.00     0.029 A 
ATOM     46  N   UNL A   1      41.320  27.311  29.639  1.00  0.00    -0.354 N 
ATOM     47  C   UNL A   1      41.160  30.427  32.619  1.00  0.00     0.074 A 
ATOM     48  C   UNL A   1      39.972  31.239  32.461  1.00  0.00     0.031 C 
ATOM     49  C   UNL A   1      40.637  26.160  27.848  1.00  0.00     0.029 A 
ATOM     50  C   UNL A   1      41.712  26.273  28.828  1.00  0.00     0.049 A 
ATOM     51  H   UNL A   1      41.845  27.618  30.413  1.00  0.00     0.167 HD
ATOM     52  C   UNL A   1      42.095  30.617  33.581  1.00  0.00     0.037 A 
ATOM     53  C   UNL A   1      42.816  25.504  28.868  1.00  0.00     0.037 A 
ATOM     54  C   UNL A   1      43.263  29.792  33.755  1.00  0.00     0.049 A 
ATOM     55  C   UNL A   1      43.838  25.734  29.948  1.00  0.00     0.074 A 
ATOM     56  C   UNL A   1      44.237  29.870  34.735  1.00  0.00     0.029 A 
ATOM     57  N   UNL A   1      43.614  28.736  32.927  1.00  0.00    -0.354 N 
ATOM     58  N   UNL A   1      43.837  26.622  30.912  1.00  0.00    -0.248 NA
ATOM     59  C   UNL A   1      45.011  24.849  29.948  1.00  0.00     0.031 C 
ATOM     60  C   UNL A   1      45.199  28.887  34.477  1.00  0.00     0.029 A 
ATOM     61  C   UNL A   1      44.800  28.166  33.363  1.00  0.00     0.049 A 
ATOM     62  H   UNL A   1      43.097  28.436  32.144  1.00  0.00     0.167 HD
ATOM     63  C   UNL A   1      44.990  26.386  31.649  1.00  0.00     0.074 A 
ATOM     64  C   UNL A   1      45.660  25.262  31.028  1.00  0.00     0.031 C 
ATOM     65  C   UNL A   1      45.451  27.043  32.741  1.00  0.00     0.037 A 
BRANCH  52  66
ATOM     66  C   UNL A   1      41.892  31.763  34.529  1.00  0.00     0.064 A 
ATOM     67  C   UNL A   1      42.409  33.040  34.258  1.00  0.00     0.173 A 
ATOM     68  C   UNL A   1      41.142  31.595  35.702  1.00  0.00     0.173 A 
ATOM     69  F   UNL A   1      43.142  33.251  33.155  1.00  0.00    -0.203 F 
ATOM     70  C   UNL A   1      42.203  34.097  35.140  1.00  0.00     0.198 A 
ATOM     71  C   UNL A   1      40.914  32.662  36.567  1.00  0.00     0.198 A 
ATOM     72  F   UNL A   1      40.620  30.396  36.006  1.00  0.00    -0.203 F 
ATOM     73  F   UNL A   1      42.746  35.296  34.882  1.00  0.00    -0.200 F 
ATOM     74  C   UNL A   1      41.451  33.910  36.290  1.00  0.00     0.200 A 
ATOM     75  F   UNL A   1      40.177  32.482  37.671  1.00  0.00    -0.200 F 
ATOM     76  F   UNL A   1      41.249  34.931  37.134  1.00  0.00    -0.200 F 
ENDBRANCH  52  66
BRANCH  53  77
ATOM     77  C   UNL A   1      43.002  24.423  27.866  1.00  0.00     0.064 A 
ATOM     78  C   UNL A   1      43.612  24.685  26.632  1.00  0.00     0.173 A 
ATOM     79  C   UNL A   1      42.574  23.112  28.118  1.00  0.00     0.173 A 
ATOM     80  F   UNL A   1      44.017  25.930  26.338  1.00  0.00    -0.203 F 
ATOM     81  C   UNL A   1      43.770  23.682  25.679  1.00  0.00     0.198 A 
ATOM     82  C   UNL A   1      42.757  22.102  27.175  1.00  0.00     0.198 A 
ATOM     83  F   UNL A   1      41.988  22.808  29.286  1.00  0.00    -0.203 F 
ATOM     84  F   UNL A   1      44.316  23.970  24.490  1.00  0.00    -0.200 F 
ATOM     85  C   UNL A   1      43.348  22.389  25.954  1.00  0.00     0.200 A 
ATOM     86  F   UNL A   1      42.359  20.853  27.449  1.00  0.00    -0.200 F 
ATOM     87  F   UNL A   1      43.503  21.424  25.038  1.00  0.00    -0.200 F 
ENDBRANCH  53  77
BRANCH  65  88
ATOM     88  C   UNL A   1      46.722  26.539  33.358  1.00  0.00     0.064 A 
ATOM     89  C   UNL A   1      46.718  25.532  34.334  1.00  0.00     0.173 A 
ATOM     90  C   UNL A   1      47.963  27.047  32.943  1.00  0.00     0.173 A 
ATOM     91  F   UNL A   1      45.557  25.026  34.776  1.00  0.00    -0.203 F 
ATOM     92  C   UNL A   1      47.908  25.068  34.890  1.00  0.00     0.198 A 
ATOM     93  C   UNL A   1      49.152  26.561  33.480  1.00  0.00     0.198 A 
ATOM     94  F   UNL A   1      48.022  28.007  32.008  1.00  0.00    -0.203 F 
ATOM     95  F   UNL A   1      47.877  24.139  35.854  1.00  0.00    -0.200 F 
ATOM     96  C   UNL A   1      49.124  25.579  34.458  1.00  0.00     0.200 A 
ATOM     97  F   UNL A   1      50.326  27.047  33.053  1.00  0.00    -0.200 F 
ATOM     98  F   UNL A   1      50.267  25.128  34.990  1.00  0.00    -0.200 F 
ENDBRANCH  65  88
ENDBRANCH  39  40
ENDBRANCH  31  34
ENDBRANCH  29  30
ENDBRANCH  28  29
ENDBRANCH   1  28
TORSDOF 15
ENDMDL
MODEL 2
REMARK VINA RESULT:     -12.5      3.912      9.654
REMARK SMILES CN(c1ccccc1)c1nc(OCC(=O)NCCCNC(=O)c2ccc(-c3c4nc(c(-c5c(F)c(F)c(F)c(F)c5F)c5ccc([nH]5)c(-c5c(F)c(F)c(F)c(F)c5F)c5nc(c(-c6c(F)c(F)c(F)c(F)c6F)c6ccc3[nH]6)C=C5)C=C4)cc2)cc(-c2ccncc2)n1
REMARK SMILES IDX 17 1 16 2 14 3 15 4 13 6 12 7 11 8 9 9 10 10 94 11 87 12
REMARK SMILES IDX 86 13 2 14 1 15 3 16 4 17 8 18 5 19 7 20 6 21 88 22 89 23
REMARK SMILES IDX 93 24 90 25 92 26 91 27 18 28 19 29 20 30 21 31 22 33 23 34
REMARK SMILES IDX 24 35 85 36 25 37 84 38 26 39 27 40 28 41 78 42 29 43 83 44
REMARK SMILES IDX 77 45 79 46 30 47 82 48 76 49 75 50 31 52 63 53 43 54 62 55
REMARK SMILES IDX 44 56 47 57 61 58 80 59 45 60 46 61 60 63 81 64 48 65 32 66
REMARK SMILES IDX 33 67 41 68 34 69 35 70 39 71 42 72 36 73 37 74 40 75 38 76
REMARK SMILES IDX 64 77 65 78 73 79 66 80 67 81 71 82 74 83 68 84 69 85 72 86
REMARK SMILES IDX 70 87 49 88 50 89 58 90 51 91 52 92 56 93 59 94 53 95 54 96
REMARK SMILES IDX 57 97 55 98
REMARK H PARENT 16 5 20 32 79 51 47 62
REMARK Flexibility Score: inf
ROOT
ATOM      1  C   UNL A   1      34.465  24.296  24.810  1.00  0.00     0.117 C 
ENDROOT
BRANCH   1   2
ATOM      2  N   UNL A   1      34.421  23.762  23.461  1.00  0.00    -0.353 N 
ATOM      3  C   UNL A   1      33.401  23.814  22.559  1.00  0.00     0.258 C 
ATOM      4  O   UNL A   1      33.557  23.279  21.459  1.00  0.00    -0.271 OA
ATOM      5  H   UNL A   1      35.236  23.302  23.158  1.00  0.00     0.163 HD
BRANCH   3   6
ATOM      6  C   UNL A   1      32.098  24.533  22.918  1.00  0.00     0.331 C 
BRANCH   6   7
ATOM      7  O   UNL A   1      31.868  25.763  22.257  1.00  0.00    -0.467 OA
BRANCH   7   8
ATOM      8  C   UNL A   1      31.598  26.865  23.014  1.00  0.00     0.219 A 
ATOM      9  C   UNL A   1      30.044  28.550  23.323  1.00  0.00     0.233 A 
ATOM     10  N   UNL A   1      30.430  27.430  22.688  1.00  0.00    -0.177 NA
ATOM     11  N   UNL A   1      30.809  29.148  24.253  1.00  0.00    -0.212 NA
ATOM     12  C   UNL A   1      31.962  28.540  24.595  1.00  0.00     0.080 A 
ATOM     13  C   UNL A   1      32.395  27.374  24.002  1.00  0.00     0.097 A 
BRANCH   9  14
ATOM     14  N   UNL A   1      28.781  29.081  23.014  1.00  0.00    -0.314 N 
ATOM     15  C   UNL A   1      27.655  28.218  23.339  1.00  0.00     0.153 C 
BRANCH  14  16
ATOM     16  C   UNL A   1      28.546  30.364  22.496  1.00  0.00     0.043 A 
ATOM     17  C   UNL A   1      28.193  30.517  21.141  1.00  0.00     0.026 A 
ATOM     18  C   UNL A   1      28.644  31.529  23.269  1.00  0.00     0.026 A 
ATOM     19  C   UNL A   1      27.935  31.772  20.584  1.00  0.00     0.002 A 
ATOM     20  C   UNL A   1      28.400  32.791  22.712  1.00  0.00     0.002 A 
ATOM     21  C   UNL A   1      28.042  32.911  21.372  1.00  0.00     0.000 A 
ENDBRANCH  14  16
ENDBRANCH   9  14
BRANCH  12  22
ATOM     22  C   UNL A   1      32.732  29.152  25.683  1.00  0.00     0.004 A 
ATOM     23  C   UNL A   1      32.308  30.340  26.293  1.00  0.00     0.030 A 
ATOM     24  C   UNL A   1      33.951  28.602  26.092  1.00  0.00     0.030 A 
ATOM     25  C   UNL A   1      33.117  30.926  27.253  1.00  0.00     0.111 A 
ATOM     26  C   UNL A   1      34.695  29.268  27.054  1.00  0.00     0.111 A 
ATOM     27  N   UNL A   1      34.304  30.419  27.641  1.00  0.00    -0.265 NA
ENDBRANCH  12  22
ENDBRANCH   7   8
ENDBRANCH   6   7
ENDBRANCH   3   6
ENDBRANCH   1   2
BRANCH   1  28
ATOM     28  C   UNL A   1      35.622  23.728  25.628  1.00  0.00     0.042 C 
BRANCH  28  29
ATOM     29  C   UNL A   1      36.971  23.715  24.914  1.00  0.00     0.118 C 
BRANCH  29  30
ATOM     30  N   UNL A   1      37.893  22.716  25.437  1.00  0.00    -0.352 N 
ATOM     31  C   UNL A   1      39.005  22.851  26.228  1.00  0.00     0.251 C 
ATOM     32  H   UNL A   1      37.683  21.789  25.180  1.00  0.00     0.163 HD
ATOM     33  O   UNL A   1      39.716  21.864  26.436  1.00  0.00    -0.269 OA
BRANCH  31  34
ATOM     34  C   UNL A   1      39.383  24.153  26.819  1.00  0.00     0.039 A 
ATOM     35  C   UNL A   1      38.975  24.435  28.128  1.00  0.00     0.014 A 
ATOM     36  C   UNL A   1      40.087  25.116  26.091  1.00  0.00     0.014 A 
ATOM     37  C   UNL A   1      39.328  25.646  28.726  1.00  0.00     0.010 A 
ATOM     38  C   UNL A   1      40.497  26.296  26.711  1.00  0.00     0.010 A 
ATOM     39  C   UNL A   1      40.123  26.574  28.035  1.00  0.00    -0.014 A 
BRANCH  39  40
ATOM     40  C   UNL A   1      40.578  27.830  28.685  1.00  0.00     0.031 A 
ATOM     41  C   UNL A   1      42.003  27.983  29.139  1.00  0.00     0.074 A 
ATOM     42  C   UNL A   1      39.689  28.815  28.921  1.00  0.00     0.049 A 
ATOM     43  N   UNL A   1      42.566  28.975  29.783  1.00  0.00    -0.248 NA
ATOM     44  C   UNL A   1      42.911  26.862  28.852  1.00  0.00     0.031 C 
ATOM     45  C   UNL A   1      38.269  28.774  28.570  1.00  0.00     0.029 A 
ATOM     46  N   UNL A   1      39.847  30.039  29.524  1.00  0.00    -0.354 N 
ATOM     47  C   UNL A   1      43.884  28.592  29.992  1.00  0.00     0.074 A 
ATOM     48  C   UNL A   1      44.027  27.258  29.446  1.00  0.00     0.031 C 
ATOM     49  C   UNL A   1      37.690  29.926  28.944  1.00  0.00     0.029 A 
ATOM     50  C   UNL A   1      38.687  30.772  29.593  1.00  0.00     0.049 A 
ATOM     51  H   UNL A   1      40.709  30.360  29.873  1.00  0.00     0.167 HD
ATOM     52  C   UNL A   1      44.890  29.295  30.567  1.00  0.00     0.037 A 
ATOM     53  C   UNL A   1      38.452  31.986  30.126  1.00  0.00     0.037 A 
ATOM     54  C   UNL A   1      44.754  30.632  31.085  1.00  0.00     0.049 A 
ATOM     55  C   UNL A   1      39.586  32.747  30.756  1.00  0.00     0.074 A 
ATOM     56  C   UNL A   1      45.728  31.448  31.634  1.00  0.00     0.029 A 
ATOM     57  N   UNL A   1      43.567  31.350  31.118  1.00  0.00    -0.354 N 
ATOM     58  N   UNL A   1      40.842  32.398  30.893  1.00  0.00    -0.248 NA
ATOM     59  C   UNL A   1      39.269  34.075  31.302  1.00  0.00     0.031 C 
ATOM     60  C   UNL A   1      45.123  32.645  32.036  1.00  0.00     0.029 A 
ATOM     61  C   UNL A   1      43.781  32.592  31.694  1.00  0.00     0.049 A 
ATOM     62  H   UNL A   1      42.701  31.025  30.781  1.00  0.00     0.167 HD
ATOM     63  C   UNL A   1      41.471  33.471  31.512  1.00  0.00     0.074 A 
ATOM     64  C   UNL A   1      40.460  34.488  31.713  1.00  0.00     0.031 C 
ATOM     65  C   UNL A   1      42.768  33.599  31.880  1.00  0.00     0.037 A 
BRANCH  52  66
ATOM     66  C   UNL A   1      46.232  28.633  30.664  1.00  0.00     0.064 A 
ATOM     67  C   UNL A   1      47.187  28.756  29.643  1.00  0.00     0.173 A 
ATOM     68  C   UNL A   1      46.586  27.899  31.807  1.00  0.00     0.173 A 
ATOM     69  F   UNL A   1      46.896  29.438  28.526  1.00  0.00    -0.203 F 
ATOM     70  C   UNL A   1      48.434  28.146  29.751  1.00  0.00     0.198 A 
ATOM     71  C   UNL A   1      47.844  27.315  31.924  1.00  0.00     0.198 A 
ATOM     72  F   UNL A   1      45.712  27.756  32.816  1.00  0.00    -0.203 F 
ATOM     73  F   UNL A   1      49.312  28.239  28.742  1.00  0.00    -0.200 F 
ATOM     74  C   UNL A   1      48.765  27.432  30.893  1.00  0.00     0.200 A 
ATOM     75  F   UNL A   1      48.166  26.636  33.033  1.00  0.00    -0.200 F 
ATOM     76  F   UNL A   1      49.967  26.851  30.998  1.00  0.00    -0.200 F 
ENDBRANCH  52  66
BRANCH  53  77
ATOM     77  C   UNL A   1      37.089  32.572  30.061  1.00  0.00     0.064 A 
ATOM     78  C   UNL A   1      36.638  33.215  28.900  1.00  0.00     0.173 A 
ATOM     79  C   UNL A   1      36.212  32.504  31.152  1.00  0.00     0.173 A 
ATOM     80  F   UNL A   1      37.451  33.324  27.838  1.00  0.00    -0.203 F 
ATOM     81  C   UNL A   1      35.369  33.786  28.839  1.00  0.00     0.198 A 
ATOM     82  C   UNL A   1      34.932  33.051  31.082  1.00  0.00     0.198 A 
ATOM     83  F   UNL A   1      36.593  31.895  32.286  1.00  0.00    -0.203 F 
ATOM     84  F   UNL A   1      34.981  34.433  27.733  1.00  0.00    -0.200 F 
ATOM     85  C   UNL A   1      34.514  33.698  29.928  1.00  0.00     0.200 A 
ATOM     86  F   UNL A   1      34.105  32.953  32.131  1.00  0.00    -0.200 F 
ATOM     87  F   UNL A   1      33.293  34.244  29.868  1.00  0.00    -0.200 F 
ENDBRANCH  53  77
BRANCH  65  88
ATOM     88  C   UNL A   1      43.179  34.900  32.505  1.00  0.00     0.064 A 
ATOM     89  C   UNL A   1      43.549  36.005  31.725  1.00  0.00     0.173 A 
ATOM     90  C   UNL A   1      43.168  35.053  33.900  1.00  0.00     0.173 A 
ATOM     91  F   UNL A   1      43.592  35.904  30.389  1.00  0.00    -0.203 F 
ATOM     92  C   UNL A   1      43.918  37.209  32.321  1.00  0.00     0.198 A 
ATOM     93  C   UNL A   1      43.510  36.265  34.491  1.00  0.00     0.198 A 
ATOM     94  F   UNL A   1      42.816  34.027  34.689  1.00  0.00    -0.203 F 
ATOM     95  F   UNL A   1      44.314  38.237  31.559  1.00  0.00    -0.200 F 
ATOM     96  C   UNL A   1      43.892  37.340  33.702  1.00  0.00     0.200 A 
ATOM     97  F   UNL A   1      43.472  36.394  35.824  1.00  0.00    -0.200 F 
ATOM     98  F   UNL A   1      44.243  38.500  34.272  1.00  0.00    -0.200 F 
ENDBRANCH  65  88
ENDBRANCH  39  40
ENDBRANCH  31  34
ENDBRANCH  29  30
ENDBRANCH  28  29
ENDBRANCH   1  28
TORSDOF 15
ENDMDL
MODEL 3
REMARK VINA RESULT:     -12.4      1.432      1.847
REMARK SMILES CN(c1ccccc1)c1nc(OCC(=O)NCCCNC(=O)c2ccc(-c3c4nc(c(-c5c(F)c(F)c(F)c(F)c5F)c5ccc([nH]5)c(-c5c(F)c(F)c(F)c(F)c5F)c5nc(c(-c6c(F)c(F)c(F)c(F)c6F)c6ccc3[nH]6)C=C5)C=C4)cc2)cc(-c2ccncc2)n1
REMARK SMILES IDX 17 1 16 2 14 3 15 4 13 6 12 7 11 8 9 9 10 10 94 11 87 12
REMARK SMILES IDX 86 13 2 14 1 15 3 16 4 17 8 18 5 19 7 20 6 21 88 22 89 23
REMARK SMILES IDX 93 24 90 25 92 26 91 27 18 28 19 29 20 30 21 31 22 33 23 34
REMARK SMILES IDX 24 35 85 36 25 37 84 38 26 39 27 40 28 41 78 42 29 43 83 44
REMARK SMILES IDX 77 45 79 46 30 47 82 48 76 49 75 50 31 52 63 53 43 54 62 55
REMARK SMILES IDX 44 56 47 57 61 58 80 59 45 60 46 61 60 63 81 64 48 65 32 66
REMARK SMILES IDX 33 67 41 68 34 69 35 70 39 71 42 72 36 73 37 74 40 75 38 76
REMARK SMILES IDX 64 77 65 78 73 79 66 80 67 81 71 82 74 83 68 84 69 85 72 86
REMARK SMILES IDX 70 87 49 88 50 89 58 90 51 91 52 92 56 93 59 94 53 95 54 96
REMARK SMILES IDX 57 97 55 98
REMARK H PARENT 16 5 20 32 79 51 47 62
REMARK Flexibility Score: inf
ROOT
ATOM      1  C   UNL A   1      32.237  26.958  26.088  1.00  0.00     0.117 C 
ENDROOT
BRANCH   1   2
ATOM      2  N   UNL A   1      31.036  26.264  26.516  1.00  0.00    -0.353 N 
ATOM      3  C   UNL A   1      30.719  24.946  26.376  1.00  0.00     0.258 C 
ATOM      4  O   UNL A   1      29.629  24.552  26.795  1.00  0.00    -0.271 OA
ATOM      5  H   UNL A   1      30.361  26.820  26.968  1.00  0.00     0.163 HD
BRANCH   3   6
ATOM      6  C   UNL A   1      31.711  23.987  25.712  1.00  0.00     0.331 C 
BRANCH   6   7
ATOM      7  O   UNL A   1      31.954  22.775  26.402  1.00  0.00    -0.467 OA
BRANCH   7   8
ATOM      8  C   UNL A   1      32.837  21.888  25.861  1.00  0.00     0.219 A 
ATOM      9  C   UNL A   1      34.894  21.745  24.812  1.00  0.00     0.233 A 
ATOM     10  N   UNL A   1      33.944  22.487  25.408  1.00  0.00    -0.177 NA
ATOM     11  N   UNL A   1      34.755  20.422  24.620  1.00  0.00    -0.212 NA
ATOM     12  C   UNL A   1      33.650  19.832  25.119  1.00  0.00     0.080 A 
ATOM     13  C   UNL A   1      32.659  20.535  25.767  1.00  0.00     0.097 A 
BRANCH   9  14
ATOM     14  N   UNL A   1      36.078  22.386  24.413  1.00  0.00    -0.314 N 
ATOM     15  C   UNL A   1      36.049  22.954  23.073  1.00  0.00     0.153 C 
BRANCH  14  16
ATOM     16  C   UNL A   1      37.214  22.562  25.219  1.00  0.00     0.043 A 
ATOM     17  C   UNL A   1      37.406  23.780  25.901  1.00  0.00     0.026 A 
ATOM     18  C   UNL A   1      38.189  21.571  25.389  1.00  0.00     0.026 A 
ATOM     19  C   UNL A   1      38.512  23.996  26.725  1.00  0.00     0.002 A 
ATOM     20  C   UNL A   1      39.307  21.787  26.205  1.00  0.00     0.002 A 
ATOM     21  C   UNL A   1      39.466  22.997  26.876  1.00  0.00     0.000 A 
ENDBRANCH  14  16
ENDBRANCH   9  14
BRANCH  12  22
ATOM     22  C   UNL A   1      33.566  18.374  24.989  1.00  0.00     0.004 A 
ATOM     23  C   UNL A   1      34.341  17.683  24.048  1.00  0.00     0.030 A 
ATOM     24  C   UNL A   1      32.655  17.640  25.755  1.00  0.00     0.030 A 
ATOM     25  C   UNL A   1      34.158  16.317  23.903  1.00  0.00     0.111 A 
ATOM     26  C   UNL A   1      32.536  16.278  25.530  1.00  0.00     0.111 A 
ATOM     27  N   UNL A   1      33.267  15.602  24.618  1.00  0.00    -0.265 NA
ENDBRANCH  12  22
ENDBRANCH   7   8
ENDBRANCH   6   7
ENDBRANCH   3   6
ENDBRANCH   1   2
BRANCH   1  28
ATOM     28  C   UNL A   1      32.375  28.338  26.724  1.00  0.00     0.042 C 
BRANCH  28  29
ATOM     29  C   UNL A   1      33.239  29.324  25.941  1.00  0.00     0.118 C 
BRANCH  29  30
ATOM     30  N   UNL A   1      33.039  30.711  26.340  1.00  0.00    -0.352 N 
ATOM     31  C   UNL A   1      33.708  31.486  27.252  1.00  0.00     0.251 C 
ATOM     32  H   UNL A   1      32.300  31.169  25.878  1.00  0.00     0.163 HD
ATOM     33  O   UNL A   1      33.269  32.607  27.523  1.00  0.00    -0.269 OA
BRANCH  31  34
ATOM     34  C   UNL A   1      34.929  31.003  27.932  1.00  0.00     0.039 A 
ATOM     35  C   UNL A   1      36.035  31.858  28.003  1.00  0.00     0.014 A 
ATOM     36  C   UNL A   1      35.019  29.711  28.456  1.00  0.00     0.014 A 
ATOM     37  C   UNL A   1      37.200  31.443  28.653  1.00  0.00     0.010 A 
ATOM     38  C   UNL A   1      36.156  29.323  29.164  1.00  0.00     0.010 A 
ATOM     39  C   UNL A   1      37.258  30.184  29.271  1.00  0.00    -0.014 A 
BRANCH  39  40
ATOM     40  C   UNL A   1      38.458  29.761  30.038  1.00  0.00     0.031 A 
ATOM     41  C   UNL A   1      38.697  30.278  31.429  1.00  0.00     0.074 A 
ATOM     42  C   UNL A   1      39.367  28.953  29.456  1.00  0.00     0.049 A 
ATOM     43  N   UNL A   1      39.717  30.074  32.226  1.00  0.00    -0.248 NA
ATOM     44  C   UNL A   1      37.664  31.160  31.992  1.00  0.00     0.031 C 
ATOM     45  C   UNL A   1      39.275  28.418  28.098  1.00  0.00     0.029 A 
ATOM     46  N   UNL A   1      40.554  28.451  29.932  1.00  0.00    -0.354 N 
ATOM     47  C   UNL A   1      39.457  30.814  33.371  1.00  0.00     0.074 A 
ATOM     48  C   UNL A   1      38.205  31.507  33.151  1.00  0.00     0.031 C 
ATOM     49  C   UNL A   1      40.347  27.646  27.856  1.00  0.00     0.029 A 
ATOM     50  C   UNL A   1      41.220  27.662  29.026  1.00  0.00     0.049 A 
ATOM     51  H   UNL A   1      40.895  28.639  30.836  1.00  0.00     0.167 HD
ATOM     52  C   UNL A   1      40.184  30.892  34.512  1.00  0.00     0.037 A 
ATOM     53  C   UNL A   1      42.403  27.027  29.125  1.00  0.00     0.037 A 
ATOM     54  C   UNL A   1      41.415  30.181  34.742  1.00  0.00     0.049 A 
ATOM     55  C   UNL A   1      43.189  27.128  30.404  1.00  0.00     0.074 A 
ATOM     56  C   UNL A   1      42.194  30.151  35.886  1.00  0.00     0.029 A 
ATOM     57  N   UNL A   1      42.047  29.373  33.808  1.00  0.00    -0.354 N 
ATOM     58  N   UNL A   1      42.902  27.782  31.503  1.00  0.00    -0.248 NA
ATOM     59  C   UNL A   1      44.464  26.397  30.456  1.00  0.00     0.031 C 
ATOM     60  C   UNL A   1      43.319  29.358  35.630  1.00  0.00     0.029 A 
ATOM     61  C   UNL A   1      43.216  28.855  34.343  1.00  0.00     0.049 A 
ATOM     62  H   UNL A   1      41.715  29.195  32.898  1.00  0.00     0.167 HD
ATOM     63  C   UNL A   1      43.941  27.519  32.386  1.00  0.00     0.074 A 
ATOM     64  C   UNL A   1      44.860  26.635  31.699  1.00  0.00     0.031 C 
ATOM     65  C   UNL A   1      44.117  27.970  33.651  1.00  0.00     0.037 A 
BRANCH  52  66
ATOM     66  C   UNL A   1      39.665  31.777  35.607  1.00  0.00     0.064 A 
ATOM     67  C   UNL A   1      40.127  33.093  35.768  1.00  0.00     0.173 A 
ATOM     68  C   UNL A   1      38.667  31.321  36.481  1.00  0.00     0.173 A 
ATOM     69  F   UNL A   1      41.087  33.574  34.966  1.00  0.00    -0.203 F 
ATOM     70  C   UNL A   1      39.628  33.908  36.781  1.00  0.00     0.198 A 
ATOM     71  C   UNL A   1      38.149  32.148  37.474  1.00  0.00     0.198 A 
ATOM     72  F   UNL A   1      38.185  30.074  36.366  1.00  0.00    -0.203 F 
ATOM     73  F   UNL A   1      40.118  35.145  36.945  1.00  0.00    -0.200 F 
ATOM     74  C   UNL A   1      38.636  33.438  37.629  1.00  0.00     0.200 A 
ATOM     75  F   UNL A   1      37.183  31.698  38.284  1.00  0.00    -0.200 F 
ATOM     76  F   UNL A   1      38.152  34.226  38.598  1.00  0.00    -0.200 F 
ENDBRANCH  52  66
BRANCH  53  77
ATOM     77  C   UNL A   1      42.905  26.214  27.988  1.00  0.00     0.064 A 
ATOM     78  C   UNL A   1      43.739  26.781  27.014  1.00  0.00     0.173 A 
ATOM     79  C   UNL A   1      42.563  24.862  27.849  1.00  0.00     0.173 A 
ATOM     80  F   UNL A   1      44.074  28.078  27.094  1.00  0.00    -0.203 F 
ATOM     81  C   UNL A   1      44.196  26.031  25.933  1.00  0.00     0.198 A 
ATOM     82  C   UNL A   1      43.043  24.105  26.781  1.00  0.00     0.198 A 
ATOM     83  F   UNL A   1      41.772  24.271  28.757  1.00  0.00    -0.203 F 
ATOM     84  F   UNL A   1      44.955  26.609  24.993  1.00  0.00    -0.200 F 
ATOM     85  C   UNL A   1      43.853  24.692  25.821  1.00  0.00     0.200 A 
ATOM     86  F   UNL A   1      42.719  22.809  26.684  1.00  0.00    -0.200 F 
ATOM     87  F   UNL A   1      44.295  23.971  24.783  1.00  0.00    -0.200 F 
ENDBRANCH  53  77
BRANCH  65  88
ATOM     88  C   UNL A   1      45.330  27.487  34.390  1.00  0.00     0.064 A 
ATOM     89  C   UNL A   1      45.307  26.307  35.148  1.00  0.00     0.173 A 
ATOM     90  C   UNL A   1      46.540  28.194  34.309  1.00  0.00     0.173 A 
ATOM     91  F   UNL A   1      44.171  25.605  35.270  1.00  0.00    -0.203 F 
ATOM     92  C   UNL A   1      46.445  25.867  35.820  1.00  0.00     0.198 A 
ATOM     93  C   UNL A   1      47.683  27.736  34.958  1.00  0.00     0.198 A 
ATOM     94  F   UNL A   1      46.615  29.324  33.591  1.00  0.00    -0.203 F 
ATOM     95  F   UNL A   1      46.389  24.763  36.577  1.00  0.00    -0.200 F 
ATOM     96  C   UNL A   1      47.633  26.577  35.719  1.00  0.00     0.200 A 
ATOM     97  F   UNL A   1      48.831  28.416  34.850  1.00  0.00    -0.200 F 
ATOM     98  F   UNL A   1      48.727  26.149  36.362  1.00  0.00    -0.200 F 
ENDBRANCH  65  88
ENDBRANCH  39  40
ENDBRANCH  31  34
ENDBRANCH  29  30
ENDBRANCH  28  29
ENDBRANCH   1  28
TORSDOF 15
ENDMDL
