MODEL 1
REMARK VINA RESULT:     -12.7      0.000      0.000
REMARK SMILES C[C@H](Oc1ccc(/C=C\C(=O)c2ccccc2)cc1)C(=O)NCCCNC(=O)c1ccc(-c2c3nc(c(-c4c(F)c(F)c(F)c(F)c4F)c4ccc([nH]4)c(-c4c(F)c(F)c(F)c(F)c4F)c4nc(c(-c5c(F)c(F)c(F)c(F)c5F)c5ccc2[nH]5)C=C4)C=C3)cc1
REMARK SMILES IDX 20 1 21 2 22 3 2 5 1 6 3 7 4 8 5 9 19 10 6 11 18 12 7 13
REMARK SMILES IDX 8 14 9 15 10 16 11 17 12 18 13 19 17 20 14 21 16 22 15 23
REMARK SMILES IDX 23 24 24 25 25 26 26 27 27 28 28 30 29 31 30 32 91 33 31 34
REMARK SMILES IDX 90 35 32 36 33 37 34 38 84 39 35 40 89 41 83 42 85 43 36 44
REMARK SMILES IDX 88 45 82 46 81 47 37 49 69 50 49 51 68 52 50 53 53 54 67 55
REMARK SMILES IDX 86 56 51 57 52 58 66 60 87 61 54 62 38 63 39 64 47 65 40 66
REMARK SMILES IDX 41 67 45 68 48 69 42 70 43 71 46 72 44 73 70 74 71 75 79 76
REMARK SMILES IDX 72 77 73 78 77 79 80 80 74 81 75 82 78 83 76 84 55 85 56 86
REMARK SMILES IDX 64 87 57 88 58 89 62 90 65 91 59 92 60 93 63 94 61 95
REMARK H PARENT 22 4 26 29 85 48 53 59
REMARK Flexibility Score: inf
ROOT
ATOM      1  C   UNL A   1      31.619  29.126  24.061  1.00  0.00     0.260 C 
ATOM      2  O   UNL A   1      30.827  28.920  23.140  1.00  0.00    -0.271 OA
ATOM      3  N   UNL A   1      31.305  30.078  25.001  1.00  0.00    -0.353 N 
ATOM      4  H   UNL A   1      30.439  30.533  24.889  1.00  0.00     0.163 HD
ENDROOT
BRANCH   1   5
ATOM      5  C   UNL A   1      32.905  28.302  24.238  1.00  0.00     0.258 C 
ATOM      6  C   UNL A   1      33.918  28.836  23.217  1.00  0.00     0.064 C 
BRANCH   5   7
ATOM      7  O   UNL A   1      32.409  26.954  24.197  1.00  0.00    -0.481 OA
BRANCH   7   8
ATOM      8  C   UNL A   1      33.225  25.874  24.289  1.00  0.00     0.120 A 
ATOM      9  C   UNL A   1      34.054  25.677  25.385  1.00  0.00     0.047 A 
ATOM     10  C   UNL A   1      33.455  25.133  23.130  1.00  0.00     0.047 A 
ATOM     11  C   UNL A   1      35.025  24.680  25.375  1.00  0.00     0.012 A 
ATOM     12  C   UNL A   1      34.402  24.099  23.129  1.00  0.00     0.012 A 
ATOM     13  C   UNL A   1      35.137  23.819  24.286  1.00  0.00    -0.025 A 
BRANCH  13  14
ATOM     14  C   UNL A   1      35.988  22.629  24.359  1.00  0.00     0.012 C 
ATOM     15  C   UNL A   1      35.591  21.371  24.626  1.00  0.00     0.053 C 
BRANCH  15  16
ATOM     16  C   UNL A   1      34.239  20.813  24.937  1.00  0.00     0.185 C 
ATOM     17  O   UNL A   1      34.007  19.639  24.656  1.00  0.00    -0.289 OA
BRANCH  16  18
ATOM     18  C   UNL A   1      33.181  21.621  25.589  1.00  0.00     0.022 A 
ATOM     19  C   UNL A   1      33.372  22.000  26.928  1.00  0.00     0.012 A 
ATOM     20  C   UNL A   1      32.030  22.028  24.907  1.00  0.00     0.012 A 
ATOM     21  C   UNL A   1      32.436  22.814  27.564  1.00  0.00     0.001 A 
ATOM     22  C   UNL A   1      31.094  22.841  25.551  1.00  0.00     0.001 A 
ATOM     23  C   UNL A   1      31.296  23.228  26.876  1.00  0.00     0.000 A 
ENDBRANCH  16  18
ENDBRANCH  15  16
ENDBRANCH  13  14
ENDBRANCH   7   8
ENDBRANCH   5   7
ENDBRANCH   1   5
BRANCH   3  24
ATOM     24  C   UNL A   1      32.104  30.490  26.140  1.00  0.00     0.118 C 
BRANCH  24  25
ATOM     25  C   UNL A   1      31.673  31.843  26.683  1.00  0.00     0.042 C 
BRANCH  25  26
ATOM     26  C   UNL A   1      32.825  32.547  27.373  1.00  0.00     0.118 C 
BRANCH  26  27
ATOM     27  N   UNL A   1      32.537  33.961  27.597  1.00  0.00    -0.352 N 
ATOM     28  C   UNL A   1      33.026  34.812  28.555  1.00  0.00     0.251 C 
ATOM     29  H   UNL A   1      31.895  34.363  26.966  1.00  0.00     0.163 HD
ATOM     30  O   UNL A   1      32.506  35.896  28.751  1.00  0.00    -0.269 OA
BRANCH  28  31
ATOM     31  C   UNL A   1      34.185  34.375  29.355  1.00  0.00     0.039 A 
ATOM     32  C   UNL A   1      33.967  33.769  30.592  1.00  0.00     0.014 A 
ATOM     33  C   UNL A   1      35.477  34.528  28.848  1.00  0.00     0.014 A 
ATOM     34  C   UNL A   1      35.052  33.239  31.288  1.00  0.00     0.010 A 
ATOM     35  C   UNL A   1      36.537  33.910  29.489  1.00  0.00     0.010 A 
ATOM     36  C   UNL A   1      36.336  33.264  30.717  1.00  0.00    -0.014 A 
BRANCH  36  37
ATOM     37  C   UNL A   1      37.491  32.618  31.381  1.00  0.00     0.031 A 
ATOM     38  C   UNL A   1      38.186  31.469  30.710  1.00  0.00     0.074 A 
ATOM     39  C   UNL A   1      37.849  33.010  32.618  1.00  0.00     0.049 A 
ATOM     40  N   UNL A   1      39.145  30.703  31.165  1.00  0.00    -0.248 NA
ATOM     41  C   UNL A   1      37.719  31.109  29.361  1.00  0.00     0.031 C 
ATOM     42  C   UNL A   1      37.209  34.080  33.386  1.00  0.00     0.029 A 
ATOM     43  N   UNL A   1      38.831  32.544  33.454  1.00  0.00    -0.354 N 
ATOM     44  C   UNL A   1      39.382  29.767  30.168  1.00  0.00     0.074 A 
ATOM     45  C   UNL A   1      38.427  30.017  29.112  1.00  0.00     0.031 C 
ATOM     46  C   UNL A   1      37.831  34.204  34.570  1.00  0.00     0.029 A 
ATOM     47  C   UNL A   1      38.880  33.194  34.662  1.00  0.00     0.049 A 
ATOM     48  H   UNL A   1      39.444  31.813  33.210  1.00  0.00     0.167 HD
ATOM     49  C   UNL A   1      40.331  28.803  30.127  1.00  0.00     0.037 A 
ATOM     50  C   UNL A   1      39.672  32.985  35.731  1.00  0.00     0.037 A 
ATOM     51  C   UNL A   1      41.291  28.578  31.175  1.00  0.00     0.049 A 
ATOM     52  C   UNL A   1      40.704  31.892  35.666  1.00  0.00     0.074 A 
ATOM     53  C   UNL A   1      42.335  27.672  31.205  1.00  0.00     0.029 A 
ATOM     54  N   UNL A   1      41.318  29.263  32.381  1.00  0.00    -0.354 N 
ATOM     55  N   UNL A   1      40.973  31.062  34.688  1.00  0.00    -0.248 NA
ATOM     56  C   UNL A   1      41.545  31.706  36.857  1.00  0.00     0.031 C 
ATOM     57  C   UNL A   1      42.958  27.769  32.453  1.00  0.00     0.029 A 
ATOM     58  C   UNL A   1      42.341  28.777  33.177  1.00  0.00     0.049 A 
ATOM     59  H   UNL A   1      40.701  29.987  32.633  1.00  0.00     0.167 HD
ATOM     60  C   UNL A   1      42.027  30.276  35.131  1.00  0.00     0.074 A 
ATOM     61  C   UNL A   1      42.362  30.742  36.462  1.00  0.00     0.031 C 
ATOM     62  C   UNL A   1      42.660  29.258  34.497  1.00  0.00     0.037 A 
BRANCH  49  63
ATOM     63  C   UNL A   1      40.377  27.925  28.911  1.00  0.00     0.064 A 
ATOM     64  C   UNL A   1      39.641  26.732  28.833  1.00  0.00     0.173 A 
ATOM     65  C   UNL A   1      41.142  28.295  27.795  1.00  0.00     0.173 A 
ATOM     66  F   UNL A   1      38.903  26.325  29.877  1.00  0.00    -0.203 F 
ATOM     67  C   UNL A   1      39.694  25.928  27.698  1.00  0.00     0.198 A 
ATOM     68  C   UNL A   1      41.166  27.506  26.647  1.00  0.00     0.198 A 
ATOM     69  F   UNL A   1      41.863  29.426  27.813  1.00  0.00    -0.203 F 
ATOM     70  F   UNL A   1      39.026  24.767  27.670  1.00  0.00    -0.200 F 
ATOM     71  C   UNL A   1      40.450  26.320  26.603  1.00  0.00     0.200 A 
ATOM     72  F   UNL A   1      41.886  27.893  25.585  1.00  0.00    -0.200 F 
ATOM     73  F   UNL A   1      40.492  25.550  25.507  1.00  0.00    -0.200 F 
ENDBRANCH  49  63
BRANCH  50  74
ATOM     74  C   UNL A   1      39.529  33.835  36.941  1.00  0.00     0.064 A 
ATOM     75  C   UNL A   1      38.742  33.418  38.024  1.00  0.00     0.173 A 
ATOM     76  C   UNL A   1      40.167  35.080  37.041  1.00  0.00     0.173 A 
ATOM     77  F   UNL A   1      38.097  32.243  37.970  1.00  0.00    -0.203 F 
ATOM     78  C   UNL A   1      38.579  34.224  39.148  1.00  0.00     0.198 A 
ATOM     79  C   UNL A   1      40.028  35.872  38.179  1.00  0.00     0.198 A 
ATOM     80  F   UNL A   1      40.937  35.524  36.036  1.00  0.00    -0.203 F 
ATOM     81  F   UNL A   1      37.779  33.824  40.147  1.00  0.00    -0.200 F 
ATOM     82  C   UNL A   1      39.226  35.448  39.228  1.00  0.00     0.200 A 
ATOM     83  F   UNL A   1      40.669  37.045  38.259  1.00  0.00    -0.200 F 
ATOM     84  F   UNL A   1      39.071  36.222  40.310  1.00  0.00    -0.200 F 
ENDBRANCH  50  74
BRANCH  62  85
ATOM     85  C   UNL A   1      43.797  28.597  35.222  1.00  0.00     0.064 A 
ATOM     86  C   UNL A   1      43.596  27.473  36.037  1.00  0.00     0.173 A 
ATOM     87  C   UNL A   1      45.110  29.065  35.060  1.00  0.00     0.173 A 
ATOM     88  F   UNL A   1      42.358  26.997  36.238  1.00  0.00    -0.203 F 
ATOM     89  C   UNL A   1      44.665  26.858  36.684  1.00  0.00     0.198 A 
ATOM     90  C   UNL A   1      46.180  28.426  35.679  1.00  0.00     0.198 A 
ATOM     91  F   UNL A   1      45.357  30.131  34.284  1.00  0.00    -0.203 F 
ATOM     92  F   UNL A   1      44.444  25.816  37.497  1.00  0.00    -0.200 F 
ATOM     93  C   UNL A   1      45.956  27.329  36.497  1.00  0.00     0.200 A 
ATOM     94  F   UNL A   1      47.428  28.872  35.483  1.00  0.00    -0.200 F 
ATOM     95  F   UNL A   1      46.985  26.727  37.109  1.00  0.00    -0.200 F 
ENDBRANCH  62  85
ENDBRANCH  36  37
ENDBRANCH  28  31
ENDBRANCH  26  27
ENDBRANCH  25  26
ENDBRANCH  24  25
ENDBRANCH   3  24
TORSDOF 15
ENDMDL
MODEL 2
REMARK VINA RESULT:     -12.7      0.149      1.934
REMARK SMILES C[C@H](Oc1ccc(/C=C\C(=O)c2ccccc2)cc1)C(=O)NCCCNC(=O)c1ccc(-c2c3nc(c(-c4c(F)c(F)c(F)c(F)c4F)c4ccc([nH]4)c(-c4c(F)c(F)c(F)c(F)c4F)c4nc(c(-c5c(F)c(F)c(F)c(F)c5F)c5ccc2[nH]5)C=C4)C=C3)cc1
REMARK SMILES IDX 20 1 21 2 22 3 2 5 1 6 3 7 4 8 5 9 19 10 6 11 18 12 7 13
REMARK SMILES IDX 8 14 9 15 10 16 11 17 12 18 13 19 17 20 14 21 16 22 15 23
REMARK SMILES IDX 23 24 24 25 25 26 26 27 27 28 28 30 29 31 30 32 91 33 31 34
REMARK SMILES IDX 90 35 32 36 33 37 34 38 84 39 35 40 89 41 83 42 85 43 36 44
REMARK SMILES IDX 88 45 82 46 81 47 37 49 69 50 49 51 68 52 50 53 53 54 67 55
REMARK SMILES IDX 86 56 51 57 52 58 66 60 87 61 54 62 38 63 39 64 47 65 40 66
REMARK SMILES IDX 41 67 45 68 48 69 42 70 43 71 46 72 44 73 70 74 71 75 79 76
REMARK SMILES IDX 72 77 73 78 77 79 80 80 74 81 75 82 78 83 76 84 55 85 56 86
REMARK SMILES IDX 64 87 57 88 58 89 62 90 65 91 59 92 60 93 63 94 61 95
REMARK H PARENT 22 4 26 29 85 48 53 59
REMARK Flexibility Score: inf
ROOT
ATOM      1  C   UNL A   1      31.702  28.947  24.014  1.00  0.00     0.260 C 
ATOM      2  O   UNL A   1      30.937  28.714  23.078  1.00  0.00    -0.271 OA
ATOM      3  N   UNL A   1      31.359  29.922  24.921  1.00  0.00    -0.353 N 
ATOM      4  H   UNL A   1      30.494  30.369  24.774  1.00  0.00     0.163 HD
ENDROOT
BRANCH   1   5
ATOM      5  C   UNL A   1      32.988  28.137  24.247  1.00  0.00     0.258 C 
ATOM      6  C   UNL A   1      34.028  28.657  23.247  1.00  0.00     0.064 C 
BRANCH   5   7
ATOM      7  O   UNL A   1      32.502  26.784  24.217  1.00  0.00    -0.481 OA
BRANCH   7   8
ATOM      8  C   UNL A   1      33.327  25.711  24.305  1.00  0.00     0.120 A 
ATOM      9  C   UNL A   1      34.168  25.525  25.394  1.00  0.00     0.047 A 
ATOM     10  C   UNL A   1      33.550  24.966  23.148  1.00  0.00     0.047 A 
ATOM     11  C   UNL A   1      35.146  24.536  25.379  1.00  0.00     0.012 A 
ATOM     12  C   UNL A   1      34.505  23.940  23.142  1.00  0.00     0.012 A 
ATOM     13  C   UNL A   1      35.253  23.671  24.292  1.00  0.00    -0.025 A 
BRANCH  13  14
ATOM     14  C   UNL A   1      36.114  22.487  24.362  1.00  0.00     0.012 C 
ATOM     15  C   UNL A   1      35.728  21.225  24.624  1.00  0.00     0.053 C 
BRANCH  15  16
ATOM     16  C   UNL A   1      34.380  20.654  24.931  1.00  0.00     0.185 C 
ATOM     17  O   UNL A   1      34.156  19.482  24.637  1.00  0.00    -0.289 OA
BRANCH  16  18
ATOM     18  C   UNL A   1      33.318  21.449  25.593  1.00  0.00     0.022 A 
ATOM     19  C   UNL A   1      33.522  21.840  26.926  1.00  0.00     0.012 A 
ATOM     20  C   UNL A   1      32.150  21.831  24.926  1.00  0.00     0.012 A 
ATOM     21  C   UNL A   1      32.581  22.642  27.572  1.00  0.00     0.001 A 
ATOM     22  C   UNL A   1      31.209  22.633  25.579  1.00  0.00     0.001 A 
ATOM     23  C   UNL A   1      31.424  23.031  26.898  1.00  0.00     0.000 A 
ENDBRANCH  16  18
ENDBRANCH  15  16
ENDBRANCH  13  14
ENDBRANCH   7   8
ENDBRANCH   5   7
ENDBRANCH   1   5
BRANCH   3  24
ATOM     24  C   UNL A   1      32.125  30.368  26.070  1.00  0.00     0.118 C 
BRANCH  24  25
ATOM     25  C   UNL A   1      31.696  31.747  26.545  1.00  0.00     0.042 C 
BRANCH  25  26
ATOM     26  C   UNL A   1      32.813  32.435  27.305  1.00  0.00     0.118 C 
BRANCH  26  27
ATOM     27  N   UNL A   1      32.531  33.853  27.511  1.00  0.00    -0.352 N 
ATOM     28  C   UNL A   1      33.025  34.714  28.458  1.00  0.00     0.251 C 
ATOM     29  H   UNL A   1      31.890  34.249  26.877  1.00  0.00     0.163 HD
ATOM     30  O   UNL A   1      32.509  35.802  28.642  1.00  0.00    -0.269 OA
BRANCH  28  31
ATOM     31  C   UNL A   1      34.183  34.282  29.261  1.00  0.00     0.039 A 
ATOM     32  C   UNL A   1      33.965  33.678  30.499  1.00  0.00     0.014 A 
ATOM     33  C   UNL A   1      35.476  34.438  28.756  1.00  0.00     0.014 A 
ATOM     34  C   UNL A   1      35.050  33.153  31.199  1.00  0.00     0.010 A 
ATOM     35  C   UNL A   1      36.537  33.825  29.401  1.00  0.00     0.010 A 
ATOM     36  C   UNL A   1      36.336  33.180  30.630  1.00  0.00    -0.014 A 
BRANCH  36  37
ATOM     37  C   UNL A   1      37.491  32.540  31.298  1.00  0.00     0.031 A 
ATOM     38  C   UNL A   1      38.189  31.389  30.632  1.00  0.00     0.074 A 
ATOM     39  C   UNL A   1      37.848  32.938  32.533  1.00  0.00     0.049 A 
ATOM     40  N   UNL A   1      39.149  30.627  31.091  1.00  0.00    -0.248 NA
ATOM     41  C   UNL A   1      37.724  31.022  29.284  1.00  0.00     0.031 C 
ATOM     42  C   UNL A   1      37.204  34.010  33.297  1.00  0.00     0.029 A 
ATOM     43  N   UNL A   1      38.830  32.477  33.372  1.00  0.00    -0.354 N 
ATOM     44  C   UNL A   1      39.389  29.688  30.099  1.00  0.00     0.074 A 
ATOM     45  C   UNL A   1      38.434  29.931  29.040  1.00  0.00     0.031 C 
ATOM     46  C   UNL A   1      37.825  34.140  34.480  1.00  0.00     0.029 A 
ATOM     47  C   UNL A   1      38.876  33.132  34.578  1.00  0.00     0.049 A 
ATOM     48  H   UNL A   1      39.444  31.746  33.131  1.00  0.00     0.167 HD
ATOM     49  C   UNL A   1      40.340  28.725  30.062  1.00  0.00     0.037 A 
ATOM     50  C   UNL A   1      39.668  32.930  35.647  1.00  0.00     0.037 A 
ATOM     51  C   UNL A   1      41.299  28.506  31.112  1.00  0.00     0.049 A 
ATOM     52  C   UNL A   1      40.702  31.838  35.589  1.00  0.00     0.074 A 
ATOM     53  C   UNL A   1      42.345  27.603  31.147  1.00  0.00     0.029 A 
ATOM     54  N   UNL A   1      41.324  29.197  32.315  1.00  0.00    -0.354 N 
ATOM     55  N   UNL A   1      40.974  31.005  34.614  1.00  0.00    -0.248 NA
ATOM     56  C   UNL A   1      41.543  31.660  36.781  1.00  0.00     0.031 C 
ATOM     57  C   UNL A   1      42.967  27.707  32.395  1.00  0.00     0.029 A 
ATOM     58  C   UNL A   1      42.348  28.716  33.114  1.00  0.00     0.049 A 
ATOM     59  H   UNL A   1      40.705  29.921  32.563  1.00  0.00     0.167 HD
ATOM     60  C   UNL A   1      42.029  30.223  35.062  1.00  0.00     0.074 A 
ATOM     61  C   UNL A   1      42.362  30.695  36.390  1.00  0.00     0.031 C 
ATOM     62  C   UNL A   1      42.665  29.203  34.432  1.00  0.00     0.037 A 
BRANCH  49  63
ATOM     63  C   UNL A   1      40.388  27.842  28.850  1.00  0.00     0.064 A 
ATOM     64  C   UNL A   1      41.159  28.174  27.724  1.00  0.00     0.173 A 
ATOM     65  C   UNL A   1      39.680  26.631  28.824  1.00  0.00     0.173 A 
ATOM     66  F   UNL A   1      41.844  29.327  27.691  1.00  0.00    -0.203 F 
ATOM     67  C   UNL A   1      41.193  27.343  26.608  1.00  0.00     0.198 A 
ATOM     68  C   UNL A   1      39.744  25.785  27.719  1.00  0.00     0.198 A 
ATOM     69  F   UNL A   1      38.930  26.262  29.873  1.00  0.00    -0.203 F 
ATOM     70  F   UNL A   1      41.892  27.708  25.525  1.00  0.00    -0.200 F 
ATOM     71  C   UNL A   1      40.493  26.145  26.609  1.00  0.00     0.200 A 
ATOM     72  F   UNL A   1      39.078  24.623  27.728  1.00  0.00    -0.200 F 
ATOM     73  F   UNL A   1      40.535  25.342  25.538  1.00  0.00    -0.200 F 
ENDBRANCH  49  63
BRANCH  50  74
ATOM     74  C   UNL A   1      39.523  33.785  36.854  1.00  0.00     0.064 A 
ATOM     75  C   UNL A   1      40.205  35.005  36.957  1.00  0.00     0.173 A 
ATOM     76  C   UNL A   1      38.710  33.401  37.931  1.00  0.00     0.173 A 
ATOM     77  F   UNL A   1      41.009  35.409  35.962  1.00  0.00    -0.203 F 
ATOM     78  C   UNL A   1      40.099  35.796  38.099  1.00  0.00     0.198 A 
ATOM     79  C   UNL A   1      38.580  34.207  39.060  1.00  0.00     0.198 A 
ATOM     80  F   UNL A   1      38.031  32.245  37.881  1.00  0.00    -0.203 F 
ATOM     81  F   UNL A   1      40.802  36.933  38.192  1.00  0.00    -0.200 F 
ATOM     82  C   UNL A   1      39.282  35.400  39.147  1.00  0.00     0.200 A 
ATOM     83  F   UNL A   1      37.776  33.828  40.062  1.00  0.00    -0.200 F 
ATOM     84  F   UNL A   1      39.178  36.161  40.244  1.00  0.00    -0.200 F 
ENDBRANCH  50  74
BRANCH  62  85
ATOM     85  C   UNL A   1      43.802  28.548  35.161  1.00  0.00     0.064 A 
ATOM     86  C   UNL A   1      45.121  29.006  35.030  1.00  0.00     0.173 A 
ATOM     87  C   UNL A   1      43.561  27.479  36.038  1.00  0.00     0.173 A 
ATOM     88  F   UNL A   1      45.408  30.013  34.192  1.00  0.00    -0.203 F 
ATOM     89  C   UNL A   1      46.161  28.400  35.732  1.00  0.00     0.198 A 
ATOM     90  C   UNL A   1      44.597  26.900  36.764  1.00  0.00     0.198 A 
ATOM     91  F   UNL A   1      42.315  27.009  36.205  1.00  0.00    -0.203 F 
ATOM     92  F   UNL A   1      47.421  28.822  35.554  1.00  0.00    -0.200 F 
ATOM     93  C   UNL A   1      45.897  27.355  36.604  1.00  0.00     0.200 A 
ATOM     94  F   UNL A   1      44.337  25.902  37.620  1.00  0.00    -0.200 F 
ATOM     95  F   UNL A   1      46.897  26.783  37.289  1.00  0.00    -0.200 F 
ENDBRANCH  62  85
ENDBRANCH  36  37
ENDBRANCH  28  31
ENDBRANCH  26  27
ENDBRANCH  25  26
ENDBRANCH  24  25
ENDBRANCH   3  24
TORSDOF 15
ENDMDL
MODEL 3
REMARK VINA RESULT:     -12.6      5.606     11.233
REMARK SMILES C[C@H](Oc1ccc(/C=C\C(=O)c2ccccc2)cc1)C(=O)NCCCNC(=O)c1ccc(-c2c3nc(c(-c4c(F)c(F)c(F)c(F)c4F)c4ccc([nH]4)c(-c4c(F)c(F)c(F)c(F)c4F)c4nc(c(-c5c(F)c(F)c(F)c(F)c5F)c5ccc2[nH]5)C=C4)C=C3)cc1
REMARK SMILES IDX 20 1 21 2 22 3 2 5 1 6 3 7 4 8 5 9 19 10 6 11 18 12 7 13
REMARK SMILES IDX 8 14 9 15 10 16 11 17 12 18 13 19 17 20 14 21 16 22 15 23
REMARK SMILES IDX 23 24 24 25 25 26 26 27 27 28 28 30 29 31 30 32 91 33 31 34
REMARK SMILES IDX 90 35 32 36 33 37 34 38 84 39 35 40 89 41 83 42 85 43 36 44
REMARK SMILES IDX 88 45 82 46 81 47 37 49 69 50 49 51 68 52 50 53 53 54 67 55
REMARK SMILES IDX 86 56 51 57 52 58 66 60 87 61 54 62 38 63 39 64 47 65 40 66
REMARK SMILES IDX 41 67 45 68 48 69 42 70 43 71 46 72 44 73 70 74 71 75 79 76
REMARK SMILES IDX 72 77 73 78 77 79 80 80 74 81 75 82 78 83 76 84 55 85 56 86
REMARK SMILES IDX 64 87 57 88 58 89 62 90 65 91 59 92 60 93 63 94 61 95
REMARK H PARENT 22 4 26 29 85 48 53 59
REMARK Flexibility Score: inf
ROOT
ATOM      1  C   UNL A   1      34.356  20.866  25.428  1.00  0.00     0.260 C 
ATOM      2  O   UNL A   1      33.333  20.227  25.179  1.00  0.00    -0.271 OA
ATOM      3  N   UNL A   1      35.563  20.378  24.988  1.00  0.00    -0.353 N 
ATOM      4  H   UNL A   1      35.533  19.540  24.474  1.00  0.00     0.163 HD
ENDROOT
BRANCH   1   5
ATOM      5  C   UNL A   1      34.320  22.226  26.144  1.00  0.00     0.258 C 
ATOM      6  C   UNL A   1      34.028  21.942  27.623  1.00  0.00     0.064 C 
BRANCH   5   7
ATOM      7  O   UNL A   1      33.422  22.982  25.314  1.00  0.00    -0.481 OA
BRANCH   7   8
ATOM      8  C   UNL A   1      33.183  24.303  25.512  1.00  0.00     0.120 A 
ATOM      9  C   UNL A   1      34.192  25.250  25.400  1.00  0.00     0.047 A 
ATOM     10  C   UNL A   1      31.990  24.661  26.137  1.00  0.00     0.047 A 
ATOM     11  C   UNL A   1      33.981  26.567  25.799  1.00  0.00     0.012 A 
ATOM     12  C   UNL A   1      31.756  25.994  26.501  1.00  0.00     0.012 A 
ATOM     13  C   UNL A   1      32.728  26.969  26.258  1.00  0.00    -0.025 A 
BRANCH  13  14
ATOM     14  C   UNL A   1      32.427  28.389  26.457  1.00  0.00     0.012 C 
ATOM     15  C   UNL A   1      31.778  29.202  25.603  1.00  0.00     0.053 C 
BRANCH  15  16
ATOM     16  C   UNL A   1      31.206  28.945  24.246  1.00  0.00     0.185 C 
ATOM     17  O   UNL A   1      30.246  29.617  23.874  1.00  0.00    -0.289 OA
BRANCH  16  18
ATOM     18  C   UNL A   1      31.768  27.923  23.331  1.00  0.00     0.022 A 
ATOM     19  C   UNL A   1      33.055  28.140  22.813  1.00  0.00     0.012 A 
ATOM     20  C   UNL A   1      31.071  26.757  22.998  1.00  0.00     0.012 A 
ATOM     21  C   UNL A   1      33.653  27.177  22.000  1.00  0.00     0.001 A 
ATOM     22  C   UNL A   1      31.674  25.797  22.181  1.00  0.00     0.001 A 
ATOM     23  C   UNL A   1      32.959  26.011  21.681  1.00  0.00     0.000 A 
ENDBRANCH  16  18
ENDBRANCH  15  16
ENDBRANCH  13  14
ENDBRANCH   7   8
ENDBRANCH   5   7
ENDBRANCH   1   5
BRANCH   3  24
ATOM     24  C   UNL A   1      36.877  20.958  25.197  1.00  0.00     0.118 C 
BRANCH  24  25
ATOM     25  C   UNL A   1      37.990  19.940  25.001  1.00  0.00     0.042 C 
BRANCH  25  26
ATOM     26  C   UNL A   1      39.242  20.348  25.753  1.00  0.00     0.118 C 
BRANCH  26  27
ATOM     27  N   UNL A   1      40.144  19.217  25.949  1.00  0.00    -0.352 N 
ATOM     28  C   UNL A   1      41.505  19.205  26.125  1.00  0.00     0.251 C 
ATOM     29  H   UNL A   1      39.713  18.332  25.955  1.00  0.00     0.163 HD
ATOM     30  O   UNL A   1      42.137  18.167  26.036  1.00  0.00    -0.269 OA
BRANCH  28  31
ATOM     31  C   UNL A   1      42.187  20.482  26.405  1.00  0.00     0.039 A 
ATOM     32  C   UNL A   1      42.704  21.224  25.343  1.00  0.00     0.014 A 
ATOM     33  C   UNL A   1      42.265  20.955  27.717  1.00  0.00     0.014 A 
ATOM     34  C   UNL A   1      43.231  22.489  25.593  1.00  0.00     0.010 A 
ATOM     35  C   UNL A   1      42.692  22.252  27.948  1.00  0.00     0.010 A 
ATOM     36  C   UNL A   1      43.183  23.029  26.890  1.00  0.00    -0.014 A 
BRANCH  36  37
ATOM     37  C   UNL A   1      43.639  24.410  27.170  1.00  0.00     0.031 A 
ATOM     38  C   UNL A   1      42.656  25.429  27.669  1.00  0.00     0.074 A 
ATOM     39  C   UNL A   1      44.908  24.760  26.890  1.00  0.00     0.049 A 
ATOM     40  N   UNL A   1      42.826  26.710  27.876  1.00  0.00    -0.248 NA
ATOM     41  C   UNL A   1      41.289  24.954  27.940  1.00  0.00     0.031 C 
ATOM     42  C   UNL A   1      45.934  23.864  26.351  1.00  0.00     0.029 A 
ATOM     43  N   UNL A   1      45.550  25.966  27.007  1.00  0.00    -0.354 N 
ATOM     44  C   UNL A   1      41.590  27.192  28.284  1.00  0.00     0.074 A 
ATOM     45  C   UNL A   1      40.663  26.083  28.235  1.00  0.00     0.031 C 
ATOM     46  C   UNL A   1      47.082  24.546  26.208  1.00  0.00     0.029 A 
ATOM     47  C   UNL A   1      46.860  25.935  26.599  1.00  0.00     0.049 A 
ATOM     48  H   UNL A   1      45.111  26.778  27.352  1.00  0.00     0.167 HD
ATOM     49  C   UNL A   1      41.265  28.441  28.690  1.00  0.00     0.037 A 
ATOM     50  C   UNL A   1      47.774  26.921  26.532  1.00  0.00     0.037 A 
ATOM     51  C   UNL A   1      42.202  29.531  28.755  1.00  0.00     0.049 A 
ATOM     52  C   UNL A   1      47.380  28.306  26.969  1.00  0.00     0.074 A 
ATOM     53  C   UNL A   1      41.994  30.819  29.214  1.00  0.00     0.029 A 
ATOM     54  N   UNL A   1      43.526  29.460  28.344  1.00  0.00    -0.354 N 
ATOM     55  N   UNL A   1      46.229  28.735  27.428  1.00  0.00    -0.248 NA
ATOM     56  C   UNL A   1      48.414  29.346  26.880  1.00  0.00     0.031 C 
ATOM     57  C   UNL A   1      43.174  31.544  29.026  1.00  0.00     0.029 A 
ATOM     58  C   UNL A   1      44.137  30.693  28.507  1.00  0.00     0.049 A 
ATOM     59  H   UNL A   1      43.964  28.654  27.989  1.00  0.00     0.167 HD
ATOM     60  C   UNL A   1      46.406  30.083  27.705  1.00  0.00     0.074 A 
ATOM     61  C   UNL A   1      47.783  30.397  27.382  1.00  0.00     0.031 C 
ATOM     62  C   UNL A   1      45.510  30.982  28.183  1.00  0.00     0.037 A 
BRANCH  49  63
ATOM     63  C   UNL A   1      39.842  28.693  29.094  1.00  0.00     0.064 A 
ATOM     64  C   UNL A   1      39.409  28.519  30.418  1.00  0.00     0.173 A 
ATOM     65  C   UNL A   1      38.905  29.143  28.153  1.00  0.00     0.173 A 
ATOM     66  F   UNL A   1      40.262  28.077  31.355  1.00  0.00    -0.203 F 
ATOM     67  C   UNL A   1      38.086  28.757  30.777  1.00  0.00     0.198 A 
ATOM     68  C   UNL A   1      37.589  29.413  28.523  1.00  0.00     0.198 A 
ATOM     69  F   UNL A   1      39.264  29.329  26.874  1.00  0.00    -0.203 F 
ATOM     70  F   UNL A   1      37.684  28.532  32.036  1.00  0.00    -0.200 F 
ATOM     71  C   UNL A   1      37.179  29.212  29.832  1.00  0.00     0.200 A 
ATOM     72  F   UNL A   1      36.718  29.866  27.611  1.00  0.00    -0.200 F 
ATOM     73  F   UNL A   1      35.907  29.450  30.181  1.00  0.00    -0.200 F 
ENDBRANCH  49  63
BRANCH  50  74
ATOM     74  C   UNL A   1      49.149  26.632  26.047  1.00  0.00     0.064 A 
ATOM     75  C   UNL A   1      49.514  26.897  24.720  1.00  0.00     0.173 A 
ATOM     76  C   UNL A   1      50.122  26.079  26.892  1.00  0.00     0.173 A 
ATOM     77  F   UNL A   1      48.614  27.410  23.868  1.00  0.00    -0.203 F 
ATOM     78  C   UNL A   1      50.791  26.599  24.251  1.00  0.00     0.198 A 
ATOM     79  C   UNL A   1      51.409  25.809  26.430  1.00  0.00     0.198 A 
ATOM     80  F   UNL A   1      49.826  25.810  28.173  1.00  0.00    -0.203 F 
ATOM     81  F   UNL A   1      51.098  26.816  22.964  1.00  0.00    -0.200 F 
ATOM     82  C   UNL A   1      51.740  26.061  25.108  1.00  0.00     0.200 A 
ATOM     83  F   UNL A   1      52.326  25.305  27.266  1.00  0.00    -0.200 F 
ATOM     84  F   UNL A   1      52.969  25.776  24.657  1.00  0.00    -0.200 F 
ENDBRANCH  50  74
BRANCH  62  85
ATOM     85  C   UNL A   1      45.997  32.384  28.410  1.00  0.00     0.064 A 
ATOM     86  C   UNL A   1      46.590  32.770  29.622  1.00  0.00     0.173 A 
ATOM     87  C   UNL A   1      45.914  33.340  27.386  1.00  0.00     0.173 A 
ATOM     88  F   UNL A   1      46.680  31.899  30.638  1.00  0.00    -0.203 F 
ATOM     89  C   UNL A   1      47.058  34.068  29.807  1.00  0.00     0.198 A 
ATOM     90  C   UNL A   1      46.414  34.626  27.563  1.00  0.00     0.198 A 
ATOM     91  F   UNL A   1      45.363  33.019  26.206  1.00  0.00    -0.203 F 
ATOM     92  F   UNL A   1      47.576  34.429  30.990  1.00  0.00    -0.200 F 
ATOM     93  C   UNL A   1      46.978  34.992  28.775  1.00  0.00     0.200 A 
ATOM     94  F   UNL A   1      46.352  35.511  26.559  1.00  0.00    -0.200 F 
ATOM     95  F   UNL A   1      47.441  36.237  28.952  1.00  0.00    -0.200 F 
ENDBRANCH  62  85
ENDBRANCH  36  37
ENDBRANCH  28  31
ENDBRANCH  26  27
ENDBRANCH  25  26
ENDBRANCH  24  25
ENDBRANCH   3  24
TORSDOF 15
ENDMDL
