MODEL 1
REMARK VINA RESULT:     -12.4      0.000      0.000
REMARK SMILES Cn1nc(N2CCC(CC(=O)NCCCNC(=O)c3ccc(-c4c5nc(c(-c6c(F)c(F)c(F)c(F)c6F)c6ccc([nH]6)c(-c6c(F)c(F)c(F)c(F)c6F)c6nc(c(-c7c(F)c(F)c(F)c(F)c7F)c7ccc4[nH]7)C=C6)C=C5)cc3)CC2)c(=O)n(C)c1=O
REMARK SMILES IDX 14 1 13 2 12 3 10 4 11 5 9 7 8 8 5 9 6 10 83 11 7 12 82 13
REMARK SMILES IDX 4 14 1 15 2 16 3 17 88 18 86 19 89 20 84 21 87 22 85 23
REMARK SMILES IDX 15 24 16 25 17 26 18 28 19 29 20 30 81 31 21 32 80 33 22 34
REMARK SMILES IDX 23 35 24 36 74 37 25 38 79 39 73 40 75 41 26 42 78 43 72 44
REMARK SMILES IDX 71 45 27 47 59 48 39 49 58 50 40 51 43 52 57 53 76 54 41 55
REMARK SMILES IDX 42 56 56 58 77 59 44 60 28 61 29 62 37 63 30 64 31 65 35 66
REMARK SMILES IDX 38 67 32 68 33 69 36 70 34 71 60 72 61 73 69 74 62 75 63 76
REMARK SMILES IDX 67 77 70 78 64 79 65 80 68 81 66 82 45 83 46 84 54 85 47 86
REMARK SMILES IDX 48 87 52 88 55 89 49 90 50 91 53 92 51 93
REMARK H PARENT 12 6 16 27 75 46 43 57
REMARK Flexibility Score: inf
ROOT
ATOM      1  C   UNL A   1      33.687  29.022  23.481  1.00  0.00     0.042 C 
ENDROOT
BRANCH   1   2
ATOM      2  C   UNL A   1      33.078  27.802  22.783  1.00  0.00     0.117 C 
BRANCH   2   3
ATOM      3  N   UNL A   1      31.704  28.027  22.348  1.00  0.00    -0.356 N 
ATOM      4  C   UNL A   1      30.513  27.901  23.002  1.00  0.00     0.220 C 
ATOM      5  O   UNL A   1      29.484  28.153  22.374  1.00  0.00    -0.275 OA
ATOM      6  H   UNL A   1      31.621  28.323  21.413  1.00  0.00     0.163 HD
BRANCH   4   7
ATOM      7  C   UNL A   1      30.446  27.445  24.449  1.00  0.00     0.103 C 
BRANCH   7   8
ATOM      8  C   UNL A   1      30.186  25.931  24.608  1.00  0.00     0.002 C 
ATOM      9  N   UNL A   1      31.516  23.386  24.832  1.00  0.00    -0.351 N 
ATOM     10  C   UNL A   1      30.863  23.669  23.576  1.00  0.00     0.118 C 
ATOM     11  C   UNL A   1      30.837  23.888  26.013  1.00  0.00     0.118 C 
ATOM     12  C   UNL A   1      30.756  25.171  23.407  1.00  0.00     0.025 C 
ATOM     13  C   UNL A   1      30.785  25.419  25.935  1.00  0.00     0.025 C 
BRANCH   9  14
ATOM     14  C   UNL A   1      32.764  22.791  24.889  1.00  0.00     0.215 A 
ATOM     15  C   UNL A   1      36.239  23.704  24.997  1.00  0.00     0.180 C 
ATOM     16  N   UNL A   1      35.065  22.849  24.930  1.00  0.00    -0.216 N 
ATOM     17  N   UNL A   1      33.857  23.499  24.869  1.00  0.00    -0.145 NA
ATOM     18  C   UNL A   1      35.236  21.469  24.869  1.00  0.00     0.346 A 
ATOM     19  N   UNL A   1      34.082  20.712  24.850  1.00  0.00    -0.259 N 
ATOM     20  O   UNL A   1      36.356  20.954  24.837  1.00  0.00    -0.246 OA
ATOM     21  C   UNL A   1      32.825  21.264  24.932  1.00  0.00     0.299 A 
ATOM     22  C   UNL A   1      34.166  19.270  24.762  1.00  0.00     0.159 C 
ATOM     23  O   UNL A   1      31.777  20.626  24.995  1.00  0.00    -0.265 OA
ENDBRANCH   9  14
ENDBRANCH   7   8
ENDBRANCH   4   7
ENDBRANCH   2   3
ENDBRANCH   1   2
BRANCH   1  24
ATOM     24  C   UNL A   1      33.622  28.967  25.001  1.00  0.00     0.118 C 
BRANCH  24  25
ATOM     25  N   UNL A   1      33.036  30.175  25.552  1.00  0.00    -0.352 N 
ATOM     26  C   UNL A   1      33.316  30.828  26.728  1.00  0.00     0.251 C 
ATOM     27  H   UNL A   1      32.332  30.588  25.002  1.00  0.00     0.163 HD
ATOM     28  O   UNL A   1      32.530  31.671  27.151  1.00  0.00    -0.269 OA
BRANCH  26  29
ATOM     29  C   UNL A   1      34.544  30.522  27.501  1.00  0.00     0.039 A 
ATOM     30  C   UNL A   1      35.524  31.512  27.627  1.00  0.00     0.014 A 
ATOM     31  C   UNL A   1      34.774  29.254  28.044  1.00  0.00     0.014 A 
ATOM     32  C   UNL A   1      36.704  31.245  28.328  1.00  0.00     0.010 A 
ATOM     33  C   UNL A   1      35.911  29.016  28.817  1.00  0.00     0.010 A 
ATOM     34  C   UNL A   1      36.900  30.001  28.951  1.00  0.00    -0.014 A 
BRANCH  34  35
ATOM     35  C   UNL A   1      38.148  29.716  29.708  1.00  0.00     0.031 A 
ATOM     36  C   UNL A   1      38.362  30.306  31.076  1.00  0.00     0.074 A 
ATOM     37  C   UNL A   1      39.098  28.931  29.162  1.00  0.00     0.049 A 
ATOM     38  N   UNL A   1      39.371  30.149  31.897  1.00  0.00    -0.248 NA
ATOM     39  C   UNL A   1      37.316  31.209  31.584  1.00  0.00     0.031 C 
ATOM     40  C   UNL A   1      39.034  28.335  27.826  1.00  0.00     0.029 A 
ATOM     41  N   UNL A   1      40.299  28.491  29.662  1.00  0.00    -0.354 N 
ATOM     42  C   UNL A   1      39.078  30.925  33.010  1.00  0.00     0.074 A 
ATOM     43  C   UNL A   1      37.835  31.611  32.735  1.00  0.00     0.031 C 
ATOM     44  C   UNL A   1      40.119  27.570  27.633  1.00  0.00     0.029 A 
ATOM     45  C   UNL A   1      40.973  27.645  28.815  1.00  0.00     0.049 A 
ATOM     46  H   UNL A   1      40.644  28.756  30.546  1.00  0.00     0.167 HD
ATOM     47  C   UNL A   1      39.763  31.030  34.174  1.00  0.00     0.037 A 
ATOM     48  C   UNL A   1      42.141  26.993  28.978  1.00  0.00     0.037 A 
ATOM     49  C   UNL A   1      40.985  30.327  34.459  1.00  0.00     0.049 A 
ATOM     50  C   UNL A   1      42.898  27.144  30.270  1.00  0.00     0.074 A 
ATOM     51  C   UNL A   1      41.725  30.329  35.628  1.00  0.00     0.029 A 
ATOM     52  N   UNL A   1      41.646  29.497  33.566  1.00  0.00    -0.354 N 
ATOM     53  N   UNL A   1      42.572  27.826  31.342  1.00  0.00    -0.248 NA
ATOM     54  C   UNL A   1      44.181  26.435  30.379  1.00  0.00     0.031 C 
ATOM     55  C   UNL A   1      42.858  29.535  35.428  1.00  0.00     0.029 A 
ATOM     56  C   UNL A   1      42.799  29.000  34.151  1.00  0.00     0.049 A 
ATOM     57  H   UNL A   1      41.340  29.291  32.653  1.00  0.00     0.167 HD
ATOM     58  C   UNL A   1      43.594  27.611  32.257  1.00  0.00     0.074 A 
ATOM     59  C   UNL A   1      44.544  26.723  31.622  1.00  0.00     0.031 C 
ATOM     60  C   UNL A   1      43.731  28.109  33.510  1.00  0.00     0.037 A 
BRANCH  47  61
ATOM     61  C   UNL A   1      39.193  31.913  35.245  1.00  0.00     0.064 A 
ATOM     62  C   UNL A   1      38.423  31.385  36.293  1.00  0.00     0.173 A 
ATOM     63  C   UNL A   1      39.471  33.288  35.265  1.00  0.00     0.173 A 
ATOM     64  F   UNL A   1      38.122  30.077  36.315  1.00  0.00    -0.203 F 
ATOM     65  C   UNL A   1      37.937  32.202  37.309  1.00  0.00     0.198 A 
ATOM     66  C   UNL A   1      39.008  34.098  36.299  1.00  0.00     0.198 A 
ATOM     67  F   UNL A   1      40.209  33.844  34.292  1.00  0.00    -0.203 F 
ATOM     68  F   UNL A   1      37.172  31.679  38.278  1.00  0.00    -0.200 F 
ATOM     69  C   UNL A   1      38.237  33.555  37.317  1.00  0.00     0.200 A 
ATOM     70  F   UNL A   1      39.311  35.403  36.313  1.00  0.00    -0.200 F 
ATOM     71  F   UNL A   1      37.782  34.338  38.304  1.00  0.00    -0.200 F 
ENDBRANCH  47  61
BRANCH  48  72
ATOM     72  C   UNL A   1      42.640  26.094  27.903  1.00  0.00     0.064 A 
ATOM     73  C   UNL A   1      42.209  24.763  27.826  1.00  0.00     0.173 A 
ATOM     74  C   UNL A   1      43.536  26.547  26.925  1.00  0.00     0.173 A 
ATOM     75  F   UNL A   1      41.367  24.277  28.751  1.00  0.00    -0.203 F 
ATOM     76  C   UNL A   1      42.660  23.917  26.815  1.00  0.00     0.198 A 
ATOM     77  C   UNL A   1      43.967  25.708  25.899  1.00  0.00     0.198 A 
ATOM     78  F   UNL A   1      43.978  27.813  26.951  1.00  0.00    -0.203 F 
ATOM     79  F   UNL A   1      42.257  22.638  26.784  1.00  0.00    -0.200 F 
ATOM     80  C   UNL A   1      43.533  24.391  25.849  1.00  0.00     0.200 A 
ATOM     81  F   UNL A   1      44.798  26.173  24.958  1.00  0.00    -0.200 F 
ATOM     82  F   UNL A   1      43.959  23.581  24.870  1.00  0.00    -0.200 F 
ENDBRANCH  48  72
BRANCH  60  83
ATOM     83  C   UNL A   1      44.944  27.705  34.296  1.00  0.00     0.064 A 
ATOM     84  C   UNL A   1      44.951  26.542  35.078  1.00  0.00     0.173 A 
ATOM     85  C   UNL A   1      46.140  28.430  34.181  1.00  0.00     0.173 A 
ATOM     86  F   UNL A   1      43.828  25.823  35.227  1.00  0.00    -0.203 F 
ATOM     87  C   UNL A   1      46.111  26.120  35.721  1.00  0.00     0.198 A 
ATOM     88  C   UNL A   1      47.305  27.991  34.803  1.00  0.00     0.198 A 
ATOM     89  F   UNL A   1      46.186  29.546  33.437  1.00  0.00    -0.203 F 
ATOM     90  F   UNL A   1      46.091  25.018  36.482  1.00  0.00    -0.200 F 
ATOM     91  C   UNL A   1      47.290  26.837  35.573  1.00  0.00     0.200 A 
ATOM     92  F   UNL A   1      48.447  28.675  34.644  1.00  0.00    -0.200 F 
ATOM     93  F   UNL A   1      48.412  26.416  36.171  1.00  0.00    -0.200 F 
ENDBRANCH  60  83
ENDBRANCH  34  35
ENDBRANCH  26  29
ENDBRANCH  24  25
ENDBRANCH   1  24
TORSDOF 12
ENDMDL
MODEL 2
REMARK VINA RESULT:     -12.4      1.886      3.004
REMARK SMILES Cn1nc(N2CCC(CC(=O)NCCCNC(=O)c3ccc(-c4c5nc(c(-c6c(F)c(F)c(F)c(F)c6F)c6ccc([nH]6)c(-c6c(F)c(F)c(F)c(F)c6F)c6nc(c(-c7c(F)c(F)c(F)c(F)c7F)c7ccc4[nH]7)C=C6)C=C5)cc3)CC2)c(=O)n(C)c1=O
REMARK SMILES IDX 14 1 13 2 12 3 10 4 11 5 9 7 8 8 5 9 6 10 83 11 7 12 82 13
REMARK SMILES IDX 4 14 1 15 2 16 3 17 88 18 86 19 89 20 84 21 87 22 85 23
REMARK SMILES IDX 15 24 16 25 17 26 18 28 19 29 20 30 81 31 21 32 80 33 22 34
REMARK SMILES IDX 23 35 24 36 74 37 25 38 79 39 73 40 75 41 26 42 78 43 72 44
REMARK SMILES IDX 71 45 27 47 59 48 39 49 58 50 40 51 43 52 57 53 76 54 41 55
REMARK SMILES IDX 42 56 56 58 77 59 44 60 28 61 29 62 37 63 30 64 31 65 35 66
REMARK SMILES IDX 38 67 32 68 33 69 36 70 34 71 60 72 61 73 69 74 62 75 63 76
REMARK SMILES IDX 67 77 70 78 64 79 65 80 68 81 66 82 45 83 46 84 54 85 47 86
REMARK SMILES IDX 48 87 52 88 55 89 49 90 50 91 53 92 51 93
REMARK H PARENT 12 6 16 27 75 46 43 57
REMARK Flexibility Score: inf
ROOT
ATOM      1  C   UNL A   1      31.029  32.062  26.221  1.00  0.00     0.042 C 
ENDROOT
BRANCH   1   2
ATOM      2  C   UNL A   1      31.121  30.716  25.497  1.00  0.00     0.117 C 
BRANCH   2   3
ATOM      3  N   UNL A   1      30.388  30.702  24.235  1.00  0.00    -0.356 N 
ATOM      4  C   UNL A   1      29.901  29.676  23.480  1.00  0.00     0.220 C 
ATOM      5  O   UNL A   1      29.319  29.961  22.432  1.00  0.00    -0.275 OA
ATOM      6  H   UNL A   1      30.215  31.596  23.861  1.00  0.00     0.163 HD
BRANCH   4   7
ATOM      7  C   UNL A   1      30.082  28.227  23.897  1.00  0.00     0.103 C 
BRANCH   7   8
ATOM      8  C   UNL A   1      31.246  27.518  23.171  1.00  0.00     0.002 C 
ATOM      9  N   UNL A   1      33.132  25.356  23.427  1.00  0.00    -0.351 N 
ATOM     10  C   UNL A   1      33.653  26.694  23.585  1.00  0.00     0.118 C 
ATOM     11  C   UNL A   1      32.083  25.210  22.434  1.00  0.00     0.118 C 
ATOM     12  C   UNL A   1      32.524  27.611  24.010  1.00  0.00     0.025 C 
ATOM     13  C   UNL A   1      30.877  26.050  22.868  1.00  0.00     0.025 C 
BRANCH   9  14
ATOM     14  C   UNL A   1      33.520  24.319  24.257  1.00  0.00     0.215 A 
ATOM     15  C   UNL A   1      32.549  22.768  27.351  1.00  0.00     0.180 C 
ATOM     16  N   UNL A   1      33.337  23.035  26.159  1.00  0.00    -0.216 N 
ATOM     17  N   UNL A   1      32.906  24.080  25.380  1.00  0.00    -0.145 NA
ATOM     18  C   UNL A   1      34.482  22.278  25.922  1.00  0.00     0.346 A 
ATOM     19  N   UNL A   1      35.162  22.552  24.752  1.00  0.00    -0.259 N 
ATOM     20  O   UNL A   1      34.864  21.412  26.711  1.00  0.00    -0.246 OA
ATOM     21  C   UNL A   1      34.728  23.482  23.836  1.00  0.00     0.299 A 
ATOM     22  C   UNL A   1      36.376  21.831  24.437  1.00  0.00     0.159 C 
ATOM     23  O   UNL A   1      35.258  23.703  22.751  1.00  0.00    -0.265 OA
ENDBRANCH   9  14
ENDBRANCH   7   8
ENDBRANCH   4   7
ENDBRANCH   2   3
ENDBRANCH   1   2
BRANCH   1  24
ATOM     24  C   UNL A   1      32.276  32.427  27.016  1.00  0.00     0.118 C 
BRANCH  24  25
ATOM     25  N   UNL A   1      32.271  33.827  27.399  1.00  0.00    -0.352 N 
ATOM     26  C   UNL A   1      32.992  34.472  28.374  1.00  0.00     0.251 C 
ATOM     27  H   UNL A   1      31.660  34.401  26.882  1.00  0.00     0.163 HD
ATOM     28  O   UNL A   1      32.651  35.597  28.732  1.00  0.00    -0.269 OA
BRANCH  26  29
ATOM     29  C   UNL A   1      34.165  33.828  29.013  1.00  0.00     0.039 A 
ATOM     30  C   UNL A   1      35.445  34.298  28.700  1.00  0.00     0.014 A 
ATOM     31  C   UNL A   1      34.027  32.724  29.861  1.00  0.00     0.014 A 
ATOM     32  C   UNL A   1      36.571  33.694  29.267  1.00  0.00     0.010 A 
ATOM     33  C   UNL A   1      35.144  32.178  30.494  1.00  0.00     0.010 A 
ATOM     34  C   UNL A   1      36.432  32.642  30.188  1.00  0.00    -0.014 A 
BRANCH  34  35
ATOM     35  C   UNL A   1      37.627  32.004  30.802  1.00  0.00     0.031 A 
ATOM     36  C   UNL A   1      38.065  32.385  32.191  1.00  0.00     0.074 A 
ATOM     37  C   UNL A   1      38.327  31.086  30.107  1.00  0.00     0.049 A 
ATOM     38  N   UNL A   1      39.063  31.918  32.901  1.00  0.00    -0.248 NA
ATOM     39  C   UNL A   1      37.297  33.443  32.867  1.00  0.00     0.031 C 
ATOM     40  C   UNL A   1      38.034  30.662  28.737  1.00  0.00     0.029 A 
ATOM     41  N   UNL A   1      39.421  30.334  30.458  1.00  0.00    -0.354 N 
ATOM     42  C   UNL A   1      39.037  32.620  34.099  1.00  0.00     0.074 A 
ATOM     43  C   UNL A   1      37.973  33.594  33.997  1.00  0.00     0.031 C 
ATOM     44  C   UNL A   1      38.893  29.695  28.382  1.00  0.00     0.029 A 
ATOM     45  C   UNL A   1      39.819  29.451  29.484  1.00  0.00     0.049 A 
ATOM     46  H   UNL A   1      39.878  30.421  31.326  1.00  0.00     0.167 HD
ATOM     47  C   UNL A   1      39.805  32.444  35.200  1.00  0.00     0.037 A 
ATOM     48  C   UNL A   1      40.810  28.537  29.484  1.00  0.00     0.037 A 
ATOM     49  C   UNL A   1      40.844  31.457  35.313  1.00  0.00     0.049 A 
ATOM     50  C   UNL A   1      41.667  28.377  30.712  1.00  0.00     0.074 A 
ATOM     51  C   UNL A   1      41.641  31.168  36.406  1.00  0.00     0.029 A 
ATOM     52  N   UNL A   1      41.229  30.596  34.296  1.00  0.00    -0.354 N 
ATOM     53  N   UNL A   1      41.584  28.999  31.862  1.00  0.00    -0.248 NA
ATOM     54  C   UNL A   1      42.752  27.387  30.643  1.00  0.00     0.031 C 
ATOM     55  C   UNL A   1      42.540  30.163  36.038  1.00  0.00     0.029 A 
ATOM     56  C   UNL A   1      42.270  29.792  34.730  1.00  0.00     0.049 A 
ATOM     57  H   UNL A   1      40.822  30.561  33.401  1.00  0.00     0.167 HD
ATOM     58  C   UNL A   1      42.587  28.464  32.660  1.00  0.00     0.074 A 
ATOM     59  C   UNL A   1      43.256  27.454  31.868  1.00  0.00     0.031 C 
ATOM     60  C   UNL A   1      42.921  28.784  33.933  1.00  0.00     0.037 A 
BRANCH  47  61
ATOM     61  C   UNL A   1      39.531  33.317  36.390  1.00  0.00     0.064 A 
ATOM     62  C   UNL A   1      38.664  32.905  37.414  1.00  0.00     0.173 A 
ATOM     63  C   UNL A   1      40.191  34.545  36.545  1.00  0.00     0.173 A 
ATOM     64  F   UNL A   1      38.002  31.742  37.309  1.00  0.00    -0.203 F 
ATOM     65  C   UNL A   1      38.451  33.698  38.537  1.00  0.00     0.198 A 
ATOM     66  C   UNL A   1      39.999  35.323  37.685  1.00  0.00     0.198 A 
ATOM     67  F   UNL A   1      41.037  34.984  35.601  1.00  0.00    -0.203 F 
ATOM     68  F   UNL A   1      37.589  33.300  39.482  1.00  0.00    -0.200 F 
ATOM     69  C   UNL A   1      39.126  34.901  38.677  1.00  0.00     0.200 A 
ATOM     70  F   UNL A   1      40.662  36.479  37.826  1.00  0.00    -0.200 F 
ATOM     71  F   UNL A   1      38.932  35.656  39.767  1.00  0.00    -0.200 F 
ENDBRANCH  47  61
BRANCH  48  72
ATOM     72  C   UNL A   1      41.010  27.665  28.296  1.00  0.00     0.064 A 
ATOM     73  C   UNL A   1      41.885  28.043  27.270  1.00  0.00     0.173 A 
ATOM     74  C   UNL A   1      40.350  26.434  28.171  1.00  0.00     0.173 A 
ATOM     75  F   UNL A   1      42.524  29.221  27.335  1.00  0.00    -0.203 F 
ATOM     76  C   UNL A   1      42.089  27.227  26.159  1.00  0.00     0.198 A 
ATOM     77  C   UNL A   1      40.574  25.606  27.072  1.00  0.00     0.198 A 
ATOM     78  F   UNL A   1      39.504  26.023  29.126  1.00  0.00    -0.203 F 
ATOM     79  F   UNL A   1      42.907  27.629  25.176  1.00  0.00    -0.200 F 
ATOM     80  C   UNL A   1      41.439  26.006  26.064  1.00  0.00     0.200 A 
ATOM     81  F   UNL A   1      39.957  24.420  26.991  1.00  0.00    -0.200 F 
ATOM     82  F   UNL A   1      41.643  25.216  25.001  1.00  0.00    -0.200 F 
ENDBRANCH  48  72
BRANCH  60  83
ATOM     83  C   UNL A   1      44.056  28.036  34.570  1.00  0.00     0.064 A 
ATOM     84  C   UNL A   1      45.358  28.553  34.574  1.00  0.00     0.173 A 
ATOM     85  C   UNL A   1      43.817  26.845  35.272  1.00  0.00     0.173 A 
ATOM     86  F   UNL A   1      45.638  29.684  33.906  1.00  0.00    -0.203 F 
ATOM     87  C   UNL A   1      46.384  27.903  35.255  1.00  0.00     0.198 A 
ATOM     88  C   UNL A   1      44.838  26.211  35.974  1.00  0.00     0.198 A 
ATOM     89  F   UNL A   1      42.585  26.314  35.305  1.00  0.00    -0.203 F 
ATOM     90  F   UNL A   1      47.626  28.403  35.228  1.00  0.00    -0.200 F 
ATOM     91  C   UNL A   1      46.120  26.740  35.965  1.00  0.00     0.200 A 
ATOM     92  F   UNL A   1      44.579  25.098  36.674  1.00  0.00    -0.200 F 
ATOM     93  F   UNL A   1      47.102  26.130  36.642  1.00  0.00    -0.200 F 
ENDBRANCH  60  83
ENDBRANCH  34  35
ENDBRANCH  26  29
ENDBRANCH  24  25
ENDBRANCH   1  24
TORSDOF 12
ENDMDL
MODEL 3
REMARK VINA RESULT:     -12.3      1.903      2.544
REMARK SMILES Cn1nc(N2CCC(CC(=O)NCCCNC(=O)c3ccc(-c4c5nc(c(-c6c(F)c(F)c(F)c(F)c6F)c6ccc([nH]6)c(-c6c(F)c(F)c(F)c(F)c6F)c6nc(c(-c7c(F)c(F)c(F)c(F)c7F)c7ccc4[nH]7)C=C6)C=C5)cc3)CC2)c(=O)n(C)c1=O
REMARK SMILES IDX 14 1 13 2 12 3 10 4 11 5 9 7 8 8 5 9 6 10 83 11 7 12 82 13
REMARK SMILES IDX 4 14 1 15 2 16 3 17 88 18 86 19 89 20 84 21 87 22 85 23
REMARK SMILES IDX 15 24 16 25 17 26 18 28 19 29 20 30 81 31 21 32 80 33 22 34
REMARK SMILES IDX 23 35 24 36 74 37 25 38 79 39 73 40 75 41 26 42 78 43 72 44
REMARK SMILES IDX 71 45 27 47 59 48 39 49 58 50 40 51 43 52 57 53 76 54 41 55
REMARK SMILES IDX 42 56 56 58 77 59 44 60 28 61 29 62 37 63 30 64 31 65 35 66
REMARK SMILES IDX 38 67 32 68 33 69 36 70 34 71 60 72 61 73 69 74 62 75 63 76
REMARK SMILES IDX 67 77 70 78 64 79 65 80 68 81 66 82 45 83 46 84 54 85 47 86
REMARK SMILES IDX 48 87 52 88 55 89 49 90 50 91 53 92 51 93
REMARK H PARENT 12 6 16 27 75 46 43 57
REMARK Flexibility Score: inf
ROOT
ATOM      1  C   UNL A   1      31.028  32.007  26.234  1.00  0.00     0.042 C 
ENDROOT
BRANCH   1   2
ATOM      2  C   UNL A   1      31.130  30.711  25.424  1.00  0.00     0.117 C 
BRANCH   2   3
ATOM      3  N   UNL A   1      30.273  30.713  24.243  1.00  0.00    -0.356 N 
ATOM      4  C   UNL A   1      29.829  29.703  23.442  1.00  0.00     0.220 C 
ATOM      5  O   UNL A   1      29.109  30.001  22.488  1.00  0.00    -0.275 OA
ATOM      6  H   UNL A   1      29.958  31.607  23.977  1.00  0.00     0.163 HD
BRANCH   4   7
ATOM      7  C   UNL A   1      30.222  28.258  23.695  1.00  0.00     0.103 C 
BRANCH   7   8
ATOM      8  C   UNL A   1      31.644  27.910  23.205  1.00  0.00     0.002 C 
ATOM      9  N   UNL A   1      33.653  25.847  23.270  1.00  0.00    -0.351 N 
ATOM     10  C   UNL A   1      33.897  27.016  24.080  1.00  0.00     0.118 C 
ATOM     11  C   UNL A   1      32.997  26.096  21.999  1.00  0.00     0.118 C 
ATOM     12  C   UNL A   1      32.571  27.676  24.401  1.00  0.00     0.025 C 
ATOM     13  C   UNL A   1      31.606  26.680  22.272  1.00  0.00     0.025 C 
BRANCH   9  14
ATOM     14  C   UNL A   1      33.912  24.569  23.734  1.00  0.00     0.215 A 
ATOM     15  C   UNL A   1      36.614  22.203  23.903  1.00  0.00     0.180 C 
ATOM     16  N   UNL A   1      35.268  22.735  24.048  1.00  0.00    -0.216 N 
ATOM     17  N   UNL A   1      35.073  24.005  23.563  1.00  0.00    -0.145 NA
ATOM     18  C   UNL A   1      34.276  21.925  24.594  1.00  0.00     0.346 A 
ATOM     19  N   UNL A   1      33.032  22.503  24.743  1.00  0.00    -0.259 N 
ATOM     20  O   UNL A   1      34.499  20.760  24.928  1.00  0.00    -0.246 OA
ATOM     21  C   UNL A   1      32.773  23.815  24.420  1.00  0.00     0.299 A 
ATOM     22  C   UNL A   1      31.935  21.726  25.280  1.00  0.00     0.159 C 
ATOM     23  O   UNL A   1      31.704  24.389  24.607  1.00  0.00    -0.265 OA
ENDBRANCH   9  14
ENDBRANCH   7   8
ENDBRANCH   4   7
ENDBRANCH   2   3
ENDBRANCH   1   2
BRANCH   1  24
ATOM     24  C   UNL A   1      32.336  32.441  26.882  1.00  0.00     0.118 C 
BRANCH  24  25
ATOM     25  N   UNL A   1      32.285  33.827  27.307  1.00  0.00    -0.352 N 
ATOM     26  C   UNL A   1      32.967  34.461  28.318  1.00  0.00     0.251 C 
ATOM     27  H   UNL A   1      31.669  34.400  26.796  1.00  0.00     0.163 HD
ATOM     28  O   UNL A   1      32.588  35.563  28.702  1.00  0.00    -0.269 OA
BRANCH  26  29
ATOM     29  C   UNL A   1      34.145  33.828  28.961  1.00  0.00     0.039 A 
ATOM     30  C   UNL A   1      35.409  34.384  28.744  1.00  0.00     0.014 A 
ATOM     31  C   UNL A   1      34.029  32.658  29.718  1.00  0.00     0.014 A 
ATOM     32  C   UNL A   1      36.541  33.795  29.317  1.00  0.00     0.010 A 
ATOM     33  C   UNL A   1      35.145  32.122  30.360  1.00  0.00     0.010 A 
ATOM     34  C   UNL A   1      36.418  32.671  30.150  1.00  0.00    -0.014 A 
BRANCH  34  35
ATOM     35  C   UNL A   1      37.618  32.048  30.770  1.00  0.00     0.031 A 
ATOM     36  C   UNL A   1      38.055  32.447  32.154  1.00  0.00     0.074 A 
ATOM     37  C   UNL A   1      38.324  31.126  30.086  1.00  0.00     0.049 A 
ATOM     38  N   UNL A   1      39.056  31.995  32.869  1.00  0.00    -0.248 NA
ATOM     39  C   UNL A   1      37.280  33.508  32.819  1.00  0.00     0.031 C 
ATOM     40  C   UNL A   1      38.033  30.685  28.720  1.00  0.00     0.029 A 
ATOM     41  N   UNL A   1      39.424  30.386  30.444  1.00  0.00    -0.354 N 
ATOM     42  C   UNL A   1      39.026  32.711  34.059  1.00  0.00     0.074 A 
ATOM     43  C   UNL A   1      37.956  33.677  33.946  1.00  0.00     0.031 C 
ATOM     44  C   UNL A   1      38.898  29.720  28.376  1.00  0.00     0.029 A 
ATOM     45  C   UNL A   1      39.827  29.494  29.480  1.00  0.00     0.049 A 
ATOM     46  H   UNL A   1      39.881  30.486  31.311  1.00  0.00     0.167 HD
ATOM     47  C   UNL A   1      39.795  32.553  35.162  1.00  0.00     0.037 A 
ATOM     48  C   UNL A   1      40.824  28.587  29.490  1.00  0.00     0.037 A 
ATOM     49  C   UNL A   1      40.842  31.574  35.285  1.00  0.00     0.049 A 
ATOM     50  C   UNL A   1      41.683  28.447  30.719  1.00  0.00     0.074 A 
ATOM     51  C   UNL A   1      41.642  31.303  36.381  1.00  0.00     0.029 A 
ATOM     52  N   UNL A   1      41.232  30.704  34.278  1.00  0.00    -0.354 N 
ATOM     53  N   UNL A   1      41.597  29.082  31.862  1.00  0.00    -0.248 NA
ATOM     54  C   UNL A   1      42.775  27.464  30.661  1.00  0.00     0.031 C 
ATOM     55  C   UNL A   1      42.547  30.300  36.023  1.00  0.00     0.029 A 
ATOM     56  C   UNL A   1      42.279  29.913  34.720  1.00  0.00     0.049 A 
ATOM     57  H   UNL A   1      40.825  30.656  33.383  1.00  0.00     0.167 HD
ATOM     58  C   UNL A   1      42.603  28.563  32.665  1.00  0.00     0.074 A 
ATOM     59  C   UNL A   1      43.279  27.548  31.885  1.00  0.00     0.031 C 
ATOM     60  C   UNL A   1      42.936  28.900  33.935  1.00  0.00     0.037 A 
BRANCH  47  61
ATOM     61  C   UNL A   1      39.517  33.438  36.342  1.00  0.00     0.064 A 
ATOM     62  C   UNL A   1      38.711  33.003  37.405  1.00  0.00     0.173 A 
ATOM     63  C   UNL A   1      40.113  34.704  36.445  1.00  0.00     0.173 A 
ATOM     64  F   UNL A   1      38.112  31.804  37.351  1.00  0.00    -0.203 F 
ATOM     65  C   UNL A   1      38.496  33.810  38.518  1.00  0.00     0.198 A 
ATOM     66  C   UNL A   1      39.918  35.497  37.574  1.00  0.00     0.198 A 
ATOM     67  F   UNL A   1      40.899  35.165  35.461  1.00  0.00    -0.203 F 
ATOM     68  F   UNL A   1      37.691  33.387  39.504  1.00  0.00    -0.200 F 
ATOM     69  C   UNL A   1      39.106  35.051  38.607  1.00  0.00     0.200 A 
ATOM     70  F   UNL A   1      40.521  36.690  37.665  1.00  0.00    -0.200 F 
ATOM     71  F   UNL A   1      38.910  35.820  39.686  1.00  0.00    -0.200 F 
ENDBRANCH  47  61
BRANCH  48  72
ATOM     72  C   UNL A   1      41.029  27.703  28.312  1.00  0.00     0.064 A 
ATOM     73  C   UNL A   1      40.424  26.441  28.251  1.00  0.00     0.173 A 
ATOM     74  C   UNL A   1      41.811  28.106  27.220  1.00  0.00     0.173 A 
ATOM     75  F   UNL A   1      39.683  26.002  29.280  1.00  0.00    -0.203 F 
ATOM     76  C   UNL A   1      40.600  25.611  27.146  1.00  0.00     0.198 A 
ATOM     77  C   UNL A   1      41.964  27.286  26.103  1.00  0.00     0.198 A 
ATOM     78  F   UNL A   1      42.409  29.306  27.227  1.00  0.00    -0.203 F 
ATOM     79  F   UNL A   1      40.037  24.394  27.127  1.00  0.00    -0.200 F 
ATOM     80  C   UNL A   1      41.363  26.037  26.070  1.00  0.00     0.200 A 
ATOM     81  F   UNL A   1      42.690  27.707  25.059  1.00  0.00    -0.200 F 
ATOM     82  F   UNL A   1      41.523  25.243  25.002  1.00  0.00    -0.200 F 
ENDBRANCH  48  72
BRANCH  60  83
ATOM     83  C   UNL A   1      44.076  28.167  34.579  1.00  0.00     0.064 A 
ATOM     84  C   UNL A   1      43.878  26.943  35.233  1.00  0.00     0.173 A 
ATOM     85  C   UNL A   1      45.391  28.640  34.447  1.00  0.00     0.173 A 
ATOM     86  F   UNL A   1      42.638  26.457  35.394  1.00  0.00    -0.203 F 
ATOM     87  C   UNL A   1      44.956  26.220  35.737  1.00  0.00     0.198 A 
ATOM     88  C   UNL A   1      46.469  27.901  34.928  1.00  0.00     0.198 A 
ATOM     89  F   UNL A   1      45.633  29.801  33.821  1.00  0.00    -0.203 F 
ATOM     90  F   UNL A   1      44.743  25.064  36.379  1.00  0.00    -0.200 F 
ATOM     91  C   UNL A   1      46.250  26.693  35.573  1.00  0.00     0.200 A 
ATOM     92  F   UNL A   1      47.719  28.350  34.753  1.00  0.00    -0.200 F 
ATOM     93  F   UNL A   1      47.288  25.983  36.035  1.00  0.00    -0.200 F 
ENDBRANCH  60  83
ENDBRANCH  34  35
ENDBRANCH  26  29
ENDBRANCH  24  25
ENDBRANCH   1  24
TORSDOF 12
ENDMDL
