MODEL 1
REMARK VINA RESULT:     -12.1      0.000      0.000
REMARK SMILES O=C(NCCCNC(=O)[C@@H]1CC[C@H](CNC(=O)c2cccn2C2CC2)O1)c1ccc(-c2c3nc(c(-c4c(F)c(F)c(F)c(F)c4F)c4ccc([nH]4)c(-c4c(F)c(F)c(F)c(F)c4F)c4nc(c(-c5c(F)c(F)c(F)c(F)c5F)c5ccc2[nH]5)C=C4)C=C3)cc1
REMARK SMILES IDX 6 1 5 2 4 3 3 4 1 5 2 6 27 8 28 9 89 10 29 11 88 12 30 13
REMARK SMILES IDX 31 14 32 15 82 16 33 17 87 18 81 19 83 20 34 21 86 22 80 23
REMARK SMILES IDX 79 24 35 26 67 27 47 28 66 29 48 30 51 31 65 32 84 33 49 34
REMARK SMILES IDX 50 35 64 37 85 38 52 39 36 40 37 41 45 42 38 43 39 44 43 45
REMARK SMILES IDX 46 46 40 47 41 48 44 49 42 50 68 51 69 52 77 53 70 54 71 55
REMARK SMILES IDX 75 56 78 57 72 58 73 59 76 60 74 61 53 62 54 63 62 64 55 65
REMARK SMILES IDX 56 66 60 67 63 68 57 69 58 70 61 71 59 72 7 73 8 74 9 76
REMARK SMILES IDX 10 77 11 78 26 79 12 80 13 81 14 82 15 83 16 84 17 86 18 87
REMARK SMILES IDX 19 88 22 89 20 90 21 91 23 92 24 93 25 94
REMARK H PARENT 3 7 83 25 51 36 7 75 15 85
REMARK Flexibility Score: inf
ROOT
ATOM      1  C   UNL A   1      38.172  23.031  25.759  1.00  0.00     0.117 C 
ENDROOT
BRANCH   1   2
ATOM      2  C   UNL A   1      38.788  21.635  25.791  1.00  0.00     0.042 C 
BRANCH   2   3
ATOM      3  C   UNL A   1      40.113  21.550  26.547  1.00  0.00     0.118 C 
BRANCH   3   4
ATOM      4  N   UNL A   1      41.295  21.950  25.799  1.00  0.00    -0.352 N 
ATOM      5  O   UNL A   1      43.085  23.083  25.097  1.00  0.00    -0.269 OA
ATOM      6  C   UNL A   1      42.091  23.066  25.822  1.00  0.00     0.251 C 
ATOM      7  H   UNL A   1      41.583  21.280  25.138  1.00  0.00     0.163 HD
BRANCH   6   8
ATOM      8  C   UNL A   1      41.778  24.269  26.630  1.00  0.00     0.039 A 
ATOM      9  C   UNL A   1      40.970  24.239  27.767  1.00  0.00     0.014 A 
ATOM     10  C   UNL A   1      42.372  25.482  26.240  1.00  0.00     0.014 A 
ATOM     11  C   UNL A   1      40.682  25.412  28.453  1.00  0.00     0.010 A 
ATOM     12  C   UNL A   1      42.125  26.656  26.951  1.00  0.00     0.010 A 
ATOM     13  C   UNL A   1      41.273  26.617  28.059  1.00  0.00    -0.014 A 
BRANCH  13  14
ATOM     14  C   UNL A   1      41.094  27.773  28.965  1.00  0.00     0.031 A 
ATOM     15  C   UNL A   1      41.972  27.679  30.216  1.00  0.00     0.074 A 
ATOM     16  C   UNL A   1      40.127  28.673  28.635  1.00  0.00     0.049 A 
ATOM     17  N   UNL A   1      41.782  28.158  31.408  1.00  0.00    -0.248 NA
ATOM     18  C   UNL A   1      43.215  26.865  30.144  1.00  0.00     0.031 C 
ATOM     19  C   UNL A   1      39.368  28.638  27.375  1.00  0.00     0.029 A 
ATOM     20  N   UNL A   1      39.571  29.766  29.272  1.00  0.00    -0.354 N 
ATOM     21  C   UNL A   1      42.930  27.854  32.165  1.00  0.00     0.074 A 
ATOM     22  C   UNL A   1      43.725  26.966  31.371  1.00  0.00     0.031 C 
ATOM     23  C   UNL A   1      38.418  29.593  27.366  1.00  0.00     0.029 A 
ATOM     24  C   UNL A   1      38.463  30.347  28.604  1.00  0.00     0.049 A 
ATOM     25  H   UNL A   1      39.917  30.115  30.125  1.00  0.00     0.167 HD
ATOM     26  C   UNL A   1      43.225  28.437  33.362  1.00  0.00     0.037 A 
ATOM     27  C   UNL A   1      37.611  31.331  29.030  1.00  0.00     0.037 A 
ATOM     28  C   UNL A   1      42.195  29.329  33.771  1.00  0.00     0.049 A 
ATOM     29  C   UNL A   1      38.143  31.790  30.326  1.00  0.00     0.074 A 
ATOM     30  C   UNL A   1      40.977  29.149  34.369  1.00  0.00     0.029 A 
ATOM     31  N   UNL A   1      42.284  30.628  33.342  1.00  0.00    -0.354 N 
ATOM     32  N   UNL A   1      39.204  32.527  30.474  1.00  0.00    -0.248 NA
ATOM     33  C   UNL A   1      37.486  31.346  31.562  1.00  0.00     0.031 C 
ATOM     34  C   UNL A   1      40.214  30.274  33.984  1.00  0.00     0.029 A 
ATOM     35  C   UNL A   1      41.004  31.111  33.191  1.00  0.00     0.049 A 
ATOM     36  H   UNL A   1      43.116  31.127  33.173  1.00  0.00     0.167 HD
ATOM     37  C   UNL A   1      39.503  32.365  31.807  1.00  0.00     0.074 A 
ATOM     38  C   UNL A   1      38.293  31.916  32.452  1.00  0.00     0.031 C 
ATOM     39  C   UNL A   1      40.785  32.125  32.184  1.00  0.00     0.037 A 
BRANCH  26  40
ATOM     40  C   UNL A   1      44.493  28.424  34.169  1.00  0.00     0.064 A 
ATOM     41  C   UNL A   1      45.643  29.059  33.641  1.00  0.00     0.173 A 
ATOM     42  C   UNL A   1      44.704  27.570  35.261  1.00  0.00     0.173 A 
ATOM     43  F   UNL A   1      45.542  29.920  32.616  1.00  0.00    -0.203 F 
ATOM     44  C   UNL A   1      46.925  28.780  34.111  1.00  0.00     0.198 A 
ATOM     45  C   UNL A   1      45.988  27.327  35.759  1.00  0.00     0.198 A 
ATOM     46  F   UNL A   1      43.691  26.883  35.806  1.00  0.00    -0.203 F 
ATOM     47  F   UNL A   1      47.992  29.320  33.504  1.00  0.00    -0.200 F 
ATOM     48  C   UNL A   1      47.098  27.903  35.164  1.00  0.00     0.200 A 
ATOM     49  F   UNL A   1      46.152  26.476  36.781  1.00  0.00    -0.200 F 
ATOM     50  F   UNL A   1      48.332  27.588  35.583  1.00  0.00    -0.200 F 
ENDBRANCH  26  40
BRANCH  27  51
ATOM     51  C   UNL A   1      36.305  31.955  28.568  1.00  0.00     0.064 A 
ATOM     52  C   UNL A   1      35.151  31.264  28.173  1.00  0.00     0.173 A 
ATOM     53  C   UNL A   1      36.149  33.371  28.564  1.00  0.00     0.173 A 
ATOM     54  F   UNL A   1      35.157  29.943  27.985  1.00  0.00    -0.203 F 
ATOM     55  C   UNL A   1      33.929  31.915  27.921  1.00  0.00     0.198 A 
ATOM     56  C   UNL A   1      34.931  34.018  28.346  1.00  0.00     0.198 A 
ATOM     57  F   UNL A   1      37.184  34.195  28.776  1.00  0.00    -0.203 F 
ATOM     58  F   UNL A   1      32.856  31.192  27.568  1.00  0.00    -0.200 F 
ATOM     59  C   UNL A   1      33.810  33.286  28.041  1.00  0.00     0.200 A 
ATOM     60  F   UNL A   1      34.858  35.353  28.452  1.00  0.00    -0.200 F 
ATOM     61  F   UNL A   1      32.633  33.895  27.851  1.00  0.00    -0.200 F 
ENDBRANCH  27  51
BRANCH  39  62
ATOM     62  C   UNL A   1      41.797  32.606  31.166  1.00  0.00     0.064 A 
ATOM     63  C   UNL A   1      42.072  33.976  31.041  1.00  0.00     0.173 A 
ATOM     64  C   UNL A   1      42.385  31.765  30.209  1.00  0.00     0.173 A 
ATOM     65  F   UNL A   1      41.547  34.847  31.916  1.00  0.00    -0.203 F 
ATOM     66  C   UNL A   1      42.881  34.467  30.011  1.00  0.00     0.198 A 
ATOM     67  C   UNL A   1      43.202  32.248  29.188  1.00  0.00     0.198 A 
ATOM     68  F   UNL A   1      42.175  30.451  30.244  1.00  0.00    -0.203 F 
ATOM     69  F   UNL A   1      43.115  35.782  29.916  1.00  0.00    -0.200 F 
ATOM     70  C   UNL A   1      43.444  33.602  29.085  1.00  0.00     0.200 A 
ATOM     71  F   UNL A   1      43.751  31.395  28.309  1.00  0.00    -0.200 F 
ATOM     72  F   UNL A   1      44.225  34.073  28.102  1.00  0.00    -0.200 F 
ENDBRANCH  39  62
ENDBRANCH  13  14
ENDBRANCH   6   8
ENDBRANCH   3   4
ENDBRANCH   2   3
ENDBRANCH   1   2
BRANCH   1  73
ATOM     73  N   UNL A   1      37.529  23.314  24.489  1.00  0.00    -0.354 N 
ATOM     74  C   UNL A   1      36.293  22.993  24.019  1.00  0.00     0.249 C 
ATOM     75  H   UNL A   1      38.084  23.828  23.857  1.00  0.00     0.163 HD
ATOM     76  O   UNL A   1      36.033  23.340  22.863  1.00  0.00    -0.272 OA
BRANCH  74  77
ATOM     77  C   UNL A   1      35.294  22.171  24.864  1.00  0.00     0.207 C 
ATOM     78  C   UNL A   1      33.984  21.980  24.098  1.00  0.00     0.045 C 
ATOM     79  O   UNL A   1      34.943  22.727  26.136  1.00  0.00    -0.363 OA
ATOM     80  C   UNL A   1      32.936  21.973  25.182  1.00  0.00     0.037 C 
ATOM     81  C   UNL A   1      33.521  22.913  26.219  1.00  0.00     0.138 C 
BRANCH  81  82
ATOM     82  C   UNL A   1      33.222  24.402  25.985  1.00  0.00     0.148 C 
BRANCH  82  83
ATOM     83  N   UNL A   1      31.862  24.776  26.331  1.00  0.00    -0.348 N 
ATOM     84  C   UNL A   1      31.198  25.966  26.160  1.00  0.00     0.268 C 
ATOM     85  H   UNL A   1      31.332  24.062  26.755  1.00  0.00     0.163 HD
ATOM     86  O   UNL A   1      30.031  26.006  26.541  1.00  0.00    -0.268 OA
BRANCH  84  87
ATOM     87  C   UNL A   1      31.862  27.056  25.490  1.00  0.00     0.107 A 
ATOM     88  C   UNL A   1      32.588  28.076  26.105  1.00  0.00     0.033 A 
ATOM     89  N   UNL A   1      32.017  27.252  24.130  1.00  0.00    -0.340 N 
ATOM     90  C   UNL A   1      33.143  28.911  25.113  1.00  0.00     0.020 A 
ATOM     91  C   UNL A   1      32.785  28.370  23.903  1.00  0.00     0.086 A 
BRANCH  89  92
ATOM     92  C   UNL A   1      31.435  26.551  22.996  1.00  0.00     0.087 C 
ATOM     93  C   UNL A   1      32.106  26.243  21.677  1.00  0.00     0.027 C 
ATOM     94  C   UNL A   1      31.850  25.135  22.640  1.00  0.00     0.027 C 
ENDBRANCH  89  92
ENDBRANCH  84  87
ENDBRANCH  82  83
ENDBRANCH  81  82
ENDBRANCH  74  77
ENDBRANCH   1  73
TORSDOF 14
ENDMDL
MODEL 2
REMARK VINA RESULT:     -12.1      0.823      1.597
REMARK SMILES O=C(NCCCNC(=O)[C@@H]1CC[C@H](CNC(=O)c2cccn2C2CC2)O1)c1ccc(-c2c3nc(c(-c4c(F)c(F)c(F)c(F)c4F)c4ccc([nH]4)c(-c4c(F)c(F)c(F)c(F)c4F)c4nc(c(-c5c(F)c(F)c(F)c(F)c5F)c5ccc2[nH]5)C=C4)C=C3)cc1
REMARK SMILES IDX 6 1 5 2 4 3 3 4 1 5 2 6 27 8 28 9 89 10 29 11 88 12 30 13
REMARK SMILES IDX 31 14 32 15 82 16 33 17 87 18 81 19 83 20 34 21 86 22 80 23
REMARK SMILES IDX 79 24 35 26 67 27 47 28 66 29 48 30 51 31 65 32 84 33 49 34
REMARK SMILES IDX 50 35 64 37 85 38 52 39 36 40 37 41 45 42 38 43 39 44 43 45
REMARK SMILES IDX 46 46 40 47 41 48 44 49 42 50 68 51 69 52 77 53 70 54 71 55
REMARK SMILES IDX 75 56 78 57 72 58 73 59 76 60 74 61 53 62 54 63 62 64 55 65
REMARK SMILES IDX 56 66 60 67 63 68 57 69 58 70 61 71 59 72 7 73 8 74 9 76
REMARK SMILES IDX 10 77 11 78 26 79 12 80 13 81 14 82 15 83 16 84 17 86 18 87
REMARK SMILES IDX 19 88 22 89 20 90 21 91 23 92 24 93 25 94
REMARK H PARENT 3 7 83 25 51 36 7 75 15 85
REMARK Flexibility Score: inf
ROOT
ATOM      1  C   UNL A   1      37.914  22.773  25.751  1.00  0.00     0.117 C 
ENDROOT
BRANCH   1   2
ATOM      2  C   UNL A   1      38.818  21.544  25.707  1.00  0.00     0.042 C 
BRANCH   2   3
ATOM      3  C   UNL A   1      40.101  21.677  26.527  1.00  0.00     0.118 C 
BRANCH   3   4
ATOM      4  N   UNL A   1      41.283  22.092  25.788  1.00  0.00    -0.352 N 
ATOM      5  O   UNL A   1      43.066  23.245  25.101  1.00  0.00    -0.269 OA
ATOM      6  C   UNL A   1      42.067  23.215  25.819  1.00  0.00     0.251 C 
ATOM      7  H   UNL A   1      41.583  21.426  25.127  1.00  0.00     0.163 HD
BRANCH   6   8
ATOM      8  C   UNL A   1      41.736  24.413  26.628  1.00  0.00     0.039 A 
ATOM      9  C   UNL A   1      40.846  24.390  27.702  1.00  0.00     0.014 A 
ATOM     10  C   UNL A   1      42.397  25.612  26.309  1.00  0.00     0.014 A 
ATOM     11  C   UNL A   1      40.547  25.558  28.390  1.00  0.00     0.010 A 
ATOM     12  C   UNL A   1      42.138  26.780  27.026  1.00  0.00     0.010 A 
ATOM     13  C   UNL A   1      41.206  26.749  28.067  1.00  0.00    -0.014 A 
BRANCH  13  14
ATOM     14  C   UNL A   1      40.999  27.893  28.982  1.00  0.00     0.031 A 
ATOM     15  C   UNL A   1      41.856  27.795  30.247  1.00  0.00     0.074 A 
ATOM     16  C   UNL A   1      40.028  28.787  28.646  1.00  0.00     0.049 A 
ATOM     17  N   UNL A   1      41.641  28.259  31.441  1.00  0.00    -0.248 NA
ATOM     18  C   UNL A   1      43.109  26.995  30.187  1.00  0.00     0.031 C 
ATOM     19  C   UNL A   1      39.290  28.757  27.373  1.00  0.00     0.029 A 
ATOM     20  N   UNL A   1      39.450  29.867  29.286  1.00  0.00    -0.354 N 
ATOM     21  C   UNL A   1      42.779  27.958  32.214  1.00  0.00     0.074 A 
ATOM     22  C   UNL A   1      43.597  27.087  31.424  1.00  0.00     0.031 C 
ATOM     23  C   UNL A   1      38.331  29.702  27.359  1.00  0.00     0.029 A 
ATOM     24  C   UNL A   1      38.347  30.444  28.606  1.00  0.00     0.049 A 
ATOM     25  H   UNL A   1      39.778  30.210  30.148  1.00  0.00     0.167 HD
ATOM     26  C   UNL A   1      43.049  28.531  33.422  1.00  0.00     0.037 A 
ATOM     27  C   UNL A   1      37.477  31.413  29.028  1.00  0.00     0.037 A 
ATOM     28  C   UNL A   1      42.002  29.407  33.823  1.00  0.00     0.049 A 
ATOM     29  C   UNL A   1      37.983  31.863  30.337  1.00  0.00     0.074 A 
ATOM     30  C   UNL A   1      40.776  29.209  34.398  1.00  0.00     0.029 A 
ATOM     31  N   UNL A   1      42.085  30.712  33.410  1.00  0.00    -0.354 N 
ATOM     32  N   UNL A   1      39.033  32.610  30.511  1.00  0.00    -0.248 NA
ATOM     33  C   UNL A   1      37.309  31.399  31.557  1.00  0.00     0.031 C 
ATOM     34  C   UNL A   1      40.008  30.329  34.013  1.00  0.00     0.029 A 
ATOM     35  C   UNL A   1      40.802  31.183  33.243  1.00  0.00     0.049 A 
ATOM     36  H   UNL A   1      42.914  31.222  33.260  1.00  0.00     0.167 HD
ATOM     37  C   UNL A   1      39.311  32.437  31.848  1.00  0.00     0.074 A 
ATOM     38  C   UNL A   1      38.095  31.968  32.466  1.00  0.00     0.031 C 
ATOM     39  C   UNL A   1      40.589  32.206  32.243  1.00  0.00     0.037 A 
BRANCH  26  40
ATOM     40  C   UNL A   1      44.303  28.523  34.250  1.00  0.00     0.064 A 
ATOM     41  C   UNL A   1      44.234  28.061  35.587  1.00  0.00     0.173 A 
ATOM     42  C   UNL A   1      45.465  29.221  33.896  1.00  0.00     0.173 A 
ATOM     43  F   UNL A   1      43.176  27.355  36.016  1.00  0.00    -0.203 F 
ATOM     44  C   UNL A   1      45.216  28.366  36.527  1.00  0.00     0.198 A 
ATOM     45  C   UNL A   1      46.470  29.487  34.832  1.00  0.00     0.198 A 
ATOM     46  F   UNL A   1      45.612  29.742  32.670  1.00  0.00    -0.203 F 
ATOM     47  F   UNL A   1      45.050  28.005  37.808  1.00  0.00    -0.200 F 
ATOM     48  C   UNL A   1      46.330  29.092  36.152  1.00  0.00     0.200 A 
ATOM     49  F   UNL A   1      47.550  30.189  34.462  1.00  0.00    -0.200 F 
ATOM     50  F   UNL A   1      47.250  29.436  37.064  1.00  0.00    -0.200 F 
ENDBRANCH  26  40
BRANCH  27  51
ATOM     51  C   UNL A   1      36.172  32.029  28.550  1.00  0.00     0.064 A 
ATOM     52  C   UNL A   1      35.029  31.330  28.140  1.00  0.00     0.173 A 
ATOM     53  C   UNL A   1      36.006  33.444  28.547  1.00  0.00     0.173 A 
ATOM     54  F   UNL A   1      35.047  30.010  27.949  1.00  0.00    -0.203 F 
ATOM     55  C   UNL A   1      33.806  31.973  27.874  1.00  0.00     0.198 A 
ATOM     56  C   UNL A   1      34.786  34.082  28.315  1.00  0.00     0.198 A 
ATOM     57  F   UNL A   1      37.033  34.275  28.773  1.00  0.00    -0.203 F 
ATOM     58  F   UNL A   1      32.742  31.243  27.506  1.00  0.00    -0.200 F 
ATOM     59  C   UNL A   1      33.675  33.342  27.994  1.00  0.00     0.200 A 
ATOM     60  F   UNL A   1      34.702  35.416  28.422  1.00  0.00    -0.200 F 
ATOM     61  F   UNL A   1      32.496  33.943  27.791  1.00  0.00    -0.200 F 
ENDBRANCH  27  51
BRANCH  39  62
ATOM     62  C   UNL A   1      41.612  32.709  31.248  1.00  0.00     0.064 A 
ATOM     63  C   UNL A   1      41.888  34.081  31.155  1.00  0.00     0.173 A 
ATOM     64  C   UNL A   1      42.213  31.888  30.280  1.00  0.00     0.173 A 
ATOM     65  F   UNL A   1      41.352  34.934  32.041  1.00  0.00    -0.203 F 
ATOM     66  C   UNL A   1      42.709  34.594  30.145  1.00  0.00     0.198 A 
ATOM     67  C   UNL A   1      43.042  32.393  29.279  1.00  0.00     0.198 A 
ATOM     68  F   UNL A   1      42.003  30.574  30.285  1.00  0.00    -0.203 F 
ATOM     69  F   UNL A   1      42.943  35.911  30.081  1.00  0.00    -0.200 F 
ATOM     70  C   UNL A   1      43.283  33.750  29.208  1.00  0.00     0.200 A 
ATOM     71  F   UNL A   1      43.602  31.559  28.389  1.00  0.00    -0.200 F 
ATOM     72  F   UNL A   1      44.076  34.241  28.244  1.00  0.00    -0.200 F 
ENDBRANCH  39  62
ENDBRANCH  13  14
ENDBRANCH   6   8
ENDBRANCH   3   4
ENDBRANCH   2   3
ENDBRANCH   1   2
BRANCH   1  73
ATOM     73  N   UNL A   1      37.385  23.108  24.443  1.00  0.00    -0.354 N 
ATOM     74  C   UNL A   1      36.132  22.987  23.925  1.00  0.00     0.249 C 
ATOM     75  H   UNL A   1      38.047  23.491  23.821  1.00  0.00     0.163 HD
ATOM     76  O   UNL A   1      35.986  23.323  22.746  1.00  0.00    -0.272 OA
BRANCH  74  77
ATOM     77  C   UNL A   1      34.971  22.387  24.748  1.00  0.00     0.207 C 
ATOM     78  C   UNL A   1      33.719  22.253  23.879  1.00  0.00     0.045 C 
ATOM     79  O   UNL A   1      34.579  23.127  25.911  1.00  0.00    -0.363 OA
ATOM     80  C   UNL A   1      32.587  22.493  24.845  1.00  0.00     0.037 C 
ATOM     81  C   UNL A   1      33.189  23.479  25.828  1.00  0.00     0.138 C 
BRANCH  81  82
ATOM     82  C   UNL A   1      33.096  24.953  25.406  1.00  0.00     0.148 C 
BRANCH  82  83
ATOM     83  N   UNL A   1      32.567  25.815  26.448  1.00  0.00    -0.348 N 
ATOM     84  C   UNL A   1      31.590  26.780  26.390  1.00  0.00     0.268 C 
ATOM     85  H   UNL A   1      32.972  25.689  27.336  1.00  0.00     0.163 HD
ATOM     86  O   UNL A   1      31.327  27.362  27.439  1.00  0.00    -0.268 OA
BRANCH  84  87
ATOM     87  C   UNL A   1      30.886  27.000  25.151  1.00  0.00     0.107 A 
ATOM     88  C   UNL A   1      29.737  26.331  24.730  1.00  0.00     0.033 A 
ATOM     89  N   UNL A   1      31.125  27.973  24.198  1.00  0.00    -0.340 N 
ATOM     90  C   UNL A   1      29.310  26.875  23.501  1.00  0.00     0.020 A 
ATOM     91  C   UNL A   1      30.178  27.896  23.203  1.00  0.00     0.086 A 
BRANCH  89  92
ATOM     92  C   UNL A   1      32.216  28.925  24.062  1.00  0.00     0.087 C 
ATOM     93  C   UNL A   1      33.652  28.730  24.493  1.00  0.00     0.027 C 
ATOM     94  C   UNL A   1      33.321  28.726  23.040  1.00  0.00     0.027 C 
ENDBRANCH  89  92
ENDBRANCH  84  87
ENDBRANCH  82  83
ENDBRANCH  81  82
ENDBRANCH  74  77
ENDBRANCH   1  73
TORSDOF 14
ENDMDL
MODEL 3
REMARK VINA RESULT:     -12.1      3.327      7.994
REMARK SMILES O=C(NCCCNC(=O)[C@@H]1CC[C@H](CNC(=O)c2cccn2C2CC2)O1)c1ccc(-c2c3nc(c(-c4c(F)c(F)c(F)c(F)c4F)c4ccc([nH]4)c(-c4c(F)c(F)c(F)c(F)c4F)c4nc(c(-c5c(F)c(F)c(F)c(F)c5F)c5ccc2[nH]5)C=C4)C=C3)cc1
REMARK SMILES IDX 6 1 5 2 4 3 3 4 1 5 2 6 27 8 28 9 89 10 29 11 88 12 30 13
REMARK SMILES IDX 31 14 32 15 82 16 33 17 87 18 81 19 83 20 34 21 86 22 80 23
REMARK SMILES IDX 79 24 35 26 67 27 47 28 66 29 48 30 51 31 65 32 84 33 49 34
REMARK SMILES IDX 50 35 64 37 85 38 52 39 36 40 37 41 45 42 38 43 39 44 43 45
REMARK SMILES IDX 46 46 40 47 41 48 44 49 42 50 68 51 69 52 77 53 70 54 71 55
REMARK SMILES IDX 75 56 78 57 72 58 73 59 76 60 74 61 53 62 54 63 62 64 55 65
REMARK SMILES IDX 56 66 60 67 63 68 57 69 58 70 61 71 59 72 7 73 8 74 9 76
REMARK SMILES IDX 10 77 11 78 26 79 12 80 13 81 14 82 15 83 16 84 17 86 18 87
REMARK SMILES IDX 19 88 22 89 20 90 21 91 23 92 24 93 25 94
REMARK H PARENT 3 7 83 25 51 36 7 75 15 85
REMARK Flexibility Score: inf
ROOT
ATOM      1  C   UNL A   1      32.967  28.352  24.507  1.00  0.00     0.117 C 
ENDROOT
BRANCH   1   2
ATOM      2  C   UNL A   1      33.916  28.476  25.696  1.00  0.00     0.042 C 
BRANCH   2   3
ATOM      3  C   UNL A   1      33.217  28.679  27.040  1.00  0.00     0.118 C 
BRANCH   3   4
ATOM      4  N   UNL A   1      33.250  30.034  27.570  1.00  0.00    -0.352 N 
ATOM      5  O   UNL A   1      33.973  31.983  28.383  1.00  0.00    -0.269 OA
ATOM      6  C   UNL A   1      34.252  30.827  28.067  1.00  0.00     0.251 C 
ATOM      7  H   UNL A   1      32.369  30.473  27.571  1.00  0.00     0.163 HD
BRANCH   6   8
ATOM      8  C   UNL A   1      35.633  30.339  28.297  1.00  0.00     0.039 A 
ATOM      9  C   UNL A   1      36.638  30.403  27.332  1.00  0.00     0.014 A 
ATOM     10  C   UNL A   1      35.937  29.834  29.574  1.00  0.00     0.014 A 
ATOM     11  C   UNL A   1      37.900  29.888  27.599  1.00  0.00     0.010 A 
ATOM     12  C   UNL A   1      37.214  29.358  29.866  1.00  0.00     0.010 A 
ATOM     13  C   UNL A   1      38.196  29.384  28.870  1.00  0.00    -0.014 A 
BRANCH  13  14
ATOM     14  C   UNL A   1      39.613  29.060  29.144  1.00  0.00     0.031 A 
ATOM     15  C   UNL A   1      40.391  30.255  29.700  1.00  0.00     0.074 A 
ATOM     16  C   UNL A   1      40.048  27.824  28.772  1.00  0.00     0.049 A 
ATOM     17  N   UNL A   1      41.653  30.548  29.606  1.00  0.00    -0.248 NA
ATOM     18  C   UNL A   1      39.632  31.322  30.407  1.00  0.00     0.031 C 
ATOM     19  C   UNL A   1      39.166  26.763  28.258  1.00  0.00     0.029 A 
ATOM     20  N   UNL A   1      41.287  27.214  28.722  1.00  0.00    -0.354 N 
ATOM     21  C   UNL A   1      41.865  31.717  30.363  1.00  0.00     0.074 A 
ATOM     22  C   UNL A   1      40.572  32.206  30.738  1.00  0.00     0.031 C 
ATOM     23  C   UNL A   1      39.886  25.688  27.885  1.00  0.00     0.029 A 
ATOM     24  C   UNL A   1      41.297  25.930  28.120  1.00  0.00     0.049 A 
ATOM     25  H   UNL A   1      42.101  27.637  29.078  1.00  0.00     0.167 HD
ATOM     26  C   UNL A   1      43.097  32.163  30.740  1.00  0.00     0.037 A 
ATOM     27  C   UNL A   1      42.361  25.134  27.788  1.00  0.00     0.037 A 
ATOM     28  C   UNL A   1      44.129  31.338  30.212  1.00  0.00     0.049 A 
ATOM     29  C   UNL A   1      43.556  25.829  28.301  1.00  0.00     0.074 A 
ATOM     30  C   UNL A   1      44.737  31.258  28.989  1.00  0.00     0.029 A 
ATOM     31  N   UNL A   1      44.512  30.256  30.962  1.00  0.00    -0.354 N 
ATOM     32  N   UNL A   1      43.892  25.902  29.554  1.00  0.00    -0.248 NA
ATOM     33  C   UNL A   1      44.416  26.555  27.356  1.00  0.00     0.031 C 
ATOM     34  C   UNL A   1      45.217  29.932  28.907  1.00  0.00     0.029 A 
ATOM     35  C   UNL A   1      44.911  29.264  30.096  1.00  0.00     0.049 A 
ATOM     36  H   UNL A   1      44.502  30.198  31.945  1.00  0.00     0.167 HD
ATOM     37  C   UNL A   1      44.808  26.929  29.564  1.00  0.00     0.074 A 
ATOM     38  C   UNL A   1      45.298  27.061  28.213  1.00  0.00     0.031 C 
ATOM     39  C   UNL A   1      44.727  27.892  30.517  1.00  0.00     0.037 A 
BRANCH  26  40
ATOM     40  C   UNL A   1      43.492  33.220  31.733  1.00  0.00     0.064 A 
ATOM     41  C   UNL A   1      43.352  32.944  33.114  1.00  0.00     0.173 A 
ATOM     42  C   UNL A   1      43.698  34.563  31.388  1.00  0.00     0.173 A 
ATOM     43  F   UNL A   1      43.183  31.685  33.549  1.00  0.00    -0.203 F 
ATOM     44  C   UNL A   1      43.322  33.955  34.073  1.00  0.00     0.198 A 
ATOM     45  C   UNL A   1      43.712  35.571  32.358  1.00  0.00     0.198 A 
ATOM     46  F   UNL A   1      43.796  34.940  30.106  1.00  0.00    -0.203 F 
ATOM     47  F   UNL A   1      43.072  33.653  35.355  1.00  0.00    -0.200 F 
ATOM     48  C   UNL A   1      43.489  35.272  33.692  1.00  0.00     0.200 A 
ATOM     49  F   UNL A   1      43.876  36.847  31.984  1.00  0.00    -0.200 F 
ATOM     50  F   UNL A   1      43.404  36.253  34.601  1.00  0.00    -0.200 F 
ENDBRANCH  26  40
BRANCH  27  51
ATOM     51  C   UNL A   1      42.598  23.853  27.008  1.00  0.00     0.064 A 
ATOM     52  C   UNL A   1      43.148  23.756  25.722  1.00  0.00     0.173 A 
ATOM     53  C   UNL A   1      42.306  22.589  27.598  1.00  0.00     0.173 A 
ATOM     54  F   UNL A   1      43.353  24.836  24.966  1.00  0.00    -0.203 F 
ATOM     55  C   UNL A   1      43.490  22.522  25.138  1.00  0.00     0.198 A 
ATOM     56  C   UNL A   1      42.674  21.365  27.035  1.00  0.00     0.198 A 
ATOM     57  F   UNL A   1      41.648  22.489  28.761  1.00  0.00    -0.203 F 
ATOM     58  F   UNL A   1      44.036  22.500  23.912  1.00  0.00    -0.200 F 
ATOM     59  C   UNL A   1      43.286  21.331  25.806  1.00  0.00     0.200 A 
ATOM     60  F   UNL A   1      42.441  20.228  27.706  1.00  0.00    -0.200 F 
ATOM     61  F   UNL A   1      43.661  20.165  25.267  1.00  0.00    -0.200 F 
ENDBRANCH  27  51
BRANCH  39  62
ATOM     62  C   UNL A   1      43.995  27.430  31.759  1.00  0.00     0.064 A 
ATOM     63  C   UNL A   1      42.697  27.888  32.023  1.00  0.00     0.173 A 
ATOM     64  C   UNL A   1      44.602  26.669  32.771  1.00  0.00     0.173 A 
ATOM     65  F   UNL A   1      42.047  28.623  31.107  1.00  0.00    -0.203 F 
ATOM     66  C   UNL A   1      42.054  27.606  33.233  1.00  0.00     0.198 A 
ATOM     67  C   UNL A   1      43.962  26.374  33.974  1.00  0.00     0.198 A 
ATOM     68  F   UNL A   1      45.837  26.197  32.612  1.00  0.00    -0.203 F 
ATOM     69  F   UNL A   1      40.817  28.068  33.455  1.00  0.00    -0.200 F 
ATOM     70  C   UNL A   1      42.688  26.851  34.207  1.00  0.00     0.200 A 
ATOM     71  F   UNL A   1      44.585  25.629  34.899  1.00  0.00    -0.200 F 
ATOM     72  F   UNL A   1      42.069  26.574  35.364  1.00  0.00    -0.200 F 
ENDBRANCH  39  62
ENDBRANCH  13  14
ENDBRANCH   6   8
ENDBRANCH   3   4
ENDBRANCH   2   3
ENDBRANCH   1   2
BRANCH   1  73
ATOM     73  N   UNL A   1      33.560  27.609  23.411  1.00  0.00    -0.354 N 
ATOM     74  C   UNL A   1      32.998  26.811  22.462  1.00  0.00     0.249 C 
ATOM     75  H   UNL A   1      34.539  27.696  23.342  1.00  0.00     0.163 HD
ATOM     76  O   UNL A   1      33.771  26.267  21.668  1.00  0.00    -0.272 OA
BRANCH  74  77
ATOM     77  C   UNL A   1      31.477  26.541  22.429  1.00  0.00     0.207 C 
ATOM     78  C   UNL A   1      30.704  27.825  22.733  1.00  0.00     0.045 C 
ATOM     79  O   UNL A   1      30.996  25.552  23.346  1.00  0.00    -0.363 OA
ATOM     80  C   UNL A   1      29.481  27.340  23.467  1.00  0.00     0.037 C 
ATOM     81  C   UNL A   1      29.997  26.121  24.208  1.00  0.00     0.138 C 
BRANCH  81  82
ATOM     82  C   UNL A   1      30.653  26.417  25.566  1.00  0.00     0.148 C 
BRANCH  82  83
ATOM     83  N   UNL A   1      30.587  25.301  26.491  1.00  0.00    -0.348 N 
ATOM     84  C   UNL A   1      31.429  24.227  26.648  1.00  0.00     0.268 C 
ATOM     85  H   UNL A   1      29.816  25.316  27.103  1.00  0.00     0.163 HD
ATOM     86  O   UNL A   1      31.137  23.421  27.528  1.00  0.00    -0.268 OA
BRANCH  84  87
ATOM     87  C   UNL A   1      32.623  24.142  25.845  1.00  0.00     0.107 A 
ATOM     88  C   UNL A   1      33.751  24.953  25.965  1.00  0.00     0.033 A 
ATOM     89  N   UNL A   1      32.943  23.192  24.892  1.00  0.00    -0.340 N 
ATOM     90  C   UNL A   1      34.734  24.515  25.052  1.00  0.00     0.020 A 
ATOM     91  C   UNL A   1      34.212  23.418  24.413  1.00  0.00     0.086 A 
BRANCH  89  92
ATOM     92  C   UNL A   1      32.142  22.132  24.299  1.00  0.00     0.087 C 
ATOM     93  C   UNL A   1      32.646  20.943  23.514  1.00  0.00     0.027 C 
ATOM     94  C   UNL A   1      32.114  20.733  24.889  1.00  0.00     0.027 C 
ENDBRANCH  89  92
ENDBRANCH  84  87
ENDBRANCH  82  83
ENDBRANCH  81  82
ENDBRANCH  74  77
ENDBRANCH   1  73
TORSDOF 14
ENDMDL
