MODEL 1
REMARK VINA RESULT:     -14.9      0.000      0.000
REMARK SMILES Cc1cccc(N2C(=O)/C(=C/c3ccc(C(=O)NCCCNC(=O)c4ccc(-c5c6nc(c(-c7c(F)c(F)c(F)c(F)c7F)c7ccc([nH]7)c(-c7c(F)c(F)c(F)c(F)c7F)c7nc(c(-c8c(F)c(F)c(F)c(F)c8F)c8ccc5[nH]8)C=C7)C=C6)cc4)cc3)c3ccccc3C2=O)c1
REMARK SMILES IDX 20 1 19 2 18 3 16 4 17 5 15 7 12 8 13 9 89 10 14 11 88 12
REMARK SMILES IDX 11 13 7 14 8 15 96 16 9 17 10 18 95 19 97 20 90 21 94 22
REMARK SMILES IDX 91 23 93 24 92 25 6 26 1 27 2 28 3 29 98 30 4 31 5 32 21 33
REMARK SMILES IDX 22 34 23 35 24 37 25 38 26 39 87 40 27 41 86 42 28 43 29 44
REMARK SMILES IDX 30 45 80 46 31 47 85 48 79 49 81 50 32 51 84 52 78 53 77 54
REMARK SMILES IDX 33 56 65 57 45 58 64 59 46 60 49 61 63 62 82 63 47 64 48 65
REMARK SMILES IDX 62 67 83 68 50 69 34 70 35 71 43 72 36 73 37 74 41 75 44 76
REMARK SMILES IDX 38 77 39 78 42 79 40 80 66 81 67 82 75 83 68 84 69 85 73 86
REMARK SMILES IDX 76 87 70 88 71 89 74 90 72 91 51 92 52 93 60 94 53 95 54 96
REMARK SMILES IDX 58 97 61 98 55 99 56 100 59 101 57 102
REMARK H PARENT 18 6 22 36 81 55 49 66
REMARK Flexibility Score: inf
ROOT
ATOM      1  C   UNL A   1      32.920  34.295  28.296  1.00  0.00     0.042 C 
ENDROOT
BRANCH   1   2
ATOM      2  C   UNL A   1      32.921  32.883  27.735  1.00  0.00     0.118 C 
BRANCH   2   3
ATOM      3  N   UNL A   1      31.854  32.645  26.764  1.00  0.00    -0.352 N 
ATOM      4  C   UNL A   1      31.432  31.482  26.153  1.00  0.00     0.251 C 
ATOM      5  O   UNL A   1      30.556  31.538  25.291  1.00  0.00    -0.269 OA
ATOM      6  H   UNL A   1      31.350  33.450  26.504  1.00  0.00     0.163 HD
BRANCH   4   7
ATOM      7  C   UNL A   1      32.081  30.186  26.455  1.00  0.00     0.039 A 
ATOM      8  C   UNL A   1      32.883  27.524  26.658  1.00  0.00    -0.025 A 
ATOM      9  C   UNL A   1      31.912  28.028  27.530  1.00  0.00     0.009 A 
ATOM     10  C   UNL A   1      33.591  28.410  25.837  1.00  0.00     0.009 A 
ATOM     11  C   UNL A   1      31.505  29.359  27.426  1.00  0.00     0.014 A 
ATOM     12  C   UNL A   1      33.204  29.745  25.754  1.00  0.00     0.014 A 
BRANCH   8  13
ATOM     13  C   UNL A   1      33.108  26.077  26.584  1.00  0.00     0.022 C 
ATOM     14  N   UNL A   1      33.826  23.219  24.548  1.00  0.00    -0.242 N 
ATOM     15  C   UNL A   1      33.311  23.839  25.707  1.00  0.00     0.265 C 
ATOM     16  C   UNL A   1      33.858  23.903  23.315  1.00  0.00     0.265 C 
ATOM     17  O   UNL A   1      33.247  23.366  26.841  1.00  0.00    -0.268 OA
ATOM     18  C   UNL A   1      32.871  25.267  25.526  1.00  0.00     0.049 C 
ATOM     19  C   UNL A   1      32.878  24.993  23.113  1.00  0.00     0.048 A 
ATOM     20  O   UNL A   1      34.600  23.695  22.353  1.00  0.00    -0.268 OA
ATOM     21  C   UNL A   1      32.337  25.647  24.215  1.00  0.00    -0.000 A 
ATOM     22  C   UNL A   1      32.492  25.344  21.809  1.00  0.00     0.014 A 
ATOM     23  C   UNL A   1      31.322  26.591  24.001  1.00  0.00     0.010 A 
ATOM     24  C   UNL A   1      31.524  26.323  21.604  1.00  0.00     0.001 A 
ATOM     25  C   UNL A   1      30.925  26.930  22.703  1.00  0.00     0.001 A 
BRANCH  14  26
ATOM     26  C   UNL A   1      34.413  21.877  24.648  1.00  0.00     0.053 A 
ATOM     27  C   UNL A   1      33.304  18.202  24.445  1.00  0.00     0.044 C 
ATOM     28  C   UNL A   1      34.177  19.413  24.592  1.00  0.00    -0.049 A 
ATOM     29  C   UNL A   1      35.543  19.259  24.814  1.00  0.00     0.003 A 
ATOM     30  C   UNL A   1      33.636  20.710  24.493  1.00  0.00     0.030 A 
ATOM     31  C   UNL A   1      36.344  20.383  24.950  1.00  0.00     0.002 A 
ATOM     32  C   UNL A   1      35.784  21.666  24.872  1.00  0.00     0.027 A 
ENDBRANCH  14  26
ENDBRANCH   8  13
ENDBRANCH   4   7
ENDBRANCH   2   3
ENDBRANCH   1   2
BRANCH   1  33
ATOM     33  C   UNL A   1      34.301  34.822  28.641  1.00  0.00     0.118 C 
BRANCH  33  34
ATOM     34  N   UNL A   1      34.608  34.832  30.078  1.00  0.00    -0.352 N 
ATOM     35  C   UNL A   1      35.325  33.915  30.838  1.00  0.00     0.251 C 
ATOM     36  H   UNL A   1      34.252  35.602  30.576  1.00  0.00     0.163 HD
ATOM     37  O   UNL A   1      35.524  34.111  32.033  1.00  0.00    -0.269 OA
BRANCH  35  38
ATOM     38  C   UNL A   1      35.983  32.777  30.154  1.00  0.00     0.039 A 
ATOM     39  C   UNL A   1      36.098  31.587  30.881  1.00  0.00     0.014 A 
ATOM     40  C   UNL A   1      36.837  33.048  29.098  1.00  0.00     0.014 A 
ATOM     41  C   UNL A   1      37.284  30.873  30.799  1.00  0.00     0.010 A 
ATOM     42  C   UNL A   1      38.075  32.451  29.133  1.00  0.00     0.010 A 
ATOM     43  C   UNL A   1      38.316  31.415  30.041  1.00  0.00    -0.014 A 
BRANCH  43  44
ATOM     44  C   UNL A   1      39.688  30.955  30.113  1.00  0.00     0.031 A 
ATOM     45  C   UNL A   1      40.024  29.737  29.356  1.00  0.00     0.074 A 
ATOM     46  C   UNL A   1      40.622  31.647  30.804  1.00  0.00     0.049 A 
ATOM     47  N   UNL A   1      40.910  28.887  29.730  1.00  0.00    -0.248 NA
ATOM     48  C   UNL A   1      39.316  29.338  28.141  1.00  0.00     0.031 C 
ATOM     49  C   UNL A   1      42.069  31.462  30.751  1.00  0.00     0.029 A 
ATOM     50  N   UNL A   1      40.435  32.609  31.811  1.00  0.00    -0.354 N 
ATOM     51  C   UNL A   1      41.090  28.000  28.694  1.00  0.00     0.074 A 
ATOM     52  C   UNL A   1      40.012  28.259  27.772  1.00  0.00     0.031 C 
ATOM     53  C   UNL A   1      42.630  32.049  31.821  1.00  0.00     0.029 A 
ATOM     54  C   UNL A   1      41.555  32.517  32.676  1.00  0.00     0.049 A 
ATOM     55  H   UNL A   1      39.673  33.227  31.899  1.00  0.00     0.167 HD
ATOM     56  C   UNL A   1      42.229  27.257  28.657  1.00  0.00     0.037 A 
ATOM     57  C   UNL A   1      41.426  32.222  34.005  1.00  0.00     0.037 A 
ATOM     58  C   UNL A   1      43.076  27.576  29.801  1.00  0.00     0.049 A 
ATOM     59  C   UNL A   1      42.052  30.903  34.369  1.00  0.00     0.074 A 
ATOM     60  C   UNL A   1      44.097  28.502  29.944  1.00  0.00     0.029 A 
ATOM     61  N   UNL A   1      42.669  27.233  31.085  1.00  0.00    -0.354 N 
ATOM     62  N   UNL A   1      42.336  29.981  33.493  1.00  0.00    -0.248 NA
ATOM     63  C   UNL A   1      42.373  30.508  35.734  1.00  0.00     0.031 C 
ATOM     64  C   UNL A   1      44.282  28.740  31.325  1.00  0.00     0.029 A 
ATOM     65  C   UNL A   1      43.393  27.942  32.027  1.00  0.00     0.049 A 
ATOM     66  H   UNL A   1      41.965  26.577  31.295  1.00  0.00     0.167 HD
ATOM     67  C   UNL A   1      42.845  28.885  34.138  1.00  0.00     0.074 A 
ATOM     68  C   UNL A   1      42.872  29.276  35.536  1.00  0.00     0.031 C 
ATOM     69  C   UNL A   1      43.184  27.750  33.456  1.00  0.00     0.037 A 
BRANCH  56  70
ATOM     70  C   UNL A   1      42.713  26.530  27.426  1.00  0.00     0.064 A 
ATOM     71  C   UNL A   1      42.238  25.236  27.125  1.00  0.00     0.173 A 
ATOM     72  C   UNL A   1      43.671  27.036  26.528  1.00  0.00     0.173 A 
ATOM     73  F   UNL A   1      41.268  24.659  27.845  1.00  0.00    -0.203 F 
ATOM     74  C   UNL A   1      42.750  24.474  26.073  1.00  0.00     0.198 A 
ATOM     75  C   UNL A   1      44.217  26.257  25.501  1.00  0.00     0.198 A 
ATOM     76  F   UNL A   1      44.080  28.310  26.595  1.00  0.00    -0.203 F 
ATOM     77  F   UNL A   1      42.264  23.245  25.846  1.00  0.00    -0.200 F 
ATOM     78  C   UNL A   1      43.760  24.972  25.278  1.00  0.00     0.200 A 
ATOM     79  F   UNL A   1      45.189  26.760  24.727  1.00  0.00    -0.200 F 
ATOM     80  F   UNL A   1      44.277  24.227  24.293  1.00  0.00    -0.200 F 
ENDBRANCH  56  70
BRANCH  57  81
ATOM     81  C   UNL A   1      40.161  32.754  34.584  1.00  0.00     0.064 A 
ATOM     82  C   UNL A   1      39.171  31.791  34.853  1.00  0.00     0.173 A 
ATOM     83  C   UNL A   1      40.204  33.900  35.386  1.00  0.00     0.173 A 
ATOM     84  F   UNL A   1      39.039  30.724  34.049  1.00  0.00    -0.203 F 
ATOM     85  C   UNL A   1      38.501  31.803  36.069  1.00  0.00     0.198 A 
ATOM     86  C   UNL A   1      39.478  33.938  36.574  1.00  0.00     0.198 A 
ATOM     87  F   UNL A   1      41.059  34.895  35.110  1.00  0.00    -0.203 F 
ATOM     88  F   UNL A   1      37.777  30.737  36.440  1.00  0.00    -0.200 F 
ATOM     89  C   UNL A   1      38.701  32.850  36.952  1.00  0.00     0.200 A 
ATOM     90  F   UNL A   1      39.629  34.974  37.410  1.00  0.00    -0.200 F 
ATOM     91  F   UNL A   1      38.192  32.779  38.189  1.00  0.00    -0.200 F 
ENDBRANCH  57  81
BRANCH  69  92
ATOM     92  C   UNL A   1      43.491  26.408  34.075  1.00  0.00     0.064 A 
ATOM     93  C   UNL A   1      44.771  25.832  34.113  1.00  0.00     0.173 A 
ATOM     94  C   UNL A   1      42.487  25.684  34.766  1.00  0.00     0.173 A 
ATOM     95  F   UNL A   1      45.849  26.486  33.663  1.00  0.00    -0.203 F 
ATOM     96  C   UNL A   1      45.004  24.577  34.680  1.00  0.00     0.198 A 
ATOM     97  C   UNL A   1      42.741  24.473  35.405  1.00  0.00     0.198 A 
ATOM     98  F   UNL A   1      41.230  26.138  34.870  1.00  0.00    -0.203 F 
ATOM     99  F   UNL A   1      46.229  24.038  34.610  1.00  0.00    -0.200 F 
ATOM    100  C   UNL A   1      43.991  23.900  35.331  1.00  0.00     0.200 A 
ATOM    101  F   UNL A   1      41.766  23.873  36.101  1.00  0.00    -0.200 F 
ATOM    102  F   UNL A   1      44.227  22.716  35.907  1.00  0.00    -0.200 F 
ENDBRANCH  69  92
ENDBRANCH  43  44
ENDBRANCH  35  38
ENDBRANCH  33  34
ENDBRANCH   1  33
TORSDOF 12
ENDMDL
MODEL 2
REMARK VINA RESULT:     -14.7      1.948      2.648
REMARK SMILES Cc1cccc(N2C(=O)/C(=C/c3ccc(C(=O)NCCCNC(=O)c4ccc(-c5c6nc(c(-c7c(F)c(F)c(F)c(F)c7F)c7ccc([nH]7)c(-c7c(F)c(F)c(F)c(F)c7F)c7nc(c(-c8c(F)c(F)c(F)c(F)c8F)c8ccc5[nH]8)C=C7)C=C6)cc4)cc3)c3ccccc3C2=O)c1
REMARK SMILES IDX 20 1 19 2 18 3 16 4 17 5 15 7 12 8 13 9 89 10 14 11 88 12
REMARK SMILES IDX 11 13 7 14 8 15 96 16 9 17 10 18 95 19 97 20 90 21 94 22
REMARK SMILES IDX 91 23 93 24 92 25 6 26 1 27 2 28 3 29 98 30 4 31 5 32 21 33
REMARK SMILES IDX 22 34 23 35 24 37 25 38 26 39 87 40 27 41 86 42 28 43 29 44
REMARK SMILES IDX 30 45 80 46 31 47 85 48 79 49 81 50 32 51 84 52 78 53 77 54
REMARK SMILES IDX 33 56 65 57 45 58 64 59 46 60 49 61 63 62 82 63 47 64 48 65
REMARK SMILES IDX 62 67 83 68 50 69 34 70 35 71 43 72 36 73 37 74 41 75 44 76
REMARK SMILES IDX 38 77 39 78 42 79 40 80 66 81 67 82 75 83 68 84 69 85 73 86
REMARK SMILES IDX 76 87 70 88 71 89 74 90 72 91 51 92 52 93 60 94 53 95 54 96
REMARK SMILES IDX 58 97 61 98 55 99 56 100 59 101 57 102
REMARK H PARENT 18 6 22 36 81 55 49 66
REMARK Flexibility Score: inf
ROOT
ATOM      1  C   UNL A   1      34.200  32.341  29.164  1.00  0.00     0.042 C 
ENDROOT
BRANCH   1   2
ATOM      2  C   UNL A   1      34.303  32.023  27.683  1.00  0.00     0.118 C 
BRANCH   2   3
ATOM      3  N   UNL A   1      33.020  32.096  26.985  1.00  0.00    -0.352 N 
ATOM      4  C   UNL A   1      32.165  31.100  26.560  1.00  0.00     0.251 C 
ATOM      5  O   UNL A   1      31.167  31.401  25.907  1.00  0.00    -0.269 OA
ATOM      6  H   UNL A   1      32.713  33.010  26.787  1.00  0.00     0.163 HD
BRANCH   4   7
ATOM      7  C   UNL A   1      32.481  29.673  26.801  1.00  0.00     0.039 A 
ATOM      8  C   UNL A   1      32.716  26.896  26.784  1.00  0.00    -0.025 A 
ATOM      9  C   UNL A   1      31.683  27.504  27.507  1.00  0.00     0.009 A 
ATOM     10  C   UNL A   1      33.740  27.690  26.254  1.00  0.00     0.009 A 
ATOM     11  C   UNL A   1      31.561  28.895  27.511  1.00  0.00     0.014 A 
ATOM     12  C   UNL A   1      33.632  29.078  26.283  1.00  0.00     0.014 A 
BRANCH   8  13
ATOM     13  C   UNL A   1      32.682  25.448  26.555  1.00  0.00     0.022 C 
ATOM     14  N   UNL A   1      33.092  22.731  24.256  1.00  0.00    -0.242 N 
ATOM     15  C   UNL A   1      32.573  23.316  25.432  1.00  0.00     0.265 C 
ATOM     16  C   UNL A   1      33.384  23.520  23.124  1.00  0.00     0.265 C 
ATOM     17  O   UNL A   1      32.299  22.750  26.489  1.00  0.00    -0.268 OA
ATOM     18  C   UNL A   1      32.421  24.813  25.388  1.00  0.00     0.049 C 
ATOM     19  C   UNL A   1      32.646  24.793  22.971  1.00  0.00     0.048 A 
ATOM     20  O   UNL A   1      34.178  23.274  22.214  1.00  0.00    -0.268 OA
ATOM     21  C   UNL A   1      32.113  25.421  24.091  1.00  0.00    -0.000 A 
ATOM     22  C   UNL A   1      32.476  25.344  21.690  1.00  0.00     0.014 A 
ATOM     23  C   UNL A   1      31.316  26.560  23.904  1.00  0.00     0.010 A 
ATOM     24  C   UNL A   1      31.730  26.507  21.521  1.00  0.00     0.001 A 
ATOM     25  C   UNL A   1      31.133  27.101  22.628  1.00  0.00     0.001 A 
BRANCH  14  26
ATOM     26  C   UNL A   1      33.412  21.299  24.244  1.00  0.00     0.053 A 
ATOM     27  C   UNL A   1      32.044  18.032  22.749  1.00  0.00     0.044 C 
ATOM     28  C   UNL A   1      32.918  18.988  23.506  1.00  0.00    -0.049 A 
ATOM     29  C   UNL A   1      34.036  18.512  24.188  1.00  0.00     0.003 A 
ATOM     30  C   UNL A   1      32.633  20.367  23.527  1.00  0.00     0.030 A 
ATOM     31  C   UNL A   1      34.840  19.400  24.886  1.00  0.00     0.002 A 
ATOM     32  C   UNL A   1      34.527  20.766  24.914  1.00  0.00     0.027 A 
ENDBRANCH  14  26
ENDBRANCH   8  13
ENDBRANCH   4   7
ENDBRANCH   2   3
ENDBRANCH   1   2
BRANCH   1  33
ATOM     33  C   UNL A   1      34.443  33.803  29.499  1.00  0.00     0.118 C 
BRANCH  33  34
ATOM     34  N   UNL A   1      33.345  34.450  30.230  1.00  0.00    -0.352 N 
ATOM     35  C   UNL A   1      33.208  34.695  31.592  1.00  0.00     0.251 C 
ATOM     36  H   UNL A   1      32.595  34.756  29.671  1.00  0.00     0.163 HD
ATOM     37  O   UNL A   1      32.231  35.298  32.025  1.00  0.00    -0.269 OA
BRANCH  35  38
ATOM     38  C   UNL A   1      34.334  34.360  32.495  1.00  0.00     0.039 A 
ATOM     39  C   UNL A   1      35.365  35.301  32.591  1.00  0.00     0.014 A 
ATOM     40  C   UNL A   1      34.558  33.028  32.803  1.00  0.00     0.014 A 
ATOM     41  C   UNL A   1      36.675  34.847  32.615  1.00  0.00     0.010 A 
ATOM     42  C   UNL A   1      35.844  32.566  32.655  1.00  0.00     0.010 A 
ATOM     43  C   UNL A   1      36.890  33.479  32.483  1.00  0.00    -0.014 A 
BRANCH  43  44
ATOM     44  C   UNL A   1      38.183  32.898  32.182  1.00  0.00     0.031 A 
ATOM     45  C   UNL A   1      38.185  31.600  31.486  1.00  0.00     0.074 A 
ATOM     46  C   UNL A   1      39.329  33.549  32.483  1.00  0.00     0.049 A 
ATOM     47  N   UNL A   1      39.086  30.701  31.658  1.00  0.00    -0.248 NA
ATOM     48  C   UNL A   1      37.111  31.179  30.590  1.00  0.00     0.031 C 
ATOM     49  C   UNL A   1      40.673  33.226  32.013  1.00  0.00     0.029 A 
ATOM     50  N   UNL A   1      39.528  34.598  33.397  1.00  0.00    -0.354 N 
ATOM     51  C   UNL A   1      38.876  29.725  30.711  1.00  0.00     0.074 A 
ATOM     52  C   UNL A   1      37.584  30.013  30.139  1.00  0.00     0.031 C 
ATOM     53  C   UNL A   1      41.575  33.837  32.797  1.00  0.00     0.029 A 
ATOM     54  C   UNL A   1      40.853  34.468  33.886  1.00  0.00     0.049 A 
ATOM     55  H   UNL A   1      38.874  35.291  33.648  1.00  0.00     0.167 HD
ATOM     56  C   UNL A   1      39.895  28.877  30.407  1.00  0.00     0.037 A 
ATOM     57  C   UNL A   1      41.123  34.288  35.214  1.00  0.00     0.037 A 
ATOM     58  C   UNL A   1      41.075  29.201  31.202  1.00  0.00     0.049 A 
ATOM     59  C   UNL A   1      41.742  32.947  35.503  1.00  0.00     0.074 A 
ATOM     60  C   UNL A   1      42.149  30.035  30.934  1.00  0.00     0.029 A 
ATOM     61  N   UNL A   1      41.065  28.997  32.576  1.00  0.00    -0.354 N 
ATOM     62  N   UNL A   1      41.679  31.938  34.681  1.00  0.00    -0.248 NA
ATOM     63  C   UNL A   1      42.445  32.628  36.740  1.00  0.00     0.031 C 
ATOM     64  C   UNL A   1      42.768  30.359  32.162  1.00  0.00     0.029 A 
ATOM     65  C   UNL A   1      42.091  29.704  33.177  1.00  0.00     0.049 A 
ATOM     66  H   UNL A   1      40.419  28.428  33.055  1.00  0.00     0.167 HD
ATOM     67  C   UNL A   1      42.289  30.852  35.249  1.00  0.00     0.074 A 
ATOM     68  C   UNL A   1      42.774  31.343  36.525  1.00  0.00     0.031 C 
ATOM     69  C   UNL A   1      42.324  29.642  34.614  1.00  0.00     0.037 A 
BRANCH  56  70
ATOM     70  C   UNL A   1      39.924  28.017  29.167  1.00  0.00     0.064 A 
ATOM     71  C   UNL A   1      39.372  26.718  29.184  1.00  0.00     0.173 A 
ATOM     72  C   UNL A   1      40.514  28.397  27.947  1.00  0.00     0.173 A 
ATOM     73  F   UNL A   1      38.709  26.251  30.249  1.00  0.00    -0.203 F 
ATOM     74  C   UNL A   1      39.488  25.839  28.105  1.00  0.00     0.198 A 
ATOM     75  C   UNL A   1      40.671  27.501  26.883  1.00  0.00     0.198 A 
ATOM     76  F   UNL A   1      40.923  29.655  27.737  1.00  0.00    -0.203 F 
ATOM     77  F   UNL A   1      38.952  24.613  28.188  1.00  0.00    -0.200 F 
ATOM     78  C   UNL A   1      40.164  26.219  26.965  1.00  0.00     0.200 A 
ATOM     79  F   UNL A   1      41.318  27.890  25.774  1.00  0.00    -0.200 F 
ATOM     80  F   UNL A   1      40.308  25.363  25.946  1.00  0.00    -0.200 F 
ENDBRANCH  56  70
BRANCH  57  81
ATOM     81  C   UNL A   1      40.139  34.980  36.093  1.00  0.00     0.064 A 
ATOM     82  C   UNL A   1      39.172  34.146  36.685  1.00  0.00     0.173 A 
ATOM     83  C   UNL A   1      40.528  36.134  36.782  1.00  0.00     0.173 A 
ATOM     84  F   UNL A   1      38.706  33.081  36.014  1.00  0.00    -0.203 F 
ATOM     85  C   UNL A   1      38.882  34.269  38.036  1.00  0.00     0.198 A 
ATOM     86  C   UNL A   1      40.179  36.288  38.121  1.00  0.00     0.198 A 
ATOM     87  F   UNL A   1      41.368  37.014  36.219  1.00  0.00    -0.203 F 
ATOM     88  F   UNL A   1      38.187  33.305  38.658  1.00  0.00    -0.200 F 
ATOM     89  C   UNL A   1      39.434  35.309  38.766  1.00  0.00     0.200 A 
ATOM     90  F   UNL A   1      40.670  37.321  38.819  1.00  0.00    -0.200 F 
ATOM     91  F   UNL A   1      39.294  35.330  40.097  1.00  0.00    -0.200 F 
ENDBRANCH  57  81
BRANCH  69  92
ATOM     92  C   UNL A   1      42.718  28.328  35.244  1.00  0.00     0.064 A 
ATOM     93  C   UNL A   1      43.946  27.684  35.020  1.00  0.00     0.173 A 
ATOM     94  C   UNL A   1      41.884  27.708  36.208  1.00  0.00     0.173 A 
ATOM     95  F   UNL A   1      44.908  28.245  34.277  1.00  0.00    -0.203 F 
ATOM     96  C   UNL A   1      44.259  26.457  35.610  1.00  0.00     0.198 A 
ATOM     97  C   UNL A   1      42.236  26.529  36.859  1.00  0.00     0.198 A 
ATOM     98  F   UNL A   1      40.708  28.239  36.573  1.00  0.00    -0.203 F 
ATOM     99  F   UNL A   1      45.408  25.846  35.292  1.00  0.00    -0.200 F 
ATOM    100  C   UNL A   1      43.408  25.882  36.534  1.00  0.00     0.200 A 
ATOM    101  F   UNL A   1      41.435  26.032  37.812  1.00  0.00    -0.200 F 
ATOM    102  F   UNL A   1      43.729  24.727  37.126  1.00  0.00    -0.200 F 
ENDBRANCH  69  92
ENDBRANCH  43  44
ENDBRANCH  35  38
ENDBRANCH  33  34
ENDBRANCH   1  33
TORSDOF 12
ENDMDL
MODEL 3
REMARK VINA RESULT:     -14.5      2.110      3.357
REMARK SMILES Cc1cccc(N2C(=O)/C(=C/c3ccc(C(=O)NCCCNC(=O)c4ccc(-c5c6nc(c(-c7c(F)c(F)c(F)c(F)c7F)c7ccc([nH]7)c(-c7c(F)c(F)c(F)c(F)c7F)c7nc(c(-c8c(F)c(F)c(F)c(F)c8F)c8ccc5[nH]8)C=C7)C=C6)cc4)cc3)c3ccccc3C2=O)c1
REMARK SMILES IDX 20 1 19 2 18 3 16 4 17 5 15 7 12 8 13 9 89 10 14 11 88 12
REMARK SMILES IDX 11 13 7 14 8 15 96 16 9 17 10 18 95 19 97 20 90 21 94 22
REMARK SMILES IDX 91 23 93 24 92 25 6 26 1 27 2 28 3 29 98 30 4 31 5 32 21 33
REMARK SMILES IDX 22 34 23 35 24 37 25 38 26 39 87 40 27 41 86 42 28 43 29 44
REMARK SMILES IDX 30 45 80 46 31 47 85 48 79 49 81 50 32 51 84 52 78 53 77 54
REMARK SMILES IDX 33 56 65 57 45 58 64 59 46 60 49 61 63 62 82 63 47 64 48 65
REMARK SMILES IDX 62 67 83 68 50 69 34 70 35 71 43 72 36 73 37 74 41 75 44 76
REMARK SMILES IDX 38 77 39 78 42 79 40 80 66 81 67 82 75 83 68 84 69 85 73 86
REMARK SMILES IDX 76 87 70 88 71 89 74 90 72 91 51 92 52 93 60 94 53 95 54 96
REMARK SMILES IDX 58 97 61 98 55 99 56 100 59 101 57 102
REMARK H PARENT 18 6 22 36 81 55 49 66
REMARK Flexibility Score: inf
ROOT
ATOM      1  C   UNL A   1      34.283  32.050  27.567  1.00  0.00     0.042 C 
ENDROOT
BRANCH   1   2
ATOM      2  C   UNL A   1      32.921  32.601  27.957  1.00  0.00     0.118 C 
BRANCH   2   3
ATOM      3  N   UNL A   1      31.923  32.480  26.894  1.00  0.00    -0.352 N 
ATOM      4  C   UNL A   1      31.494  31.382  26.179  1.00  0.00     0.251 C 
ATOM      5  O   UNL A   1      30.693  31.537  25.259  1.00  0.00    -0.269 OA
ATOM      6  H   UNL A   1      31.482  33.326  26.650  1.00  0.00     0.163 HD
BRANCH   4   7
ATOM      7  C   UNL A   1      32.053  30.036  26.445  1.00  0.00     0.039 A 
ATOM      8  C   UNL A   1      32.660  27.319  26.588  1.00  0.00    -0.025 A 
ATOM      9  C   UNL A   1      31.755  27.881  27.496  1.00  0.00     0.009 A 
ATOM     10  C   UNL A   1      33.408  28.163  25.757  1.00  0.00     0.009 A 
ATOM     11  C   UNL A   1      31.446  29.240  27.421  1.00  0.00     0.014 A 
ATOM     12  C   UNL A   1      33.119  29.524  25.704  1.00  0.00     0.014 A 
BRANCH   8  13
ATOM     13  C   UNL A   1      32.773  25.860  26.489  1.00  0.00     0.022 C 
ATOM     14  N   UNL A   1      33.375  22.999  24.420  1.00  0.00    -0.242 N 
ATOM     15  C   UNL A   1      32.848  23.634  25.565  1.00  0.00     0.265 C 
ATOM     16  C   UNL A   1      33.529  23.705  23.208  1.00  0.00     0.265 C 
ATOM     17  O   UNL A   1      32.684  23.143  26.682  1.00  0.00    -0.268 OA
ATOM     18  C   UNL A   1      32.532  25.096  25.398  1.00  0.00     0.049 C 
ATOM     19  C   UNL A   1      32.651  24.875  22.983  1.00  0.00     0.048 A 
ATOM     20  O   UNL A   1      34.305  23.459  22.282  1.00  0.00    -0.268 OA
ATOM     21  C   UNL A   1      32.104  25.545  24.072  1.00  0.00    -0.000 A 
ATOM     22  C   UNL A   1      32.367  25.283  21.670  1.00  0.00     0.014 A 
ATOM     23  C   UNL A   1      31.180  26.573  23.828  1.00  0.00     0.010 A 
ATOM     24  C   UNL A   1      31.493  26.341  21.439  1.00  0.00     0.001 A 
ATOM     25  C   UNL A   1      30.883  26.970  22.520  1.00  0.00     0.001 A 
BRANCH  14  26
ATOM     26  C   UNL A   1      33.848  21.613  24.516  1.00  0.00     0.053 A 
ATOM     27  C   UNL A   1      32.501  18.046  24.027  1.00  0.00     0.044 C 
ATOM     28  C   UNL A   1      33.440  19.179  24.320  1.00  0.00    -0.049 A 
ATOM     29  C   UNL A   1      34.760  18.910  24.674  1.00  0.00     0.003 A 
ATOM     30  C   UNL A   1      33.009  20.518  24.227  1.00  0.00     0.030 A 
ATOM     31  C   UNL A   1      35.622  19.962  24.944  1.00  0.00     0.002 A 
ATOM     32  C   UNL A   1      35.169  21.287  24.870  1.00  0.00     0.027 A 
ENDBRANCH  14  26
ENDBRANCH   8  13
ENDBRANCH   4   7
ENDBRANCH   2   3
ENDBRANCH   1   2
BRANCH   1  33
ATOM     33  C   UNL A   1      34.886  31.112  28.597  1.00  0.00     0.118 C 
BRANCH  33  34
ATOM     34  N   UNL A   1      35.931  31.718  29.434  1.00  0.00    -0.352 N 
ATOM     35  C   UNL A   1      37.172  31.213  29.809  1.00  0.00     0.251 C 
ATOM     36  H   UNL A   1      35.722  32.615  29.781  1.00  0.00     0.163 HD
ATOM     37  O   UNL A   1      37.945  31.887  30.482  1.00  0.00    -0.269 OA
BRANCH  35  38
ATOM     38  C   UNL A   1      37.613  29.913  29.250  1.00  0.00     0.039 A 
ATOM     39  C   UNL A   1      37.775  28.861  30.158  1.00  0.00     0.014 A 
ATOM     40  C   UNL A   1      38.277  29.910  28.035  1.00  0.00     0.014 A 
ATOM     41  C   UNL A   1      38.874  28.027  30.016  1.00  0.00     0.010 A 
ATOM     42  C   UNL A   1      39.456  29.205  27.975  1.00  0.00     0.010 A 
ATOM     43  C   UNL A   1      39.786  28.322  29.008  1.00  0.00    -0.014 A 
BRANCH  43  44
ATOM     44  C   UNL A   1      41.112  27.744  28.936  1.00  0.00     0.031 A 
ATOM     45  C   UNL A   1      41.202  26.327  28.546  1.00  0.00     0.074 A 
ATOM     46  C   UNL A   1      42.214  28.493  29.168  1.00  0.00     0.049 A 
ATOM     47  N   UNL A   1      42.109  25.525  28.976  1.00  0.00    -0.248 NA
ATOM     48  C   UNL A   1      40.213  25.676  27.690  1.00  0.00     0.031 C 
ATOM     49  C   UNL A   1      43.599  28.130  28.877  1.00  0.00     0.029 A 
ATOM     50  N   UNL A   1      42.314  29.723  29.839  1.00  0.00    -0.354 N 
ATOM     51  C   UNL A   1      41.999  24.359  28.255  1.00  0.00     0.074 A 
ATOM     52  C   UNL A   1      40.749  24.461  27.542  1.00  0.00     0.031 C 
ATOM     53  C   UNL A   1      44.421  28.935  29.571  1.00  0.00     0.029 A 
ATOM     54  C   UNL A   1      43.600  29.758  30.439  1.00  0.00     0.049 A 
ATOM     55  H   UNL A   1      41.626  30.426  29.885  1.00  0.00     0.167 HD
ATOM     56  C   UNL A   1      43.060  23.508  28.218  1.00  0.00     0.037 A 
ATOM     57  C   UNL A   1      43.769  29.882  31.790  1.00  0.00     0.037 A 
ATOM     58  C   UNL A   1      44.165  24.047  29.004  1.00  0.00     0.049 A 
ATOM     59  C   UNL A   1      44.396  28.664  32.411  1.00  0.00     0.074 A 
ATOM     60  C   UNL A   1      45.235  24.846  28.637  1.00  0.00     0.029 A 
ATOM     61  N   UNL A   1      44.051  24.146  30.386  1.00  0.00    -0.354 N 
ATOM     62  N   UNL A   1      44.423  27.499  31.829  1.00  0.00    -0.248 NA
ATOM     63  C   UNL A   1      45.006  28.652  33.734  1.00  0.00     0.031 C 
ATOM     64  C   UNL A   1      45.747  25.455  29.805  1.00  0.00     0.029 A 
ATOM     65  C   UNL A   1      45.008  25.010  30.888  1.00  0.00     0.049 A 
ATOM     66  H   UNL A   1      43.384  23.669  30.931  1.00  0.00     0.167 HD
ATOM     67  C   UNL A   1      45.013  26.589  32.664  1.00  0.00     0.074 A 
ATOM     68  C   UNL A   1      45.384  27.366  33.832  1.00  0.00     0.031 C 
ATOM     69  C   UNL A   1      45.128  25.272  32.317  1.00  0.00     0.037 A 
BRANCH  56  70
ATOM     70  C   UNL A   1      43.208  22.400  27.204  1.00  0.00     0.064 A 
ATOM     71  C   UNL A   1      42.380  21.259  27.264  1.00  0.00     0.173 A 
ATOM     72  C   UNL A   1      44.170  22.384  26.177  1.00  0.00     0.173 A 
ATOM     73  F   UNL A   1      41.369  21.170  28.138  1.00  0.00    -0.203 F 
ATOM     74  C   UNL A   1      42.563  20.154  26.430  1.00  0.00     0.198 A 
ATOM     75  C   UNL A   1      44.383  21.259  25.372  1.00  0.00     0.198 A 
ATOM     76  F   UNL A   1      44.906  23.468  25.899  1.00  0.00    -0.203 F 
ATOM     77  F   UNL A   1      41.749  19.095  26.546  1.00  0.00    -0.200 F 
ATOM     78  C   UNL A   1      43.584  20.140  25.504  1.00  0.00     0.200 A 
ATOM     79  F   UNL A   1      45.371  21.266  24.465  1.00  0.00    -0.200 F 
ATOM     80  F   UNL A   1      43.783  19.065  24.731  1.00  0.00    -0.200 F 
ENDBRANCH  56  70
BRANCH  57  81
ATOM     81  C   UNL A   1      42.701  30.708  32.422  1.00  0.00     0.064 A 
ATOM     82  C   UNL A   1      41.713  29.983  33.115  1.00  0.00     0.173 A 
ATOM     83  C   UNL A   1      43.005  32.000  32.862  1.00  0.00     0.173 A 
ATOM     84  F   UNL A   1      41.329  28.778  32.667  1.00  0.00    -0.203 F 
ATOM     85  C   UNL A   1      41.315  30.388  34.382  1.00  0.00     0.198 A 
ATOM     86  C   UNL A   1      42.549  32.430  34.106  1.00  0.00     0.198 A 
ATOM     87  F   UNL A   1      43.862  32.771  32.178  1.00  0.00    -0.203 F 
ATOM     88  F   UNL A   1      40.600  29.555  35.152  1.00  0.00    -0.200 F 
ATOM     89  C   UNL A   1      41.781  31.585  34.898  1.00  0.00     0.200 A 
ATOM     90  F   UNL A   1      42.956  33.611  34.589  1.00  0.00    -0.200 F 
ATOM     91  F   UNL A   1      41.537  31.892  36.178  1.00  0.00    -0.200 F 
ENDBRANCH  57  81
BRANCH  69  92
ATOM     92  C   UNL A   1      45.504  24.144  33.247  1.00  0.00     0.064 A 
ATOM     93  C   UNL A   1      44.650  23.080  33.582  1.00  0.00     0.173 A 
ATOM     94  C   UNL A   1      46.820  24.042  33.765  1.00  0.00     0.173 A 
ATOM     95  F   UNL A   1      43.442  22.947  33.021  1.00  0.00    -0.203 F 
ATOM     96  C   UNL A   1      45.036  22.068  34.464  1.00  0.00     0.198 A 
ATOM     97  C   UNL A   1      47.228  22.986  34.576  1.00  0.00     0.198 A 
ATOM     98  F   UNL A   1      47.766  24.949  33.481  1.00  0.00    -0.203 F 
ATOM     99  F   UNL A   1      44.150  21.127  34.816  1.00  0.00    -0.200 F 
ATOM    100  C   UNL A   1      46.325  22.017  34.956  1.00  0.00     0.200 A 
ATOM    101  F   UNL A   1      48.505  22.910  34.975  1.00  0.00    -0.200 F 
ATOM    102  F   UNL A   1      46.702  21.025  35.770  1.00  0.00    -0.200 F 
ENDBRANCH  69  92
ENDBRANCH  43  44
ENDBRANCH  35  38
ENDBRANCH  33  34
ENDBRANCH   1  33
TORSDOF 12
ENDMDL
