MODEL 1
REMARK VINA RESULT:     -12.1      0.000      0.000
REMARK SMILES O=C(NCCCNC(=O)c1cc2n[nH]cc2cc1[N+](=O)[O-])c1ccc(-c2c3nc(c(-c4c(F)c(F)c(F)c(F)c4F)c4ccc([nH]4)c(-c4c(F)c(F)c(F)c(F)c4F)c4nc(c(-c5c(F)c(F)c(F)c(F)c5F)c5ccc2[nH]5)C=C4)C=C3)cc1
REMARK SMILES IDX 4 1 3 2 1 3 2 4 22 6 23 7 84 8 24 9 83 10 25 11 26 12 27 13
REMARK SMILES IDX 77 14 28 15 82 16 76 17 78 18 29 19 81 20 75 21 74 22 30 24
REMARK SMILES IDX 62 25 42 26 61 27 43 28 46 29 60 30 79 31 44 32 45 33 59 35
REMARK SMILES IDX 80 36 47 37 31 38 32 39 40 40 33 41 34 42 38 43 41 44 35 45
REMARK SMILES IDX 36 46 39 47 37 48 63 49 64 50 72 51 65 52 66 53 70 54 73 55
REMARK SMILES IDX 67 56 68 57 71 58 69 59 48 60 49 61 57 62 50 63 51 64 55 65
REMARK SMILES IDX 58 66 52 67 53 68 56 69 54 70 5 71 6 72 7 73 8 74 9 76 10 77
REMARK SMILES IDX 11 78 18 79 12 80 17 81 13 82 16 83 14 84 15 85 19 87 20 88
REMARK SMILES IDX 21 89
REMARK H PARENT 3 5 78 23 46 34 7 75 14 86
REMARK Flexibility Score: inf
ROOT
ATOM      1  C   UNL A   1      32.691  32.607  26.876  1.00  0.00     0.118 C 
ENDROOT
BRANCH   1   2
ATOM      2  N   UNL A   1      32.458  33.922  27.460  1.00  0.00    -0.352 N 
ATOM      3  O   UNL A   1      32.572  35.576  28.985  1.00  0.00    -0.269 OA
ATOM      4  C   UNL A   1      33.040  34.528  28.546  1.00  0.00     0.251 C 
ATOM      5  H   UNL A   1      31.773  34.462  27.003  1.00  0.00     0.163 HD
BRANCH   4   6
ATOM      6  C   UNL A   1      34.217  33.921  29.203  1.00  0.00     0.039 A 
ATOM      7  C   UNL A   1      34.067  32.861  30.098  1.00  0.00     0.014 A 
ATOM      8  C   UNL A   1      35.495  34.390  28.884  1.00  0.00     0.014 A 
ATOM      9  C   UNL A   1      35.170  32.376  30.789  1.00  0.00     0.010 A 
ATOM     10  C   UNL A   1      36.617  33.828  29.501  1.00  0.00     0.010 A 
ATOM     11  C   UNL A   1      36.460  32.832  30.476  1.00  0.00    -0.014 A 
BRANCH  11  12
ATOM     12  C   UNL A   1      37.625  32.166  31.108  1.00  0.00     0.031 A 
ATOM     13  C   UNL A   1      38.059  32.504  32.504  1.00  0.00     0.074 A 
ATOM     14  C   UNL A   1      38.271  31.217  30.402  1.00  0.00     0.049 A 
ATOM     15  N   UNL A   1      39.043  31.995  33.203  1.00  0.00    -0.248 NA
ATOM     16  C   UNL A   1      37.305  33.552  33.207  1.00  0.00     0.031 C 
ATOM     17  C   UNL A   1      37.946  30.826  29.027  1.00  0.00     0.029 A 
ATOM     18  N   UNL A   1      39.316  30.397  30.739  1.00  0.00    -0.354 N 
ATOM     19  C   UNL A   1      39.041  32.672  34.414  1.00  0.00     0.074 A 
ATOM     20  C   UNL A   1      37.967  33.641  34.356  1.00  0.00     0.031 C 
ATOM     21  C   UNL A   1      38.739  29.812  28.657  1.00  0.00     0.029 A 
ATOM     22  C   UNL A   1      39.672  29.525  29.740  1.00  0.00     0.049 A 
ATOM     23  H   UNL A   1      39.767  30.430  31.614  1.00  0.00     0.167 HD
ATOM     24  C   UNL A   1      39.862  32.493  35.476  1.00  0.00     0.037 A 
ATOM     25  C   UNL A   1      40.656  28.610  29.689  1.00  0.00     0.037 A 
ATOM     26  C   UNL A   1      40.908  31.504  35.537  1.00  0.00     0.049 A 
ATOM     27  C   UNL A   1      41.547  28.441  30.883  1.00  0.00     0.074 A 
ATOM     28  C   UNL A   1      41.750  31.202  36.594  1.00  0.00     0.029 A 
ATOM     29  N   UNL A   1      41.259  30.658  34.494  1.00  0.00    -0.354 N 
ATOM     30  N   UNL A   1      41.505  29.057  32.039  1.00  0.00    -0.248 NA
ATOM     31  C   UNL A   1      42.631  27.456  30.764  1.00  0.00     0.031 C 
ATOM     32  C   UNL A   1      42.638  30.205  36.177  1.00  0.00     0.029 A 
ATOM     33  C   UNL A   1      42.323  29.856  34.875  1.00  0.00     0.049 A 
ATOM     34  H   UNL A   1      40.816  30.631  33.615  1.00  0.00     0.167 HD
ATOM     35  C   UNL A   1      42.549  28.535  32.785  1.00  0.00     0.074 A 
ATOM     36  C   UNL A   1      43.190  27.529  31.963  1.00  0.00     0.031 C 
ATOM     37  C   UNL A   1      42.951  28.868  34.036  1.00  0.00     0.037 A 
BRANCH  24  38
ATOM     38  C   UNL A   1      39.682  33.386  36.668  1.00  0.00     0.064 A 
ATOM     39  C   UNL A   1      40.316  34.633  36.756  1.00  0.00     0.173 A 
ATOM     40  C   UNL A   1      38.790  33.027  37.691  1.00  0.00     0.173 A 
ATOM     41  F   UNL A   1      41.182  35.018  35.809  1.00  0.00    -0.203 F 
ATOM     42  C   UNL A   1      40.067  35.487  37.829  1.00  0.00     0.198 A 
ATOM     43  C   UNL A   1      38.529  33.892  38.751  1.00  0.00     0.198 A 
ATOM     44  F   UNL A   1      38.154  31.846  37.650  1.00  0.00    -0.203 F 
ATOM     45  F   UNL A   1      40.698  36.667  37.903  1.00  0.00    -0.200 F 
ATOM     46  C   UNL A   1      39.168  35.121  38.819  1.00  0.00     0.200 A 
ATOM     47  F   UNL A   1      37.651  33.540  39.702  1.00  0.00    -0.200 F 
ATOM     48  F   UNL A   1      38.917  35.951  39.840  1.00  0.00    -0.200 F 
ENDBRANCH  24  38
BRANCH  25  49
ATOM     49  C   UNL A   1      40.856  27.808  28.456  1.00  0.00     0.064 A 
ATOM     50  C   UNL A   1      40.237  26.563  28.293  1.00  0.00     0.173 A 
ATOM     51  C   UNL A   1      41.668  28.277  27.412  1.00  0.00     0.173 A 
ATOM     52  F   UNL A   1      39.466  26.064  29.271  1.00  0.00    -0.203 F 
ATOM     53  C   UNL A   1      40.436  25.808  27.138  1.00  0.00     0.198 A 
ATOM     54  C   UNL A   1      41.841  27.536  26.246  1.00  0.00     0.198 A 
ATOM     55  F   UNL A   1      42.280  29.466  27.519  1.00  0.00    -0.203 F 
ATOM     56  F   UNL A   1      39.866  24.600  27.025  1.00  0.00    -0.200 F 
ATOM     57  C   UNL A   1      41.231  26.298  26.113  1.00  0.00     0.200 A 
ATOM     58  F   UNL A   1      42.596  28.022  25.252  1.00  0.00    -0.200 F 
ATOM     59  F   UNL A   1      41.416  25.575  25.001  1.00  0.00    -0.200 F 
ENDBRANCH  25  49
BRANCH  37  60
ATOM     60  C   UNL A   1      44.136  28.131  34.582  1.00  0.00     0.064 A 
ATOM     61  C   UNL A   1      45.435  28.642  34.448  1.00  0.00     0.173 A 
ATOM     62  C   UNL A   1      43.970  26.915  35.258  1.00  0.00     0.173 A 
ATOM     63  F   UNL A   1      45.643  29.793  33.792  1.00  0.00    -0.203 F 
ATOM     64  C   UNL A   1      46.530  27.947  34.951  1.00  0.00     0.198 A 
ATOM     65  C   UNL A   1      45.065  26.235  35.783  1.00  0.00     0.198 A 
ATOM     66  F   UNL A   1      42.745  26.388  35.414  1.00  0.00    -0.203 F 
ATOM     67  F   UNL A   1      47.768  28.427  34.770  1.00  0.00    -0.200 F 
ATOM     68  C   UNL A   1      46.344  26.747  35.623  1.00  0.00     0.200 A 
ATOM     69  F   UNL A   1      44.883  25.081  36.439  1.00  0.00    -0.200 F 
ATOM     70  F   UNL A   1      47.400  26.079  36.107  1.00  0.00    -0.200 F 
ENDBRANCH  37  60
ENDBRANCH  11  12
ENDBRANCH   4   6
ENDBRANCH   1   2
BRANCH   1  71
ATOM     71  C   UNL A   1      31.403  31.838  26.623  1.00  0.00     0.042 C 
BRANCH  71  72
ATOM     72  C   UNL A   1      31.617  30.363  26.334  1.00  0.00     0.118 C 
BRANCH  72  73
ATOM     73  N   UNL A   1      32.499  30.139  25.195  1.00  0.00    -0.352 N 
ATOM     74  C   UNL A   1      32.739  28.995  24.482  1.00  0.00     0.258 C 
ATOM     75  H   UNL A   1      32.999  30.931  24.893  1.00  0.00     0.163 HD
ATOM     76  O   UNL A   1      33.633  28.949  23.644  1.00  0.00    -0.269 OA
BRANCH  74  77
ATOM     77  C   UNL A   1      31.949  27.787  24.769  1.00  0.00     0.119 A 
ATOM     78  C   UNL A   1      32.532  26.888  25.695  1.00  0.00     0.052 A 
ATOM     79  C   UNL A   1      30.653  27.585  24.186  1.00  0.00     0.282 A 
ATOM     80  C   UNL A   1      31.685  25.827  26.045  1.00  0.00     0.093 A 
ATOM     81  C   UNL A   1      29.772  26.532  24.527  1.00  0.00     0.098 A 
ATOM     82  N   UNL A   1      31.878  24.821  26.909  1.00  0.00    -0.176 NA
ATOM     83  C   UNL A   1      30.368  25.704  25.468  1.00  0.00     0.026 A 
ATOM     84  N   UNL A   1      30.737  24.107  26.876  1.00  0.00    -0.285 N 
ATOM     85  C   UNL A   1      29.786  24.606  26.031  1.00  0.00     0.114 A 
ATOM     86  H   UNL A   1      30.599  23.293  27.415  1.00  0.00     0.189 HD
BRANCH  79  87
ATOM     87  N   UNL A   1      30.172  28.532  23.191  1.00  0.00     0.063 N 
ATOM     88  O   UNL A   1      29.671  29.582  23.620  1.00  0.00    -0.258 OA
ATOM     89  O   UNL A   1      30.278  28.217  22.001  1.00  0.00    -0.258 OA
ENDBRANCH  79  87
ENDBRANCH  74  77
ENDBRANCH  72  73
ENDBRANCH  71  72
ENDBRANCH   1  71
TORSDOF 11
ENDMDL
MODEL 2
REMARK VINA RESULT:     -12.1      0.119      1.213
REMARK SMILES O=C(NCCCNC(=O)c1cc2n[nH]cc2cc1[N+](=O)[O-])c1ccc(-c2c3nc(c(-c4c(F)c(F)c(F)c(F)c4F)c4ccc([nH]4)c(-c4c(F)c(F)c(F)c(F)c4F)c4nc(c(-c5c(F)c(F)c(F)c(F)c5F)c5ccc2[nH]5)C=C4)C=C3)cc1
REMARK SMILES IDX 4 1 3 2 1 3 2 4 22 6 23 7 84 8 24 9 83 10 25 11 26 12 27 13
REMARK SMILES IDX 77 14 28 15 82 16 76 17 78 18 29 19 81 20 75 21 74 22 30 24
REMARK SMILES IDX 62 25 42 26 61 27 43 28 46 29 60 30 79 31 44 32 45 33 59 35
REMARK SMILES IDX 80 36 47 37 31 38 32 39 40 40 33 41 34 42 38 43 41 44 35 45
REMARK SMILES IDX 36 46 39 47 37 48 63 49 64 50 72 51 65 52 66 53 70 54 73 55
REMARK SMILES IDX 67 56 68 57 71 58 69 59 48 60 49 61 57 62 50 63 51 64 55 65
REMARK SMILES IDX 58 66 52 67 53 68 56 69 54 70 5 71 6 72 7 73 8 74 9 76 10 77
REMARK SMILES IDX 11 78 18 79 12 80 17 81 13 82 16 83 14 84 15 85 19 87 20 88
REMARK SMILES IDX 21 89
REMARK H PARENT 3 5 78 23 46 34 7 75 14 86
REMARK Flexibility Score: inf
ROOT
ATOM      1  C   UNL A   1      32.610  32.476  26.875  1.00  0.00     0.118 C 
ENDROOT
BRANCH   1   2
ATOM      2  N   UNL A   1      32.423  33.828  27.385  1.00  0.00    -0.352 N 
ATOM      3  O   UNL A   1      32.613  35.564  28.808  1.00  0.00    -0.269 OA
ATOM      4  C   UNL A   1      33.045  34.481  28.421  1.00  0.00     0.251 C 
ATOM      5  H   UNL A   1      31.741  34.358  26.913  1.00  0.00     0.163 HD
BRANCH   4   6
ATOM      6  C   UNL A   1      34.222  33.883  29.086  1.00  0.00     0.039 A 
ATOM      7  C   UNL A   1      34.073  32.826  29.985  1.00  0.00     0.014 A 
ATOM      8  C   UNL A   1      35.499  34.357  28.772  1.00  0.00     0.014 A 
ATOM      9  C   UNL A   1      35.175  32.351  30.684  1.00  0.00     0.010 A 
ATOM     10  C   UNL A   1      36.621  33.804  29.397  1.00  0.00     0.010 A 
ATOM     11  C   UNL A   1      36.464  32.812  30.375  1.00  0.00    -0.014 A 
BRANCH  11  12
ATOM     12  C   UNL A   1      37.629  32.155  31.016  1.00  0.00     0.031 A 
ATOM     13  C   UNL A   1      38.061  32.510  32.409  1.00  0.00     0.074 A 
ATOM     14  C   UNL A   1      38.278  31.199  30.322  1.00  0.00     0.049 A 
ATOM     15  N   UNL A   1      39.045  32.010  33.115  1.00  0.00    -0.248 NA
ATOM     16  C   UNL A   1      37.305  33.564  33.100  1.00  0.00     0.031 C 
ATOM     17  C   UNL A   1      37.955  30.793  28.951  1.00  0.00     0.029 A 
ATOM     18  N   UNL A   1      39.324  30.385  30.669  1.00  0.00    -0.354 N 
ATOM     19  C   UNL A   1      39.041  32.700  34.318  1.00  0.00     0.074 A 
ATOM     20  C   UNL A   1      37.965  33.666  34.248  1.00  0.00     0.031 C 
ATOM     21  C   UNL A   1      38.750  29.776  28.593  1.00  0.00     0.029 A 
ATOM     22  C   UNL A   1      39.683  29.503  29.680  1.00  0.00     0.049 A 
ATOM     23  H   UNL A   1      39.774  30.428  31.545  1.00  0.00     0.167 HD
ATOM     24  C   UNL A   1      39.861  32.534  35.383  1.00  0.00     0.037 A 
ATOM     25  C   UNL A   1      40.668  28.588  29.641  1.00  0.00     0.037 A 
ATOM     26  C   UNL A   1      40.908  31.548  35.456  1.00  0.00     0.049 A 
ATOM     27  C   UNL A   1      41.558  28.434  30.838  1.00  0.00     0.074 A 
ATOM     28  C   UNL A   1      41.749  31.259  36.518  1.00  0.00     0.029 A 
ATOM     29  N   UNL A   1      41.261  30.691  34.423  1.00  0.00    -0.354 N 
ATOM     30  N   UNL A   1      41.513  29.063  31.987  1.00  0.00    -0.248 NA
ATOM     31  C   UNL A   1      42.643  27.450  30.731  1.00  0.00     0.031 C 
ATOM     32  C   UNL A   1      42.640  30.259  36.113  1.00  0.00     0.029 A 
ATOM     33  C   UNL A   1      42.327  29.895  34.814  1.00  0.00     0.049 A 
ATOM     34  H   UNL A   1      40.820  30.654  33.544  1.00  0.00     0.167 HD
ATOM     35  C   UNL A   1      42.558  28.551  32.740  1.00  0.00     0.074 A 
ATOM     36  C   UNL A   1      43.201  27.537  31.930  1.00  0.00     0.031 C 
ATOM     37  C   UNL A   1      42.957  28.899  33.987  1.00  0.00     0.037 A 
BRANCH  24  38
ATOM     38  C   UNL A   1      39.678  33.440  36.565  1.00  0.00     0.064 A 
ATOM     39  C   UNL A   1      40.295  34.696  36.632  1.00  0.00     0.173 A 
ATOM     40  C   UNL A   1      38.799  33.082  37.599  1.00  0.00     0.173 A 
ATOM     41  F   UNL A   1      41.149  35.081  35.672  1.00  0.00    -0.203 F 
ATOM     42  C   UNL A   1      40.044  35.561  37.696  1.00  0.00     0.198 A 
ATOM     43  C   UNL A   1      38.534  33.958  38.651  1.00  0.00     0.198 A 
ATOM     44  F   UNL A   1      38.179  31.893  37.579  1.00  0.00    -0.203 F 
ATOM     45  F   UNL A   1      40.659  36.750  37.749  1.00  0.00    -0.200 F 
ATOM     46  C   UNL A   1      39.157  35.196  38.697  1.00  0.00     0.200 A 
ATOM     47  F   UNL A   1      37.669  33.607  39.612  1.00  0.00    -0.200 F 
ATOM     48  F   UNL A   1      38.903  36.036  39.710  1.00  0.00    -0.200 F 
ENDBRANCH  24  38
BRANCH  25  49
ATOM     49  C   UNL A   1      40.871  27.773  28.417  1.00  0.00     0.064 A 
ATOM     50  C   UNL A   1      41.683  28.227  27.370  1.00  0.00     0.173 A 
ATOM     51  C   UNL A   1      40.261  26.518  28.274  1.00  0.00     0.173 A 
ATOM     52  F   UNL A   1      42.273  29.429  27.454  1.00  0.00    -0.203 F 
ATOM     53  C   UNL A   1      41.864  27.464  26.219  1.00  0.00     0.198 A 
ATOM     54  C   UNL A   1      40.467  25.742  27.136  1.00  0.00     0.198 A 
ATOM     55  F   UNL A   1      39.477  26.036  29.250  1.00  0.00    -0.203 F 
ATOM     56  F   UNL A   1      42.612  27.941  25.214  1.00  0.00    -0.200 F 
ATOM     57  C   UNL A   1      41.262  26.220  26.105  1.00  0.00     0.200 A 
ATOM     58  F   UNL A   1      39.897  24.534  27.039  1.00  0.00    -0.200 F 
ATOM     59  F   UNL A   1      41.442  25.484  25.001  1.00  0.00    -0.200 F 
ENDBRANCH  25  49
BRANCH  37  60
ATOM     60  C   UNL A   1      44.143  28.170  34.543  1.00  0.00     0.064 A 
ATOM     61  C   UNL A   1      45.443  28.673  34.390  1.00  0.00     0.173 A 
ATOM     62  C   UNL A   1      43.976  26.970  35.247  1.00  0.00     0.173 A 
ATOM     63  F   UNL A   1      45.651  29.808  33.706  1.00  0.00    -0.203 F 
ATOM     64  C   UNL A   1      46.538  27.985  34.902  1.00  0.00     0.198 A 
ATOM     65  C   UNL A   1      45.072  26.298  35.780  1.00  0.00     0.198 A 
ATOM     66  F   UNL A   1      42.751  26.451  35.422  1.00  0.00    -0.203 F 
ATOM     67  F   UNL A   1      47.777  28.457  34.703  1.00  0.00    -0.200 F 
ATOM     68  C   UNL A   1      46.352  26.801  35.602  1.00  0.00     0.200 A 
ATOM     69  F   UNL A   1      44.890  25.159  36.464  1.00  0.00    -0.200 F 
ATOM     70  F   UNL A   1      47.408  26.140  36.095  1.00  0.00    -0.200 F 
ENDBRANCH  37  60
ENDBRANCH  11  12
ENDBRANCH   4   6
ENDBRANCH   1   2
BRANCH   1  71
ATOM     71  C   UNL A   1      31.299  31.800  26.502  1.00  0.00     0.042 C 
BRANCH  71  72
ATOM     72  C   UNL A   1      31.446  30.329  26.152  1.00  0.00     0.118 C 
BRANCH  72  73
ATOM     73  N   UNL A   1      32.342  30.111  25.024  1.00  0.00    -0.352 N 
ATOM     74  C   UNL A   1      32.639  28.957  24.349  1.00  0.00     0.258 C 
ATOM     75  H   UNL A   1      32.805  30.915  24.697  1.00  0.00     0.163 HD
ATOM     76  O   UNL A   1      33.537  28.926  23.515  1.00  0.00    -0.269 OA
BRANCH  74  77
ATOM     77  C   UNL A   1      31.906  27.722  24.674  1.00  0.00     0.119 A 
ATOM     78  C   UNL A   1      32.542  26.870  25.609  1.00  0.00     0.052 A 
ATOM     79  C   UNL A   1      30.612  27.453  24.116  1.00  0.00     0.282 A 
ATOM     80  C   UNL A   1      31.747  25.781  25.994  1.00  0.00     0.093 A 
ATOM     81  C   UNL A   1      29.782  26.370  24.492  1.00  0.00     0.098 A 
ATOM     82  N   UNL A   1      31.995  24.804  26.877  1.00  0.00    -0.176 NA
ATOM     83  C   UNL A   1      30.427  25.590  25.441  1.00  0.00     0.026 A 
ATOM     84  N   UNL A   1      30.886  24.040  26.877  1.00  0.00    -0.285 N 
ATOM     85  C   UNL A   1      29.902  24.480  26.037  1.00  0.00     0.114 A 
ATOM     86  H   UNL A   1      30.791  23.234  27.434  1.00  0.00     0.189 HD
BRANCH  79  87
ATOM     87  N   UNL A   1      30.075  28.356  23.109  1.00  0.00     0.063 N 
ATOM     88  O   UNL A   1      30.279  28.052  21.924  1.00  0.00    -0.258 OA
ATOM     89  O   UNL A   1      29.476  29.363  23.501  1.00  0.00    -0.258 OA
ENDBRANCH  79  87
ENDBRANCH  74  77
ENDBRANCH  72  73
ENDBRANCH  71  72
ENDBRANCH   1  71
TORSDOF 11
ENDMDL
MODEL 3
REMARK VINA RESULT:     -12.0      0.057      1.675
REMARK SMILES O=C(NCCCNC(=O)c1cc2n[nH]cc2cc1[N+](=O)[O-])c1ccc(-c2c3nc(c(-c4c(F)c(F)c(F)c(F)c4F)c4ccc([nH]4)c(-c4c(F)c(F)c(F)c(F)c4F)c4nc(c(-c5c(F)c(F)c(F)c(F)c5F)c5ccc2[nH]5)C=C4)C=C3)cc1
REMARK SMILES IDX 4 1 3 2 1 3 2 4 22 6 23 7 84 8 24 9 83 10 25 11 26 12 27 13
REMARK SMILES IDX 77 14 28 15 82 16 76 17 78 18 29 19 81 20 75 21 74 22 30 24
REMARK SMILES IDX 62 25 42 26 61 27 43 28 46 29 60 30 79 31 44 32 45 33 59 35
REMARK SMILES IDX 80 36 47 37 31 38 32 39 40 40 33 41 34 42 38 43 41 44 35 45
REMARK SMILES IDX 36 46 39 47 37 48 63 49 64 50 72 51 65 52 66 53 70 54 73 55
REMARK SMILES IDX 67 56 68 57 71 58 69 59 48 60 49 61 57 62 50 63 51 64 55 65
REMARK SMILES IDX 58 66 52 67 53 68 56 69 54 70 5 71 6 72 7 73 8 74 9 76 10 77
REMARK SMILES IDX 11 78 18 79 12 80 17 81 13 82 16 83 14 84 15 85 19 87 20 88
REMARK SMILES IDX 21 89
REMARK H PARENT 3 5 78 23 46 34 7 75 14 86
REMARK Flexibility Score: inf
ROOT
ATOM      1  C   UNL A   1      32.699  32.551  26.875  1.00  0.00     0.118 C 
ENDROOT
BRANCH   1   2
ATOM      2  N   UNL A   1      32.470  33.871  27.447  1.00  0.00    -0.352 N 
ATOM      3  O   UNL A   1      32.593  35.540  28.955  1.00  0.00    -0.269 OA
ATOM      4  C   UNL A   1      33.057  34.487  28.525  1.00  0.00     0.251 C 
ATOM      5  H   UNL A   1      31.785  34.408  26.987  1.00  0.00     0.163 HD
BRANCH   4   6
ATOM      6  C   UNL A   1      34.236  33.884  29.183  1.00  0.00     0.039 A 
ATOM      7  C   UNL A   1      34.090  32.811  30.063  1.00  0.00     0.014 A 
ATOM      8  C   UNL A   1      35.512  34.372  28.882  1.00  0.00     0.014 A 
ATOM      9  C   UNL A   1      35.193  32.330  30.757  1.00  0.00     0.010 A 
ATOM     10  C   UNL A   1      36.634  33.814  29.501  1.00  0.00     0.010 A 
ATOM     11  C   UNL A   1      36.480  32.804  30.461  1.00  0.00    -0.014 A 
BRANCH  11  12
ATOM     12  C   UNL A   1      37.647  32.142  31.095  1.00  0.00     0.031 A 
ATOM     13  C   UNL A   1      38.078  32.482  32.492  1.00  0.00     0.074 A 
ATOM     14  C   UNL A   1      38.298  31.197  30.389  1.00  0.00     0.049 A 
ATOM     15  N   UNL A   1      39.063  31.976  33.191  1.00  0.00    -0.248 NA
ATOM     16  C   UNL A   1      37.318  33.526  33.195  1.00  0.00     0.031 C 
ATOM     17  C   UNL A   1      37.977  30.806  29.013  1.00  0.00     0.029 A 
ATOM     18  N   UNL A   1      39.347  30.381  30.727  1.00  0.00    -0.354 N 
ATOM     19  C   UNL A   1      39.056  32.652  34.403  1.00  0.00     0.074 A 
ATOM     20  C   UNL A   1      37.978  33.616  34.344  1.00  0.00     0.031 C 
ATOM     21  C   UNL A   1      38.775  29.796  28.644  1.00  0.00     0.029 A 
ATOM     22  C   UNL A   1      39.707  29.512  29.727  1.00  0.00     0.049 A 
ATOM     23  H   UNL A   1      39.796  30.415  31.603  1.00  0.00     0.167 HD
ATOM     24  C   UNL A   1      39.876  32.476  35.466  1.00  0.00     0.037 A 
ATOM     25  C   UNL A   1      40.695  28.601  29.678  1.00  0.00     0.037 A 
ATOM     26  C   UNL A   1      40.927  31.491  35.527  1.00  0.00     0.049 A 
ATOM     27  C   UNL A   1      41.586  28.434  30.873  1.00  0.00     0.074 A 
ATOM     28  C   UNL A   1      41.768  31.192  36.586  1.00  0.00     0.029 A 
ATOM     29  N   UNL A   1      41.282  30.648  34.485  1.00  0.00    -0.354 N 
ATOM     30  N   UNL A   1      41.539  29.050  32.029  1.00  0.00    -0.248 NA
ATOM     31  C   UNL A   1      42.674  27.454  30.754  1.00  0.00     0.031 C 
ATOM     32  C   UNL A   1      42.661  30.199  36.169  1.00  0.00     0.029 A 
ATOM     33  C   UNL A   1      42.350  29.850  34.866  1.00  0.00     0.049 A 
ATOM     34  H   UNL A   1      40.841  30.620  33.605  1.00  0.00     0.167 HD
ATOM     35  C   UNL A   1      42.585  28.532  32.776  1.00  0.00     0.074 A 
ATOM     36  C   UNL A   1      43.230  27.529  31.954  1.00  0.00     0.031 C 
ATOM     37  C   UNL A   1      42.983  28.866  34.027  1.00  0.00     0.037 A 
BRANCH  24  38
ATOM     38  C   UNL A   1      39.691  33.367  36.659  1.00  0.00     0.064 A 
ATOM     39  C   UNL A   1      40.325  34.613  36.752  1.00  0.00     0.173 A 
ATOM     40  C   UNL A   1      38.794  33.007  37.676  1.00  0.00     0.173 A 
ATOM     41  F   UNL A   1      41.196  35.000  35.809  1.00  0.00    -0.203 F 
ATOM     42  C   UNL A   1      40.071  35.467  37.824  1.00  0.00     0.198 A 
ATOM     43  C   UNL A   1      38.528  33.871  38.737  1.00  0.00     0.198 A 
ATOM     44  F   UNL A   1      38.157  31.827  37.631  1.00  0.00    -0.203 F 
ATOM     45  F   UNL A   1      40.703  36.646  37.903  1.00  0.00    -0.200 F 
ATOM     46  C   UNL A   1      39.167  35.099  38.809  1.00  0.00     0.200 A 
ATOM     47  F   UNL A   1      37.645  33.518  39.682  1.00  0.00    -0.200 F 
ATOM     48  F   UNL A   1      38.911  35.928  39.831  1.00  0.00    -0.200 F 
ENDBRANCH  24  38
BRANCH  25  49
ATOM     49  C   UNL A   1      40.901  27.801  28.444  1.00  0.00     0.064 A 
ATOM     50  C   UNL A   1      41.723  28.263  27.409  1.00  0.00     0.173 A 
ATOM     51  C   UNL A   1      40.283  26.552  28.280  1.00  0.00     0.173 A 
ATOM     52  F   UNL A   1      42.321  29.460  27.512  1.00  0.00    -0.203 F 
ATOM     53  C   UNL A   1      41.906  27.514  26.248  1.00  0.00     0.198 A 
ATOM     54  C   UNL A   1      40.491  25.790  27.133  1.00  0.00     0.198 A 
ATOM     55  F   UNL A   1      39.489  26.063  29.244  1.00  0.00    -0.203 F 
ATOM     56  F   UNL A   1      42.664  27.999  25.255  1.00  0.00    -0.200 F 
ATOM     57  C   UNL A   1      41.297  26.276  26.114  1.00  0.00     0.200 A 
ATOM     58  F   UNL A   1      39.913  24.588  27.016  1.00  0.00    -0.200 F 
ATOM     59  F   UNL A   1      41.478  25.554  25.001  1.00  0.00    -0.200 F 
ENDBRANCH  25  49
BRANCH  37  60
ATOM     60  C   UNL A   1      44.170  28.133  34.575  1.00  0.00     0.064 A 
ATOM     61  C   UNL A   1      44.026  26.905  35.237  1.00  0.00     0.173 A 
ATOM     62  C   UNL A   1      45.462  28.655  34.423  1.00  0.00     0.173 A 
ATOM     63  F   UNL A   1      42.806  26.379  35.422  1.00  0.00    -0.203 F 
ATOM     64  C   UNL A   1      45.133  26.237  35.749  1.00  0.00     0.198 A 
ATOM     65  C   UNL A   1      46.570  27.971  34.914  1.00  0.00     0.198 A 
ATOM     66  F   UNL A   1      45.651  29.825  33.793  1.00  0.00    -0.203 F 
ATOM     67  F   UNL A   1      44.969  25.089  36.421  1.00  0.00    -0.200 F 
ATOM     68  C   UNL A   1      46.405  26.767  35.582  1.00  0.00     0.200 A 
ATOM     69  F   UNL A   1      47.798  28.478  34.744  1.00  0.00    -0.200 F 
ATOM     70  F   UNL A   1      47.470  26.121  36.076  1.00  0.00    -0.200 F 
ENDBRANCH  37  60
ENDBRANCH  11  12
ENDBRANCH   4   6
ENDBRANCH   1   2
BRANCH   1  71
ATOM     71  C   UNL A   1      31.409  31.781  26.635  1.00  0.00     0.042 C 
BRANCH  71  72
ATOM     72  C   UNL A   1      31.622  30.310  26.322  1.00  0.00     0.118 C 
BRANCH  72  73
ATOM     73  N   UNL A   1      32.486  30.106  25.166  1.00  0.00    -0.352 N 
ATOM     74  C   UNL A   1      32.734  28.968  24.446  1.00  0.00     0.258 C 
ATOM     75  H   UNL A   1      32.964  30.907  24.856  1.00  0.00     0.163 HD
ATOM     76  O   UNL A   1      33.612  28.940  23.591  1.00  0.00    -0.269 OA
BRANCH  74  77
ATOM     77  C   UNL A   1      31.973  27.744  24.745  1.00  0.00     0.119 A 
ATOM     78  C   UNL A   1      32.587  26.860  25.666  1.00  0.00     0.052 A 
ATOM     79  C   UNL A   1      30.674  27.514  24.180  1.00  0.00     0.282 A 
ATOM     80  C   UNL A   1      31.767  25.782  26.029  1.00  0.00     0.093 A 
ATOM     81  C   UNL A   1      29.819  26.444  24.534  1.00  0.00     0.098 A 
ATOM     82  N   UNL A   1      31.991  24.782  26.893  1.00  0.00    -0.176 NA
ATOM     83  C   UNL A   1      30.445  25.631  25.469  1.00  0.00     0.026 A 
ATOM     84  N   UNL A   1      30.865  24.045  26.876  1.00  0.00    -0.285 N 
ATOM     85  C   UNL A   1      29.893  24.522  26.043  1.00  0.00     0.114 A 
ATOM     86  H   UNL A   1      30.751  23.230  27.418  1.00  0.00     0.189 HD
BRANCH  79  87
ATOM     87  N   UNL A   1      30.160  28.448  23.190  1.00  0.00     0.063 N 
ATOM     88  O   UNL A   1      30.278  28.118  22.001  1.00  0.00    -0.258 OA
ATOM     89  O   UNL A   1      29.663  29.503  23.598  1.00  0.00    -0.258 OA
ENDBRANCH  79  87
ENDBRANCH  74  77
ENDBRANCH  72  73
ENDBRANCH  71  72
ENDBRANCH   1  71
TORSDOF 11
ENDMDL
