MODEL 1
REMARK VINA RESULT:     -13.8      0.000      0.000
REMARK SMILES O=C(CCn1cc(/C=C2/[NH+]=C(S)N(c3ccccc3)C2=O)c(-c2ccc(Br)cc2)n1)NCCCNC(=O)c1ccc(-c2c3nc(c(-c4c(F)c(F)c(F)c(F)c4F)c4ccc([nH]4)c(-c4c(F)c(F)c(F)c(F)c4F)c4nc(c(-c5c(F)c(F)c(F)c(F)c5F)c5ccc2[nH]5)C=C4)C=C3)cc1
REMARK SMILES IDX 32 1 31 2 1 3 2 4 3 6 4 7 5 8 6 9 30 10 7 11 22 12 8 13 9 14
REMARK SMILES IDX 10 15 20 16 11 17 13 19 21 20 12 21 14 23 15 24 19 25 16 26
REMARK SMILES IDX 18 27 17 28 23 29 24 30 29 31 25 32 28 33 26 34 27 35 33 36
REMARK SMILES IDX 34 37 35 38 36 39 37 41 38 42 39 43 100 44 40 45 99 46 41 47
REMARK SMILES IDX 42 48 43 49 93 50 44 51 98 52 92 53 94 54 45 55 97 56 91 57
REMARK SMILES IDX 90 58 46 60 78 61 58 62 77 63 59 64 62 65 76 66 95 67 60 68
REMARK SMILES IDX 61 69 75 71 96 72 63 73 47 74 48 75 56 76 49 77 50 78 54 79
REMARK SMILES IDX 57 80 51 81 52 82 55 83 53 84 79 85 80 86 88 87 81 88 82 89
REMARK SMILES IDX 86 90 89 91 83 92 84 93 87 94 85 95 64 96 65 97 73 98 66 99
REMARK SMILES IDX 67 100 71 101 74 102 68 103 69 104 72 105 70 106
REMARK H PARENT 31 5 10 18 12 22 35 40 94 59 62 70
REMARK Flexibility Score: inf
ROOT
ATOM      1  C   UNL A   1      36.547  33.612  29.268  1.00  0.00     0.117 C 
ENDROOT
BRANCH   1   2
ATOM      2  N   UNL A   1      35.647  33.208  28.201  1.00  0.00    -0.356 N 
ATOM      3  O   UNL A   1      34.292  31.843  29.439  1.00  0.00    -0.275 OA
ATOM      4  C   UNL A   1      34.572  32.372  28.367  1.00  0.00     0.221 C 
ATOM      5  H   UNL A   1      35.820  33.557  27.298  1.00  0.00     0.163 HD
BRANCH   4   6
ATOM      6  C   UNL A   1      33.798  32.048  27.099  1.00  0.00     0.123 C 
BRANCH   6   7
ATOM      7  C   UNL A   1      32.406  31.476  27.325  1.00  0.00     0.154 C 
BRANCH   7   8
ATOM      8  N   UNL A   1      32.181  30.153  26.767  1.00  0.00    -0.271 N 
ATOM      9  C   UNL A   1      31.795  28.999  27.399  1.00  0.00     0.117 A 
ATOM     10  N   UNL A   1      32.483  29.965  25.476  1.00  0.00    -0.172 NA
ATOM     11  C   UNL A   1      31.775  28.013  26.426  1.00  0.00     0.025 A 
ATOM     12  C   UNL A   1      32.150  28.695  25.222  1.00  0.00     0.100 A 
BRANCH  11  13
ATOM     13  C   UNL A   1      31.344  26.651  26.626  1.00  0.00     0.072 C 
ATOM     14  C   UNL A   1      31.964  25.488  26.328  1.00  0.00     0.217 C 
ATOM     15  N   UNL A   1      31.408  24.232  26.398  1.00  0.00    -0.228 N 
ATOM     16  C   UNL A   1      33.404  25.320  25.972  1.00  0.00     0.386 C 
ATOM     17  C   UNL A   1      32.349  23.430  25.980  1.00  0.00     0.321 C 
ATOM     18  H   UNL A   1      30.501  23.992  26.698  1.00  0.00     0.313 HD
ATOM     19  N   UNL A   1      33.531  24.007  25.605  1.00  0.00    -0.149 N 
ATOM     20  O   UNL A   1      34.252  26.170  26.181  1.00  0.00    -0.236 OA
BRANCH  17  21
ATOM     21  S   UNL A   1      32.073  21.717  26.040  1.00  0.00    -0.055 SA
ATOM     22  H   UNL A   1      32.652  21.126  24.960  1.00  0.00     0.116 HD
ENDBRANCH  17  21
BRANCH  19  23
ATOM     23  C   UNL A   1      34.735  23.463  25.059  1.00  0.00     0.137 A 
ATOM     24  C   UNL A   1      35.047  23.494  23.694  1.00  0.00     0.052 A 
ATOM     25  C   UNL A   1      35.716  22.914  25.901  1.00  0.00     0.052 A 
ATOM     26  C   UNL A   1      36.223  22.895  23.202  1.00  0.00     0.004 A 
ATOM     27  C   UNL A   1      36.874  22.299  25.423  1.00  0.00     0.004 A 
ATOM     28  C   UNL A   1      37.119  22.271  24.063  1.00  0.00     0.000 A 
ENDBRANCH  19  23
ENDBRANCH  11  13
BRANCH  12  29
ATOM     29  C   UNL A   1      32.222  28.171  23.863  1.00  0.00     0.003 A 
ATOM     30  C   UNL A   1      31.056  27.709  23.238  1.00  0.00     0.011 A 
ATOM     31  C   UNL A   1      33.475  27.924  23.275  1.00  0.00     0.011 A 
ATOM     32  C   UNL A   1      31.144  26.925  22.087  1.00  0.00     0.016 A 
ATOM     33  C   UNL A   1      33.560  27.132  22.126  1.00  0.00     0.016 A 
ATOM     34  C   UNL A   1      32.394  26.636  21.542  1.00  0.00     0.018 A 
ATOM     35  Br  UNL A   1      32.505  25.526  20.016  1.00  0.00    -0.051 Br
ENDBRANCH  12  29
ENDBRANCH   7   8
ENDBRANCH   6   7
ENDBRANCH   4   6
ENDBRANCH   1   2
BRANCH   1  36
ATOM     36  C   UNL A   1      37.980  33.146  29.014  1.00  0.00     0.042 C 
BRANCH  36  37
ATOM     37  C   UNL A   1      38.215  31.726  29.477  1.00  0.00     0.118 C 
BRANCH  37  38
ATOM     38  N   UNL A   1      37.291  30.744  28.909  1.00  0.00    -0.352 N 
ATOM     39  C   UNL A   1      37.624  29.789  27.953  1.00  0.00     0.251 C 
ATOM     40  H   UNL A   1      36.360  30.761  29.227  1.00  0.00     0.163 HD
ATOM     41  O   UNL A   1      36.823  29.437  27.084  1.00  0.00    -0.269 OA
BRANCH  39  42
ATOM     42  C   UNL A   1      38.940  29.103  28.106  1.00  0.00     0.039 A 
ATOM     43  C   UNL A   1      39.428  28.408  29.208  1.00  0.00     0.014 A 
ATOM     44  C   UNL A   1      39.835  29.288  27.076  1.00  0.00     0.014 A 
ATOM     45  C   UNL A   1      40.787  27.948  29.174  1.00  0.00     0.010 A 
ATOM     46  C   UNL A   1      40.853  28.414  26.884  1.00  0.00     0.010 A 
ATOM     47  C   UNL A   1      41.588  28.092  27.994  1.00  0.00    -0.014 A 
BRANCH  47  48
ATOM     48  C   UNL A   1      42.803  27.295  27.591  1.00  0.00     0.031 A 
ATOM     49  C   UNL A   1      42.261  25.864  27.496  1.00  0.00     0.074 A 
ATOM     50  C   UNL A   1      44.065  27.760  27.192  1.00  0.00     0.049 A 
ATOM     51  N   UNL A   1      42.263  25.025  28.487  1.00  0.00    -0.248 NA
ATOM     52  C   UNL A   1      41.269  25.415  26.464  1.00  0.00     0.031 C 
ATOM     53  C   UNL A   1      44.629  29.136  27.076  1.00  0.00     0.029 A 
ATOM     54  N   UNL A   1      45.231  27.050  26.819  1.00  0.00    -0.354 N 
ATOM     55  C   UNL A   1      41.725  23.841  27.979  1.00  0.00     0.074 A 
ATOM     56  C   UNL A   1      40.842  24.239  26.941  1.00  0.00     0.031 C 
ATOM     57  C   UNL A   1      45.817  29.170  26.394  1.00  0.00     0.029 A 
ATOM     58  C   UNL A   1      46.269  27.816  26.137  1.00  0.00     0.049 A 
ATOM     59  H   UNL A   1      45.336  26.090  27.010  1.00  0.00     0.167 HD
ATOM     60  C   UNL A   1      42.474  22.705  28.091  1.00  0.00     0.037 A 
ATOM     61  C   UNL A   1      47.504  27.384  25.649  1.00  0.00     0.037 A 
ATOM     62  C   UNL A   1      43.485  22.940  29.098  1.00  0.00     0.049 A 
ATOM     63  C   UNL A   1      47.733  26.069  26.282  1.00  0.00     0.074 A 
ATOM     64  C   UNL A   1      43.475  23.187  30.457  1.00  0.00     0.029 A 
ATOM     65  N   UNL A   1      44.552  23.629  28.582  1.00  0.00    -0.354 N 
ATOM     66  N   UNL A   1      47.934  25.944  27.563  1.00  0.00    -0.248 NA
ATOM     67  C   UNL A   1      47.105  24.955  25.593  1.00  0.00     0.031 C 
ATOM     68  C   UNL A   1      44.514  24.138  30.700  1.00  0.00     0.029 A 
ATOM     69  C   UNL A   1      45.263  24.280  29.538  1.00  0.00     0.049 A 
ATOM     70  H   UNL A   1      44.777  23.649  27.624  1.00  0.00     0.167 HD
ATOM     71  C   UNL A   1      47.007  24.988  27.930  1.00  0.00     0.074 A 
ATOM     72  C   UNL A   1      46.560  24.375  26.665  1.00  0.00     0.031 C 
ATOM     73  C   UNL A   1      46.423  25.039  29.166  1.00  0.00     0.037 A 
BRANCH  60  74
ATOM     74  C   UNL A   1      42.727  21.705  26.968  1.00  0.00     0.064 A 
ATOM     75  C   UNL A   1      42.292  20.376  27.152  1.00  0.00     0.173 A 
ATOM     76  C   UNL A   1      43.604  21.895  25.872  1.00  0.00     0.173 A 
ATOM     77  F   UNL A   1      41.487  20.063  28.178  1.00  0.00    -0.203 F 
ATOM     78  C   UNL A   1      42.726  19.325  26.333  1.00  0.00     0.198 A 
ATOM     79  C   UNL A   1      43.996  20.853  25.028  1.00  0.00     0.198 A 
ATOM     80  F   UNL A   1      44.202  23.062  25.622  1.00  0.00    -0.203 F 
ATOM     81  F   UNL A   1      42.357  18.068  26.612  1.00  0.00    -0.200 F 
ATOM     82  C   UNL A   1      43.574  19.565  25.269  1.00  0.00     0.200 A 
ATOM     83  F   UNL A   1      44.845  21.104  24.020  1.00  0.00    -0.200 F 
ATOM     84  F   UNL A   1      44.013  18.559  24.502  1.00  0.00    -0.200 F 
ENDBRANCH  60  74
BRANCH  61  85
ATOM     85  C   UNL A   1      48.313  27.698  24.387  1.00  0.00     0.064 A 
ATOM     86  C   UNL A   1      49.708  27.450  24.182  1.00  0.00     0.173 A 
ATOM     87  C   UNL A   1      47.595  27.922  23.204  1.00  0.00     0.173 A 
ATOM     88  F   UNL A   1      50.507  27.129  25.213  1.00  0.00    -0.203 F 
ATOM     89  C   UNL A   1      50.308  27.460  22.894  1.00  0.00     0.198 A 
ATOM     90  C   UNL A   1      48.185  27.907  21.929  1.00  0.00     0.198 A 
ATOM     91  F   UNL A   1      46.264  28.053  23.261  1.00  0.00    -0.203 F 
ATOM     92  F   UNL A   1      51.619  27.203  22.738  1.00  0.00    -0.200 F 
ATOM     93  C   UNL A   1      49.538  27.679  21.768  1.00  0.00     0.200 A 
ATOM     94  F   UNL A   1      47.407  28.054  20.847  1.00  0.00    -0.200 F 
ATOM     95  F   UNL A   1      50.076  27.631  20.538  1.00  0.00    -0.200 F 
ENDBRANCH  61  85
BRANCH  73  96
ATOM     96  C   UNL A   1      47.043  25.899  30.225  1.00  0.00     0.064 A 
ATOM     97  C   UNL A   1      48.337  25.781  30.762  1.00  0.00     0.173 A 
ATOM     98  C   UNL A   1      46.279  27.002  30.617  1.00  0.00     0.173 A 
ATOM     99  F   UNL A   1      49.170  24.812  30.356  1.00  0.00    -0.203 F 
ATOM    100  C   UNL A   1      48.811  26.708  31.697  1.00  0.00     0.198 A 
ATOM    101  C   UNL A   1      46.762  27.938  31.517  1.00  0.00     0.198 A 
ATOM    102  F   UNL A   1      45.068  27.197  30.073  1.00  0.00    -0.203 F 
ATOM    103  F   UNL A   1      50.043  26.583  32.215  1.00  0.00    -0.200 F 
ATOM    104  C   UNL A   1      48.019  27.782  32.075  1.00  0.00     0.200 A 
ATOM    105  F   UNL A   1      46.012  29.005  31.819  1.00  0.00    -0.200 F 
ATOM    106  F   UNL A   1      48.468  28.680  32.962  1.00  0.00    -0.200 F 
ENDBRANCH  73  96
ENDBRANCH  47  48
ENDBRANCH  39  42
ENDBRANCH  37  38
ENDBRANCH  36  37
ENDBRANCH   1  36
TORSDOF 16
ENDMDL
MODEL 2
REMARK VINA RESULT:     -13.1      6.282     12.929
REMARK SMILES O=C(CCn1cc(/C=C2/[NH+]=C(S)N(c3ccccc3)C2=O)c(-c2ccc(Br)cc2)n1)NCCCNC(=O)c1ccc(-c2c3nc(c(-c4c(F)c(F)c(F)c(F)c4F)c4ccc([nH]4)c(-c4c(F)c(F)c(F)c(F)c4F)c4nc(c(-c5c(F)c(F)c(F)c(F)c5F)c5ccc2[nH]5)C=C4)C=C3)cc1
REMARK SMILES IDX 32 1 31 2 1 3 2 4 3 6 4 7 5 8 6 9 30 10 7 11 22 12 8 13 9 14
REMARK SMILES IDX 10 15 20 16 11 17 13 19 21 20 12 21 14 23 15 24 19 25 16 26
REMARK SMILES IDX 18 27 17 28 23 29 24 30 29 31 25 32 28 33 26 34 27 35 33 36
REMARK SMILES IDX 34 37 35 38 36 39 37 41 38 42 39 43 100 44 40 45 99 46 41 47
REMARK SMILES IDX 42 48 43 49 93 50 44 51 98 52 92 53 94 54 45 55 97 56 91 57
REMARK SMILES IDX 90 58 46 60 78 61 58 62 77 63 59 64 62 65 76 66 95 67 60 68
REMARK SMILES IDX 61 69 75 71 96 72 63 73 47 74 48 75 56 76 49 77 50 78 54 79
REMARK SMILES IDX 57 80 51 81 52 82 55 83 53 84 79 85 80 86 88 87 81 88 82 89
REMARK SMILES IDX 86 90 89 91 83 92 84 93 87 94 85 95 64 96 65 97 73 98 66 99
REMARK SMILES IDX 67 100 71 101 74 102 68 103 69 104 72 105 70 106
REMARK H PARENT 31 5 10 18 12 22 35 40 94 59 62 70
REMARK Flexibility Score: inf
ROOT
ATOM      1  C   UNL A   1      44.223  32.373  26.446  1.00  0.00     0.117 C 
ENDROOT
BRANCH   1   2
ATOM      2  N   UNL A   1      44.894  31.122  26.133  1.00  0.00    -0.356 N 
ATOM      3  O   UNL A   1      46.035  30.882  28.101  1.00  0.00    -0.275 OA
ATOM      4  C   UNL A   1      45.732  30.456  26.991  1.00  0.00     0.221 C 
ATOM      5  H   UNL A   1      44.736  30.726  25.247  1.00  0.00     0.163 HD
BRANCH   4   6
ATOM      6  C   UNL A   1      46.361  29.189  26.432  1.00  0.00     0.123 C 
BRANCH   6   7
ATOM      7  C   UNL A   1      46.832  28.189  27.479  1.00  0.00     0.154 C 
BRANCH   7   8
ATOM      8  N   UNL A   1      45.781  27.403  28.103  1.00  0.00    -0.271 N 
ATOM      9  C   UNL A   1      44.585  26.984  27.579  1.00  0.00     0.117 A 
ATOM     10  N   UNL A   1      45.911  27.115  29.404  1.00  0.00    -0.172 NA
ATOM     11  C   UNL A   1      43.932  26.311  28.599  1.00  0.00     0.025 A 
ATOM     12  C   UNL A   1      44.845  26.367  29.703  1.00  0.00     0.100 A 
BRANCH  11  13
ATOM     13  C   UNL A   1      42.668  25.626  28.473  1.00  0.00     0.072 C 
ATOM     14  C   UNL A   1      42.368  24.456  27.866  1.00  0.00     0.217 C 
ATOM     15  N   UNL A   1      41.106  23.959  27.646  1.00  0.00    -0.228 N 
ATOM     16  C   UNL A   1      43.342  23.420  27.415  1.00  0.00     0.386 C 
ATOM     17  C   UNL A   1      41.298  22.841  26.998  1.00  0.00     0.321 C 
ATOM     18  H   UNL A   1      40.246  24.356  27.918  1.00  0.00     0.313 HD
ATOM     19  N   UNL A   1      42.594  22.502  26.726  1.00  0.00    -0.149 N 
ATOM     20  O   UNL A   1      44.501  23.376  27.790  1.00  0.00    -0.236 OA
BRANCH  17  21
ATOM     21  S   UNL A   1      39.929  21.836  26.643  1.00  0.00    -0.055 SA
ATOM     22  H   UNL A   1      38.825  22.614  26.480  1.00  0.00     0.116 HD
ENDBRANCH  17  21
BRANCH  19  23
ATOM     23  C   UNL A   1      43.171  21.407  26.008  1.00  0.00     0.137 A 
ATOM     24  C   UNL A   1      42.751  20.080  26.156  1.00  0.00     0.052 A 
ATOM     25  C   UNL A   1      44.171  21.632  25.048  1.00  0.00     0.052 A 
ATOM     26  C   UNL A   1      43.389  19.032  25.465  1.00  0.00     0.004 A 
ATOM     27  C   UNL A   1      44.825  20.600  24.374  1.00  0.00     0.004 A 
ATOM     28  C   UNL A   1      44.446  19.291  24.599  1.00  0.00     0.000 A 
ENDBRANCH  19  23
ENDBRANCH  11  13
BRANCH  12  29
ATOM     29  C   UNL A   1      44.718  25.756  31.022  1.00  0.00     0.003 A 
ATOM     30  C   UNL A   1      44.696  24.360  31.137  1.00  0.00     0.011 A 
ATOM     31  C   UNL A   1      44.398  26.555  32.134  1.00  0.00     0.011 A 
ATOM     32  C   UNL A   1      44.264  23.764  32.322  1.00  0.00     0.016 A 
ATOM     33  C   UNL A   1      43.958  25.955  33.317  1.00  0.00     0.016 A 
ATOM     34  C   UNL A   1      43.892  24.564  33.402  1.00  0.00     0.018 A 
ATOM     35  Br  UNL A   1      43.255  23.747  34.983  1.00  0.00    -0.051 Br
ENDBRANCH  12  29
ENDBRANCH   7   8
ENDBRANCH   6   7
ENDBRANCH   4   6
ENDBRANCH   1   2
BRANCH   1  36
ATOM     36  C   UNL A   1      44.335  33.382  25.304  1.00  0.00     0.042 C 
BRANCH  36  37
ATOM     37  C   UNL A   1      44.885  34.714  25.762  1.00  0.00     0.118 C 
BRANCH  37  38
ATOM     38  N   UNL A   1      46.058  34.616  26.632  1.00  0.00    -0.352 N 
ATOM     39  C   UNL A   1      46.168  35.191  27.896  1.00  0.00     0.251 C 
ATOM     40  H   UNL A   1      46.829  34.105  26.298  1.00  0.00     0.163 HD
ATOM     41  O   UNL A   1      47.241  35.631  28.314  1.00  0.00    -0.269 OA
BRANCH  39  42
ATOM     42  C   UNL A   1      44.968  35.126  28.780  1.00  0.00     0.039 A 
ATOM     43  C   UNL A   1      43.998  36.100  28.991  1.00  0.00     0.014 A 
ATOM     44  C   UNL A   1      44.877  34.012  29.585  1.00  0.00     0.014 A 
ATOM     45  C   UNL A   1      43.005  35.863  30.000  1.00  0.00     0.010 A 
ATOM     46  C   UNL A   1      43.682  33.628  30.094  1.00  0.00     0.010 A 
ATOM     47  C   UNL A   1      42.936  34.610  30.691  1.00  0.00    -0.014 A 
BRANCH  47  48
ATOM     48  C   UNL A   1      41.751  33.998  31.395  1.00  0.00     0.031 A 
ATOM     49  C   UNL A   1      42.295  33.710  32.799  1.00  0.00     0.074 A 
ATOM     50  C   UNL A   1      40.422  33.906  30.957  1.00  0.00     0.049 A 
ATOM     51  N   UNL A   1      42.849  32.586  33.141  1.00  0.00    -0.248 NA
ATOM     52  C   UNL A   1      42.689  34.779  33.776  1.00  0.00     0.031 C 
ATOM     53  C   UNL A   1      39.760  34.321  29.686  1.00  0.00     0.029 A 
ATOM     54  N   UNL A   1      39.287  33.332  31.577  1.00  0.00    -0.354 N 
ATOM     55  C   UNL A   1      43.166  32.719  34.494  1.00  0.00     0.074 A 
ATOM     56  C   UNL A   1      43.391  34.107  34.697  1.00  0.00     0.031 C 
ATOM     57  C   UNL A   1      38.392  34.295  29.763  1.00  0.00     0.029 A 
ATOM     58  C   UNL A   1      37.988  33.694  31.019  1.00  0.00     0.049 A 
ATOM     59  H   UNL A   1      39.369  32.721  32.345  1.00  0.00     0.167 HD
ATOM     60  C   UNL A   1      42.667  31.787  35.358  1.00  0.00     0.037 A 
ATOM     61  C   UNL A   1      36.713  33.295  31.428  1.00  0.00     0.037 A 
ATOM     62  C   UNL A   1      42.262  30.638  34.580  1.00  0.00     0.049 A 
ATOM     63  C   UNL A   1      36.935  32.133  32.313  1.00  0.00     0.074 A 
ATOM     64  C   UNL A   1      42.916  29.706  33.796  1.00  0.00     0.029 A 
ATOM     65  N   UNL A   1      41.026  30.824  34.019  1.00  0.00    -0.354 N 
ATOM     66  N   UNL A   1      37.398  31.001  31.864  1.00  0.00    -0.248 NA
ATOM     67  C   UNL A   1      37.236  32.478  33.691  1.00  0.00     0.031 C 
ATOM     68  C   UNL A   1      42.053  29.438  32.689  1.00  0.00     0.029 A 
ATOM     69  C   UNL A   1      40.823  30.035  32.933  1.00  0.00     0.049 A 
ATOM     70  H   UNL A   1      40.360  31.461  34.364  1.00  0.00     0.167 HD
ATOM     71  C   UNL A   1      38.463  30.747  32.707  1.00  0.00     0.074 A 
ATOM     72  C   UNL A   1      38.283  31.664  33.848  1.00  0.00     0.031 C 
ATOM     73  C   UNL A   1      39.571  30.097  32.235  1.00  0.00     0.037 A 
BRANCH  60  74
ATOM     74  C   UNL A   1      41.981  32.098  36.684  1.00  0.00     0.064 A 
ATOM     75  C   UNL A   1      40.846  32.936  36.664  1.00  0.00     0.173 A 
ATOM     76  C   UNL A   1      42.523  31.866  37.971  1.00  0.00     0.173 A 
ATOM     77  F   UNL A   1      40.263  33.260  35.500  1.00  0.00    -0.203 F 
ATOM     78  C   UNL A   1      40.325  33.520  37.827  1.00  0.00     0.198 A 
ATOM     79  C   UNL A   1      41.972  32.410  39.133  1.00  0.00     0.198 A 
ATOM     80  F   UNL A   1      43.661  31.194  38.163  1.00  0.00    -0.203 F 
ATOM     81  F   UNL A   1      39.306  34.385  37.738  1.00  0.00    -0.200 F 
ATOM     82  C   UNL A   1      40.885  33.253  39.061  1.00  0.00     0.200 A 
ATOM     83  F   UNL A   1      42.551  32.163  40.318  1.00  0.00    -0.200 F 
ATOM     84  F   UNL A   1      40.407  33.831  40.170  1.00  0.00    -0.200 F 
ENDBRANCH  60  74
BRANCH  61  85
ATOM     85  C   UNL A   1      35.366  34.015  31.550  1.00  0.00     0.064 A 
ATOM     86  C   UNL A   1      34.998  34.977  32.544  1.00  0.00     0.173 A 
ATOM     87  C   UNL A   1      34.535  34.014  30.421  1.00  0.00     0.173 A 
ATOM     88  F   UNL A   1      35.754  35.157  33.639  1.00  0.00    -0.203 F 
ATOM     89  C   UNL A   1      33.872  35.833  32.403  1.00  0.00     0.198 A 
ATOM     90  C   UNL A   1      33.437  34.878  30.272  1.00  0.00     0.198 A 
ATOM     91  F   UNL A   1      34.847  33.237  29.377  1.00  0.00    -0.203 F 
ATOM     92  F   UNL A   1      33.568  36.739  33.349  1.00  0.00    -0.200 F 
ATOM     93  C   UNL A   1      33.100  35.786  31.258  1.00  0.00     0.200 A 
ATOM     94  F   UNL A   1      32.744  34.862  29.125  1.00  0.00    -0.200 F 
ATOM     95  F   UNL A   1      32.070  36.629  31.080  1.00  0.00    -0.200 F 
ENDBRANCH  61  85
BRANCH  73  96
ATOM     96  C   UNL A   1      39.479  29.362  30.932  1.00  0.00     0.064 A 
ATOM     97  C   UNL A   1      39.871  29.830  29.666  1.00  0.00     0.173 A 
ATOM     98  C   UNL A   1      39.070  28.029  31.030  1.00  0.00     0.173 A 
ATOM     99  F   UNL A   1      40.375  31.062  29.508  1.00  0.00    -0.203 F 
ATOM    100  C   UNL A   1      39.796  29.000  28.541  1.00  0.00     0.198 A 
ATOM    101  C   UNL A   1      39.028  27.198  29.923  1.00  0.00     0.198 A 
ATOM    102  F   UNL A   1      38.760  27.517  32.231  1.00  0.00    -0.203 F 
ATOM    103  F   UNL A   1      40.160  29.457  27.332  1.00  0.00    -0.200 F 
ATOM    104  C   UNL A   1      39.371  27.686  28.674  1.00  0.00     0.200 A 
ATOM    105  F   UNL A   1      38.681  25.914  30.078  1.00  0.00    -0.200 F 
ATOM    106  F   UNL A   1      39.305  26.882  27.604  1.00  0.00    -0.200 F 
ENDBRANCH  73  96
ENDBRANCH  47  48
ENDBRANCH  39  42
ENDBRANCH  37  38
ENDBRANCH  36  37
ENDBRANCH   1  36
TORSDOF 16
ENDMDL
MODEL 3
REMARK VINA RESULT:     -13.0      5.033      9.543
REMARK SMILES O=C(CCn1cc(/C=C2/[NH+]=C(S)N(c3ccccc3)C2=O)c(-c2ccc(Br)cc2)n1)NCCCNC(=O)c1ccc(-c2c3nc(c(-c4c(F)c(F)c(F)c(F)c4F)c4ccc([nH]4)c(-c4c(F)c(F)c(F)c(F)c4F)c4nc(c(-c5c(F)c(F)c(F)c(F)c5F)c5ccc2[nH]5)C=C4)C=C3)cc1
REMARK SMILES IDX 32 1 31 2 1 3 2 4 3 6 4 7 5 8 6 9 30 10 7 11 22 12 8 13 9 14
REMARK SMILES IDX 10 15 20 16 11 17 13 19 21 20 12 21 14 23 15 24 19 25 16 26
REMARK SMILES IDX 18 27 17 28 23 29 24 30 29 31 25 32 28 33 26 34 27 35 33 36
REMARK SMILES IDX 34 37 35 38 36 39 37 41 38 42 39 43 100 44 40 45 99 46 41 47
REMARK SMILES IDX 42 48 43 49 93 50 44 51 98 52 92 53 94 54 45 55 97 56 91 57
REMARK SMILES IDX 90 58 46 60 78 61 58 62 77 63 59 64 62 65 76 66 95 67 60 68
REMARK SMILES IDX 61 69 75 71 96 72 63 73 47 74 48 75 56 76 49 77 50 78 54 79
REMARK SMILES IDX 57 80 51 81 52 82 55 83 53 84 79 85 80 86 88 87 81 88 82 89
REMARK SMILES IDX 86 90 89 91 83 92 84 93 87 94 85 95 64 96 65 97 73 98 66 99
REMARK SMILES IDX 67 100 71 101 74 102 68 103 69 104 72 105 70 106
REMARK H PARENT 31 5 10 18 12 22 35 40 94 59 62 70
REMARK Flexibility Score: inf
ROOT
ATOM      1  C   UNL A   1      33.614  35.564  28.823  1.00  0.00     0.117 C 
ENDROOT
BRANCH   1   2
ATOM      2  N   UNL A   1      33.909  35.417  30.238  1.00  0.00    -0.356 N 
ATOM      3  O   UNL A   1      32.665  37.179  30.999  1.00  0.00    -0.275 OA
ATOM      4  C   UNL A   1      33.396  36.218  31.226  1.00  0.00     0.221 C 
ATOM      5  H   UNL A   1      34.517  34.692  30.507  1.00  0.00     0.163 HD
BRANCH   4   6
ATOM      6  C   UNL A   1      33.881  35.909  32.633  1.00  0.00     0.123 C 
BRANCH   6   7
ATOM      7  C   UNL A   1      33.985  34.427  32.966  1.00  0.00     0.154 C 
BRANCH   7   8
ATOM      8  N   UNL A   1      35.333  33.887  32.975  1.00  0.00    -0.271 N 
ATOM      9  C   UNL A   1      35.922  33.041  33.880  1.00  0.00     0.117 A 
ATOM     10  N   UNL A   1      36.188  34.334  32.046  1.00  0.00    -0.172 NA
ATOM     11  C   UNL A   1      37.231  32.874  33.457  1.00  0.00     0.025 A 
ATOM     12  C   UNL A   1      37.320  33.656  32.259  1.00  0.00     0.100 A 
BRANCH  11  13
ATOM     13  C   UNL A   1      38.200  31.995  34.066  1.00  0.00     0.072 C 
ATOM     14  C   UNL A   1      39.251  32.278  34.866  1.00  0.00     0.217 C 
ATOM     15  N   UNL A   1      40.226  31.394  35.266  1.00  0.00    -0.228 N 
ATOM     16  C   UNL A   1      39.506  33.571  35.567  1.00  0.00     0.386 C 
ATOM     17  C   UNL A   1      41.049  32.110  35.983  1.00  0.00     0.321 C 
ATOM     18  H   UNL A   1      40.289  30.433  35.058  1.00  0.00     0.313 HD
ATOM     19  N   UNL A   1      40.751  33.438  36.122  1.00  0.00    -0.149 N 
ATOM     20  O   UNL A   1      38.656  34.429  35.726  1.00  0.00    -0.236 OA
BRANCH  17  21
ATOM     21  S   UNL A   1      42.367  31.315  36.784  1.00  0.00    -0.055 SA
ATOM     22  H   UNL A   1      43.257  32.245  37.226  1.00  0.00     0.116 HD
ENDBRANCH  17  21
BRANCH  19  23
ATOM     23  C   UNL A   1      41.433  34.513  36.773  1.00  0.00     0.137 A 
ATOM     24  C   UNL A   1      42.297  35.393  36.110  1.00  0.00     0.052 A 
ATOM     25  C   UNL A   1      41.211  34.778  38.134  1.00  0.00     0.052 A 
ATOM     26  C   UNL A   1      42.986  36.402  36.809  1.00  0.00     0.004 A 
ATOM     27  C   UNL A   1      41.904  35.762  38.841  1.00  0.00     0.004 A 
ATOM     28  C   UNL A   1      42.813  36.565  38.180  1.00  0.00     0.000 A 
ENDBRANCH  19  23
ENDBRANCH  11  13
BRANCH  12  29
ATOM     29  C   UNL A   1      38.445  33.793  31.341  1.00  0.00     0.003 A 
ATOM     30  C   UNL A   1      39.754  33.764  31.843  1.00  0.00     0.011 A 
ATOM     31  C   UNL A   1      38.217  34.174  30.007  1.00  0.00     0.011 A 
ATOM     32  C   UNL A   1      40.815  34.203  31.052  1.00  0.00     0.016 A 
ATOM     33  C   UNL A   1      39.282  34.621  29.219  1.00  0.00     0.016 A 
ATOM     34  C   UNL A   1      40.573  34.634  29.748  1.00  0.00     0.018 A 
ATOM     35  Br  UNL A   1      42.010  35.280  28.704  1.00  0.00    -0.051 Br
ENDBRANCH  12  29
ENDBRANCH   7   8
ENDBRANCH   6   7
ENDBRANCH   4   6
ENDBRANCH   1   2
BRANCH   1  36
ATOM     36  C   UNL A   1      34.283  34.476  27.984  1.00  0.00     0.042 C 
BRANCH  36  37
ATOM     37  C   UNL A   1      34.816  33.341  28.829  1.00  0.00     0.118 C 
BRANCH  37  38
ATOM     38  N   UNL A   1      34.106  32.074  28.656  1.00  0.00    -0.352 N 
ATOM     39  C   UNL A   1      34.667  30.902  28.155  1.00  0.00     0.251 C 
ATOM     40  H   UNL A   1      33.157  32.047  28.913  1.00  0.00     0.163 HD
ATOM     41  O   UNL A   1      34.014  30.117  27.464  1.00  0.00    -0.269 OA
BRANCH  39  42
ATOM     42  C   UNL A   1      36.049  30.564  28.602  1.00  0.00     0.039 A 
ATOM     43  C   UNL A   1      36.637  30.799  29.841  1.00  0.00     0.014 A 
ATOM     44  C   UNL A   1      36.891  30.072  27.629  1.00  0.00     0.014 A 
ATOM     45  C   UNL A   1      38.034  30.509  29.997  1.00  0.00     0.010 A 
ATOM     46  C   UNL A   1      37.985  29.349  27.968  1.00  0.00     0.010 A 
ATOM     47  C   UNL A   1      38.781  29.882  28.947  1.00  0.00    -0.014 A 
BRANCH  47  48
ATOM     48  C   UNL A   1      40.058  29.088  29.059  1.00  0.00     0.031 A 
ATOM     49  C   UNL A   1      40.187  28.855  30.569  1.00  0.00     0.074 A 
ATOM     50  C   UNL A   1      40.829  28.516  28.036  1.00  0.00     0.049 A 
ATOM     51  N   UNL A   1      40.826  29.653  31.370  1.00  0.00    -0.248 NA
ATOM     52  C   UNL A   1      39.246  27.998  31.364  1.00  0.00     0.031 C 
ATOM     53  C   UNL A   1      40.685  28.532  26.552  1.00  0.00     0.029 A 
ATOM     54  N   UNL A   1      42.034  27.778  28.097  1.00  0.00    -0.354 N 
ATOM     55  C   UNL A   1      40.739  29.068  32.634  1.00  0.00     0.074 A 
ATOM     56  C   UNL A   1      39.522  28.336  32.630  1.00  0.00     0.031 C 
ATOM     57  C   UNL A   1      41.501  27.627  25.926  1.00  0.00     0.029 A 
ATOM     58  C   UNL A   1      42.405  27.036  26.895  1.00  0.00     0.049 A 
ATOM     59  H   UNL A   1      42.594  27.764  28.907  1.00  0.00     0.167 HD
ATOM     60  C   UNL A   1      41.905  28.807  33.295  1.00  0.00     0.037 A 
ATOM     61  C   UNL A   1      43.517  26.222  26.670  1.00  0.00     0.037 A 
ATOM     62  C   UNL A   1      42.947  29.596  32.678  1.00  0.00     0.049 A 
ATOM     63  C   UNL A   1      44.458  26.542  27.764  1.00  0.00     0.074 A 
ATOM     64  C   UNL A   1      43.206  30.948  32.548  1.00  0.00     0.029 A 
ATOM     65  N   UNL A   1      43.421  28.995  31.541  1.00  0.00    -0.354 N 
ATOM     66  N   UNL A   1      45.038  27.704  27.859  1.00  0.00    -0.248 NA
ATOM     67  C   UNL A   1      44.212  25.815  28.998  1.00  0.00     0.031 C 
ATOM     68  C   UNL A   1      43.752  31.127  31.240  1.00  0.00     0.029 A 
ATOM     69  C   UNL A   1      44.012  29.876  30.694  1.00  0.00     0.049 A 
ATOM     70  H   UNL A   1      43.342  28.031  31.359  1.00  0.00     0.167 HD
ATOM     71  C   UNL A   1      44.758  28.084  29.158  1.00  0.00     0.074 A 
ATOM     72  C   UNL A   1      44.292  26.856  29.830  1.00  0.00     0.031 C 
ATOM     73  C   UNL A   1      44.576  29.406  29.461  1.00  0.00     0.037 A 
BRANCH  60  74
ATOM     74  C   UNL A   1      42.245  27.493  33.990  1.00  0.00     0.064 A 
ATOM     75  C   UNL A   1      41.928  27.365  35.359  1.00  0.00     0.173 A 
ATOM     76  C   UNL A   1      43.103  26.487  33.485  1.00  0.00     0.173 A 
ATOM     77  F   UNL A   1      41.153  28.278  35.963  1.00  0.00    -0.203 F 
ATOM     78  C   UNL A   1      42.453  26.341  36.157  1.00  0.00     0.198 A 
ATOM     79  C   UNL A   1      43.586  25.439  34.272  1.00  0.00     0.198 A 
ATOM     80  F   UNL A   1      43.597  26.517  32.244  1.00  0.00    -0.203 F 
ATOM     81  F   UNL A   1      42.196  26.324  37.472  1.00  0.00    -0.200 F 
ATOM     82  C   UNL A   1      43.278  25.375  35.613  1.00  0.00     0.200 A 
ATOM     83  F   UNL A   1      44.410  24.530  33.729  1.00  0.00    -0.200 F 
ATOM     84  F   UNL A   1      43.804  24.412  36.379  1.00  0.00    -0.200 F 
ENDBRANCH  60  74
BRANCH  61  85
ATOM     85  C   UNL A   1      43.727  24.893  25.939  1.00  0.00     0.064 A 
ATOM     86  C   UNL A   1      44.830  24.547  25.095  1.00  0.00     0.173 A 
ATOM     87  C   UNL A   1      42.983  23.792  26.385  1.00  0.00     0.173 A 
ATOM     88  F   UNL A   1      45.687  25.488  24.665  1.00  0.00    -0.203 F 
ATOM     89  C   UNL A   1      45.122  23.207  24.724  1.00  0.00     0.198 A 
ATOM     90  C   UNL A   1      43.287  22.465  26.038  1.00  0.00     0.198 A 
ATOM     91  F   UNL A   1      41.998  23.982  27.270  1.00  0.00    -0.203 F 
ATOM     92  F   UNL A   1      46.179  22.918  23.945  1.00  0.00    -0.200 F 
ATOM     93  C   UNL A   1      44.351  22.167  25.208  1.00  0.00     0.200 A 
ATOM     94  F   UNL A   1      42.569  21.468  26.573  1.00  0.00    -0.200 F 
ATOM     95  F   UNL A   1      44.649  20.889  24.919  1.00  0.00    -0.200 F 
ENDBRANCH  61  85
BRANCH  73  96
ATOM     96  C   UNL A   1      45.027  30.443  28.478  1.00  0.00     0.064 A 
ATOM     97  C   UNL A   1      44.245  31.077  27.496  1.00  0.00     0.173 A 
ATOM     98  C   UNL A   1      46.337  30.900  28.655  1.00  0.00     0.173 A 
ATOM     99  F   UNL A   1      42.950  30.770  27.337  1.00  0.00    -0.203 F 
ATOM    100  C   UNL A   1      44.786  32.088  26.693  1.00  0.00     0.198 A 
ATOM    101  C   UNL A   1      46.860  31.923  27.883  1.00  0.00     0.198 A 
ATOM    102  F   UNL A   1      47.094  30.377  29.631  1.00  0.00    -0.203 F 
ATOM    103  F   UNL A   1      44.038  32.681  25.749  1.00  0.00    -0.200 F 
ATOM    104  C   UNL A   1      46.095  32.505  26.888  1.00  0.00     0.200 A 
ATOM    105  F   UNL A   1      48.102  32.361  28.129  1.00  0.00    -0.200 F 
ATOM    106  F   UNL A   1      46.618  33.479  26.130  1.00  0.00    -0.200 F 
ENDBRANCH  73  96
ENDBRANCH  47  48
ENDBRANCH  39  42
ENDBRANCH  37  38
ENDBRANCH  36  37
ENDBRANCH   1  36
TORSDOF 16
ENDMDL
