MODEL 1
REMARK VINA RESULT:     -13.3      0.000      0.000
REMARK SMILES Cc1ccc(NC(=O)NC2CCCC2)cc1/C=C/C(=O)NCCCNC(=O)c1ccc(-c2c3nc(c(-c4c(F)c(F)c(F)c(F)c4F)c4ccc([nH]4)c(-c4c(F)c(F)c(F)c(F)c4F)c4nc(c(-c5c(F)c(F)c(F)c(F)c5F)c5ccc2[nH]5)C=C4)C=C3)cc1
REMARK SMILES IDX 22 1 21 2 19 3 20 4 18 6 17 7 16 8 1 9 2 10 3 11 4 12 15 13
REMARK SMILES IDX 5 14 6 15 7 16 8 18 9 19 10 21 11 22 14 23 12 24 13 25 23 26
REMARK SMILES IDX 24 27 25 28 26 29 27 31 28 32 29 33 90 34 30 35 89 36 31 37
REMARK SMILES IDX 32 38 33 39 83 40 34 41 88 42 82 43 84 44 35 45 87 46 81 47
REMARK SMILES IDX 80 48 36 50 68 51 48 52 67 53 49 54 52 55 66 56 85 57 50 58
REMARK SMILES IDX 51 59 65 61 86 62 53 63 37 64 38 65 46 66 39 67 40 68 44 69
REMARK SMILES IDX 47 70 41 71 42 72 45 73 43 74 69 75 70 76 78 77 71 78 72 79
REMARK SMILES IDX 76 80 79 81 73 82 74 83 77 84 75 85 54 86 55 87 63 88 56 89
REMARK SMILES IDX 57 90 61 91 64 92 58 93 59 94 62 95 60 96
REMARK H PARENT 21 5 6 17 9 20 25 30 84 49 52 60
REMARK Flexibility Score: inf
ROOT
ATOM      1  C   UNL A   1      32.450  29.413  26.497  1.00  0.00     0.118 C 
ENDROOT
BRANCH   1   2
ATOM      2  N   UNL A   1      33.180  29.422  25.236  1.00  0.00    -0.352 N 
ATOM      3  C   UNL A   1      33.652  28.370  24.506  1.00  0.00     0.244 C 
ATOM      4  O   UNL A   1      34.174  28.563  23.409  1.00  0.00    -0.270 OA
ATOM      5  H   UNL A   1      33.358  30.313  24.857  1.00  0.00     0.163 HD
BRANCH   3   6
ATOM      6  C   UNL A   1      33.423  26.992  24.988  1.00  0.00     0.072 C 
ATOM      7  C   UNL A   1      34.411  26.123  25.249  1.00  0.00     0.014 C 
BRANCH   7   8
ATOM      8  C   UNL A   1      34.126  24.839  25.896  1.00  0.00    -0.020 A 
ATOM      9  C   UNL A   1      36.275  23.797  24.977  1.00  0.00     0.045 C 
ATOM     10  C   UNL A   1      35.075  23.794  25.881  1.00  0.00    -0.044 A 
ATOM     11  C   UNL A   1      34.844  22.658  26.663  1.00  0.00     0.006 A 
ATOM     12  C   UNL A   1      33.610  22.473  27.278  1.00  0.00     0.026 A 
ATOM     13  C   UNL A   1      32.878  24.629  26.497  1.00  0.00     0.034 A 
ATOM     14  C   UNL A   1      32.585  23.383  27.049  1.00  0.00     0.043 A 
BRANCH  14  15
ATOM     15  N   UNL A   1      31.246  23.052  27.272  1.00  0.00    -0.308 N 
ATOM     16  C   UNL A   1      30.270  22.663  26.416  1.00  0.00     0.319 C 
ATOM     17  H   UNL A   1      30.965  23.110  28.214  1.00  0.00     0.171 HD
ATOM     18  O   UNL A   1      29.257  22.129  26.878  1.00  0.00    -0.248 OA
ATOM     19  N   UNL A   1      30.279  22.946  25.092  1.00  0.00    -0.335 N 
ATOM     20  H   UNL A   1      29.527  22.542  24.602  1.00  0.00     0.165 HD
BRANCH  19  21
ATOM     21  C   UNL A   1      31.167  23.721  24.246  1.00  0.00     0.083 C 
ATOM     22  C   UNL A   1      32.052  22.893  23.313  1.00  0.00     0.025 C 
ATOM     23  C   UNL A   1      30.492  24.653  23.245  1.00  0.00     0.025 C 
ATOM     24  C   UNL A   1      32.686  23.974  22.434  1.00  0.00     0.002 C 
ATOM     25  C   UNL A   1      31.644  25.094  22.344  1.00  0.00     0.002 C 
ENDBRANCH  19  21
ENDBRANCH  14  15
ENDBRANCH   7   8
ENDBRANCH   3   6
ENDBRANCH   1   2
BRANCH   1  26
ATOM     26  C   UNL A   1      33.299  29.979  27.636  1.00  0.00     0.042 C 
BRANCH  26  27
ATOM     27  C   UNL A   1      34.049  31.235  27.232  1.00  0.00     0.118 C 
BRANCH  27  28
ATOM     28  N   UNL A   1      34.724  31.921  28.333  1.00  0.00    -0.352 N 
ATOM     29  C   UNL A   1      35.717  31.444  29.176  1.00  0.00     0.251 C 
ATOM     30  H   UNL A   1      34.433  32.846  28.500  1.00  0.00     0.163 HD
ATOM     31  O   UNL A   1      36.158  32.141  30.083  1.00  0.00    -0.269 OA
BRANCH  29  32
ATOM     32  C   UNL A   1      36.355  30.146  28.853  1.00  0.00     0.039 A 
ATOM     33  C   UNL A   1      36.680  29.328  29.940  1.00  0.00     0.014 A 
ATOM     34  C   UNL A   1      36.983  29.980  27.626  1.00  0.00     0.014 A 
ATOM     35  C   UNL A   1      37.865  28.607  29.902  1.00  0.00     0.010 A 
ATOM     36  C   UNL A   1      38.220  29.376  27.627  1.00  0.00     0.010 A 
ATOM     37  C   UNL A   1      38.692  28.768  28.796  1.00  0.00    -0.014 A 
BRANCH  37  38
ATOM     38  C   UNL A   1      40.067  28.306  28.753  1.00  0.00     0.031 A 
ATOM     39  C   UNL A   1      40.295  26.881  28.476  1.00  0.00     0.074 A 
ATOM     40  C   UNL A   1      41.099  29.165  28.898  1.00  0.00     0.049 A 
ATOM     41  N   UNL A   1      41.363  26.242  28.799  1.00  0.00    -0.248 NA
ATOM     42  C   UNL A   1      39.277  26.036  27.867  1.00  0.00     0.031 C 
ATOM     43  C   UNL A   1      42.509  28.906  28.620  1.00  0.00     0.029 A 
ATOM     44  N   UNL A   1      41.096  30.433  29.501  1.00  0.00    -0.354 N 
ATOM     45  C   UNL A   1      41.298  24.999  28.216  1.00  0.00     0.074 A 
ATOM     46  C   UNL A   1      39.944  24.888  27.732  1.00  0.00     0.031 C 
ATOM     47  C   UNL A   1      43.257  29.797  29.288  1.00  0.00     0.029 A 
ATOM     48  C   UNL A   1      42.365  30.571  30.127  1.00  0.00     0.049 A 
ATOM     49  H   UNL A   1      40.364  31.092  29.492  1.00  0.00     0.167 HD
ATOM     50  C   UNL A   1      42.449  24.274  28.109  1.00  0.00     0.037 A 
ATOM     51  C   UNL A   1      42.463  30.697  31.486  1.00  0.00     0.037 A 
ATOM     52  C   UNL A   1      43.551  24.957  28.799  1.00  0.00     0.049 A 
ATOM     53  C   UNL A   1      43.113  29.511  32.163  1.00  0.00     0.074 A 
ATOM     54  C   UNL A   1      44.583  25.786  28.387  1.00  0.00     0.029 A 
ATOM     55  N   UNL A   1      43.475  25.110  30.174  1.00  0.00    -0.354 N 
ATOM     56  N   UNL A   1      43.581  28.469  31.535  1.00  0.00    -0.248 NA
ATOM     57  C   UNL A   1      43.176  29.365  33.615  1.00  0.00     0.031 C 
ATOM     58  C   UNL A   1      45.115  26.443  29.537  1.00  0.00     0.029 A 
ATOM     59  C   UNL A   1      44.427  25.993  30.650  1.00  0.00     0.049 A 
ATOM     60  H   UNL A   1      42.821  24.645  30.745  1.00  0.00     0.167 HD
ATOM     61  C   UNL A   1      43.953  27.516  32.444  1.00  0.00     0.074 A 
ATOM     62  C   UNL A   1      43.654  28.115  33.733  1.00  0.00     0.031 C 
ATOM     63  C   UNL A   1      44.449  26.296  32.075  1.00  0.00     0.037 A 
BRANCH  50  64
ATOM     64  C   UNL A   1      42.643  23.095  27.175  1.00  0.00     0.064 A 
ATOM     65  C   UNL A   1      41.981  21.874  27.431  1.00  0.00     0.173 A 
ATOM     66  C   UNL A   1      43.502  23.062  26.060  1.00  0.00     0.173 A 
ATOM     67  F   UNL A   1      41.051  21.770  28.388  1.00  0.00    -0.203 F 
ATOM     68  C   UNL A   1      42.248  20.704  26.710  1.00  0.00     0.198 A 
ATOM     69  C   UNL A   1      43.809  21.883  25.371  1.00  0.00     0.198 A 
ATOM     70  F   UNL A   1      44.029  24.174  25.540  1.00  0.00    -0.203 F 
ATOM     71  F   UNL A   1      41.592  19.575  27.010  1.00  0.00    -0.200 F 
ATOM     72  C   UNL A   1      43.190  20.701  25.704  1.00  0.00     0.200 A 
ATOM     73  F   UNL A   1      44.708  21.913  24.374  1.00  0.00    -0.200 F 
ATOM     74  F   UNL A   1      43.475  19.574  25.038  1.00  0.00    -0.200 F 
ENDBRANCH  50  64
BRANCH  51  75
ATOM     75  C   UNL A   1      41.334  31.500  32.039  1.00  0.00     0.064 A 
ATOM     76  C   UNL A   1      40.322  30.767  32.690  1.00  0.00     0.173 A 
ATOM     77  C   UNL A   1      41.548  32.822  32.441  1.00  0.00     0.173 A 
ATOM     78  F   UNL A   1      40.031  29.520  32.286  1.00  0.00    -0.203 F 
ATOM     79  C   UNL A   1      39.788  31.223  33.890  1.00  0.00     0.198 A 
ATOM     80  C   UNL A   1      40.959  33.298  33.608  1.00  0.00     0.198 A 
ATOM     81  F   UNL A   1      42.443  33.593  31.808  1.00  0.00    -0.203 F 
ATOM     82  F   UNL A   1      39.028  30.407  34.634  1.00  0.00    -0.200 F 
ATOM     83  C   UNL A   1      40.155  32.465  34.376  1.00  0.00     0.200 A 
ATOM     84  F   UNL A   1      41.264  34.526  34.048  1.00  0.00    -0.200 F 
ATOM     85  F   UNL A   1      39.781  32.834  35.608  1.00  0.00    -0.200 F 
ENDBRANCH  51  75
BRANCH  63  86
ATOM     86  C   UNL A   1      44.958  25.272  33.062  1.00  0.00     0.064 A 
ATOM     87  C   UNL A   1      44.108  24.564  33.927  1.00  0.00     0.173 A 
ATOM     88  C   UNL A   1      46.338  25.024  33.240  1.00  0.00     0.173 A 
ATOM     89  F   UNL A   1      42.794  24.835  33.983  1.00  0.00    -0.203 F 
ATOM     90  C   UNL A   1      44.584  23.579  34.794  1.00  0.00     0.198 A 
ATOM     91  C   UNL A   1      46.818  24.085  34.149  1.00  0.00     0.198 A 
ATOM     92  F   UNL A   1      47.275  25.671  32.535  1.00  0.00    -0.203 F 
ATOM     93  F   UNL A   1      43.718  22.867  35.528  1.00  0.00    -0.200 F 
ATOM     94  C   UNL A   1      45.939  23.335  34.901  1.00  0.00     0.200 A 
ATOM     95  F   UNL A   1      48.140  23.905  34.281  1.00  0.00    -0.200 F 
ATOM     96  F   UNL A   1      46.398  22.394  35.735  1.00  0.00    -0.200 F 
ENDBRANCH  63  86
ENDBRANCH  37  38
ENDBRANCH  29  32
ENDBRANCH  27  28
ENDBRANCH  26  27
ENDBRANCH   1  26
TORSDOF 13
ENDMDL
MODEL 2
REMARK VINA RESULT:     -13.3      1.797      2.642
REMARK SMILES Cc1ccc(NC(=O)NC2CCCC2)cc1/C=C/C(=O)NCCCNC(=O)c1ccc(-c2c3nc(c(-c4c(F)c(F)c(F)c(F)c4F)c4ccc([nH]4)c(-c4c(F)c(F)c(F)c(F)c4F)c4nc(c(-c5c(F)c(F)c(F)c(F)c5F)c5ccc2[nH]5)C=C4)C=C3)cc1
REMARK SMILES IDX 22 1 21 2 19 3 20 4 18 6 17 7 16 8 1 9 2 10 3 11 4 12 15 13
REMARK SMILES IDX 5 14 6 15 7 16 8 18 9 19 10 21 11 22 14 23 12 24 13 25 23 26
REMARK SMILES IDX 24 27 25 28 26 29 27 31 28 32 29 33 90 34 30 35 89 36 31 37
REMARK SMILES IDX 32 38 33 39 83 40 34 41 88 42 82 43 84 44 35 45 87 46 81 47
REMARK SMILES IDX 80 48 36 50 68 51 48 52 67 53 49 54 52 55 66 56 85 57 50 58
REMARK SMILES IDX 51 59 65 61 86 62 53 63 37 64 38 65 46 66 39 67 40 68 44 69
REMARK SMILES IDX 47 70 41 71 42 72 45 73 43 74 69 75 70 76 78 77 71 78 72 79
REMARK SMILES IDX 76 80 79 81 73 82 74 83 77 84 75 85 54 86 55 87 63 88 56 89
REMARK SMILES IDX 57 90 61 91 64 92 58 93 59 94 62 95 60 96
REMARK H PARENT 21 5 6 17 9 20 25 30 84 49 52 60
REMARK Flexibility Score: inf
ROOT
ATOM      1  C   UNL A   1      32.674  30.143  26.042  1.00  0.00     0.118 C 
ENDROOT
BRANCH   1   2
ATOM      2  N   UNL A   1      31.781  29.319  26.846  1.00  0.00    -0.352 N 
ATOM      3  C   UNL A   1      31.749  27.961  26.978  1.00  0.00     0.244 C 
ATOM      4  O   UNL A   1      30.975  27.436  27.778  1.00  0.00    -0.270 OA
ATOM      5  H   UNL A   1      31.106  29.811  27.367  1.00  0.00     0.163 HD
BRANCH   3   6
ATOM      6  C   UNL A   1      32.731  27.137  26.244  1.00  0.00     0.072 C 
ATOM      7  C   UNL A   1      32.647  25.802  26.136  1.00  0.00     0.014 C 
BRANCH   7   8
ATOM      8  C   UNL A   1      33.548  25.066  25.245  1.00  0.00    -0.020 A 
ATOM      9  C   UNL A   1      31.677  24.654  23.548  1.00  0.00     0.045 C 
ATOM     10  C   UNL A   1      33.121  24.651  23.965  1.00  0.00    -0.044 A 
ATOM     11  C   UNL A   1      34.060  24.119  23.077  1.00  0.00     0.006 A 
ATOM     12  C   UNL A   1      35.343  23.812  23.518  1.00  0.00     0.026 A 
ATOM     13  C   UNL A   1      34.834  24.729  25.686  1.00  0.00     0.034 A 
ATOM     14  C   UNL A   1      35.662  23.967  24.862  1.00  0.00     0.043 A 
BRANCH  14  15
ATOM     15  N   UNL A   1      36.747  23.303  25.440  1.00  0.00    -0.308 N 
ATOM     16  C   UNL A   1      37.098  21.994  25.431  1.00  0.00     0.319 C 
ATOM     17  H   UNL A   1      37.363  23.888  25.938  1.00  0.00     0.171 HD
ATOM     18  O   UNL A   1      38.253  21.690  25.743  1.00  0.00    -0.248 OA
ATOM     19  N   UNL A   1      36.219  20.985  25.228  1.00  0.00    -0.335 N 
ATOM     20  H   UNL A   1      36.644  20.098  25.194  1.00  0.00     0.165 HD
BRANCH  19  21
ATOM     21  C   UNL A   1      34.780  20.939  25.050  1.00  0.00     0.083 C 
ATOM     22  C   UNL A   1      34.226  19.579  24.626  1.00  0.00     0.025 C 
ATOM     23  C   UNL A   1      33.944  21.210  26.296  1.00  0.00     0.025 C 
ATOM     24  C   UNL A   1      32.716  19.801  24.735  1.00  0.00     0.002 C 
ATOM     25  C   UNL A   1      32.531  20.822  25.863  1.00  0.00     0.002 C 
ENDBRANCH  19  21
ENDBRANCH  14  15
ENDBRANCH   7   8
ENDBRANCH   3   6
ENDBRANCH   1   2
BRANCH   1  26
ATOM     26  C   UNL A   1      33.390  31.187  26.899  1.00  0.00     0.042 C 
BRANCH  26  27
ATOM     27  C   UNL A   1      34.223  30.561  28.002  1.00  0.00     0.118 C 
BRANCH  27  28
ATOM     28  N   UNL A   1      35.205  31.459  28.608  1.00  0.00    -0.352 N 
ATOM     29  C   UNL A   1      36.462  31.162  29.112  1.00  0.00     0.251 C 
ATOM     30  H   UNL A   1      34.936  32.404  28.667  1.00  0.00     0.163 HD
ATOM     31  O   UNL A   1      37.156  32.033  29.623  1.00  0.00    -0.269 OA
BRANCH  29  32
ATOM     32  C   UNL A   1      37.021  29.812  28.863  1.00  0.00     0.039 A 
ATOM     33  C   UNL A   1      37.344  29.057  29.995  1.00  0.00     0.014 A 
ATOM     34  C   UNL A   1      37.595  29.526  27.632  1.00  0.00     0.014 A 
ATOM     35  C   UNL A   1      38.488  28.272  29.972  1.00  0.00     0.010 A 
ATOM     36  C   UNL A   1      38.799  28.858  27.636  1.00  0.00     0.010 A 
ATOM     37  C   UNL A   1      39.282  28.310  28.830  1.00  0.00    -0.014 A 
BRANCH  37  38
ATOM     38  C   UNL A   1      40.629  27.774  28.777  1.00  0.00     0.031 A 
ATOM     39  C   UNL A   1      40.777  26.340  28.488  1.00  0.00     0.074 A 
ATOM     40  C   UNL A   1      41.707  28.574  28.922  1.00  0.00     0.049 A 
ATOM     41  N   UNL A   1      41.809  25.641  28.800  1.00  0.00    -0.248 NA
ATOM     42  C   UNL A   1      39.710  25.558  27.878  1.00  0.00     0.031 C 
ATOM     43  C   UNL A   1      43.100  28.239  28.634  1.00  0.00     0.029 A 
ATOM     44  N   UNL A   1      41.777  29.835  29.535  1.00  0.00    -0.354 N 
ATOM     45  C   UNL A   1      41.673  24.408  28.208  1.00  0.00     0.074 A 
ATOM     46  C   UNL A   1      40.312  24.376  27.731  1.00  0.00     0.031 C 
ATOM     47  C   UNL A   1      43.899  29.083  29.305  1.00  0.00     0.029 A 
ATOM     48  C   UNL A   1      43.055  29.898  30.155  1.00  0.00     0.049 A 
ATOM     49  H   UNL A   1      41.083  30.534  29.535  1.00  0.00     0.167 HD
ATOM     50  C   UNL A   1      42.782  23.622  28.089  1.00  0.00     0.037 A 
ATOM     51  C   UNL A   1      43.167  30.008  31.514  1.00  0.00     0.037 A 
ATOM     52  C   UNL A   1      43.923  24.238  28.778  1.00  0.00     0.049 A 
ATOM     53  C   UNL A   1      43.754  28.784  32.178  1.00  0.00     0.074 A 
ATOM     54  C   UNL A   1      44.997  25.012  28.366  1.00  0.00     0.029 A 
ATOM     55  N   UNL A   1      43.863  24.384  30.154  1.00  0.00    -0.354 N 
ATOM     56  N   UNL A   1      44.161  27.721  31.540  1.00  0.00    -0.248 NA
ATOM     57  C   UNL A   1      43.817  28.622  33.629  1.00  0.00     0.031 C 
ATOM     58  C   UNL A   1      45.570  25.630  29.518  1.00  0.00     0.029 A 
ATOM     59  C   UNL A   1      44.865  25.210  30.632  1.00  0.00     0.049 A 
ATOM     60  H   UNL A   1      43.188  23.952  30.726  1.00  0.00     0.167 HD
ATOM     61  C   UNL A   1      44.484  26.743  32.439  1.00  0.00     0.074 A 
ATOM     62  C   UNL A   1      44.226  27.348  33.735  1.00  0.00     0.031 C 
ATOM     63  C   UNL A   1      44.911  25.500  32.059  1.00  0.00     0.037 A 
BRANCH  50  64
ATOM     64  C   UNL A   1      42.906  22.441  27.146  1.00  0.00     0.064 A 
ATOM     65  C   UNL A   1      42.118  21.286  27.351  1.00  0.00     0.173 A 
ATOM     66  C   UNL A   1      43.810  22.339  26.071  1.00  0.00     0.173 A 
ATOM     67  F   UNL A   1      41.138  21.261  28.262  1.00  0.00    -0.203 F 
ATOM     68  C   UNL A   1      42.306  20.106  26.623  1.00  0.00     0.198 A 
ATOM     69  C   UNL A   1      44.035  21.145  25.377  1.00  0.00     0.198 A 
ATOM     70  F   UNL A   1      44.465  23.401  25.594  1.00  0.00    -0.203 F 
ATOM     71  F   UNL A   1      41.531  19.042  26.874  1.00  0.00    -0.200 F 
ATOM     72  C   UNL A   1      43.290  20.023  25.661  1.00  0.00     0.200 A 
ATOM     73  F   UNL A   1      44.978  21.100  24.424  1.00  0.00    -0.200 F 
ATOM     74  F   UNL A   1      43.497  18.882  24.990  1.00  0.00    -0.200 F 
ENDBRANCH  50  64
BRANCH  51  75
ATOM     75  C   UNL A   1      42.087  30.868  32.079  1.00  0.00     0.064 A 
ATOM     76  C   UNL A   1      41.049  30.188  32.747  1.00  0.00     0.173 A 
ATOM     77  C   UNL A   1      42.371  32.179  32.472  1.00  0.00     0.173 A 
ATOM     78  F   UNL A   1      40.691  28.956  32.352  1.00  0.00    -0.203 F 
ATOM     79  C   UNL A   1      40.556  30.674  33.952  1.00  0.00     0.198 A 
ATOM     80  C   UNL A   1      41.822  32.688  33.645  1.00  0.00     0.198 A 
ATOM     81  F   UNL A   1      43.294  32.903  31.824  1.00  0.00    -0.203 F 
ATOM     82  F   UNL A   1      39.767  29.899  34.710  1.00  0.00    -0.200 F 
ATOM     83  C   UNL A   1      40.990  31.898  34.428  1.00  0.00     0.200 A 
ATOM     84  F   UNL A   1      42.194  33.900  34.076  1.00  0.00    -0.200 F 
ATOM     85  F   UNL A   1      40.651  32.289  35.664  1.00  0.00    -0.200 F 
ENDBRANCH  51  75
BRANCH  63  86
ATOM     86  C   UNL A   1      45.368  24.442  33.035  1.00  0.00     0.064 A 
ATOM     87  C   UNL A   1      46.657  24.432  33.594  1.00  0.00     0.173 A 
ATOM     88  C   UNL A   1      44.555  23.339  33.380  1.00  0.00     0.173 A 
ATOM     89  F   UNL A   1      47.585  25.322  33.212  1.00  0.00    -0.203 F 
ATOM     90  C   UNL A   1      47.048  23.482  34.540  1.00  0.00     0.198 A 
ATOM     91  C   UNL A   1      44.968  22.356  34.276  1.00  0.00     0.198 A 
ATOM     92  F   UNL A   1      43.326  23.175  32.874  1.00  0.00    -0.203 F 
ATOM     93  F   UNL A   1      48.256  23.576  35.113  1.00  0.00    -0.200 F 
ATOM     94  C   UNL A   1      46.201  22.447  34.885  1.00  0.00     0.200 A 
ATOM     95  F   UNL A   1      44.154  21.327  34.553  1.00  0.00    -0.200 F 
ATOM     96  F   UNL A   1      46.577  21.532  35.787  1.00  0.00    -0.200 F 
ENDBRANCH  63  86
ENDBRANCH  37  38
ENDBRANCH  29  32
ENDBRANCH  27  28
ENDBRANCH  26  27
ENDBRANCH   1  26
TORSDOF 13
ENDMDL
MODEL 3
REMARK VINA RESULT:     -13.3      1.112      2.349
REMARK SMILES Cc1ccc(NC(=O)NC2CCCC2)cc1/C=C/C(=O)NCCCNC(=O)c1ccc(-c2c3nc(c(-c4c(F)c(F)c(F)c(F)c4F)c4ccc([nH]4)c(-c4c(F)c(F)c(F)c(F)c4F)c4nc(c(-c5c(F)c(F)c(F)c(F)c5F)c5ccc2[nH]5)C=C4)C=C3)cc1
REMARK SMILES IDX 22 1 21 2 19 3 20 4 18 6 17 7 16 8 1 9 2 10 3 11 4 12 15 13
REMARK SMILES IDX 5 14 6 15 7 16 8 18 9 19 10 21 11 22 14 23 12 24 13 25 23 26
REMARK SMILES IDX 24 27 25 28 26 29 27 31 28 32 29 33 90 34 30 35 89 36 31 37
REMARK SMILES IDX 32 38 33 39 83 40 34 41 88 42 82 43 84 44 35 45 87 46 81 47
REMARK SMILES IDX 80 48 36 50 68 51 48 52 67 53 49 54 52 55 66 56 85 57 50 58
REMARK SMILES IDX 51 59 65 61 86 62 53 63 37 64 38 65 46 66 39 67 40 68 44 69
REMARK SMILES IDX 47 70 41 71 42 72 45 73 43 74 69 75 70 76 78 77 71 78 72 79
REMARK SMILES IDX 76 80 79 81 73 82 74 83 77 84 75 85 54 86 55 87 63 88 56 89
REMARK SMILES IDX 57 90 61 91 64 92 58 93 59 94 62 95 60 96
REMARK H PARENT 21 5 6 17 9 20 25 30 84 49 52 60
REMARK Flexibility Score: inf
ROOT
ATOM      1  C   UNL A   1      31.716  29.792  25.848  1.00  0.00     0.118 C 
ENDROOT
BRANCH   1   2
ATOM      2  N   UNL A   1      30.970  30.330  24.717  1.00  0.00    -0.352 N 
ATOM      3  C   UNL A   1      30.353  29.665  23.698  1.00  0.00     0.244 C 
ATOM      4  O   UNL A   1      29.688  30.284  22.868  1.00  0.00    -0.270 OA
ATOM      5  H   UNL A   1      30.903  31.312  24.685  1.00  0.00     0.163 HD
BRANCH   3   6
ATOM      6  C   UNL A   1      30.389  28.188  23.668  1.00  0.00     0.072 C 
ATOM      7  C   UNL A   1      31.390  27.481  23.121  1.00  0.00     0.014 C 
BRANCH   7   8
ATOM      8  C   UNL A   1      31.455  26.027  23.286  1.00  0.00    -0.020 A 
ATOM      9  C   UNL A   1      32.101  25.687  20.833  1.00  0.00     0.045 C 
ATOM     10  C   UNL A   1      31.927  25.199  22.244  1.00  0.00    -0.044 A 
ATOM     11  C   UNL A   1      32.149  23.844  22.503  1.00  0.00     0.006 A 
ATOM     12  C   UNL A   1      31.716  23.281  23.699  1.00  0.00     0.026 A 
ATOM     13  C   UNL A   1      30.999  25.445  24.476  1.00  0.00     0.034 A 
ATOM     14  C   UNL A   1      30.996  24.056  24.601  1.00  0.00     0.043 A 
BRANCH  14  15
ATOM     15  N   UNL A   1      30.189  23.477  25.584  1.00  0.00    -0.308 N 
ATOM     16  C   UNL A   1      30.482  23.042  26.834  1.00  0.00     0.319 C 
ATOM     17  H   UNL A   1      29.246  23.369  25.324  1.00  0.00     0.171 HD
ATOM     18  O   UNL A   1      29.554  22.856  27.627  1.00  0.00    -0.248 OA
ATOM     19  N   UNL A   1      31.723  22.671  27.226  1.00  0.00    -0.335 N 
ATOM     20  H   UNL A   1      31.777  22.436  28.180  1.00  0.00     0.165 HD
BRANCH  19  21
ATOM     21  C   UNL A   1      32.991  22.547  26.531  1.00  0.00     0.083 C 
ATOM     22  C   UNL A   1      33.878  23.791  26.584  1.00  0.00     0.025 C 
ATOM     23  C   UNL A   1      33.949  21.492  27.072  1.00  0.00     0.025 C 
ATOM     24  C   UNL A   1      35.182  23.279  25.969  1.00  0.00     0.002 C 
ATOM     25  C   UNL A   1      35.255  21.794  26.338  1.00  0.00     0.002 C 
ENDBRANCH  19  21
ENDBRANCH  14  15
ENDBRANCH   7   8
ENDBRANCH   3   6
ENDBRANCH   1   2
BRANCH   1  26
ATOM     26  C   UNL A   1      32.301  30.910  26.711  1.00  0.00     0.042 C 
BRANCH  26  27
ATOM     27  C   UNL A   1      33.342  30.402  27.692  1.00  0.00     0.118 C 
BRANCH  27  28
ATOM     28  N   UNL A   1      34.119  31.451  28.350  1.00  0.00    -0.352 N 
ATOM     29  C   UNL A   1      35.351  31.354  28.982  1.00  0.00     0.251 C 
ATOM     30  H   UNL A   1      33.714  32.347  28.346  1.00  0.00     0.163 HD
ATOM     31  O   UNL A   1      35.858  32.331  29.521  1.00  0.00    -0.269 OA
BRANCH  29  32
ATOM     32  C   UNL A   1      36.120  30.095  28.842  1.00  0.00     0.039 A 
ATOM     33  C   UNL A   1      36.572  29.510  30.029  1.00  0.00     0.014 A 
ATOM     34  C   UNL A   1      36.720  29.792  27.627  1.00  0.00     0.014 A 
ATOM     35  C   UNL A   1      37.829  28.922  30.047  1.00  0.00     0.010 A 
ATOM     36  C   UNL A   1      38.016  29.330  27.661  1.00  0.00     0.010 A 
ATOM     37  C   UNL A   1      38.594  28.981  28.887  1.00  0.00    -0.014 A 
BRANCH  37  38
ATOM     38  C   UNL A   1      40.009  28.665  28.848  1.00  0.00     0.031 A 
ATOM     39  C   UNL A   1      40.390  27.297  28.469  1.00  0.00     0.074 A 
ATOM     40  C   UNL A   1      40.944  29.611  29.087  1.00  0.00     0.049 A 
ATOM     41  N   UNL A   1      41.511  26.747  28.771  1.00  0.00    -0.248 NA
ATOM     42  C   UNL A   1      39.476  26.405  27.768  1.00  0.00     0.031 C 
ATOM     43  C   UNL A   1      42.379  29.519  28.831  1.00  0.00     0.029 A 
ATOM     44  N   UNL A   1      40.798  30.820  29.786  1.00  0.00    -0.354 N 
ATOM     45  C   UNL A   1      41.587  25.553  28.093  1.00  0.00     0.074 A 
ATOM     46  C   UNL A   1      40.261  25.345  27.564  1.00  0.00     0.031 C 
ATOM     47  C   UNL A   1      43.017  30.425  29.586  1.00  0.00     0.029 A 
ATOM     48  C   UNL A   1      42.032  31.035  30.457  1.00  0.00     0.049 A 
ATOM     49  H   UNL A   1      40.002  31.400  29.808  1.00  0.00     0.167 HD
ATOM     50  C   UNL A   1      42.808  24.960  27.963  1.00  0.00     0.037 A 
ATOM     51  C   UNL A   1      42.089  31.063  31.824  1.00  0.00     0.037 A 
ATOM     52  C   UNL A   1      43.820  25.695  28.734  1.00  0.00     0.049 A 
ATOM     53  C   UNL A   1      42.845  29.899  32.425  1.00  0.00     0.074 A 
ATOM     54  C   UNL A   1      44.768  26.654  28.417  1.00  0.00     0.029 A 
ATOM     55  N   UNL A   1      43.700  25.729  30.114  1.00  0.00    -0.354 N 
ATOM     56  N   UNL A   1      43.431  28.962  31.732  1.00  0.00    -0.248 NA
ATOM     57  C   UNL A   1      42.893  29.644  33.863  1.00  0.00     0.031 C 
ATOM     58  C   UNL A   1      45.206  27.268  29.629  1.00  0.00     0.029 A 
ATOM     59  C   UNL A   1      44.546  26.664  30.684  1.00  0.00     0.049 A 
ATOM     60  H   UNL A   1      43.087  25.157  30.629  1.00  0.00     0.167 HD
ATOM     61  C   UNL A   1      43.881  27.984  32.575  1.00  0.00     0.074 A 
ATOM     62  C   UNL A   1      43.495  28.445  33.899  1.00  0.00     0.031 C 
ATOM     63  C   UNL A   1      44.508  26.853  32.128  1.00  0.00     0.037 A 
BRANCH  50  64
ATOM     64  C   UNL A   1      43.142  23.885  26.947  1.00  0.00     0.064 A 
ATOM     65  C   UNL A   1      42.738  22.550  27.172  1.00  0.00     0.173 A 
ATOM     66  C   UNL A   1      43.903  24.068  25.776  1.00  0.00     0.173 A 
ATOM     67  F   UNL A   1      41.921  22.227  28.182  1.00  0.00    -0.203 F 
ATOM     68  C   UNL A   1      43.159  21.488  26.363  1.00  0.00     0.198 A 
ATOM     69  C   UNL A   1      44.366  23.002  24.996  1.00  0.00     0.198 A 
ATOM     70  F   UNL A   1      44.173  25.283  25.291  1.00  0.00    -0.203 F 
ATOM     71  F   UNL A   1      42.748  20.242  26.638  1.00  0.00    -0.200 F 
ATOM     72  C   UNL A   1      44.004  21.710  25.297  1.00  0.00     0.200 A 
ATOM     73  F   UNL A   1      45.162  23.249  23.944  1.00  0.00    -0.200 F 
ATOM     74  F   UNL A   1      44.438  20.690  24.544  1.00  0.00    -0.200 F 
ENDBRANCH  50  64
BRANCH  51  75
ATOM     75  C   UNL A   1      40.873  31.701  32.404  1.00  0.00     0.064 A 
ATOM     76  C   UNL A   1      39.950  30.823  33.008  1.00  0.00     0.173 A 
ATOM     77  C   UNL A   1      40.930  33.016  32.874  1.00  0.00     0.173 A 
ATOM     78  F   UNL A   1      39.807  29.573  32.539  1.00  0.00    -0.203 F 
ATOM     79  C   UNL A   1      39.362  31.152  34.223  1.00  0.00     0.198 A 
ATOM     80  C   UNL A   1      40.284  33.361  34.057  1.00  0.00     0.198 A 
ATOM     81  F   UNL A   1      41.732  33.917  32.289  1.00  0.00    -0.203 F 
ATOM     82  F   UNL A   1      38.698  30.217  34.918  1.00  0.00    -0.200 F 
ATOM     83  C   UNL A   1      39.579  32.403  34.775  1.00  0.00     0.200 A 
ATOM     84  F   UNL A   1      40.443  34.592  34.562  1.00  0.00    -0.200 F 
ATOM     85  F   UNL A   1      39.159  32.662  36.020  1.00  0.00    -0.200 F 
ENDBRANCH  51  75
BRANCH  63  86
ATOM     86  C   UNL A   1      45.100  25.811  33.047  1.00  0.00     0.064 A 
ATOM     87  C   UNL A   1      46.468  25.490  33.049  1.00  0.00     0.173 A 
ATOM     88  C   UNL A   1      44.297  25.024  33.904  1.00  0.00     0.173 A 
ATOM     89  F   UNL A   1      47.309  26.038  32.158  1.00  0.00    -0.203 F 
ATOM     90  C   UNL A   1      47.012  24.566  33.943  1.00  0.00     0.198 A 
ATOM     91  C   UNL A   1      44.833  24.058  34.752  1.00  0.00     0.198 A 
ATOM     92  F   UNL A   1      42.967  25.167  33.964  1.00  0.00    -0.203 F 
ATOM     93  F   UNL A   1      48.338  24.370  33.967  1.00  0.00    -0.200 F 
ATOM     94  C   UNL A   1      46.195  23.854  34.799  1.00  0.00     0.200 A 
ATOM     95  F   UNL A   1      44.017  23.335  35.534  1.00  0.00    -0.200 F 
ATOM     96  F   UNL A   1      46.716  22.965  35.653  1.00  0.00    -0.200 F 
ENDBRANCH  63  86
ENDBRANCH  37  38
ENDBRANCH  29  32
ENDBRANCH  27  28
ENDBRANCH  26  27
ENDBRANCH   1  26
TORSDOF 13
ENDMDL
