MODEL 1
REMARK VINA RESULT:     -11.5      0.000      0.000
REMARK SMILES COc1ccccc1N1C(=O)CC[C@H]1CC(=O)NCCCNC(=O)c1ccc(-c2c3nc(c(-c4c(F)c(F)c(F)c(F)c4F)c4ccc([nH]4)c(-c4c(F)c(F)c(F)c(F)c4F)c4nc(c(-c5c(F)c(F)c(F)c(F)c5F)c5ccc2[nH]5)C=C4)C=C3)cc1
REMARK SMILES IDX 19 1 18 2 16 3 17 4 15 6 14 7 9 8 10 9 11 10 12 11 13 12
REMARK SMILES IDX 8 13 3 14 4 15 5 16 7 17 6 18 2 19 1 20 20 21 21 22 22 23
REMARK SMILES IDX 23 24 24 26 25 27 26 28 87 29 27 30 86 31 28 32 29 33 30 34
REMARK SMILES IDX 80 35 31 36 85 37 79 38 81 39 32 40 84 41 78 42 77 43 33 45
REMARK SMILES IDX 65 46 45 47 64 48 46 49 49 50 63 51 82 52 47 53 48 54 62 56
REMARK SMILES IDX 83 57 50 58 34 59 35 60 43 61 36 62 37 63 41 64 44 65 38 66
REMARK SMILES IDX 39 67 42 68 40 69 66 70 67 71 75 72 68 73 69 74 73 75 76 76
REMARK SMILES IDX 70 77 71 78 74 79 72 80 51 81 52 82 60 83 53 84 54 85 58 86
REMARK SMILES IDX 61 87 55 88 56 89 59 90 57 91
REMARK H PARENT 18 5 22 25 81 44 49 55
REMARK Flexibility Score: inf
ROOT
ATOM      1  C   UNL A   1      32.060  27.834  27.221  1.00  0.00     0.117 C 
ENDROOT
BRANCH   1   2
ATOM      2  N   UNL A   1      31.364  26.604  26.917  1.00  0.00    -0.356 N 
ATOM      3  C   UNL A   1      31.774  25.390  26.501  1.00  0.00     0.222 C 
ATOM      4  O   UNL A   1      30.907  24.504  26.499  1.00  0.00    -0.275 OA
ATOM      5  H   UNL A   1      30.389  26.666  27.039  1.00  0.00     0.163 HD
BRANCH   3   6
ATOM      6  C   UNL A   1      33.195  25.014  26.120  1.00  0.00     0.125 C 
BRANCH   6   7
ATOM      7  C   UNL A   1      33.850  25.161  24.729  1.00  0.00     0.100 C 
ATOM      8  N   UNL A   1      34.085  24.072  23.795  1.00  0.00    -0.305 N 
ATOM      9  C   UNL A   1      33.577  24.388  22.514  1.00  0.00     0.227 C 
ATOM     10  O   UNL A   1      33.415  23.663  21.542  1.00  0.00    -0.275 OA
ATOM     11  C   UNL A   1      33.187  25.833  22.484  1.00  0.00     0.103 C 
ATOM     12  C   UNL A   1      33.042  26.201  23.937  1.00  0.00     0.036 C 
BRANCH   8  13
ATOM     13  C   UNL A   1      34.868  22.889  24.051  1.00  0.00     0.086 A 
ATOM     14  C   UNL A   1      34.337  21.724  24.649  1.00  0.00     0.142 A 
ATOM     15  C   UNL A   1      35.165  20.694  25.125  1.00  0.00     0.048 A 
ATOM     16  C   UNL A   1      36.540  20.761  24.953  1.00  0.00     0.004 A 
ATOM     17  C   UNL A   1      36.238  22.847  23.765  1.00  0.00     0.030 A 
ATOM     18  C   UNL A   1      37.073  21.826  24.245  1.00  0.00     0.002 A 
BRANCH  14  19
ATOM     19  O   UNL A   1      32.996  21.456  24.788  1.00  0.00    -0.495 OA
ATOM     20  C   UNL A   1      32.510  20.612  23.745  1.00  0.00     0.278 C 
ENDBRANCH  14  19
ENDBRANCH   8  13
ENDBRANCH   6   7
ENDBRANCH   3   6
ENDBRANCH   1   2
BRANCH   1  21
ATOM     21  C   UNL A   1      31.728  28.970  26.264  1.00  0.00     0.042 C 
BRANCH  21  22
ATOM     22  C   UNL A   1      32.878  29.875  25.852  1.00  0.00     0.118 C 
BRANCH  22  23
ATOM     23  N   UNL A   1      32.699  31.241  26.300  1.00  0.00    -0.352 N 
ATOM     24  C   UNL A   1      33.350  31.971  27.262  1.00  0.00     0.251 C 
ATOM     25  H   UNL A   1      31.985  31.731  25.832  1.00  0.00     0.163 HD
ATOM     26  O   UNL A   1      32.857  33.045  27.608  1.00  0.00    -0.269 OA
BRANCH  24  27
ATOM     27  C   UNL A   1      34.608  31.515  27.910  1.00  0.00     0.039 A 
ATOM     28  C   UNL A   1      34.607  30.255  28.524  1.00  0.00     0.014 A 
ATOM     29  C   UNL A   1      35.743  32.321  28.029  1.00  0.00     0.014 A 
ATOM     30  C   UNL A   1      35.734  29.798  29.215  1.00  0.00     0.010 A 
ATOM     31  C   UNL A   1      36.900  31.830  28.646  1.00  0.00     0.010 A 
ATOM     32  C   UNL A   1      36.903  30.572  29.266  1.00  0.00    -0.014 A 
BRANCH  32  33
ATOM     33  C   UNL A   1      38.112  30.086  29.989  1.00  0.00     0.031 A 
ATOM     34  C   UNL A   1      38.399  30.538  31.397  1.00  0.00     0.074 A 
ATOM     35  C   UNL A   1      38.970  29.249  29.375  1.00  0.00     0.049 A 
ATOM     36  N   UNL A   1      39.405  30.231  32.181  1.00  0.00    -0.248 NA
ATOM     37  C   UNL A   1      37.437  31.471  31.999  1.00  0.00     0.031 C 
ATOM     38  C   UNL A   1      38.828  28.752  28.007  1.00  0.00     0.029 A 
ATOM     39  N   UNL A   1      40.131  28.667  29.822  1.00  0.00    -0.354 N 
ATOM     40  C   UNL A   1      39.200  30.939  33.359  1.00  0.00     0.074 A 
ATOM     41  C   UNL A   1      38.008  31.737  33.165  1.00  0.00     0.031 C 
ATOM     42  C   UNL A   1      39.839  27.910  27.739  1.00  0.00     0.029 A 
ATOM     43  C   UNL A   1      40.725  27.843  28.897  1.00  0.00     0.049 A 
ATOM     44  H   UNL A   1      40.503  28.825  30.720  1.00  0.00     0.167 HD
ATOM     45  C   UNL A   1      39.923  30.912  34.506  1.00  0.00     0.037 A 
ATOM     46  C   UNL A   1      41.857  27.118  28.972  1.00  0.00     0.037 A 
ATOM     47  C   UNL A   1      41.108  30.116  34.702  1.00  0.00     0.049 A 
ATOM     48  C   UNL A   1      42.673  27.146  30.236  1.00  0.00     0.074 A 
ATOM     49  C   UNL A   1      41.886  29.989  35.840  1.00  0.00     0.029 A 
ATOM     50  N   UNL A   1      41.694  29.319  33.730  1.00  0.00    -0.354 N 
ATOM     51  N   UNL A   1      42.437  27.771  31.363  1.00  0.00    -0.248 NA
ATOM     52  C   UNL A   1      43.917  26.363  30.234  1.00  0.00     0.031 C 
ATOM     53  C   UNL A   1      42.974  29.162  35.540  1.00  0.00     0.029 A 
ATOM     54  C   UNL A   1      42.841  28.721  34.233  1.00  0.00     0.049 A 
ATOM     55  H   UNL A   1      41.347  29.195  32.816  1.00  0.00     0.167 HD
ATOM     56  C   UNL A   1      43.479  27.431  32.215  1.00  0.00     0.074 A 
ATOM     57  C   UNL A   1      44.345  26.535  31.477  1.00  0.00     0.031 C 
ATOM     58  C   UNL A   1      43.695  27.824  33.494  1.00  0.00     0.037 A 
BRANCH  45  59
ATOM     59  C   UNL A   1      39.450  31.783  35.638  1.00  0.00     0.064 A 
ATOM     60  C   UNL A   1      38.523  31.321  36.588  1.00  0.00     0.173 A 
ATOM     61  C   UNL A   1      39.932  33.093  35.782  1.00  0.00     0.173 A 
ATOM     62  F   UNL A   1      38.025  30.080  36.496  1.00  0.00    -0.203 F 
ATOM     63  C   UNL A   1      38.061  32.154  37.605  1.00  0.00     0.198 A 
ATOM     64  C   UNL A   1      39.496  33.910  36.822  1.00  0.00     0.198 A 
ATOM     65  F   UNL A   1      40.829  33.584  34.913  1.00  0.00    -0.203 F 
ATOM     66  F   UNL A   1      37.126  31.712  38.456  1.00  0.00    -0.200 F 
ATOM     67  C   UNL A   1      38.551  33.445  37.724  1.00  0.00     0.200 A 
ATOM     68  F   UNL A   1      39.984  35.152  36.947  1.00  0.00    -0.200 F 
ATOM     69  F   UNL A   1      38.104  34.245  38.702  1.00  0.00    -0.200 F 
ENDBRANCH  45  59
BRANCH  46  70
ATOM     70  C   UNL A   1      42.267  26.267  27.824  1.00  0.00     0.064 A 
ATOM     71  C   UNL A   1      41.730  24.982  27.660  1.00  0.00     0.173 A 
ATOM     72  C   UNL A   1      43.192  26.713  26.870  1.00  0.00     0.173 A 
ATOM     73  F   UNL A   1      40.860  24.500  28.560  1.00  0.00    -0.203 F 
ATOM     74  C   UNL A   1      42.113  24.171  26.593  1.00  0.00     0.198 A 
ATOM     75  C   UNL A   1      43.554  25.914  25.788  1.00  0.00     0.198 A 
ATOM     76  F   UNL A   1      43.737  27.934  26.982  1.00  0.00    -0.203 F 
ATOM     77  F   UNL A   1      41.617  22.932  26.485  1.00  0.00    -0.200 F 
ATOM     78  C   UNL A   1      43.019  24.641  25.654  1.00  0.00     0.200 A 
ATOM     79  F   UNL A   1      44.420  26.374  24.875  1.00  0.00    -0.200 F 
ATOM     80  F   UNL A   1      43.382  23.864  24.624  1.00  0.00    -0.200 F 
ENDBRANCH  46  70
BRANCH  58  81
ATOM     81  C   UNL A   1      44.895  27.255  34.198  1.00  0.00     0.064 A 
ATOM     82  C   UNL A   1      44.836  26.040  34.899  1.00  0.00     0.173 A 
ATOM     83  C   UNL A   1      46.130  27.919  34.142  1.00  0.00     0.173 A 
ATOM     84  F   UNL A   1      43.677  25.372  34.996  1.00  0.00    -0.203 F 
ATOM     85  C   UNL A   1      45.962  25.528  35.540  1.00  0.00     0.198 A 
ATOM     86  C   UNL A   1      47.261  27.387  34.757  1.00  0.00     0.198 A 
ATOM     87  F   UNL A   1      46.245  29.081  33.481  1.00  0.00    -0.203 F 
ATOM     88  F   UNL A   1      45.869  24.394  36.248  1.00  0.00    -0.200 F 
ATOM     89  C   UNL A   1      47.174  26.197  35.462  1.00  0.00     0.200 A 
ATOM     90  F   UNL A   1      48.435  28.027  34.667  1.00  0.00    -0.200 F 
ATOM     91  F   UNL A   1      48.256  25.698  36.074  1.00  0.00    -0.200 F 
ENDBRANCH  58  81
ENDBRANCH  32  33
ENDBRANCH  24  27
ENDBRANCH  22  23
ENDBRANCH  21  22
ENDBRANCH   1  21
TORSDOF 13
ENDMDL
MODEL 2
REMARK VINA RESULT:     -11.5      3.977      8.850
REMARK SMILES COc1ccccc1N1C(=O)CC[C@H]1CC(=O)NCCCNC(=O)c1ccc(-c2c3nc(c(-c4c(F)c(F)c(F)c(F)c4F)c4ccc([nH]4)c(-c4c(F)c(F)c(F)c(F)c4F)c4nc(c(-c5c(F)c(F)c(F)c(F)c5F)c5ccc2[nH]5)C=C4)C=C3)cc1
REMARK SMILES IDX 19 1 18 2 16 3 17 4 15 6 14 7 9 8 10 9 11 10 12 11 13 12
REMARK SMILES IDX 8 13 3 14 4 15 5 16 7 17 6 18 2 19 1 20 20 21 21 22 22 23
REMARK SMILES IDX 23 24 24 26 25 27 26 28 87 29 27 30 86 31 28 32 29 33 30 34
REMARK SMILES IDX 80 35 31 36 85 37 79 38 81 39 32 40 84 41 78 42 77 43 33 45
REMARK SMILES IDX 65 46 45 47 64 48 46 49 49 50 63 51 82 52 47 53 48 54 62 56
REMARK SMILES IDX 83 57 50 58 34 59 35 60 43 61 36 62 37 63 41 64 44 65 38 66
REMARK SMILES IDX 39 67 42 68 40 69 66 70 67 71 75 72 68 73 69 74 73 75 76 76
REMARK SMILES IDX 70 77 71 78 74 79 72 80 51 81 52 82 60 83 53 84 54 85 58 86
REMARK SMILES IDX 61 87 55 88 56 89 59 90 57 91
REMARK H PARENT 18 5 22 25 81 44 49 55
REMARK Flexibility Score: inf
ROOT
ATOM      1  C   UNL A   1      34.316  24.458  25.625  1.00  0.00     0.117 C 
ENDROOT
BRANCH   1   2
ATOM      2  N   UNL A   1      33.167  24.290  26.485  1.00  0.00    -0.356 N 
ATOM      3  C   UNL A   1      31.847  24.490  26.309  1.00  0.00     0.222 C 
ATOM      4  O   UNL A   1      31.117  24.079  27.223  1.00  0.00    -0.275 OA
ATOM      5  H   UNL A   1      33.396  23.960  27.384  1.00  0.00     0.163 HD
BRANCH   3   6
ATOM      6  C   UNL A   1      31.194  25.093  25.078  1.00  0.00     0.125 C 
BRANCH   6   7
ATOM      7  C   UNL A   1      30.402  26.417  25.005  1.00  0.00     0.100 C 
ATOM      8  N   UNL A   1      30.976  27.719  24.707  1.00  0.00    -0.305 N 
ATOM      9  C   UNL A   1      30.259  28.362  23.673  1.00  0.00     0.227 C 
ATOM     10  O   UNL A   1      30.551  29.361  23.030  1.00  0.00    -0.275 OA
ATOM     11  C   UNL A   1      29.003  27.596  23.398  1.00  0.00     0.103 C 
ATOM     12  C   UNL A   1      29.273  26.233  23.978  1.00  0.00     0.036 C 
BRANCH   8  13
ATOM     13  C   UNL A   1      32.024  28.374  25.450  1.00  0.00     0.086 A 
ATOM     14  C   UNL A   1      33.399  28.170  25.192  1.00  0.00     0.142 A 
ATOM     15  C   UNL A   1      34.391  28.605  26.086  1.00  0.00     0.048 A 
ATOM     16  C   UNL A   1      34.048  29.321  27.224  1.00  0.00     0.004 A 
ATOM     17  C   UNL A   1      31.734  29.223  26.524  1.00  0.00     0.030 A 
ATOM     18  C   UNL A   1      32.719  29.655  27.426  1.00  0.00     0.002 A 
BRANCH  14  19
ATOM     19  O   UNL A   1      33.904  27.582  24.058  1.00  0.00    -0.495 OA
ATOM     20  C   UNL A   1      34.047  28.519  22.991  1.00  0.00     0.278 C 
ENDBRANCH  14  19
ENDBRANCH   8  13
ENDBRANCH   6   7
ENDBRANCH   3   6
ENDBRANCH   1   2
BRANCH   1  21
ATOM     21  C   UNL A   1      35.440  23.474  25.917  1.00  0.00     0.042 C 
BRANCH  21  22
ATOM     22  C   UNL A   1      36.697  23.599  25.070  1.00  0.00     0.118 C 
BRANCH  22  23
ATOM     23  N   UNL A   1      37.734  22.672  25.471  1.00  0.00    -0.352 N 
ATOM     24  C   UNL A   1      38.925  22.870  26.122  1.00  0.00     0.251 C 
ATOM     25  H   UNL A   1      37.552  21.733  25.235  1.00  0.00     0.163 HD
ATOM     26  O   UNL A   1      39.735  21.944  26.146  1.00  0.00    -0.269 OA
BRANCH  24  27
ATOM     27  C   UNL A   1      39.281  24.154  26.782  1.00  0.00     0.039 A 
ATOM     28  C   UNL A   1      40.007  25.092  26.036  1.00  0.00     0.014 A 
ATOM     29  C   UNL A   1      39.023  24.419  28.129  1.00  0.00     0.014 A 
ATOM     30  C   UNL A   1      40.439  26.288  26.621  1.00  0.00     0.010 A 
ATOM     31  C   UNL A   1      39.378  25.651  28.691  1.00  0.00     0.010 A 
ATOM     32  C   UNL A   1      40.110  26.592  27.951  1.00  0.00    -0.014 A 
BRANCH  32  33
ATOM     33  C   UNL A   1      40.553  27.869  28.576  1.00  0.00     0.031 A 
ATOM     34  C   UNL A   1      41.999  28.085  28.942  1.00  0.00     0.074 A 
ATOM     35  C   UNL A   1      39.654  28.838  28.835  1.00  0.00     0.049 A 
ATOM     36  N   UNL A   1      42.570  29.124  29.503  1.00  0.00    -0.248 NA
ATOM     37  C   UNL A   1      42.923  26.979  28.656  1.00  0.00     0.031 C 
ATOM     38  C   UNL A   1      38.221  28.753  28.556  1.00  0.00     0.029 A 
ATOM     39  N   UNL A   1      39.812  30.084  29.392  1.00  0.00    -0.354 N 
ATOM     40  C   UNL A   1      43.912  28.792  29.643  1.00  0.00     0.074 A 
ATOM     41  C   UNL A   1      44.059  27.434  29.165  1.00  0.00     0.031 C 
ATOM     42  C   UNL A   1      37.637  29.910  28.905  1.00  0.00     0.029 A 
ATOM     43  C   UNL A   1      38.644  30.801  29.474  1.00  0.00     0.049 A 
ATOM     44  H   UNL A   1      40.680  30.430  29.701  1.00  0.00     0.167 HD
ATOM     45  C   UNL A   1      44.934  29.554  30.105  1.00  0.00     0.037 A 
ATOM     46  C   UNL A   1      38.408  32.036  29.957  1.00  0.00     0.037 A 
ATOM     47  C   UNL A   1      44.790  30.908  30.579  1.00  0.00     0.049 A 
ATOM     48  C   UNL A   1      39.549  32.843  30.516  1.00  0.00     0.074 A 
ATOM     49  C   UNL A   1      45.771  31.776  31.028  1.00  0.00     0.029 A 
ATOM     50  N   UNL A   1      43.584  31.587  30.675  1.00  0.00    -0.354 N 
ATOM     51  N   UNL A   1      40.822  32.543  30.587  1.00  0.00    -0.248 NA
ATOM     52  C   UNL A   1      39.215  34.165  31.063  1.00  0.00     0.031 C 
ATOM     53  C   UNL A   1      45.153  32.958  31.450  1.00  0.00     0.029 A 
ATOM     54  C   UNL A   1      43.793  32.852  31.205  1.00  0.00     0.049 A 
ATOM     55  H   UNL A   1      42.709  31.225  30.406  1.00  0.00     0.167 HD
ATOM     56  C   UNL A   1      41.446  33.648  31.151  1.00  0.00     0.074 A 
ATOM     57  C   UNL A   1      40.411  34.630  31.395  1.00  0.00     0.031 C 
ATOM     58  C   UNL A   1      42.758  33.830  31.438  1.00  0.00     0.037 A 
BRANCH  45  59
ATOM     59  C   UNL A   1      46.302  28.929  30.129  1.00  0.00     0.064 A 
ATOM     60  C   UNL A   1      46.786  28.254  31.262  1.00  0.00     0.173 A 
ATOM     61  C   UNL A   1      47.140  28.999  29.006  1.00  0.00     0.173 A 
ATOM     62  F   UNL A   1      46.030  28.161  32.365  1.00  0.00    -0.203 F 
ATOM     63  C   UNL A   1      48.072  27.718  31.286  1.00  0.00     0.198 A 
ATOM     64  C   UNL A   1      48.411  28.430  29.020  1.00  0.00     0.198 A 
ATOM     65  F   UNL A   1      46.728  29.620  27.890  1.00  0.00    -0.203 F 
ATOM     66  F   UNL A   1      48.534  27.140  32.402  1.00  0.00    -0.200 F 
ATOM     67  C   UNL A   1      48.882  27.803  30.164  1.00  0.00     0.200 A 
ATOM     68  F   UNL A   1      49.187  28.497  27.928  1.00  0.00    -0.200 F 
ATOM     69  F   UNL A   1      50.119  27.290  30.189  1.00  0.00    -0.200 F 
ENDBRANCH  45  59
BRANCH  46  70
ATOM     70  C   UNL A   1      37.036  32.605  29.896  1.00  0.00     0.064 A 
ATOM     71  C   UNL A   1      36.150  32.449  30.971  1.00  0.00     0.173 A 
ATOM     72  C   UNL A   1      36.584  33.315  28.775  1.00  0.00     0.173 A 
ATOM     73  F   UNL A   1      36.528  31.757  32.056  1.00  0.00    -0.203 F 
ATOM     74  C   UNL A   1      34.858  32.970  30.922  1.00  0.00     0.198 A 
ATOM     75  C   UNL A   1      35.302  33.860  28.737  1.00  0.00     0.198 A 
ATOM     76  F   UNL A   1      37.391  33.490  27.718  1.00  0.00    -0.203 F 
ATOM     77  F   UNL A   1      34.018  32.770  31.946  1.00  0.00    -0.200 F 
ATOM     78  C   UNL A   1      34.438  33.682  29.808  1.00  0.00     0.200 A 
ATOM     79  F   UNL A   1      34.902  34.557  27.665  1.00  0.00    -0.200 F 
ATOM     80  F   UNL A   1      33.198  34.189  29.764  1.00  0.00    -0.200 F 
ENDBRANCH  46  70
BRANCH  58  81
ATOM     81  C   UNL A   1      43.162  35.160  32.009  1.00  0.00     0.064 A 
ATOM     82  C   UNL A   1      43.636  36.203  31.197  1.00  0.00     0.173 A 
ATOM     83  C   UNL A   1      43.040  35.406  33.385  1.00  0.00     0.173 A 
ATOM     84  F   UNL A   1      43.786  36.015  29.877  1.00  0.00    -0.203 F 
ATOM     85  C   UNL A   1      44.000  37.430  31.746  1.00  0.00     0.198 A 
ATOM     86  C   UNL A   1      43.374  36.646  33.926  1.00  0.00     0.198 A 
ATOM     87  F   UNL A   1      42.587  34.448  34.207  1.00  0.00    -0.203 F 
ATOM     88  F   UNL A   1      44.501  38.392  30.959  1.00  0.00    -0.200 F 
ATOM     89  C   UNL A   1      43.861  37.653  33.108  1.00  0.00     0.200 A 
ATOM     90  F   UNL A   1      43.224  36.864  35.240  1.00  0.00    -0.200 F 
ATOM     91  F   UNL A   1      44.206  38.836  33.633  1.00  0.00    -0.200 F 
ENDBRANCH  58  81
ENDBRANCH  32  33
ENDBRANCH  24  27
ENDBRANCH  22  23
ENDBRANCH  21  22
ENDBRANCH   1  21
TORSDOF 13
ENDMDL
MODEL 3
REMARK VINA RESULT:     -11.4      4.088      9.115
REMARK SMILES COc1ccccc1N1C(=O)CC[C@H]1CC(=O)NCCCNC(=O)c1ccc(-c2c3nc(c(-c4c(F)c(F)c(F)c(F)c4F)c4ccc([nH]4)c(-c4c(F)c(F)c(F)c(F)c4F)c4nc(c(-c5c(F)c(F)c(F)c(F)c5F)c5ccc2[nH]5)C=C4)C=C3)cc1
REMARK SMILES IDX 19 1 18 2 16 3 17 4 15 6 14 7 9 8 10 9 11 10 12 11 13 12
REMARK SMILES IDX 8 13 3 14 4 15 5 16 7 17 6 18 2 19 1 20 20 21 21 22 22 23
REMARK SMILES IDX 23 24 24 26 25 27 26 28 87 29 27 30 86 31 28 32 29 33 30 34
REMARK SMILES IDX 80 35 31 36 85 37 79 38 81 39 32 40 84 41 78 42 77 43 33 45
REMARK SMILES IDX 65 46 45 47 64 48 46 49 49 50 63 51 82 52 47 53 48 54 62 56
REMARK SMILES IDX 83 57 50 58 34 59 35 60 43 61 36 62 37 63 41 64 44 65 38 66
REMARK SMILES IDX 39 67 42 68 40 69 66 70 67 71 75 72 68 73 69 74 73 75 76 76
REMARK SMILES IDX 70 77 71 78 74 79 72 80 51 81 52 82 60 83 53 84 54 85 58 86
REMARK SMILES IDX 61 87 55 88 56 89 59 90 57 91
REMARK H PARENT 18 5 22 25 81 44 49 55
REMARK Flexibility Score: inf
ROOT
ATOM      1  C   UNL A   1      34.681  24.784  25.190  1.00  0.00     0.117 C 
ENDROOT
BRANCH   1   2
ATOM      2  N   UNL A   1      33.927  25.155  24.014  1.00  0.00    -0.356 N 
ATOM      3  C   UNL A   1      33.708  26.328  23.391  1.00  0.00     0.222 C 
ATOM      4  O   UNL A   1      33.136  26.253  22.294  1.00  0.00    -0.275 OA
ATOM      5  H   UNL A   1      33.483  24.392  23.578  1.00  0.00     0.163 HD
BRANCH   3   6
ATOM      6  C   UNL A   1      34.162  27.693  23.878  1.00  0.00     0.125 C 
BRANCH   6   7
ATOM      7  C   UNL A   1      33.517  28.538  24.998  1.00  0.00     0.100 C 
ATOM      8  N   UNL A   1      32.154  28.388  25.480  1.00  0.00    -0.305 N 
ATOM      9  C   UNL A   1      32.128  28.271  26.889  1.00  0.00     0.227 C 
ATOM     10  O   UNL A   1      31.206  27.942  27.623  1.00  0.00    -0.275 OA
ATOM     11  C   UNL A   1      33.486  28.586  27.433  1.00  0.00     0.103 C 
ATOM     12  C   UNL A   1      34.401  28.414  26.249  1.00  0.00     0.036 C 
BRANCH   8  13
ATOM     13  C   UNL A   1      30.956  28.504  24.687  1.00  0.00     0.086 A 
ATOM     14  C   UNL A   1      30.202  27.389  24.256  1.00  0.00     0.142 A 
ATOM     15  C   UNL A   1      29.202  27.507  23.276  1.00  0.00     0.048 A 
ATOM     16  C   UNL A   1      28.874  28.748  22.752  1.00  0.00     0.004 A 
ATOM     17  C   UNL A   1      30.493  29.749  24.245  1.00  0.00     0.030 A 
ATOM     18  C   UNL A   1      29.501  29.874  23.260  1.00  0.00     0.002 A 
BRANCH  14  19
ATOM     19  O   UNL A   1      30.328  26.117  24.760  1.00  0.00    -0.495 OA
ATOM     20  C   UNL A   1      30.230  25.127  23.737  1.00  0.00     0.278 C 
ENDBRANCH  14  19
ENDBRANCH   8  13
ENDBRANCH   6   7
ENDBRANCH   3   6
ENDBRANCH   1   2
BRANCH   1  21
ATOM     21  C   UNL A   1      35.465  23.489  25.024  1.00  0.00     0.042 C 
BRANCH  21  22
ATOM     22  C   UNL A   1      36.926  23.621  24.626  1.00  0.00     0.118 C 
BRANCH  22  23
ATOM     23  N   UNL A   1      37.772  22.645  25.283  1.00  0.00    -0.352 N 
ATOM     24  C   UNL A   1      38.845  22.796  26.124  1.00  0.00     0.251 C 
ATOM     25  H   UNL A   1      37.535  21.708  25.091  1.00  0.00     0.163 HD
ATOM     26  O   UNL A   1      39.534  21.807  26.369  1.00  0.00    -0.269 OA
BRANCH  24  27
ATOM     27  C   UNL A   1      39.214  24.100  26.737  1.00  0.00     0.039 A 
ATOM     28  C   UNL A   1      39.959  24.998  25.960  1.00  0.00     0.014 A 
ATOM     29  C   UNL A   1      38.951  24.421  28.070  1.00  0.00     0.014 A 
ATOM     30  C   UNL A   1      40.404  26.209  26.501  1.00  0.00     0.010 A 
ATOM     31  C   UNL A   1      39.320  25.669  28.586  1.00  0.00     0.010 A 
ATOM     32  C   UNL A   1      40.070  26.569  27.816  1.00  0.00    -0.014 A 
BRANCH  32  33
ATOM     33  C   UNL A   1      40.528  27.864  28.394  1.00  0.00     0.031 A 
ATOM     34  C   UNL A   1      41.987  28.105  28.681  1.00  0.00     0.074 A 
ATOM     35  C   UNL A   1      39.629  28.825  28.682  1.00  0.00     0.049 A 
ATOM     36  N   UNL A   1      42.572  29.162  29.193  1.00  0.00    -0.248 NA
ATOM     37  C   UNL A   1      42.911  27.006  28.368  1.00  0.00     0.031 C 
ATOM     38  C   UNL A   1      38.185  28.717  28.479  1.00  0.00     0.029 A 
ATOM     39  N   UNL A   1      39.798  30.084  29.207  1.00  0.00    -0.354 N 
ATOM     40  C   UNL A   1      43.923  28.850  29.270  1.00  0.00     0.074 A 
ATOM     41  C   UNL A   1      44.064  27.485  28.809  1.00  0.00     0.031 C 
ATOM     42  C   UNL A   1      37.604  29.873  28.836  1.00  0.00     0.029 A 
ATOM     43  C   UNL A   1      38.627  30.788  29.336  1.00  0.00     0.049 A 
ATOM     44  H   UNL A   1      40.676  30.447  29.465  1.00  0.00     0.167 HD
ATOM     45  C   UNL A   1      44.957  29.633  29.664  1.00  0.00     0.037 A 
ATOM     46  C   UNL A   1      38.399  32.028  29.809  1.00  0.00     0.037 A 
ATOM     47  C   UNL A   1      44.820  30.994  30.120  1.00  0.00     0.049 A 
ATOM     48  C   UNL A   1      39.556  32.860  30.293  1.00  0.00     0.074 A 
ATOM     49  C   UNL A   1      45.810  31.882  30.502  1.00  0.00     0.029 A 
ATOM     50  N   UNL A   1      43.611  31.659  30.266  1.00  0.00    -0.354 N 
ATOM     51  N   UNL A   1      40.835  32.577  30.304  1.00  0.00    -0.248 NA
ATOM     52  C   UNL A   1      39.232  34.188  30.832  1.00  0.00     0.031 C 
ATOM     53  C   UNL A   1      45.198  33.064  30.934  1.00  0.00     0.029 A 
ATOM     54  C   UNL A   1      43.829  32.937  30.762  1.00  0.00     0.049 A 
ATOM     55  H   UNL A   1      42.728  31.281  30.049  1.00  0.00     0.167 HD
ATOM     56  C   UNL A   1      41.472  33.700  30.815  1.00  0.00     0.074 A 
ATOM     57  C   UNL A   1      40.437  34.674  31.094  1.00  0.00     0.031 C 
ATOM     58  C   UNL A   1      42.794  33.905  31.030  1.00  0.00     0.037 A 
BRANCH  45  59
ATOM     59  C   UNL A   1      46.333  29.026  29.629  1.00  0.00     0.064 A 
ATOM     60  C   UNL A   1      46.883  28.376  30.747  1.00  0.00     0.173 A 
ATOM     61  C   UNL A   1      47.113  29.088  28.464  1.00  0.00     0.173 A 
ATOM     62  F   UNL A   1      46.184  28.292  31.888  1.00  0.00    -0.203 F 
ATOM     63  C   UNL A   1      48.175  27.858  30.714  1.00  0.00     0.198 A 
ATOM     64  C   UNL A   1      48.390  28.536  28.423  1.00  0.00     0.198 A 
ATOM     65  F   UNL A   1      46.636  29.685  27.361  1.00  0.00    -0.203 F 
ATOM     66  F   UNL A   1      48.701  27.304  31.814  1.00  0.00    -0.200 F 
ATOM     67  C   UNL A   1      48.927  27.935  29.552  1.00  0.00     0.200 A 
ATOM     68  F   UNL A   1      49.109  28.595  27.292  1.00  0.00    -0.200 F 
ATOM     69  F   UNL A   1      50.171  27.437  29.521  1.00  0.00    -0.200 F 
ENDBRANCH  45  59
BRANCH  46  70
ATOM     70  C   UNL A   1      37.018  32.578  29.808  1.00  0.00     0.064 A 
ATOM     71  C   UNL A   1      36.527  33.274  28.695  1.00  0.00     0.173 A 
ATOM     72  C   UNL A   1      36.162  32.419  30.907  1.00  0.00     0.173 A 
ATOM     73  F   UNL A   1      37.316  33.474  27.628  1.00  0.00    -0.203 F 
ATOM     74  C   UNL A   1      35.237  33.802  28.686  1.00  0.00     0.198 A 
ATOM     75  C   UNL A   1      34.863  32.923  30.887  1.00  0.00     0.198 A 
ATOM     76  F   UNL A   1      36.584  31.763  31.999  1.00  0.00    -0.203 F 
ATOM     77  F   UNL A   1      34.809  34.500  27.626  1.00  0.00    -0.200 F 
ATOM     78  C   UNL A   1      34.404  33.619  29.779  1.00  0.00     0.200 A 
ATOM     79  F   UNL A   1      34.056  32.734  31.940  1.00  0.00    -0.200 F 
ATOM     80  F   UNL A   1      33.162  34.121  29.768  1.00  0.00    -0.200 F 
ENDBRANCH  46  70
BRANCH  58  81
ATOM     81  C   UNL A   1      43.208  35.251  31.555  1.00  0.00     0.064 A 
ATOM     82  C   UNL A   1      43.611  36.289  30.700  1.00  0.00     0.173 A 
ATOM     83  C   UNL A   1      43.169  35.516  32.933  1.00  0.00     0.173 A 
ATOM     84  F   UNL A   1      43.681  36.084  29.376  1.00  0.00    -0.203 F 
ATOM     85  C   UNL A   1      43.986  37.530  31.208  1.00  0.00     0.198 A 
ATOM     86  C   UNL A   1      43.513  36.769  33.434  1.00  0.00     0.198 A 
ATOM     87  F   UNL A   1      42.786  34.562  33.796  1.00  0.00    -0.203 F 
ATOM     88  F   UNL A   1      44.419  38.489  30.377  1.00  0.00    -0.200 F 
ATOM     89  C   UNL A   1      43.929  37.772  32.572  1.00  0.00     0.200 A 
ATOM     90  F   UNL A   1      43.443  37.005  34.752  1.00  0.00    -0.200 F 
ATOM     91  F   UNL A   1      44.284  38.969  33.057  1.00  0.00    -0.200 F 
ENDBRANCH  58  81
ENDBRANCH  32  33
ENDBRANCH  24  27
ENDBRANCH  22  23
ENDBRANCH  21  22
ENDBRANCH   1  21
TORSDOF 13
ENDMDL
