MODEL 1
REMARK VINA RESULT:     -14.3      0.000      0.000
REMARK SMILES Cc1ccc(N2C(=O)C[C@H](Sc3ccccc3C(=O)NCCCNC(=O)c3ccc(-c4c5nc(c(-c6c(F)c(F)c(F)c(F)c6F)c6ccc([nH]6)c(-c6c(F)c(F)c(F)c(F)c6F)c6nc(c(-c7c(F)c(F)c(F)c(F)c7F)c7ccc4[nH]7)C=C6)C=C5)cc3)C2=O)cc1
REMARK SMILES IDX 21 1 20 2 18 3 19 4 17 6 12 7 13 8 14 9 16 10 15 11 11 12
REMARK SMILES IDX 10 13 6 14 7 15 90 16 8 17 9 18 91 19 5 20 1 21 2 22 3 23
REMARK SMILES IDX 93 24 4 25 92 26 22 27 23 28 24 29 25 30 26 32 27 33 28 34
REMARK SMILES IDX 89 35 29 36 88 37 30 38 31 39 32 40 82 41 33 42 87 43 81 44
REMARK SMILES IDX 83 45 34 46 86 47 80 48 79 49 35 51 67 52 47 53 66 54 48 55
REMARK SMILES IDX 51 56 65 57 84 58 49 59 50 60 64 62 85 63 52 64 36 65 37 66
REMARK SMILES IDX 45 67 38 68 39 69 43 70 46 71 40 72 41 73 44 74 42 75 68 76
REMARK SMILES IDX 69 77 77 78 70 79 71 80 75 81 78 82 72 83 73 84 76 85 74 86
REMARK SMILES IDX 53 87 54 88 62 89 55 90 56 91 60 92 63 93 57 94 58 95 61 96
REMARK SMILES IDX 59 97
REMARK H PARENT 20 5 24 31 83 50 51 61
REMARK Flexibility Score: inf
ROOT
ATOM      1  C   UNL A   1      32.260  30.524  26.430  1.00  0.00     0.118 C 
ENDROOT
BRANCH   1   2
ATOM      2  N   UNL A   1      32.993  29.577  25.601  1.00  0.00    -0.352 N 
ATOM      3  C   UNL A   1      32.682  28.647  24.637  1.00  0.00     0.252 C 
ATOM      4  O   UNL A   1      33.659  28.197  24.038  1.00  0.00    -0.269 OA
ATOM      5  H   UNL A   1      33.961  29.611  25.776  1.00  0.00     0.163 HD
BRANCH   3   6
ATOM      6  C   UNL A   1      31.302  28.150  24.308  1.00  0.00     0.053 A 
ATOM      7  C   UNL A   1      30.731  27.025  24.970  1.00  0.00     0.021 A 
ATOM      8  C   UNL A   1      29.479  26.531  24.545  1.00  0.00     0.016 A 
ATOM      9  C   UNL A   1      28.780  27.128  23.500  1.00  0.00     0.001 A 
ATOM     10  C   UNL A   1      30.569  28.726  23.256  1.00  0.00     0.015 A 
ATOM     11  C   UNL A   1      29.323  28.230  22.860  1.00  0.00     0.001 A 
BRANCH   7  12
ATOM     12  S   UNL A   1      31.522  25.969  26.198  1.00  0.00    -0.111 SA
BRANCH  12  13
ATOM     13  C   UNL A   1      31.967  24.446  25.297  1.00  0.00     0.151 C 
ATOM     14  N   UNL A   1      34.150  23.714  24.877  1.00  0.00    -0.250 N 
ATOM     15  C   UNL A   1      33.755  24.392  23.745  1.00  0.00     0.235 C 
ATOM     16  C   UNL A   1      33.173  23.734  25.853  1.00  0.00     0.247 C 
ATOM     17  O   UNL A   1      34.407  24.693  22.754  1.00  0.00    -0.274 OA
ATOM     18  C   UNL A   1      32.277  24.618  23.829  1.00  0.00     0.126 C 
ATOM     19  O   UNL A   1      33.241  23.298  26.996  1.00  0.00    -0.273 OA
BRANCH  14  20
ATOM     20  C   UNL A   1      35.391  23.033  25.003  1.00  0.00     0.052 A 
ATOM     21  C   UNL A   1      39.108  20.926  25.713  1.00  0.00     0.044 C 
ATOM     22  C   UNL A   1      37.831  21.659  25.431  1.00  0.00    -0.051 A 
ATOM     23  C   UNL A   1      37.720  23.019  25.728  1.00  0.00     0.005 A 
ATOM     24  C   UNL A   1      36.716  20.989  24.921  1.00  0.00     0.005 A 
ATOM     25  C   UNL A   1      36.521  23.703  25.495  1.00  0.00     0.027 A 
ATOM     26  C   UNL A   1      35.507  21.667  24.721  1.00  0.00     0.027 A 
ENDBRANCH  14  20
ENDBRANCH  12  13
ENDBRANCH   7  12
ENDBRANCH   3   6
ENDBRANCH   1   2
BRANCH   1  27
ATOM     27  C   UNL A   1      33.143  31.468  27.236  1.00  0.00     0.042 C 
BRANCH  27  28
ATOM     28  C   UNL A   1      34.249  30.734  27.989  1.00  0.00     0.118 C 
BRANCH  28  29
ATOM     29  N   UNL A   1      35.013  31.573  28.918  1.00  0.00    -0.352 N 
ATOM     30  C   UNL A   1      36.209  31.275  29.562  1.00  0.00     0.251 C 
ATOM     31  H   UNL A   1      34.631  32.459  29.109  1.00  0.00     0.163 HD
ATOM     32  O   UNL A   1      36.758  32.080  30.289  1.00  0.00    -0.269 OA
BRANCH  30  33
ATOM     33  C   UNL A   1      36.854  29.980  29.247  1.00  0.00     0.039 A 
ATOM     34  C   UNL A   1      37.092  29.090  30.299  1.00  0.00     0.014 A 
ATOM     35  C   UNL A   1      37.465  29.811  28.010  1.00  0.00     0.014 A 
ATOM     36  C   UNL A   1      38.153  28.196  30.192  1.00  0.00     0.010 A 
ATOM     37  C   UNL A   1      38.575  28.992  27.937  1.00  0.00     0.010 A 
ATOM     38  C   UNL A   1      38.968  28.253  29.061  1.00  0.00    -0.014 A 
BRANCH  38  39
ATOM     39  C   UNL A   1      40.330  27.724  29.038  1.00  0.00     0.031 A 
ATOM     40  C   UNL A   1      40.599  26.330  28.636  1.00  0.00     0.074 A 
ATOM     41  C   UNL A   1      41.365  28.559  29.287  1.00  0.00     0.049 A 
ATOM     42  N   UNL A   1      41.697  25.699  28.888  1.00  0.00    -0.248 NA
ATOM     43  C   UNL A   1      39.615  25.512  27.942  1.00  0.00     0.031 C 
ATOM     44  C   UNL A   1      42.784  28.318  29.035  1.00  0.00     0.029 A 
ATOM     45  N   UNL A   1      41.344  29.748  30.040  1.00  0.00    -0.354 N 
ATOM     46  C   UNL A   1      41.680  24.516  28.189  1.00  0.00     0.074 A 
ATOM     47  C   UNL A   1      40.338  24.425  27.658  1.00  0.00     0.031 C 
ATOM     48  C   UNL A   1      43.504  29.094  29.860  1.00  0.00     0.029 A 
ATOM     49  C   UNL A   1      42.568  29.748  30.756  1.00  0.00     0.049 A 
ATOM     50  H   UNL A   1      40.636  30.431  30.065  1.00  0.00     0.167 HD
ATOM     51  C   UNL A   1      42.839  23.806  28.055  1.00  0.00     0.037 A 
ATOM     52  C   UNL A   1      42.584  29.653  32.117  1.00  0.00     0.037 A 
ATOM     53  C   UNL A   1      43.924  24.393  28.846  1.00  0.00     0.049 A 
ATOM     54  C   UNL A   1      43.305  28.439  32.666  1.00  0.00     0.074 A 
ATOM     55  C   UNL A   1      45.018  25.194  28.563  1.00  0.00     0.029 A 
ATOM     56  N   UNL A   1      43.803  24.393  30.224  1.00  0.00    -0.354 N 
ATOM     57  N   UNL A   1      43.814  27.487  31.935  1.00  0.00    -0.248 NA
ATOM     58  C   UNL A   1      43.408  28.154  34.099  1.00  0.00     0.031 C 
ATOM     59  C   UNL A   1      45.556  25.668  29.795  1.00  0.00     0.029 A 
ATOM     60  C   UNL A   1      44.785  25.157  30.823  1.00  0.00     0.049 A 
ATOM     61  H   UNL A   1      43.104  23.907  30.716  1.00  0.00     0.167 HD
ATOM     62  C   UNL A   1      44.248  26.474  32.748  1.00  0.00     0.074 A 
ATOM     63  C   UNL A   1      43.971  26.935  34.095  1.00  0.00     0.031 C 
ATOM     64  C   UNL A   1      44.764  25.308  32.265  1.00  0.00     0.037 A 
BRANCH  51  65
ATOM     65  C   UNL A   1      43.056  22.703  27.040  1.00  0.00     0.064 A 
ATOM     66  C   UNL A   1      42.398  21.460  27.174  1.00  0.00     0.173 A 
ATOM     67  C   UNL A   1      43.934  22.780  25.945  1.00  0.00     0.173 A 
ATOM     68  F   UNL A   1      41.441  21.267  28.091  1.00  0.00    -0.203 F 
ATOM     69  C   UNL A   1      42.698  20.358  26.369  1.00  0.00     0.198 A 
ATOM     70  C   UNL A   1      44.283  21.663  25.177  1.00  0.00     0.198 A 
ATOM     71  F   UNL A   1      44.432  23.950  25.530  1.00  0.00    -0.203 F 
ATOM     72  F   UNL A   1      42.044  19.202  26.552  1.00  0.00    -0.200 F 
ATOM     73  C   UNL A   1      43.674  20.446  25.399  1.00  0.00     0.200 A 
ATOM     74  F   UNL A   1      45.210  21.781  24.216  1.00  0.00    -0.200 F 
ATOM     75  F   UNL A   1      44.001  19.377  24.661  1.00  0.00    -0.200 F 
ENDBRANCH  51  65
BRANCH  52  76
ATOM     76  C   UNL A   1      41.412  30.307  32.756  1.00  0.00     0.064 A 
ATOM     77  C   UNL A   1      41.357  31.715  32.782  1.00  0.00     0.173 A 
ATOM     78  C   UNL A   1      40.225  29.610  33.008  1.00  0.00     0.173 A 
ATOM     79  F   UNL A   1      42.465  32.435  32.542  1.00  0.00    -0.203 F 
ATOM     80  C   UNL A   1      40.149  32.391  32.934  1.00  0.00     0.198 A 
ATOM     81  C   UNL A   1      39.020  30.291  33.181  1.00  0.00     0.198 A 
ATOM     82  F   UNL A   1      40.204  28.270  32.971  1.00  0.00    -0.203 F 
ATOM     83  F   UNL A   1      40.112  33.727  32.830  1.00  0.00    -0.200 F 
ATOM     84  C   UNL A   1      38.977  31.675  33.109  1.00  0.00     0.200 A 
ATOM     85  F   UNL A   1      37.880  29.598  33.319  1.00  0.00    -0.200 F 
ATOM     86  F   UNL A   1      37.801  32.316  33.162  1.00  0.00    -0.200 F 
ENDBRANCH  52  76
BRANCH  64  87
ATOM     87  C   UNL A   1      45.274  24.201  33.142  1.00  0.00     0.064 A 
ATOM     88  C   UNL A   1      44.466  23.120  33.532  1.00  0.00     0.173 A 
ATOM     89  C   UNL A   1      46.563  24.249  33.711  1.00  0.00     0.173 A 
ATOM     90  F   UNL A   1      43.199  23.020  33.100  1.00  0.00    -0.203 F 
ATOM     91  C   UNL A   1      44.937  22.126  34.391  1.00  0.00     0.198 A 
ATOM     92  C   UNL A   1      47.013  23.283  34.609  1.00  0.00     0.198 A 
ATOM     93  F   UNL A   1      47.432  25.219  33.392  1.00  0.00    -0.203 F 
ATOM     94  F   UNL A   1      44.152  21.082  34.693  1.00  0.00    -0.200 F 
ATOM     95  C   UNL A   1      46.206  22.213  34.938  1.00  0.00     0.200 A 
ATOM     96  F   UNL A   1      48.236  23.393  35.147  1.00  0.00    -0.200 F 
ATOM     97  F   UNL A   1      46.650  21.267  35.776  1.00  0.00    -0.200 F 
ENDBRANCH  64  87
ENDBRANCH  38  39
ENDBRANCH  30  33
ENDBRANCH  28  29
ENDBRANCH  27  28
ENDBRANCH   1  27
TORSDOF 13
ENDMDL
MODEL 2
REMARK VINA RESULT:     -14.1      1.301      1.663
REMARK SMILES Cc1ccc(N2C(=O)C[C@H](Sc3ccccc3C(=O)NCCCNC(=O)c3ccc(-c4c5nc(c(-c6c(F)c(F)c(F)c(F)c6F)c6ccc([nH]6)c(-c6c(F)c(F)c(F)c(F)c6F)c6nc(c(-c7c(F)c(F)c(F)c(F)c7F)c7ccc4[nH]7)C=C6)C=C5)cc3)C2=O)cc1
REMARK SMILES IDX 21 1 20 2 18 3 19 4 17 6 12 7 13 8 14 9 16 10 15 11 11 12
REMARK SMILES IDX 10 13 6 14 7 15 90 16 8 17 9 18 91 19 5 20 1 21 2 22 3 23
REMARK SMILES IDX 93 24 4 25 92 26 22 27 23 28 24 29 25 30 26 32 27 33 28 34
REMARK SMILES IDX 89 35 29 36 88 37 30 38 31 39 32 40 82 41 33 42 87 43 81 44
REMARK SMILES IDX 83 45 34 46 86 47 80 48 79 49 35 51 67 52 47 53 66 54 48 55
REMARK SMILES IDX 51 56 65 57 84 58 49 59 50 60 64 62 85 63 52 64 36 65 37 66
REMARK SMILES IDX 45 67 38 68 39 69 43 70 46 71 40 72 41 73 44 74 42 75 68 76
REMARK SMILES IDX 69 77 77 78 70 79 71 80 75 81 78 82 72 83 73 84 76 85 74 86
REMARK SMILES IDX 53 87 54 88 62 89 55 90 56 91 60 92 63 93 57 94 58 95 61 96
REMARK SMILES IDX 59 97
REMARK H PARENT 20 5 24 31 83 50 51 61
REMARK Flexibility Score: inf
ROOT
ATOM      1  C   UNL A   1      32.177  30.253  26.432  1.00  0.00     0.118 C 
ENDROOT
BRANCH   1   2
ATOM      2  N   UNL A   1      32.741  29.745  25.188  1.00  0.00    -0.352 N 
ATOM      3  C   UNL A   1      32.254  29.209  24.019  1.00  0.00     0.252 C 
ATOM      4  O   UNL A   1      33.097  29.099  23.128  1.00  0.00    -0.269 OA
ATOM      5  H   UNL A   1      33.724  29.799  25.184  1.00  0.00     0.163 HD
BRANCH   3   6
ATOM      6  C   UNL A   1      30.843  28.746  23.784  1.00  0.00     0.053 A 
ATOM      7  C   UNL A   1      30.417  27.432  24.129  1.00  0.00     0.021 A 
ATOM      8  C   UNL A   1      29.114  27.011  23.784  1.00  0.00     0.016 A 
ATOM      9  C   UNL A   1      28.228  27.860  23.126  1.00  0.00     0.001 A 
ATOM     10  C   UNL A   1      29.924  29.575  23.118  1.00  0.00     0.015 A 
ATOM     11  C   UNL A   1      28.632  29.143  22.799  1.00  0.00     0.001 A 
BRANCH   7  12
ATOM     12  S   UNL A   1      31.432  26.099  24.792  1.00  0.00    -0.111 SA
BRANCH  12  13
ATOM     13  C   UNL A   1      31.158  24.689  23.665  1.00  0.00     0.151 C 
ATOM     14  N   UNL A   1      32.410  22.712  23.646  1.00  0.00    -0.250 N 
ATOM     15  C   UNL A   1      32.960  23.517  22.673  1.00  0.00     0.235 C 
ATOM     16  C   UNL A   1      31.372  23.342  24.305  1.00  0.00     0.247 C 
ATOM     17  O   UNL A   1      33.969  23.343  22.002  1.00  0.00    -0.274 OA
ATOM     18  C   UNL A   1      32.023  24.659  22.428  1.00  0.00     0.126 C 
ATOM     19  O   UNL A   1      30.734  22.935  25.268  1.00  0.00    -0.273 OA
BRANCH  14  20
ATOM     20  C   UNL A   1      32.827  21.378  23.903  1.00  0.00     0.052 A 
ATOM     21  C   UNL A   1      34.254  17.317  24.388  1.00  0.00     0.044 C 
ATOM     22  C   UNL A   1      33.742  18.720  24.253  1.00  0.00    -0.051 A 
ATOM     23  C   UNL A   1      32.620  18.987  23.466  1.00  0.00     0.005 A 
ATOM     24  C   UNL A   1      34.406  19.788  24.862  1.00  0.00     0.005 A 
ATOM     25  C   UNL A   1      32.154  20.298  23.312  1.00  0.00     0.027 A 
ATOM     26  C   UNL A   1      33.959  21.102  24.679  1.00  0.00     0.027 A 
ENDBRANCH  14  20
ENDBRANCH  12  13
ENDBRANCH   7  12
ENDBRANCH   3   6
ENDBRANCH   1   2
BRANCH   1  27
ATOM     27  C   UNL A   1      33.076  31.233  27.175  1.00  0.00     0.042 C 
BRANCH  27  28
ATOM     28  C   UNL A   1      34.155  30.530  27.994  1.00  0.00     0.118 C 
BRANCH  28  29
ATOM     29  N   UNL A   1      34.822  31.383  28.983  1.00  0.00    -0.352 N 
ATOM     30  C   UNL A   1      36.045  31.178  29.612  1.00  0.00     0.251 C 
ATOM     31  H   UNL A   1      34.343  32.206  29.232  1.00  0.00     0.163 HD
ATOM     32  O   UNL A   1      36.502  31.988  30.395  1.00  0.00    -0.269 OA
BRANCH  30  33
ATOM     33  C   UNL A   1      36.830  29.987  29.213  1.00  0.00     0.039 A 
ATOM     34  C   UNL A   1      37.038  28.986  30.167  1.00  0.00     0.014 A 
ATOM     35  C   UNL A   1      37.576  30.030  28.041  1.00  0.00     0.014 A 
ATOM     36  C   UNL A   1      38.179  28.196  30.070  1.00  0.00     0.010 A 
ATOM     37  C   UNL A   1      38.756  29.313  27.992  1.00  0.00     0.010 A 
ATOM     38  C   UNL A   1      39.097  28.464  29.053  1.00  0.00    -0.014 A 
BRANCH  38  39
ATOM     39  C   UNL A   1      40.495  28.045  29.117  1.00  0.00     0.031 A 
ATOM     40  C   UNL A   1      40.929  26.748  28.563  1.00  0.00     0.074 A 
ATOM     41  C   UNL A   1      41.419  28.909  29.598  1.00  0.00     0.049 A 
ATOM     42  N   UNL A   1      42.046  26.170  28.852  1.00  0.00    -0.248 NA
ATOM     43  C   UNL A   1      40.100  25.970  27.653  1.00  0.00     0.031 C 
ATOM     44  C   UNL A   1      42.872  28.812  29.483  1.00  0.00     0.029 A 
ATOM     45  N   UNL A   1      41.213  29.970  30.498  1.00  0.00    -0.354 N 
ATOM     46  C   UNL A   1      42.209  25.104  28.001  1.00  0.00     0.074 A 
ATOM     47  C   UNL A   1      40.944  24.992  27.309  1.00  0.00     0.031 C 
ATOM     48  C   UNL A   1      43.430  29.511  30.484  1.00  0.00     0.029 A 
ATOM     49  C   UNL A   1      42.350  29.957  31.345  1.00  0.00     0.049 A 
ATOM     50  H   UNL A   1      40.448  30.588  30.533  1.00  0.00     0.167 HD
ATOM     51  C   UNL A   1      43.435  24.508  27.908  1.00  0.00     0.037 A 
ATOM     52  C   UNL A   1      42.231  29.665  32.673  1.00  0.00     0.037 A 
ATOM     53  C   UNL A   1      44.374  25.052  28.893  1.00  0.00     0.049 A 
ATOM     54  C   UNL A   1      42.996  28.441  33.132  1.00  0.00     0.074 A 
ATOM     55  C   UNL A   1      45.415  25.964  28.852  1.00  0.00     0.029 A 
ATOM     56  N   UNL A   1      44.109  24.842  30.234  1.00  0.00    -0.354 N 
ATOM     57  N   UNL A   1      43.662  27.645  32.342  1.00  0.00    -0.248 NA
ATOM     58  C   UNL A   1      42.972  27.958  34.514  1.00  0.00     0.031 C 
ATOM     59  C   UNL A   1      45.776  26.292  30.192  1.00  0.00     0.029 A 
ATOM     60  C   UNL A   1      44.949  25.581  31.042  1.00  0.00     0.049 A 
ATOM     61  H   UNL A   1      43.408  24.239  30.570  1.00  0.00     0.167 HD
ATOM     62  C   UNL A   1      44.098  26.559  33.054  1.00  0.00     0.074 A 
ATOM     63  C   UNL A   1      43.640  26.798  34.409  1.00  0.00     0.031 C 
ATOM     64  C   UNL A   1      44.764  25.518  32.480  1.00  0.00     0.037 A 
BRANCH  51  65
ATOM     65  C   UNL A   1      43.855  23.584  26.784  1.00  0.00     0.064 A 
ATOM     66  C   UNL A   1      43.328  22.276  26.690  1.00  0.00     0.173 A 
ATOM     67  C   UNL A   1      44.809  23.898  25.799  1.00  0.00     0.173 A 
ATOM     68  F   UNL A   1      42.324  21.865  27.476  1.00  0.00    -0.203 F 
ATOM     69  C   UNL A   1      43.813  21.332  25.781  1.00  0.00     0.198 A 
ATOM     70  C   UNL A   1      45.340  22.938  24.930  1.00  0.00     0.198 A 
ATOM     71  F   UNL A   1      45.209  25.158  25.591  1.00  0.00    -0.203 F 
ATOM     72  F   UNL A   1      43.276  20.105  25.747  1.00  0.00    -0.200 F 
ATOM     73  C   UNL A   1      44.852  21.649  24.931  1.00  0.00     0.200 A 
ATOM     74  F   UNL A   1      46.326  23.279  24.089  1.00  0.00    -0.200 F 
ATOM     75  F   UNL A   1      45.354  20.731  24.096  1.00  0.00    -0.200 F 
ENDBRANCH  51  65
BRANCH  52  76
ATOM     76  C   UNL A   1      40.944  30.131  33.254  1.00  0.00     0.064 A 
ATOM     77  C   UNL A   1      40.772  31.509  33.493  1.00  0.00     0.173 A 
ATOM     78  C   UNL A   1      39.798  29.329  33.243  1.00  0.00     0.173 A 
ATOM     79  F   UNL A   1      41.838  32.326  33.510  1.00  0.00    -0.203 F 
ATOM     80  C   UNL A   1      39.503  32.074  33.596  1.00  0.00     0.198 A 
ATOM     81  C   UNL A   1      38.529  29.896  33.368  1.00  0.00     0.198 A 
ATOM     82  F   UNL A   1      39.889  28.015  32.995  1.00  0.00    -0.203 F 
ATOM     83  F   UNL A   1      39.370  33.404  33.698  1.00  0.00    -0.200 F 
ATOM     84  C   UNL A   1      38.382  31.268  33.508  1.00  0.00     0.200 A 
ATOM     85  F   UNL A   1      37.441  29.121  33.251  1.00  0.00    -0.200 F 
ATOM     86  F   UNL A   1      37.159  31.817  33.513  1.00  0.00    -0.200 F 
ENDBRANCH  52  76
BRANCH  64  87
ATOM     87  C   UNL A   1      45.275  24.335  33.250  1.00  0.00     0.064 A 
ATOM     88  C   UNL A   1      44.466  23.227  33.549  1.00  0.00     0.173 A 
ATOM     89  C   UNL A   1      46.569  24.328  33.812  1.00  0.00     0.173 A 
ATOM     90  F   UNL A   1      43.196  23.170  33.119  1.00  0.00    -0.203 F 
ATOM     91  C   UNL A   1      44.940  22.158  34.312  1.00  0.00     0.198 A 
ATOM     92  C   UNL A   1      47.022  23.284  34.616  1.00  0.00     0.198 A 
ATOM     93  F   UNL A   1      47.440  25.320  33.574  1.00  0.00    -0.203 F 
ATOM     94  F   UNL A   1      44.153  21.094  34.526  1.00  0.00    -0.200 F 
ATOM     95  C   UNL A   1      46.213  22.192  34.854  1.00  0.00     0.200 A 
ATOM     96  F   UNL A   1      48.249  23.343  35.153  1.00  0.00    -0.200 F 
ATOM     97  F   UNL A   1      46.659  21.174  35.602  1.00  0.00    -0.200 F 
ENDBRANCH  64  87
ENDBRANCH  38  39
ENDBRANCH  30  33
ENDBRANCH  28  29
ENDBRANCH  27  28
ENDBRANCH   1  27
TORSDOF 13
ENDMDL
MODEL 3
REMARK VINA RESULT:     -13.8      1.227      1.881
REMARK SMILES Cc1ccc(N2C(=O)C[C@H](Sc3ccccc3C(=O)NCCCNC(=O)c3ccc(-c4c5nc(c(-c6c(F)c(F)c(F)c(F)c6F)c6ccc([nH]6)c(-c6c(F)c(F)c(F)c(F)c6F)c6nc(c(-c7c(F)c(F)c(F)c(F)c7F)c7ccc4[nH]7)C=C6)C=C5)cc3)C2=O)cc1
REMARK SMILES IDX 21 1 20 2 18 3 19 4 17 6 12 7 13 8 14 9 16 10 15 11 11 12
REMARK SMILES IDX 10 13 6 14 7 15 90 16 8 17 9 18 91 19 5 20 1 21 2 22 3 23
REMARK SMILES IDX 93 24 4 25 92 26 22 27 23 28 24 29 25 30 26 32 27 33 28 34
REMARK SMILES IDX 89 35 29 36 88 37 30 38 31 39 32 40 82 41 33 42 87 43 81 44
REMARK SMILES IDX 83 45 34 46 86 47 80 48 79 49 35 51 67 52 47 53 66 54 48 55
REMARK SMILES IDX 51 56 65 57 84 58 49 59 50 60 64 62 85 63 52 64 36 65 37 66
REMARK SMILES IDX 45 67 38 68 39 69 43 70 46 71 40 72 41 73 44 74 42 75 68 76
REMARK SMILES IDX 69 77 77 78 70 79 71 80 75 81 78 82 72 83 73 84 76 85 74 86
REMARK SMILES IDX 53 87 54 88 62 89 55 90 56 91 60 92 63 93 57 94 58 95 61 96
REMARK SMILES IDX 59 97
REMARK H PARENT 20 5 24 31 83 50 51 61
REMARK Flexibility Score: inf
ROOT
ATOM      1  C   UNL A   1      32.251  30.669  26.365  1.00  0.00     0.118 C 
ENDROOT
BRANCH   1   2
ATOM      2  N   UNL A   1      32.870  29.931  25.272  1.00  0.00    -0.352 N 
ATOM      3  C   UNL A   1      32.437  29.225  24.175  1.00  0.00     0.252 C 
ATOM      4  O   UNL A   1      33.332  28.926  23.384  1.00  0.00    -0.269 OA
ATOM      5  H   UNL A   1      33.853  29.939  25.336  1.00  0.00     0.163 HD
BRANCH   3   6
ATOM      6  C   UNL A   1      31.022  28.791  23.910  1.00  0.00     0.053 A 
ATOM      7  C   UNL A   1      30.574  27.471  24.201  1.00  0.00     0.021 A 
ATOM      8  C   UNL A   1      29.268  27.083  23.830  1.00  0.00     0.016 A 
ATOM      9  C   UNL A   1      28.401  27.968  23.198  1.00  0.00     0.001 A 
ATOM     10  C   UNL A   1      30.120  29.658  23.270  1.00  0.00     0.015 A 
ATOM     11  C   UNL A   1      28.825  29.258  22.923  1.00  0.00     0.001 A 
BRANCH   7  12
ATOM     12  S   UNL A   1      31.565  26.098  24.821  1.00  0.00    -0.111 SA
BRANCH  12  13
ATOM     13  C   UNL A   1      31.186  24.701  23.709  1.00  0.00     0.151 C 
ATOM     14  N   UNL A   1      32.436  22.730  23.545  1.00  0.00    -0.250 N 
ATOM     15  C   UNL A   1      32.887  23.549  22.532  1.00  0.00     0.235 C 
ATOM     16  C   UNL A   1      31.466  23.348  24.308  1.00  0.00     0.247 C 
ATOM     17  O   UNL A   1      33.826  23.387  21.764  1.00  0.00    -0.274 OA
ATOM     18  C   UNL A   1      31.927  24.690  22.393  1.00  0.00     0.126 C 
ATOM     19  O   UNL A   1      30.925  22.926  25.324  1.00  0.00    -0.273 OA
BRANCH  14  20
ATOM     20  C   UNL A   1      32.880  21.395  23.743  1.00  0.00     0.052 A 
ATOM     21  C   UNL A   1      34.068  17.327  24.641  1.00  0.00     0.044 C 
ATOM     22  C   UNL A   1      33.678  18.733  24.299  1.00  0.00    -0.051 A 
ATOM     23  C   UNL A   1      34.345  19.812  24.884  1.00  0.00     0.005 A 
ATOM     24  C   UNL A   1      32.609  18.992  23.436  1.00  0.00     0.005 A 
ATOM     25  C   UNL A   1      33.966  21.127  24.592  1.00  0.00     0.027 A 
ATOM     26  C   UNL A   1      32.209  20.308  23.172  1.00  0.00     0.027 A 
ENDBRANCH  14  20
ENDBRANCH  12  13
ENDBRANCH   7  12
ENDBRANCH   3   6
ENDBRANCH   1   2
BRANCH   1  27
ATOM     27  C   UNL A   1      33.099  30.749  27.628  1.00  0.00     0.042 C 
BRANCH  27  28
ATOM     28  C   UNL A   1      34.561  31.071  27.332  1.00  0.00     0.118 C 
BRANCH  28  29
ATOM     29  N   UNL A   1      35.244  31.827  28.387  1.00  0.00    -0.352 N 
ATOM     30  C   UNL A   1      36.331  31.437  29.160  1.00  0.00     0.251 C 
ATOM     31  H   UNL A   1      34.887  32.726  28.570  1.00  0.00     0.163 HD
ATOM     32  O   UNL A   1      36.825  32.179  29.986  1.00  0.00    -0.269 OA
BRANCH  30  33
ATOM     33  C   UNL A   1      36.942  30.120  28.868  1.00  0.00     0.039 A 
ATOM     34  C   UNL A   1      37.163  29.244  29.936  1.00  0.00     0.014 A 
ATOM     35  C   UNL A   1      37.544  29.912  27.632  1.00  0.00     0.014 A 
ATOM     36  C   UNL A   1      38.201  28.323  29.842  1.00  0.00     0.010 A 
ATOM     37  C   UNL A   1      38.634  29.065  27.571  1.00  0.00     0.010 A 
ATOM     38  C   UNL A   1      39.013  28.339  28.708  1.00  0.00    -0.014 A 
BRANCH  38  39
ATOM     39  C   UNL A   1      40.361  27.775  28.690  1.00  0.00     0.031 A 
ATOM     40  C   UNL A   1      40.586  26.346  28.401  1.00  0.00     0.074 A 
ATOM     41  C   UNL A   1      41.422  28.603  28.836  1.00  0.00     0.049 A 
ATOM     42  N   UNL A   1      41.677  25.712  28.674  1.00  0.00    -0.248 NA
ATOM     43  C   UNL A   1      39.563  25.497  27.809  1.00  0.00     0.031 C 
ATOM     44  C   UNL A   1      42.826  28.306  28.564  1.00  0.00     0.029 A 
ATOM     45  N   UNL A   1      41.452  29.851  29.484  1.00  0.00    -0.354 N 
ATOM     46  C   UNL A   1      41.612  24.474  28.079  1.00  0.00     0.074 A 
ATOM     47  C   UNL A   1      40.252  24.372  27.598  1.00  0.00     0.031 C 
ATOM     48  C   UNL A   1      43.589  29.131  29.297  1.00  0.00     0.029 A 
ATOM     49  C   UNL A   1      42.697  29.882  30.160  1.00  0.00     0.049 A 
ATOM     50  H   UNL A   1      40.759  30.552  29.471  1.00  0.00     0.167 HD
ATOM     51  C   UNL A   1      42.751  23.727  27.973  1.00  0.00     0.037 A 
ATOM     52  C   UNL A   1      42.753  29.903  31.524  1.00  0.00     0.037 A 
ATOM     53  C   UNL A   1      43.872  24.352  28.678  1.00  0.00     0.049 A 
ATOM     54  C   UNL A   1      43.464  28.722  32.154  1.00  0.00     0.074 A 
ATOM     55  C   UNL A   1      44.975  25.098  28.296  1.00  0.00     0.029 A 
ATOM     56  N   UNL A   1      43.795  24.472  30.054  1.00  0.00    -0.354 N 
ATOM     57  N   UNL A   1      43.929  27.699  31.492  1.00  0.00    -0.248 NA
ATOM     58  C   UNL A   1      43.606  28.558  33.602  1.00  0.00     0.031 C 
ATOM     59  C   UNL A   1      45.562  25.662  29.466  1.00  0.00     0.029 A 
ATOM     60  C   UNL A   1      44.812  25.259  30.556  1.00  0.00     0.049 A 
ATOM     61  H   UNL A   1      43.101  24.047  30.607  1.00  0.00     0.167 HD
ATOM     62  C   UNL A   1      44.366  26.748  32.376  1.00  0.00     0.074 A 
ATOM     63  C   UNL A   1      44.142  27.330  33.686  1.00  0.00     0.031 C 
ATOM     64  C   UNL A   1      44.840  25.533  31.980  1.00  0.00     0.037 A 
BRANCH  51  65
ATOM     65  C   UNL A   1      42.910  22.536  27.050  1.00  0.00     0.064 A 
ATOM     66  C   UNL A   1      42.190  21.343  27.281  1.00  0.00     0.173 A 
ATOM     67  C   UNL A   1      43.791  22.480  25.956  1.00  0.00     0.173 A 
ATOM     68  F   UNL A   1      41.224  21.273  28.206  1.00  0.00    -0.203 F 
ATOM     69  C   UNL A   1      42.433  20.166  26.567  1.00  0.00     0.198 A 
ATOM     70  C   UNL A   1      44.082  21.289  25.282  1.00  0.00     0.198 A 
ATOM     71  F   UNL A   1      44.349  23.587  25.451  1.00  0.00    -0.203 F 
ATOM     72  F   UNL A   1      41.721  19.064  26.840  1.00  0.00    -0.200 F 
ATOM     73  C   UNL A   1      43.412  20.126  25.598  1.00  0.00     0.200 A 
ATOM     74  F   UNL A   1      45.014  21.283  24.318  1.00  0.00    -0.200 F 
ATOM     75  F   UNL A   1      43.684  18.987  24.949  1.00  0.00    -0.200 F 
ENDBRANCH  51  65
BRANCH  52  76
ATOM     76  C   UNL A   1      41.617  30.638  32.139  1.00  0.00     0.064 A 
ATOM     77  C   UNL A   1      40.506  29.901  32.595  1.00  0.00     0.173 A 
ATOM     78  C   UNL A   1      41.751  31.953  32.596  1.00  0.00     0.173 A 
ATOM     79  F   UNL A   1      40.330  28.631  32.194  1.00  0.00    -0.203 F 
ATOM     80  C   UNL A   1      39.638  30.416  33.556  1.00  0.00     0.198 A 
ATOM     81  C   UNL A   1      40.867  32.474  33.541  1.00  0.00     0.198 A 
ATOM     82  F   UNL A   1      42.800  32.699  32.220  1.00  0.00    -0.203 F 
ATOM     83  F   UNL A   1      38.665  29.646  34.060  1.00  0.00    -0.200 F 
ATOM     84  C   UNL A   1      39.836  31.696  34.045  1.00  0.00     0.200 A 
ATOM     85  F   UNL A   1      41.077  33.701  34.039  1.00  0.00    -0.200 F 
ATOM     86  F   UNL A   1      39.062  32.163  35.035  1.00  0.00    -0.200 F 
ENDBRANCH  52  76
BRANCH  64  87
ATOM     87  C   UNL A   1      45.352  24.492  32.933  1.00  0.00     0.064 A 
ATOM     88  C   UNL A   1      44.564  23.409  33.355  1.00  0.00     0.173 A 
ATOM     89  C   UNL A   1      46.619  24.612  33.541  1.00  0.00     0.173 A 
ATOM     90  F   UNL A   1      43.317  23.245  32.888  1.00  0.00    -0.203 F 
ATOM     91  C   UNL A   1      45.035  22.478  34.284  1.00  0.00     0.198 A 
ATOM     92  C   UNL A   1      47.066  23.712  34.505  1.00  0.00     0.198 A 
ATOM     93  F   UNL A   1      47.469  25.591  33.198  1.00  0.00    -0.203 F 
ATOM     94  F   UNL A   1      44.272  21.428  34.617  1.00  0.00    -0.200 F 
ATOM     95  C   UNL A   1      46.281  22.636  34.866  1.00  0.00     0.200 A 
ATOM     96  F   UNL A   1      48.267  23.890  35.076  1.00  0.00    -0.200 F 
ATOM     97  F   UNL A   1      46.724  21.752  35.770  1.00  0.00    -0.200 F 
ENDBRANCH  64  87
ENDBRANCH  38  39
ENDBRANCH  30  33
ENDBRANCH  28  29
ENDBRANCH  27  28
ENDBRANCH   1  27
TORSDOF 13
ENDMDL
