MODEL 1
REMARK VINA RESULT:     -11.3      0.000      0.000
REMARK SMILES CCCCNC(=O)COc1ccc(Cl)cc1C(=O)NCCCNC(=O)c1ccc(-c2c3nc(c(-c4c(F)c(F)c(F)c(F)c4F)c4ccc([nH]4)c(-c4c(F)c(F)c(F)c(F)c4F)c4nc(c(-c5c(F)c(F)c(F)c(F)c5F)c5ccc2[nH]5)C=C4)C=C3)cc1
REMARK SMILES IDX 17 1 18 2 19 3 16 5 10 6 11 7 12 8 15 9 13 10 14 11 9 12
REMARK SMILES IDX 8 13 6 14 5 15 7 17 4 18 3 19 2 20 1 21 20 22 21 23 22 24
REMARK SMILES IDX 23 25 24 26 25 28 26 29 27 30 88 31 28 32 87 33 29 34 30 35
REMARK SMILES IDX 31 36 81 37 32 38 86 39 80 40 82 41 33 42 85 43 79 44 78 45
REMARK SMILES IDX 34 47 66 48 46 49 65 50 47 51 50 52 64 53 83 54 48 55 49 56
REMARK SMILES IDX 63 58 84 59 51 60 35 61 36 62 44 63 37 64 38 65 42 66 45 67
REMARK SMILES IDX 39 68 40 69 43 70 41 71 67 72 68 73 76 74 69 75 70 76 74 77
REMARK SMILES IDX 77 78 71 79 72 80 75 81 73 82 52 83 53 84 61 85 54 86 55 87
REMARK SMILES IDX 59 88 62 89 56 90 57 91 60 92 58 93
REMARK H PARENT 19 4 5 16 23 27 82 46 50 57
REMARK Flexibility Score: inf
ROOT
ATOM      1  C   UNL A   1      33.052  24.487  26.044  1.00  0.00     0.255 C 
ATOM      2  O   UNL A   1      32.540  23.889  26.996  1.00  0.00    -0.269 OA
ATOM      3  N   UNL A   1      32.445  25.668  25.685  1.00  0.00    -0.352 N 
ATOM      4  H   UNL A   1      31.618  25.883  26.174  1.00  0.00     0.163 HD
ENDROOT
BRANCH   1   5
ATOM      5  C   UNL A   1      34.213  23.842  25.335  1.00  0.00     0.083 A 
ATOM      6  C   UNL A   1      34.214  23.050  24.168  1.00  0.00     0.132 A 
ATOM      7  C   UNL A   1      35.430  22.583  23.632  1.00  0.00     0.049 A 
ATOM      8  C   UNL A   1      36.645  22.879  24.243  1.00  0.00     0.024 A 
ATOM      9  C   UNL A   1      35.463  24.136  25.928  1.00  0.00     0.038 A 
ATOM     10  C   UNL A   1      36.658  23.662  25.387  1.00  0.00     0.042 A 
ATOM     11  Cl  UNL A   1      38.158  24.066  26.123  1.00  0.00    -0.084 Cl
BRANCH   6  12
ATOM     12  O   UNL A   1      33.074  22.822  23.443  1.00  0.00    -0.483 OA
BRANCH  12  13
ATOM     13  C   UNL A   1      32.695  21.444  23.352  1.00  0.00     0.329 C 
BRANCH  13  14
ATOM     14  C   UNL A   1      32.259  20.758  24.639  1.00  0.00     0.257 C 
ATOM     15  N   UNL A   1      32.782  19.538  24.948  1.00  0.00    -0.353 N 
ATOM     16  H   UNL A   1      32.406  19.096  25.743  1.00  0.00     0.163 HD
ATOM     17  O   UNL A   1      31.402  21.254  25.371  1.00  0.00    -0.271 OA
BRANCH  15  18
ATOM     18  C   UNL A   1      33.827  18.811  24.251  1.00  0.00     0.116 C 
BRANCH  18  19
ATOM     19  C   UNL A   1      33.287  17.568  23.542  1.00  0.00     0.021 C 
BRANCH  19  20
ATOM     20  C   UNL A   1      34.039  16.275  23.865  1.00  0.00    -0.002 C 
ATOM     21  C   UNL A   1      34.233  16.046  25.354  1.00  0.00     0.004 C 
ENDBRANCH  19  20
ENDBRANCH  18  19
ENDBRANCH  15  18
ENDBRANCH  13  14
ENDBRANCH  12  13
ENDBRANCH   6  12
ENDBRANCH   1   5
BRANCH   3  22
ATOM     22  C   UNL A   1      32.844  26.632  24.698  1.00  0.00     0.118 C 
BRANCH  22  23
ATOM     23  C   UNL A   1      32.202  28.002  24.748  1.00  0.00     0.042 C 
BRANCH  23  24
ATOM     24  C   UNL A   1      33.152  29.172  24.888  1.00  0.00     0.118 C 
BRANCH  24  25
ATOM     25  N   UNL A   1      32.607  30.296  25.639  1.00  0.00    -0.352 N 
ATOM     26  C   UNL A   1      33.058  30.981  26.744  1.00  0.00     0.251 C 
ATOM     27  H   UNL A   1      31.749  30.629  25.289  1.00  0.00     0.163 HD
ATOM     28  O   UNL A   1      32.333  31.839  27.249  1.00  0.00    -0.269 OA
BRANCH  26  29
ATOM     29  C   UNL A   1      34.366  30.679  27.378  1.00  0.00     0.039 A 
ATOM     30  C   UNL A   1      35.260  31.726  27.626  1.00  0.00     0.014 A 
ATOM     31  C   UNL A   1      34.740  29.382  27.718  1.00  0.00     0.014 A 
ATOM     32  C   UNL A   1      36.464  31.482  28.298  1.00  0.00     0.010 A 
ATOM     33  C   UNL A   1      35.859  29.160  28.513  1.00  0.00     0.010 A 
ATOM     34  C   UNL A   1      36.747  30.203  28.802  1.00  0.00    -0.014 A 
BRANCH  34  35
ATOM     35  C   UNL A   1      37.970  29.919  29.600  1.00  0.00     0.031 A 
ATOM     36  C   UNL A   1      39.019  28.975  29.066  1.00  0.00     0.074 A 
ATOM     37  C   UNL A   1      38.106  30.443  30.836  1.00  0.00     0.049 A 
ATOM     38  N   UNL A   1      40.095  28.511  29.650  1.00  0.00    -0.248 NA
ATOM     39  C   UNL A   1      38.809  28.452  27.705  1.00  0.00     0.031 C 
ATOM     40  C   UNL A   1      37.142  31.326  31.494  1.00  0.00     0.029 A 
ATOM     41  N   UNL A   1      39.106  30.298  31.767  1.00  0.00    -0.354 N 
ATOM     42  C   UNL A   1      40.671  27.634  28.740  1.00  0.00     0.074 A 
ATOM     43  C   UNL A   1      39.790  27.569  27.597  1.00  0.00     0.031 C 
ATOM     44  C   UNL A   1      37.613  31.674  32.702  1.00  0.00     0.029 A 
ATOM     45  C   UNL A   1      38.886  30.999  32.928  1.00  0.00     0.049 A 
ATOM     46  H   UNL A   1      39.905  29.744  31.615  1.00  0.00     0.167 HD
ATOM     47  C   UNL A   1      41.848  26.969  28.830  1.00  0.00     0.037 A 
ATOM     48  C   UNL A   1      39.624  31.080  34.052  1.00  0.00     0.037 A 
ATOM     49  C   UNL A   1      42.742  27.060  29.953  1.00  0.00     0.049 A 
ATOM     50  C   UNL A   1      40.919  30.316  34.133  1.00  0.00     0.074 A 
ATOM     51  C   UNL A   1      43.981  26.469  30.120  1.00  0.00     0.029 A 
ATOM     52  N   UNL A   1      42.490  27.796  31.101  1.00  0.00    -0.354 N 
ATOM     53  N   UNL A   1      41.484  29.542  33.238  1.00  0.00    -0.248 NA
ATOM     54  C   UNL A   1      41.683  30.440  35.383  1.00  0.00     0.031 C 
ATOM     55  C   UNL A   1      44.458  26.806  31.391  1.00  0.00     0.029 A 
ATOM     56  C   UNL A   1      43.543  27.656  31.991  1.00  0.00     0.049 A 
ATOM     57  H   UNL A   1      41.683  28.337  31.261  1.00  0.00     0.167 HD
ATOM     58  C   UNL A   1      42.682  29.119  33.799  1.00  0.00     0.074 A 
ATOM     59  C   UNL A   1      42.771  29.735  35.106  1.00  0.00     0.031 C 
ATOM     60  C   UNL A   1      43.623  28.292  33.280  1.00  0.00     0.037 A 
BRANCH  47  61
ATOM     61  C   UNL A   1      42.245  26.095  27.673  1.00  0.00     0.064 A 
ATOM     62  C   UNL A   1      43.208  26.507  26.737  1.00  0.00     0.173 A 
ATOM     63  C   UNL A   1      41.687  24.817  27.516  1.00  0.00     0.173 A 
ATOM     64  F   UNL A   1      43.764  27.724  26.832  1.00  0.00    -0.203 F 
ATOM     65  C   UNL A   1      43.573  25.686  25.673  1.00  0.00     0.198 A 
ATOM     66  C   UNL A   1      42.081  23.986  26.470  1.00  0.00     0.198 A 
ATOM     67  F   UNL A   1      40.767  24.370  28.383  1.00  0.00    -0.203 F 
ATOM     68  F   UNL A   1      44.453  26.126  24.762  1.00  0.00    -0.200 F 
ATOM     69  C   UNL A   1      43.017  24.424  25.545  1.00  0.00     0.200 A 
ATOM     70  F   UNL A   1      41.552  22.759  26.358  1.00  0.00    -0.200 F 
ATOM     71  F   UNL A   1      43.376  23.632  24.526  1.00  0.00    -0.200 F 
ENDBRANCH  47  61
BRANCH  48  72
ATOM     72  C   UNL A   1      39.176  31.932  35.187  1.00  0.00     0.064 A 
ATOM     73  C   UNL A   1      38.446  31.385  36.252  1.00  0.00     0.173 A 
ATOM     74  C   UNL A   1      39.441  33.309  35.220  1.00  0.00     0.173 A 
ATOM     75  F   UNL A   1      38.149  30.077  36.259  1.00  0.00    -0.203 F 
ATOM     76  C   UNL A   1      37.969  32.187  37.288  1.00  0.00     0.198 A 
ATOM     77  C   UNL A   1      38.993  34.104  36.274  1.00  0.00     0.198 A 
ATOM     78  F   UNL A   1      40.141  33.884  34.231  1.00  0.00    -0.203 F 
ATOM     79  F   UNL A   1      37.221  31.646  38.260  1.00  0.00    -0.200 F 
ATOM     80  C   UNL A   1      38.247  33.544  37.301  1.00  0.00     0.200 A 
ATOM     81  F   UNL A   1      39.278  35.413  36.291  1.00  0.00    -0.200 F 
ATOM     82  F   UNL A   1      37.787  34.316  38.295  1.00  0.00    -0.200 F 
ENDBRANCH  48  72
BRANCH  60  83
ATOM     83  C   UNL A   1      44.854  28.045  34.105  1.00  0.00     0.064 A 
ATOM     84  C   UNL A   1      44.942  26.968  34.998  1.00  0.00     0.173 A 
ATOM     85  C   UNL A   1      45.976  28.877  33.967  1.00  0.00     0.173 A 
ATOM     86  F   UNL A   1      43.893  26.151  35.177  1.00  0.00    -0.203 F 
ATOM     87  C   UNL A   1      46.097  26.751  35.745  1.00  0.00     0.198 A 
ATOM     88  C   UNL A   1      47.141  28.636  34.688  1.00  0.00     0.198 A 
ATOM     89  F   UNL A   1      45.948  29.917  33.119  1.00  0.00    -0.203 F 
ATOM     90  F   UNL A   1      46.139  25.748  36.633  1.00  0.00    -0.200 F 
ATOM     91  C   UNL A   1      47.198  27.580  35.584  1.00  0.00     0.200 A 
ATOM     92  F   UNL A   1      48.210  29.428  34.518  1.00  0.00    -0.200 F 
ATOM     93  F   UNL A   1      48.311  27.363  36.296  1.00  0.00    -0.200 F 
ENDBRANCH  60  83
ENDBRANCH  34  35
ENDBRANCH  26  29
ENDBRANCH  24  25
ENDBRANCH  23  24
ENDBRANCH  22  23
ENDBRANCH   3  22
TORSDOF 16
ENDMDL
MODEL 2
REMARK VINA RESULT:     -11.3      1.915      3.610
REMARK SMILES CCCCNC(=O)COc1ccc(Cl)cc1C(=O)NCCCNC(=O)c1ccc(-c2c3nc(c(-c4c(F)c(F)c(F)c(F)c4F)c4ccc([nH]4)c(-c4c(F)c(F)c(F)c(F)c4F)c4nc(c(-c5c(F)c(F)c(F)c(F)c5F)c5ccc2[nH]5)C=C4)C=C3)cc1
REMARK SMILES IDX 17 1 18 2 19 3 16 5 10 6 11 7 12 8 15 9 13 10 14 11 9 12
REMARK SMILES IDX 8 13 6 14 5 15 7 17 4 18 3 19 2 20 1 21 20 22 21 23 22 24
REMARK SMILES IDX 23 25 24 26 25 28 26 29 27 30 88 31 28 32 87 33 29 34 30 35
REMARK SMILES IDX 31 36 81 37 32 38 86 39 80 40 82 41 33 42 85 43 79 44 78 45
REMARK SMILES IDX 34 47 66 48 46 49 65 50 47 51 50 52 64 53 83 54 48 55 49 56
REMARK SMILES IDX 63 58 84 59 51 60 35 61 36 62 44 63 37 64 38 65 42 66 45 67
REMARK SMILES IDX 39 68 40 69 43 70 41 71 67 72 68 73 76 74 69 75 70 76 74 77
REMARK SMILES IDX 77 78 71 79 72 80 75 81 73 82 52 83 53 84 61 85 54 86 55 87
REMARK SMILES IDX 59 88 62 89 56 90 57 91 60 92 58 93
REMARK H PARENT 19 4 5 16 23 27 82 46 50 57
REMARK Flexibility Score: inf
ROOT
ATOM      1  C   UNL A   1      31.679  24.885  26.497  1.00  0.00     0.255 C 
ATOM      2  O   UNL A   1      31.269  23.999  27.254  1.00  0.00    -0.269 OA
ATOM      3  N   UNL A   1      31.058  26.106  26.615  1.00  0.00    -0.352 N 
ATOM      4  H   UNL A   1      30.297  26.134  27.240  1.00  0.00     0.163 HD
ENDROOT
BRANCH   1   5
ATOM      5  C   UNL A   1      32.738  24.530  25.488  1.00  0.00     0.083 A 
ATOM      6  C   UNL A   1      32.706  24.653  24.083  1.00  0.00     0.132 A 
ATOM      7  C   UNL A   1      33.837  24.310  23.317  1.00  0.00     0.049 A 
ATOM      8  C   UNL A   1      34.997  23.833  23.922  1.00  0.00     0.024 A 
ATOM      9  C   UNL A   1      33.934  24.054  26.076  1.00  0.00     0.038 A 
ATOM     10  C   UNL A   1      35.043  23.714  25.303  1.00  0.00     0.042 A 
ATOM     11  Cl  UNL A   1      36.486  23.166  26.059  1.00  0.00    -0.084 Cl
BRANCH   6  12
ATOM     12  O   UNL A   1      31.649  25.230  23.428  1.00  0.00    -0.483 OA
BRANCH  12  13
ATOM     13  C   UNL A   1      32.003  25.920  22.224  1.00  0.00     0.329 C 
BRANCH  13  14
ATOM     14  C   UNL A   1      32.517  27.346  22.369  1.00  0.00     0.257 C 
ATOM     15  N   UNL A   1      31.618  28.366  22.452  1.00  0.00    -0.353 N 
ATOM     16  H   UNL A   1      31.996  29.275  22.456  1.00  0.00     0.163 HD
ATOM     17  O   UNL A   1      33.722  27.598  22.349  1.00  0.00    -0.271 OA
BRANCH  15  18
ATOM     18  C   UNL A   1      30.172  28.280  22.538  1.00  0.00     0.116 C 
BRANCH  18  19
ATOM     19  C   UNL A   1      29.513  29.660  22.537  1.00  0.00     0.021 C 
BRANCH  19  20
ATOM     20  C   UNL A   1      28.059  29.670  23.015  1.00  0.00    -0.002 C 
ATOM     21  C   UNL A   1      27.549  31.057  23.364  1.00  0.00     0.004 C 
ENDBRANCH  19  20
ENDBRANCH  18  19
ENDBRANCH  15  18
ENDBRANCH  13  14
ENDBRANCH  12  13
ENDBRANCH   6  12
ENDBRANCH   1   5
BRANCH   3  22
ATOM     22  C   UNL A   1      31.358  27.347  25.958  1.00  0.00     0.118 C 
BRANCH  22  23
ATOM     23  C   UNL A   1      32.204  28.356  26.705  1.00  0.00     0.042 C 
BRANCH  23  24
ATOM     24  C   UNL A   1      32.880  29.411  25.855  1.00  0.00     0.118 C 
BRANCH  24  25
ATOM     25  N   UNL A   1      32.642  30.778  26.301  1.00  0.00    -0.352 N 
ATOM     26  C   UNL A   1      33.332  31.610  27.153  1.00  0.00     0.251 C 
ATOM     27  H   UNL A   1      31.831  31.185  25.919  1.00  0.00     0.163 HD
ATOM     28  O   UNL A   1      32.842  32.701  27.443  1.00  0.00    -0.269 OA
BRANCH  26  29
ATOM     29  C   UNL A   1      34.619  31.209  27.774  1.00  0.00     0.039 A 
ATOM     30  C   UNL A   1      35.635  32.161  27.908  1.00  0.00     0.014 A 
ATOM     31  C   UNL A   1      34.854  29.909  28.212  1.00  0.00     0.014 A 
ATOM     32  C   UNL A   1      36.828  31.833  28.566  1.00  0.00     0.010 A 
ATOM     33  C   UNL A   1      35.969  29.623  28.993  1.00  0.00     0.010 A 
ATOM     34  C   UNL A   1      36.981  30.575  29.169  1.00  0.00    -0.014 A 
BRANCH  34  35
ATOM     35  C   UNL A   1      38.191  30.214  29.955  1.00  0.00     0.031 A 
ATOM     36  C   UNL A   1      39.199  29.244  29.389  1.00  0.00     0.074 A 
ATOM     37  C   UNL A   1      38.350  30.694  31.206  1.00  0.00     0.049 A 
ATOM     38  N   UNL A   1      40.255  28.718  29.956  1.00  0.00    -0.248 NA
ATOM     39  C   UNL A   1      38.965  28.772  28.014  1.00  0.00     0.031 C 
ATOM     40  C   UNL A   1      37.425  31.596  31.893  1.00  0.00     0.029 A 
ATOM     41  N   UNL A   1      39.344  30.478  32.129  1.00  0.00    -0.354 N 
ATOM     42  C   UNL A   1      40.792  27.845  29.019  1.00  0.00     0.074 A 
ATOM     43  C   UNL A   1      39.908  27.853  27.876  1.00  0.00     0.031 C 
ATOM     44  C   UNL A   1      37.912  31.887  33.110  1.00  0.00     0.029 A 
ATOM     45  C   UNL A   1      39.156  31.152  33.312  1.00  0.00     0.049 A 
ATOM     46  H   UNL A   1      40.119  29.896  31.958  1.00  0.00     0.167 HD
ATOM     47  C   UNL A   1      41.940  27.129  29.085  1.00  0.00     0.037 A 
ATOM     48  C   UNL A   1      39.897  31.167  34.437  1.00  0.00     0.037 A 
ATOM     49  C   UNL A   1      42.838  27.147  30.209  1.00  0.00     0.049 A 
ATOM     50  C   UNL A   1      41.159  30.347  34.491  1.00  0.00     0.074 A 
ATOM     51  C   UNL A   1      44.052  26.500  30.354  1.00  0.00     0.029 A 
ATOM     52  N   UNL A   1      42.619  27.858  31.379  1.00  0.00    -0.354 N 
ATOM     53  N   UNL A   1      41.690  29.577  33.571  1.00  0.00    -0.248 NA
ATOM     54  C   UNL A   1      41.929  30.401  35.742  1.00  0.00     0.031 C 
ATOM     55  C   UNL A   1      44.544  26.777  31.634  1.00  0.00     0.029 A 
ATOM     56  C   UNL A   1      43.666  27.646  32.262  1.00  0.00     0.049 A 
ATOM     57  H   UNL A   1      41.836  28.427  31.557  1.00  0.00     0.167 HD
ATOM     58  C   UNL A   1      42.869  29.088  34.116  1.00  0.00     0.074 A 
ATOM     59  C   UNL A   1      42.986  29.659  35.441  1.00  0.00     0.031 C 
ATOM     60  C   UNL A   1      43.774  28.238  33.570  1.00  0.00     0.037 A 
BRANCH  47  61
ATOM     61  C   UNL A   1      42.299  26.275  27.901  1.00  0.00     0.064 A 
ATOM     62  C   UNL A   1      41.733  25.002  27.713  1.00  0.00     0.173 A 
ATOM     63  C   UNL A   1      43.186  26.746  26.921  1.00  0.00     0.173 A 
ATOM     64  F   UNL A   1      40.888  24.498  28.625  1.00  0.00    -0.203 F 
ATOM     65  C   UNL A   1      42.069  24.223  26.609  1.00  0.00     0.198 A 
ATOM     66  C   UNL A   1      43.491  25.978  25.801  1.00  0.00     0.198 A 
ATOM     67  F   UNL A   1      43.751  27.955  27.046  1.00  0.00    -0.203 F 
ATOM     68  F   UNL A   1      41.558  22.990  26.483  1.00  0.00    -0.200 F 
ATOM     69  C   UNL A   1      42.939  24.714  25.649  1.00  0.00     0.200 A 
ATOM     70  F   UNL A   1      44.322  26.461  24.866  1.00  0.00    -0.200 F 
ATOM     71  F   UNL A   1      43.253  23.967  24.582  1.00  0.00    -0.200 F 
ENDBRANCH  47  61
BRANCH  48  72
ATOM     72  C   UNL A   1      39.487  32.002  35.598  1.00  0.00     0.064 A 
ATOM     73  C   UNL A   1      38.583  31.512  36.551  1.00  0.00     0.173 A 
ATOM     74  C   UNL A   1      39.964  33.311  35.767  1.00  0.00     0.173 A 
ATOM     75  F   UNL A   1      38.082  30.275  36.426  1.00  0.00    -0.203 F 
ATOM     76  C   UNL A   1      38.145  32.309  37.609  1.00  0.00     0.198 A 
ATOM     77  C   UNL A   1      39.552  34.095  36.843  1.00  0.00     0.198 A 
ATOM     78  F   UNL A   1      40.835  33.827  34.888  1.00  0.00    -0.203 F 
ATOM     79  F   UNL A   1      37.233  31.835  38.468  1.00  0.00    -0.200 F 
ATOM     80  C   UNL A   1      38.634  33.598  37.756  1.00  0.00     0.200 A 
ATOM     81  F   UNL A   1      40.038  35.335  36.990  1.00  0.00    -0.200 F 
ATOM     82  F   UNL A   1      38.211  34.365  38.770  1.00  0.00    -0.200 F 
ENDBRANCH  48  72
BRANCH  60  83
ATOM     83  C   UNL A   1      44.994  27.915  34.384  1.00  0.00     0.064 A 
ATOM     84  C   UNL A   1      45.038  26.807  35.242  1.00  0.00     0.173 A 
ATOM     85  C   UNL A   1      46.150  28.703  34.269  1.00  0.00     0.173 A 
ATOM     86  F   UNL A   1      43.956  26.029  35.397  1.00  0.00    -0.203 F 
ATOM     87  C   UNL A   1      46.184  26.519  35.980  1.00  0.00     0.198 A 
ATOM     88  C   UNL A   1      47.305  28.391  34.980  1.00  0.00     0.198 A 
ATOM     89  F   UNL A   1      46.164  29.770  33.455  1.00  0.00    -0.203 F 
ATOM     90  F   UNL A   1      46.185  25.487  36.835  1.00  0.00    -0.200 F 
ATOM     91  C   UNL A   1      47.318  27.305  35.842  1.00  0.00     0.200 A 
ATOM     92  F   UNL A   1      48.405  29.142  34.833  1.00  0.00    -0.200 F 
ATOM     93  F   UNL A   1      48.422  27.020  36.545  1.00  0.00    -0.200 F 
ENDBRANCH  60  83
ENDBRANCH  34  35
ENDBRANCH  26  29
ENDBRANCH  24  25
ENDBRANCH  23  24
ENDBRANCH  22  23
ENDBRANCH   3  22
TORSDOF 16
ENDMDL
MODEL 3
REMARK VINA RESULT:     -11.3      1.962      8.109
REMARK SMILES CCCCNC(=O)COc1ccc(Cl)cc1C(=O)NCCCNC(=O)c1ccc(-c2c3nc(c(-c4c(F)c(F)c(F)c(F)c4F)c4ccc([nH]4)c(-c4c(F)c(F)c(F)c(F)c4F)c4nc(c(-c5c(F)c(F)c(F)c(F)c5F)c5ccc2[nH]5)C=C4)C=C3)cc1
REMARK SMILES IDX 17 1 18 2 19 3 16 5 10 6 11 7 12 8 15 9 13 10 14 11 9 12
REMARK SMILES IDX 8 13 6 14 5 15 7 17 4 18 3 19 2 20 1 21 20 22 21 23 22 24
REMARK SMILES IDX 23 25 24 26 25 28 26 29 27 30 88 31 28 32 87 33 29 34 30 35
REMARK SMILES IDX 31 36 81 37 32 38 86 39 80 40 82 41 33 42 85 43 79 44 78 45
REMARK SMILES IDX 34 47 66 48 46 49 65 50 47 51 50 52 64 53 83 54 48 55 49 56
REMARK SMILES IDX 63 58 84 59 51 60 35 61 36 62 44 63 37 64 38 65 42 66 45 67
REMARK SMILES IDX 39 68 40 69 43 70 41 71 67 72 68 73 76 74 69 75 70 76 74 77
REMARK SMILES IDX 77 78 71 79 72 80 75 81 73 82 52 83 53 84 61 85 54 86 55 87
REMARK SMILES IDX 59 88 62 89 56 90 57 91 60 92 58 93
REMARK H PARENT 19 4 5 16 23 27 82 46 50 57
REMARK Flexibility Score: inf
ROOT
ATOM      1  C   UNL A   1      31.665  24.956  26.492  1.00  0.00     0.255 C 
ATOM      2  O   UNL A   1      31.233  24.080  27.247  1.00  0.00    -0.269 OA
ATOM      3  N   UNL A   1      31.061  26.187  26.595  1.00  0.00    -0.352 N 
ATOM      4  H   UNL A   1      30.293  26.229  27.210  1.00  0.00     0.163 HD
ENDROOT
BRANCH   1   5
ATOM      5  C   UNL A   1      32.732  24.580  25.498  1.00  0.00     0.083 A 
ATOM      6  C   UNL A   1      32.688  24.616  24.088  1.00  0.00     0.132 A 
ATOM      7  C   UNL A   1      33.827  24.270  23.336  1.00  0.00     0.049 A 
ATOM      8  C   UNL A   1      35.007  23.875  23.960  1.00  0.00     0.024 A 
ATOM      9  C   UNL A   1      33.948  24.186  26.104  1.00  0.00     0.038 A 
ATOM     10  C   UNL A   1      35.065  23.841  25.345  1.00  0.00     0.042 A 
ATOM     11  Cl  UNL A   1      36.532  23.395  26.123  1.00  0.00    -0.084 Cl
BRANCH   6  12
ATOM     12  O   UNL A   1      31.607  25.112  23.408  1.00  0.00    -0.483 OA
BRANCH  12  13
ATOM     13  C   UNL A   1      31.925  25.710  22.145  1.00  0.00     0.329 C 
BRANCH  13  14
ATOM     14  C   UNL A   1      32.506  27.117  22.171  1.00  0.00     0.257 C 
ATOM     15  N   UNL A   1      31.661  28.178  22.306  1.00  0.00    -0.353 N 
ATOM     16  H   UNL A   1      32.073  29.069  22.230  1.00  0.00     0.163 HD
ATOM     17  O   UNL A   1      33.710  27.316  22.011  1.00  0.00    -0.271 OA
BRANCH  15  18
ATOM     18  C   UNL A   1      30.231  28.158  22.551  1.00  0.00     0.116 C 
BRANCH  18  19
ATOM     19  C   UNL A   1      29.670  29.559  22.795  1.00  0.00     0.021 C 
BRANCH  19  20
ATOM     20  C   UNL A   1      28.142  29.635  22.822  1.00  0.00    -0.002 C 
ATOM     21  C   UNL A   1      27.613  30.921  23.433  1.00  0.00     0.004 C 
ENDBRANCH  19  20
ENDBRANCH  18  19
ENDBRANCH  15  18
ENDBRANCH  13  14
ENDBRANCH  12  13
ENDBRANCH   6  12
ENDBRANCH   1   5
BRANCH   3  22
ATOM     22  C   UNL A   1      31.388  27.419  25.936  1.00  0.00     0.118 C 
BRANCH  22  23
ATOM     23  C   UNL A   1      32.126  28.474  26.733  1.00  0.00     0.042 C 
BRANCH  23  24
ATOM     24  C   UNL A   1      32.867  29.517  25.923  1.00  0.00     0.118 C 
BRANCH  24  25
ATOM     25  N   UNL A   1      32.713  30.878  26.421  1.00  0.00    -0.352 N 
ATOM     26  C   UNL A   1      33.466  31.642  27.284  1.00  0.00     0.251 C 
ATOM     27  H   UNL A   1      31.916  31.340  26.074  1.00  0.00     0.163 HD
ATOM     28  O   UNL A   1      33.041  32.747  27.623  1.00  0.00    -0.269 OA
BRANCH  26  29
ATOM     29  C   UNL A   1      34.744  31.153  27.859  1.00  0.00     0.039 A 
ATOM     30  C   UNL A   1      35.826  32.034  27.959  1.00  0.00     0.014 A 
ATOM     31  C   UNL A   1      34.906  29.838  28.285  1.00  0.00     0.014 A 
ATOM     32  C   UNL A   1      37.016  31.623  28.573  1.00  0.00     0.010 A 
ATOM     33  C   UNL A   1      36.025  29.474  29.026  1.00  0.00     0.010 A 
ATOM     34  C   UNL A   1      37.105  30.355  29.168  1.00  0.00    -0.014 A 
BRANCH  34  35
ATOM     35  C   UNL A   1      38.315  29.910  29.910  1.00  0.00     0.031 A 
ATOM     36  C   UNL A   1      38.586  30.437  31.298  1.00  0.00     0.074 A 
ATOM     37  C   UNL A   1      39.211  29.097  29.314  1.00  0.00     0.049 A 
ATOM     38  N   UNL A   1      39.633  30.262  32.064  1.00  0.00    -0.248 NA
ATOM     39  C   UNL A   1      37.557  31.311  31.888  1.00  0.00     0.031 C 
ATOM     40  C   UNL A   1      39.097  28.558  27.959  1.00  0.00     0.029 A 
ATOM     41  N   UNL A   1      40.403  28.589  29.770  1.00  0.00    -0.354 N 
ATOM     42  C   UNL A   1      39.397  31.016  33.206  1.00  0.00     0.074 A 
ATOM     43  C   UNL A   1      38.146  31.710  33.006  1.00  0.00     0.031 C 
ATOM     44  C   UNL A   1      40.153  27.768  27.706  1.00  0.00     0.029 A 
ATOM     45  C   UNL A   1      41.045  27.784  28.861  1.00  0.00     0.049 A 
ATOM     46  H   UNL A   1      40.763  28.784  30.666  1.00  0.00     0.167 HD
ATOM     47  C   UNL A   1      40.135  31.095  34.339  1.00  0.00     0.037 A 
ATOM     48  C   UNL A   1      42.225  27.139  28.944  1.00  0.00     0.037 A 
ATOM     49  C   UNL A   1      41.364  30.377  34.552  1.00  0.00     0.049 A 
ATOM     50  C   UNL A   1      43.035  27.259  30.208  1.00  0.00     0.074 A 
ATOM     51  C   UNL A   1      42.160  30.347  35.683  1.00  0.00     0.029 A 
ATOM     52  N   UNL A   1      41.969  29.558  33.613  1.00  0.00    -0.354 N 
ATOM     53  N   UNL A   1      42.767  27.923  31.307  1.00  0.00    -0.248 NA
ATOM     54  C   UNL A   1      44.314  26.535  30.245  1.00  0.00     0.031 C 
ATOM     55  C   UNL A   1      43.276  29.549  35.410  1.00  0.00     0.029 A 
ATOM     56  C   UNL A   1      43.143  29.034  34.130  1.00  0.00     0.049 A 
ATOM     57  H   UNL A   1      41.619  29.376  32.711  1.00  0.00     0.167 HD
ATOM     58  C   UNL A   1      43.820  27.667  32.175  1.00  0.00     0.074 A 
ATOM     59  C   UNL A   1      44.725  26.775  31.482  1.00  0.00     0.031 C 
ATOM     60  C   UNL A   1      44.022  28.132  33.432  1.00  0.00     0.037 A 
BRANCH  47  61
ATOM     61  C   UNL A   1      39.625  31.978  35.444  1.00  0.00     0.064 A 
ATOM     62  C   UNL A   1      40.031  33.318  35.561  1.00  0.00     0.173 A 
ATOM     63  C   UNL A   1      38.692  31.495  36.373  1.00  0.00     0.173 A 
ATOM     64  F   UNL A   1      40.930  33.828  34.706  1.00  0.00    -0.203 F 
ATOM     65  C   UNL A   1      39.547  34.128  36.584  1.00  0.00     0.198 A 
ATOM     66  C   UNL A   1      38.184  32.319  37.374  1.00  0.00     0.198 A 
ATOM     67  F   UNL A   1      38.265  30.226  36.306  1.00  0.00    -0.203 F 
ATOM     68  F   UNL A   1      39.993  35.387  36.707  1.00  0.00    -0.200 F 
ATOM     69  C   UNL A   1      38.617  33.632  37.484  1.00  0.00     0.200 A 
ATOM     70  F   UNL A   1      37.273  31.842  38.235  1.00  0.00    -0.200 F 
ATOM     71  F   UNL A   1      38.145  34.416  38.462  1.00  0.00    -0.200 F 
ENDBRANCH  47  61
BRANCH  48  72
ATOM     72  C   UNL A   1      42.707  26.302  27.813  1.00  0.00     0.064 A 
ATOM     73  C   UNL A   1      42.351  24.949  27.718  1.00  0.00     0.173 A 
ATOM     74  C   UNL A   1      43.554  26.821  26.823  1.00  0.00     0.173 A 
ATOM     75  F   UNL A   1      41.559  24.398  28.650  1.00  0.00    -0.203 F 
ATOM     76  C   UNL A   1      42.847  24.141  26.696  1.00  0.00     0.198 A 
ATOM     77  C   UNL A   1      44.023  26.021  25.782  1.00  0.00     0.198 A 
ATOM     78  F   UNL A   1      43.922  28.110  26.861  1.00  0.00    -0.203 F 
ATOM     79  F   UNL A   1      42.538  22.837  26.666  1.00  0.00    -0.200 F 
ATOM     80  C   UNL A   1      43.679  24.678  25.727  1.00  0.00     0.200 A 
ATOM     81  F   UNL A   1      44.814  26.549  24.838  1.00  0.00    -0.200 F 
ATOM     82  F   UNL A   1      44.159  23.901  24.746  1.00  0.00    -0.200 F 
ENDBRANCH  48  72
BRANCH  60  83
ATOM     83  C   UNL A   1      45.243  27.644  34.160  1.00  0.00     0.064 A 
ATOM     84  C   UNL A   1      46.456  28.346  34.120  1.00  0.00     0.173 A 
ATOM     85  C   UNL A   1      45.182  26.480  34.941  1.00  0.00     0.173 A 
ATOM     86  F   UNL A   1      46.570  29.457  33.377  1.00  0.00    -0.203 F 
ATOM     87  C   UNL A   1      47.573  27.882  34.810  1.00  0.00     0.198 A 
ATOM     88  C   UNL A   1      46.290  26.039  35.659  1.00  0.00     0.198 A 
ATOM     89  F   UNL A   1      44.042  25.776  35.020  1.00  0.00    -0.203 F 
ATOM     90  F   UNL A   1      48.737  28.538  34.714  1.00  0.00    -0.200 F 
ATOM     91  C   UNL A   1      47.486  26.734  35.585  1.00  0.00     0.200 A 
ATOM     92  F   UNL A   1      46.199  24.940  36.421  1.00  0.00    -0.200 F 
ATOM     93  F   UNL A   1      48.560  26.296  36.256  1.00  0.00    -0.200 F 
ENDBRANCH  60  83
ENDBRANCH  34  35
ENDBRANCH  26  29
ENDBRANCH  24  25
ENDBRANCH  23  24
ENDBRANCH  22  23
ENDBRANCH   3  22
TORSDOF 16
ENDMDL
