MODEL 1
REMARK VINA RESULT:     -11.6      0.000      0.000
REMARK SMILES CN(CCCC(=O)NCCCNC(=O)c1ccc(-c2c3nc(c(-c4c(F)c(F)c(F)c(F)c4F)c4ccc([nH]4)c(-c4c(F)c(F)c(F)c(F)c4F)c4nc(c(-c5c(F)c(F)c(F)c(F)c5F)c5ccc2[nH]5)C=C4)C=C3)cc1)c1cccc(F)c1C(N)=O
REMARK SMILES IDX 6 1 7 2 8 3 5 5 4 6 3 7 2 8 1 9 78 10 79 11 84 12 80 13
REMARK SMILES IDX 82 14 81 15 83 16 85 17 86 18 87 19 9 22 10 23 11 24 12 25
REMARK SMILES IDX 13 26 14 28 15 29 16 30 77 31 17 32 76 33 18 34 19 35 20 36
REMARK SMILES IDX 70 37 21 38 75 39 69 40 71 41 22 42 74 43 68 44 67 45 23 47
REMARK SMILES IDX 55 48 35 49 54 50 36 51 39 52 53 53 72 54 37 55 38 56 52 58
REMARK SMILES IDX 73 59 40 60 24 61 25 62 33 63 26 64 27 65 31 66 34 67 28 68
REMARK SMILES IDX 29 69 32 70 30 71 56 72 57 73 65 74 58 75 59 76 63 77 66 78
REMARK SMILES IDX 60 79 61 80 64 81 62 82 41 83 42 84 50 85 43 86 44 87 48 88
REMARK SMILES IDX 51 89 45 90 46 91 49 92 47 93
REMARK H PARENT 8 4 86 20 86 21 12 27 71 46 39 57
REMARK Flexibility Score: inf
ROOT
ATOM      1  C   UNL A   1      33.572  29.148  27.013  1.00  0.00     0.220 C 
ATOM      2  O   UNL A   1      34.707  29.065  27.484  1.00  0.00    -0.275 OA
ATOM      3  N   UNL A   1      33.082  30.383  26.712  1.00  0.00    -0.356 N 
ATOM      4  H   UNL A   1      33.739  31.116  26.699  1.00  0.00     0.163 HD
ENDROOT
BRANCH   1   5
ATOM      5  C   UNL A   1      32.753  27.913  26.696  1.00  0.00     0.102 C 
BRANCH   5   6
ATOM      6  C   UNL A   1      33.506  26.721  26.098  1.00  0.00     0.031 C 
BRANCH   6   7
ATOM      7  C   UNL A   1      32.715  25.583  25.437  1.00  0.00     0.117 C 
BRANCH   7   8
ATOM      8  N   UNL A   1      32.341  25.747  24.016  1.00  0.00    -0.374 N 
ATOM      9  C   UNL A   1      32.431  24.550  23.177  1.00  0.00     0.143 C 
BRANCH   8  10
ATOM     10  C   UNL A   1      31.449  26.738  23.612  1.00  0.00     0.052 A 
ATOM     11  C   UNL A   1      30.090  26.498  23.912  1.00  0.00     0.027 A 
ATOM     12  C   UNL A   1      31.764  27.947  22.934  1.00  0.00     0.098 A 
ATOM     13  C   UNL A   1      29.063  27.333  23.473  1.00  0.00     0.005 A 
ATOM     14  C   UNL A   1      30.711  28.775  22.498  1.00  0.00     0.138 A 
ATOM     15  C   UNL A   1      29.377  28.467  22.745  1.00  0.00     0.040 A 
ATOM     16  F   UNL A   1      30.952  29.895  21.795  1.00  0.00    -0.206 F 
BRANCH  12  17
ATOM     17  C   UNL A   1      33.165  28.371  22.609  1.00  0.00     0.253 C 
ATOM     18  N   UNL A   1      33.714  29.380  23.355  1.00  0.00    -0.365 N 
ATOM     19  O   UNL A   1      33.839  27.858  21.725  1.00  0.00    -0.269 OA
ATOM     20  H   UNL A   1      33.189  29.805  24.070  1.00  0.00     0.159 HD
ATOM     21  H   UNL A   1      34.634  29.680  23.176  1.00  0.00     0.159 HD
ENDBRANCH  12  17
ENDBRANCH   8  10
ENDBRANCH   7   8
ENDBRANCH   6   7
ENDBRANCH   5   6
ENDBRANCH   1   5
BRANCH   3  22
ATOM     22  C   UNL A   1      31.715  30.753  26.408  1.00  0.00     0.117 C 
BRANCH  22  23
ATOM     23  C   UNL A   1      31.517  32.241  26.656  1.00  0.00     0.042 C 
BRANCH  23  24
ATOM     24  C   UNL A   1      32.742  32.913  27.231  1.00  0.00     0.118 C 
BRANCH  24  25
ATOM     25  N   UNL A   1      32.466  34.272  27.681  1.00  0.00    -0.352 N 
ATOM     26  C   UNL A   1      33.025  34.985  28.712  1.00  0.00     0.251 C 
ATOM     27  H   UNL A   1      31.776  34.749  27.167  1.00  0.00     0.163 HD
ATOM     28  O   UNL A   1      32.536  36.064  29.042  1.00  0.00    -0.269 OA
BRANCH  26  29
ATOM     29  C   UNL A   1      34.192  34.450  29.447  1.00  0.00     0.039 A 
ATOM     30  C   UNL A   1      33.978  33.756  30.642  1.00  0.00     0.014 A 
ATOM     31  C   UNL A   1      35.494  34.625  28.974  1.00  0.00     0.014 A 
ATOM     32  C   UNL A   1      35.058  33.187  31.320  1.00  0.00     0.010 A 
ATOM     33  C   UNL A   1      36.553  33.962  29.583  1.00  0.00     0.010 A 
ATOM     34  C   UNL A   1      36.351  33.253  30.775  1.00  0.00    -0.014 A 
BRANCH  34  35
ATOM     35  C   UNL A   1      37.513  32.625  31.452  1.00  0.00     0.031 A 
ATOM     36  C   UNL A   1      38.251  31.499  30.778  1.00  0.00     0.074 A 
ATOM     37  C   UNL A   1      37.868  33.024  32.690  1.00  0.00     0.049 A 
ATOM     38  N   UNL A   1      39.229  30.758  31.232  1.00  0.00    -0.248 NA
ATOM     39  C   UNL A   1      37.807  31.132  29.421  1.00  0.00     0.031 C 
ATOM     40  C   UNL A   1      37.198  34.067  33.469  1.00  0.00     0.029 A 
ATOM     41  N   UNL A   1      38.876  32.592  33.514  1.00  0.00    -0.354 N 
ATOM     42  C   UNL A   1      39.500  29.835  30.230  1.00  0.00     0.074 A 
ATOM     43  C   UNL A   1      38.546  30.062  29.170  1.00  0.00     0.031 C 
ATOM     44  C   UNL A   1      37.831  34.213  34.645  1.00  0.00     0.029 A 
ATOM     45  C   UNL A   1      38.924  33.249  34.719  1.00  0.00     0.049 A 
ATOM     46  H   UNL A   1      39.506  31.878  33.265  1.00  0.00     0.167 HD
ATOM     47  C   UNL A   1      40.482  28.903  30.183  1.00  0.00     0.037 A 
ATOM     48  C   UNL A   1      39.755  33.086  35.766  1.00  0.00     0.037 A 
ATOM     49  C   UNL A   1      41.457  28.706  31.221  1.00  0.00     0.049 A 
ATOM     50  C   UNL A   1      40.843  32.049  35.680  1.00  0.00     0.074 A 
ATOM     51  C   UNL A   1      42.517  27.818  31.251  1.00  0.00     0.029 A 
ATOM     52  N   UNL A   1      41.496  29.420  32.408  1.00  0.00    -0.354 N 
ATOM     53  N   UNL A   1      41.124  31.222  34.703  1.00  0.00    -0.248 NA
ATOM     54  C   UNL A   1      41.737  31.929  36.841  1.00  0.00     0.031 C 
ATOM     55  C   UNL A   1      43.181  27.974  32.471  1.00  0.00     0.029 A 
ATOM     56  C   UNL A   1      42.560  28.989  33.182  1.00  0.00     0.049 A 
ATOM     57  H   UNL A   1      40.862  30.128  32.663  1.00  0.00     0.167 HD
ATOM     58  C   UNL A   1      42.242  30.510  35.115  1.00  0.00     0.074 A 
ATOM     59  C   UNL A   1      42.599  31.013  36.424  1.00  0.00     0.031 C 
ATOM     60  C   UNL A   1      42.912  29.524  34.471  1.00  0.00     0.037 A 
BRANCH  47  61
ATOM     61  C   UNL A   1      40.567  28.044  28.956  1.00  0.00     0.064 A 
ATOM     62  C   UNL A   1      39.836  26.851  28.847  1.00  0.00     0.173 A 
ATOM     63  C   UNL A   1      41.348  28.437  27.858  1.00  0.00     0.173 A 
ATOM     64  F   UNL A   1      39.086  26.423  29.875  1.00  0.00    -0.203 F 
ATOM     65  C   UNL A   1      39.896  26.076  27.693  1.00  0.00     0.198 A 
ATOM     66  C   UNL A   1      41.382  27.673  26.695  1.00  0.00     0.198 A 
ATOM     67  F   UNL A   1      42.064  29.570  27.909  1.00  0.00    -0.203 F 
ATOM     68  F   UNL A   1      39.220  24.920  27.628  1.00  0.00    -0.200 F 
ATOM     69  C   UNL A   1      40.661  26.492  26.614  1.00  0.00     0.200 A 
ATOM     70  F   UNL A   1      42.113  28.083  25.648  1.00  0.00    -0.200 F 
ATOM     71  F   UNL A   1      40.708  25.751  25.499  1.00  0.00    -0.200 F 
ENDBRANCH  47  61
BRANCH  48  72
ATOM     72  C   UNL A   1      39.613  33.935  36.978  1.00  0.00     0.064 A 
ATOM     73  C   UNL A   1      38.860  33.499  38.078  1.00  0.00     0.173 A 
ATOM     74  C   UNL A   1      40.194  35.209  37.052  1.00  0.00     0.173 A 
ATOM     75  F   UNL A   1      38.266  32.297  38.048  1.00  0.00    -0.203 F 
ATOM     76  C   UNL A   1      38.666  34.317  39.189  1.00  0.00     0.198 A 
ATOM     77  C   UNL A   1      40.025  36.014  38.177  1.00  0.00     0.198 A 
ATOM     78  F   UNL A   1      40.929  35.673  36.030  1.00  0.00    -0.203 F 
ATOM     79  F   UNL A   1      37.890  33.898  40.199  1.00  0.00    -0.200 F 
ATOM     80  C   UNL A   1      39.251  35.573  39.239  1.00  0.00     0.200 A 
ATOM     81  F   UNL A   1      40.603  37.222  38.227  1.00  0.00    -0.200 F 
ATOM     82  F   UNL A   1      39.058  36.362  40.305  1.00  0.00    -0.200 F 
ENDBRANCH  48  72
BRANCH  60  83
ATOM     83  C   UNL A   1      44.125  28.961  35.148  1.00  0.00     0.064 A 
ATOM     84  C   UNL A   1      44.044  27.855  36.004  1.00  0.00     0.173 A 
ATOM     85  C   UNL A   1      45.392  29.512  34.900  1.00  0.00     0.173 A 
ATOM     86  F   UNL A   1      42.854  27.304  36.284  1.00  0.00    -0.203 F 
ATOM     87  C   UNL A   1      45.185  27.336  36.610  1.00  0.00     0.198 A 
ATOM     88  C   UNL A   1      46.534  28.972  35.483  1.00  0.00     0.198 A 
ATOM     89  F   UNL A   1      45.523  30.567  34.081  1.00  0.00    -0.203 F 
ATOM     90  F   UNL A   1      45.079  26.306  37.462  1.00  0.00    -0.200 F 
ATOM     91  C   UNL A   1      46.429  27.889  36.343  1.00  0.00     0.200 A 
ATOM     92  F   UNL A   1      47.736  29.498  35.214  1.00  0.00    -0.200 F 
ATOM     93  F   UNL A   1      47.526  27.382  36.922  1.00  0.00    -0.200 F 
ENDBRANCH  60  83
ENDBRANCH  34  35
ENDBRANCH  26  29
ENDBRANCH  24  25
ENDBRANCH  23  24
ENDBRANCH  22  23
ENDBRANCH   3  22
TORSDOF 15
ENDMDL
MODEL 2
REMARK VINA RESULT:     -11.4      0.455      2.024
REMARK SMILES CN(CCCC(=O)NCCCNC(=O)c1ccc(-c2c3nc(c(-c4c(F)c(F)c(F)c(F)c4F)c4ccc([nH]4)c(-c4c(F)c(F)c(F)c(F)c4F)c4nc(c(-c5c(F)c(F)c(F)c(F)c5F)c5ccc2[nH]5)C=C4)C=C3)cc1)c1cccc(F)c1C(N)=O
REMARK SMILES IDX 6 1 7 2 8 3 5 5 4 6 3 7 2 8 1 9 78 10 79 11 84 12 80 13
REMARK SMILES IDX 82 14 81 15 83 16 85 17 86 18 87 19 9 22 10 23 11 24 12 25
REMARK SMILES IDX 13 26 14 28 15 29 16 30 77 31 17 32 76 33 18 34 19 35 20 36
REMARK SMILES IDX 70 37 21 38 75 39 69 40 71 41 22 42 74 43 68 44 67 45 23 47
REMARK SMILES IDX 55 48 35 49 54 50 36 51 39 52 53 53 72 54 37 55 38 56 52 58
REMARK SMILES IDX 73 59 40 60 24 61 25 62 33 63 26 64 27 65 31 66 34 67 28 68
REMARK SMILES IDX 29 69 32 70 30 71 56 72 57 73 65 74 58 75 59 76 63 77 66 78
REMARK SMILES IDX 60 79 61 80 64 81 62 82 41 83 42 84 50 85 43 86 44 87 48 88
REMARK SMILES IDX 51 89 45 90 46 91 49 92 47 93
REMARK H PARENT 8 4 86 20 86 21 12 27 71 46 39 57
REMARK Flexibility Score: inf
ROOT
ATOM      1  C   UNL A   1      33.360  29.108  26.889  1.00  0.00     0.220 C 
ATOM      2  O   UNL A   1      34.508  29.006  27.323  1.00  0.00    -0.275 OA
ATOM      3  N   UNL A   1      32.925  30.335  26.485  1.00  0.00    -0.356 N 
ATOM      4  H   UNL A   1      33.619  31.024  26.375  1.00  0.00     0.163 HD
ENDROOT
BRANCH   1   5
ATOM      5  C   UNL A   1      32.463  27.898  26.727  1.00  0.00     0.102 C 
BRANCH   5   6
ATOM      6  C   UNL A   1      33.094  26.652  26.099  1.00  0.00     0.031 C 
BRANCH   6   7
ATOM      7  C   UNL A   1      32.189  25.595  25.447  1.00  0.00     0.117 C 
BRANCH   7   8
ATOM      8  N   UNL A   1      31.809  25.801  24.033  1.00  0.00    -0.374 N 
ATOM      9  C   UNL A   1      31.872  24.623  23.165  1.00  0.00     0.143 C 
BRANCH   8  10
ATOM     10  C   UNL A   1      30.932  26.817  23.659  1.00  0.00     0.052 A 
ATOM     11  C   UNL A   1      29.566  26.574  23.921  1.00  0.00     0.027 A 
ATOM     12  C   UNL A   1      31.270  28.055  23.048  1.00  0.00     0.098 A 
ATOM     13  C   UNL A   1      28.554  27.437  23.502  1.00  0.00     0.005 A 
ATOM     14  C   UNL A   1      30.232  28.911  22.631  1.00  0.00     0.138 A 
ATOM     15  C   UNL A   1      28.891  28.603  22.836  1.00  0.00     0.040 A 
ATOM     16  F   UNL A   1      30.495  30.061  21.987  1.00  0.00    -0.206 F 
BRANCH  12  17
ATOM     17  C   UNL A   1      32.680  28.482  22.771  1.00  0.00     0.253 C 
ATOM     18  N   UNL A   1      33.324  27.901  21.710  1.00  0.00    -0.365 N 
ATOM     19  O   UNL A   1      33.275  29.323  23.432  1.00  0.00    -0.269 OA
ATOM     20  H   UNL A   1      32.864  27.223  21.166  1.00  0.00     0.159 HD
ATOM     21  H   UNL A   1      34.248  28.162  21.493  1.00  0.00     0.159 HD
ENDBRANCH  12  17
ENDBRANCH   8  10
ENDBRANCH   7   8
ENDBRANCH   6   7
ENDBRANCH   5   6
ENDBRANCH   1   5
BRANCH   3  22
ATOM     22  C   UNL A   1      31.568  30.752  26.198  1.00  0.00     0.117 C 
BRANCH  22  23
ATOM     23  C   UNL A   1      31.410  32.235  26.499  1.00  0.00     0.042 C 
BRANCH  23  24
ATOM     24  C   UNL A   1      32.583  32.812  27.258  1.00  0.00     0.118 C 
BRANCH  24  25
ATOM     25  N   UNL A   1      32.369  34.206  27.625  1.00  0.00    -0.352 N 
ATOM     26  C   UNL A   1      32.969  34.957  28.606  1.00  0.00     0.251 C 
ATOM     27  H   UNL A   1      31.694  34.681  27.089  1.00  0.00     0.163 HD
ATOM     28  O   UNL A   1      32.530  36.073  28.873  1.00  0.00    -0.269 OA
BRANCH  26  29
ATOM     29  C   UNL A   1      34.120  34.417  29.363  1.00  0.00     0.039 A 
ATOM     30  C   UNL A   1      33.886  33.771  30.580  1.00  0.00     0.014 A 
ATOM     31  C   UNL A   1      35.428  34.543  28.888  1.00  0.00     0.014 A 
ATOM     32  C   UNL A   1      34.950  33.198  31.281  1.00  0.00     0.010 A 
ATOM     33  C   UNL A   1      36.468  33.875  29.523  1.00  0.00     0.010 A 
ATOM     34  C   UNL A   1      36.245  33.213  30.738  1.00  0.00    -0.014 A 
BRANCH  34  35
ATOM     35  C   UNL A   1      37.389  32.580  31.440  1.00  0.00     0.031 A 
ATOM     36  C   UNL A   1      38.122  31.436  30.791  1.00  0.00     0.074 A 
ATOM     37  C   UNL A   1      37.730  32.990  32.678  1.00  0.00     0.049 A 
ATOM     38  N   UNL A   1      39.085  30.689  31.270  1.00  0.00    -0.248 NA
ATOM     39  C   UNL A   1      37.695  31.058  29.433  1.00  0.00     0.031 C 
ATOM     40  C   UNL A   1      37.062  34.050  33.435  1.00  0.00     0.029 A 
ATOM     41  N   UNL A   1      38.721  32.555  33.523  1.00  0.00    -0.354 N 
ATOM     42  C   UNL A   1      39.360  29.751  30.283  1.00  0.00     0.074 A 
ATOM     43  C   UNL A   1      38.424  29.976  29.206  1.00  0.00     0.031 C 
ATOM     44  C   UNL A   1      37.679  34.203  34.618  1.00  0.00     0.029 A 
ATOM     45  C   UNL A   1      38.759  33.227  34.720  1.00  0.00     0.049 A 
ATOM     46  H   UNL A   1      39.346  31.831  33.292  1.00  0.00     0.167 HD
ATOM     47  C   UNL A   1      40.330  28.806  30.261  1.00  0.00     0.037 A 
ATOM     48  C   UNL A   1      39.572  33.067  35.782  1.00  0.00     0.037 A 
ATOM     49  C   UNL A   1      41.288  28.610  31.316  1.00  0.00     0.049 A 
ATOM     50  C   UNL A   1      40.648  32.016  35.724  1.00  0.00     0.074 A 
ATOM     51  C   UNL A   1      42.336  27.710  31.373  1.00  0.00     0.029 A 
ATOM     52  N   UNL A   1      41.318  29.339  32.495  1.00  0.00    -0.354 N 
ATOM     53  N   UNL A   1      40.934  31.174  34.762  1.00  0.00    -0.248 NA
ATOM     54  C   UNL A   1      41.524  31.900  36.900  1.00  0.00     0.031 C 
ATOM     55  C   UNL A   1      42.984  27.873  32.601  1.00  0.00     0.029 A 
ATOM     56  C   UNL A   1      42.365  28.904  33.290  1.00  0.00     0.049 A 
ATOM     57  H   UNL A   1      40.689  30.058  32.732  1.00  0.00     0.167 HD
ATOM     58  C   UNL A   1      42.037  30.453  35.199  1.00  0.00     0.074 A 
ATOM     59  C   UNL A   1      42.381  30.969  36.507  1.00  0.00     0.031 C 
ATOM     60  C   UNL A   1      42.704  29.451  34.577  1.00  0.00     0.037 A 
BRANCH  47  61
ATOM     61  C   UNL A   1      40.424  27.931  29.047  1.00  0.00     0.064 A 
ATOM     62  C   UNL A   1      41.256  28.265  27.967  1.00  0.00     0.173 A 
ATOM     63  C   UNL A   1      39.715  26.721  28.979  1.00  0.00     0.173 A 
ATOM     64  F   UNL A   1      41.944  29.417  27.978  1.00  0.00    -0.203 F 
ATOM     65  C   UNL A   1      41.362  27.431  26.859  1.00  0.00     0.198 A 
ATOM     66  C   UNL A   1      39.846  25.876  27.881  1.00  0.00     0.198 A 
ATOM     67  F   UNL A   1      38.907  26.353  29.985  1.00  0.00    -0.203 F 
ATOM     68  F   UNL A   1      42.132  27.791  25.822  1.00  0.00    -0.200 F 
ATOM     69  C   UNL A   1      40.665  26.233  26.820  1.00  0.00     0.200 A 
ATOM     70  F   UNL A   1      39.181  24.713  27.849  1.00  0.00    -0.200 F 
ATOM     71  F   UNL A   1      40.777  25.425  25.757  1.00  0.00    -0.200 F 
ENDBRANCH  47  61
BRANCH  48  72
ATOM     72  C   UNL A   1      39.423  33.933  36.981  1.00  0.00     0.064 A 
ATOM     73  C   UNL A   1      40.034  35.194  37.039  1.00  0.00     0.173 A 
ATOM     74  C   UNL A   1      38.698  33.509  38.104  1.00  0.00     0.173 A 
ATOM     75  F   UNL A   1      40.756  35.636  35.999  1.00  0.00    -0.203 F 
ATOM     76  C   UNL A   1      39.955  35.981  38.186  1.00  0.00     0.198 A 
ATOM     77  C   UNL A   1      38.594  34.311  39.239  1.00  0.00     0.198 A 
ATOM     78  F   UNL A   1      38.089  32.314  38.100  1.00  0.00    -0.203 F 
ATOM     79  F   UNL A   1      40.602  37.154  38.236  1.00  0.00    -0.200 F 
ATOM     80  C   UNL A   1      39.233  35.540  39.284  1.00  0.00     0.200 A 
ATOM     81  F   UNL A   1      37.884  33.887  40.294  1.00  0.00    -0.200 F 
ATOM     82  F   UNL A   1      39.164  36.295  40.390  1.00  0.00    -0.200 F 
ENDBRANCH  48  72
BRANCH  60  83
ATOM     83  C   UNL A   1      43.901  28.882  35.279  1.00  0.00     0.064 A 
ATOM     84  C   UNL A   1      45.188  29.397  35.075  1.00  0.00     0.173 A 
ATOM     85  C   UNL A   1      43.747  27.835  36.201  1.00  0.00     0.173 A 
ATOM     86  F   UNL A   1      45.387  30.388  34.193  1.00  0.00    -0.203 F 
ATOM     87  C   UNL A   1      46.284  28.867  35.750  1.00  0.00     0.198 A 
ATOM     88  C   UNL A   1      44.840  27.327  36.896  1.00  0.00     0.198 A 
ATOM     89  F   UNL A   1      42.534  27.314  36.437  1.00  0.00    -0.203 F 
ATOM     90  F   UNL A   1      47.513  29.343  35.506  1.00  0.00    -0.200 F 
ATOM     91  C   UNL A   1      46.109  27.838  36.665  1.00  0.00     0.200 A 
ATOM     92  F   UNL A   1      44.667  26.344  37.789  1.00  0.00    -0.200 F 
ATOM     93  F   UNL A   1      47.165  27.335  37.319  1.00  0.00    -0.200 F 
ENDBRANCH  60  83
ENDBRANCH  34  35
ENDBRANCH  26  29
ENDBRANCH  24  25
ENDBRANCH  23  24
ENDBRANCH  22  23
ENDBRANCH   3  22
TORSDOF 15
ENDMDL
MODEL 3
REMARK VINA RESULT:     -11.4      5.529     10.673
REMARK SMILES CN(CCCC(=O)NCCCNC(=O)c1ccc(-c2c3nc(c(-c4c(F)c(F)c(F)c(F)c4F)c4ccc([nH]4)c(-c4c(F)c(F)c(F)c(F)c4F)c4nc(c(-c5c(F)c(F)c(F)c(F)c5F)c5ccc2[nH]5)C=C4)C=C3)cc1)c1cccc(F)c1C(N)=O
REMARK SMILES IDX 6 1 7 2 8 3 5 5 4 6 3 7 2 8 1 9 78 10 79 11 84 12 80 13
REMARK SMILES IDX 82 14 81 15 83 16 85 17 86 18 87 19 9 22 10 23 11 24 12 25
REMARK SMILES IDX 13 26 14 28 15 29 16 30 77 31 17 32 76 33 18 34 19 35 20 36
REMARK SMILES IDX 70 37 21 38 75 39 69 40 71 41 22 42 74 43 68 44 67 45 23 47
REMARK SMILES IDX 55 48 35 49 54 50 36 51 39 52 53 53 72 54 37 55 38 56 52 58
REMARK SMILES IDX 73 59 40 60 24 61 25 62 33 63 26 64 27 65 31 66 34 67 28 68
REMARK SMILES IDX 29 69 32 70 30 71 56 72 57 73 65 74 58 75 59 76 63 77 66 78
REMARK SMILES IDX 60 79 61 80 64 81 62 82 41 83 42 84 50 85 43 86 44 87 48 88
REMARK SMILES IDX 51 89 45 90 46 91 49 92 47 93
REMARK H PARENT 8 4 86 20 86 21 12 27 71 46 39 57
REMARK Flexibility Score: inf
ROOT
ATOM      1  C   UNL A   1      37.291  23.331  25.766  1.00  0.00     0.220 C 
ATOM      2  O   UNL A   1      37.884  24.129  26.493  1.00  0.00    -0.275 OA
ATOM      3  N   UNL A   1      37.665  22.021  25.795  1.00  0.00    -0.356 N 
ATOM      4  H   UNL A   1      38.249  21.757  26.542  1.00  0.00     0.163 HD
ENDROOT
BRANCH   1   5
ATOM      5  C   UNL A   1      36.117  23.761  24.909  1.00  0.00     0.102 C 
BRANCH   5   6
ATOM      6  C   UNL A   1      34.796  24.031  25.634  1.00  0.00     0.031 C 
BRANCH   6   7
ATOM      7  C   UNL A   1      33.517  24.258  24.814  1.00  0.00     0.117 C 
BRANCH   7   8
ATOM      8  N   UNL A   1      33.238  25.636  24.354  1.00  0.00    -0.374 N 
ATOM      9  C   UNL A   1      32.682  25.772  23.006  1.00  0.00     0.143 C 
BRANCH   8  10
ATOM     10  C   UNL A   1      32.963  26.659  25.259  1.00  0.00     0.052 A 
ATOM     11  C   UNL A   1      33.934  27.682  25.338  1.00  0.00     0.027 A 
ATOM     12  C   UNL A   1      31.822  26.775  26.099  1.00  0.00     0.098 A 
ATOM     13  C   UNL A   1      33.866  28.712  26.275  1.00  0.00     0.005 A 
ATOM     14  C   UNL A   1      31.775  27.823  27.038  1.00  0.00     0.138 A 
ATOM     15  C   UNL A   1      32.789  28.770  27.143  1.00  0.00     0.040 A 
ATOM     16  F   UNL A   1      30.752  27.938  27.902  1.00  0.00    -0.206 F 
BRANCH  12  17
ATOM     17  C   UNL A   1      30.679  25.806  26.077  1.00  0.00     0.253 C 
ATOM     18  N   UNL A   1      29.708  25.988  25.127  1.00  0.00    -0.365 N 
ATOM     19  O   UNL A   1      30.575  24.863  26.851  1.00  0.00    -0.269 OA
ATOM     20  H   UNL A   1      29.773  26.740  24.496  1.00  0.00     0.159 HD
ATOM     21  H   UNL A   1      28.947  25.367  25.077  1.00  0.00     0.159 HD
ENDBRANCH  12  17
ENDBRANCH   8  10
ENDBRANCH   7   8
ENDBRANCH   6   7
ENDBRANCH   5   6
ENDBRANCH   1   5
BRANCH   3  22
ATOM     22  C   UNL A   1      37.313  20.969  24.865  1.00  0.00     0.117 C 
BRANCH  22  23
ATOM     23  C   UNL A   1      38.289  19.811  25.003  1.00  0.00     0.042 C 
BRANCH  23  24
ATOM     24  C   UNL A   1      39.352  20.055  26.049  1.00  0.00     0.118 C 
BRANCH  24  25
ATOM     25  N   UNL A   1      40.450  19.100  25.954  1.00  0.00    -0.352 N 
ATOM     26  C   UNL A   1      41.803  19.306  26.059  1.00  0.00     0.251 C 
ATOM     27  H   UNL A   1      40.179  18.168  25.790  1.00  0.00     0.163 HD
ATOM     28  O   UNL A   1      42.581  18.396  25.779  1.00  0.00    -0.269 OA
BRANCH  26  29
ATOM     29  C   UNL A   1      42.330  20.623  26.478  1.00  0.00     0.039 A 
ATOM     30  C   UNL A   1      42.808  21.502  25.501  1.00  0.00     0.014 A 
ATOM     31  C   UNL A   1      42.360  21.002  27.822  1.00  0.00     0.014 A 
ATOM     32  C   UNL A   1      43.251  22.775  25.866  1.00  0.00     0.010 A 
ATOM     33  C   UNL A   1      42.690  22.306  28.172  1.00  0.00     0.010 A 
ATOM     34  C   UNL A   1      43.159  23.201  27.201  1.00  0.00    -0.014 A 
BRANCH  34  35
ATOM     35  C   UNL A   1      43.587  24.561  27.614  1.00  0.00     0.031 A 
ATOM     36  C   UNL A   1      42.549  25.597  27.957  1.00  0.00     0.074 A 
ATOM     37  C   UNL A   1      44.896  24.882  27.624  1.00  0.00     0.049 A 
ATOM     38  N   UNL A   1      42.706  26.863  28.252  1.00  0.00    -0.248 NA
ATOM     39  C   UNL A   1      41.142  25.161  27.933  1.00  0.00     0.031 C 
ATOM     40  C   UNL A   1      45.993  23.983  27.260  1.00  0.00     0.029 A 
ATOM     41  N   UNL A   1      45.525  26.058  27.946  1.00  0.00    -0.354 N 
ATOM     42  C   UNL A   1      41.425  27.370  28.428  1.00  0.00     0.074 A 
ATOM     43  C   UNL A   1      40.498  26.298  28.146  1.00  0.00     0.031 C 
ATOM     44  C   UNL A   1      47.160  24.631  27.406  1.00  0.00     0.029 A 
ATOM     45  C   UNL A   1      46.893  26.000  27.834  1.00  0.00     0.049 A 
ATOM     46  H   UNL A   1      45.042  26.868  28.229  1.00  0.00     0.167 HD
ATOM     47  C   UNL A   1      41.054  28.610  28.825  1.00  0.00     0.037 A 
ATOM     48  C   UNL A   1      47.825  26.948  28.050  1.00  0.00     0.037 A 
ATOM     49  C   UNL A   1      41.979  29.664  29.146  1.00  0.00     0.049 A 
ATOM     50  C   UNL A   1      47.383  28.315  28.501  1.00  0.00     0.074 A 
ATOM     51  C   UNL A   1      41.707  30.943  29.598  1.00  0.00     0.029 A 
ATOM     52  N   UNL A   1      43.358  29.552  29.060  1.00  0.00    -0.354 N 
ATOM     53  N   UNL A   1      46.172  28.765  28.719  1.00  0.00    -0.248 NA
ATOM     54  C   UNL A   1      48.441  29.306  28.746  1.00  0.00     0.031 C 
ATOM     55  C   UNL A   1      42.922  31.616  29.757  1.00  0.00     0.029 A 
ATOM     56  C   UNL A   1      43.951  30.742  29.446  1.00  0.00     0.049 A 
ATOM     57  H   UNL A   1      43.843  28.747  28.768  1.00  0.00     0.167 HD
ATOM     58  C   UNL A   1      46.323  30.074  29.156  1.00  0.00     0.074 A 
ATOM     59  C   UNL A   1      47.745  30.342  29.189  1.00  0.00     0.031 C 
ATOM     60  C   UNL A   1      45.371  30.976  29.496  1.00  0.00     0.037 A 
BRANCH  47  61
ATOM     61  C   UNL A   1      39.586  28.889  28.962  1.00  0.00     0.064 A 
ATOM     62  C   UNL A   1      38.929  28.753  30.195  1.00  0.00     0.173 A 
ATOM     63  C   UNL A   1      38.838  29.344  27.865  1.00  0.00     0.173 A 
ATOM     64  F   UNL A   1      39.597  28.308  31.270  1.00  0.00    -0.203 F 
ATOM     65  C   UNL A   1      37.574  29.045  30.320  1.00  0.00     0.198 A 
ATOM     66  C   UNL A   1      37.489  29.662  28.003  1.00  0.00     0.198 A 
ATOM     67  F   UNL A   1      39.418  29.493  26.665  1.00  0.00    -0.203 F 
ATOM     68  F   UNL A   1      36.959  28.869  31.498  1.00  0.00    -0.200 F 
ATOM     69  C   UNL A   1      36.857  29.508  29.227  1.00  0.00     0.200 A 
ATOM     70  F   UNL A   1      36.800  30.121  26.948  1.00  0.00    -0.200 F 
ATOM     71  F   UNL A   1      35.556  29.801  29.353  1.00  0.00    -0.200 F 
ENDBRANCH  47  61
BRANCH  48  72
ATOM     72  C   UNL A   1      49.268  26.641  27.868  1.00  0.00     0.064 A 
ATOM     73  C   UNL A   1      49.830  26.559  26.586  1.00  0.00     0.173 A 
ATOM     74  C   UNL A   1      50.106  26.390  28.963  1.00  0.00     0.173 A 
ATOM     75  F   UNL A   1      49.065  26.771  25.505  1.00  0.00    -0.203 F 
ATOM     76  C   UNL A   1      51.165  26.205  26.405  1.00  0.00     0.198 A 
ATOM     77  C   UNL A   1      51.450  26.065  28.783  1.00  0.00     0.198 A 
ATOM     78  F   UNL A   1      49.621  26.460  30.212  1.00  0.00    -0.203 F 
ATOM     79  F   UNL A   1      51.659  26.073  25.166  1.00  0.00    -0.200 F 
ATOM     80  C   UNL A   1      51.975  25.960  27.504  1.00  0.00     0.200 A 
ATOM     81  F   UNL A   1      52.232  25.843  29.848  1.00  0.00    -0.200 F 
ATOM     82  F   UNL A   1      53.257  25.612  27.330  1.00  0.00    -0.200 F 
ENDBRANCH  48  72
BRANCH  60  83
ATOM     83  C   UNL A   1      45.835  32.317  29.980  1.00  0.00     0.064 A 
ATOM     84  C   UNL A   1      46.010  33.396  29.103  1.00  0.00     0.173 A 
ATOM     85  C   UNL A   1      46.067  32.533  31.347  1.00  0.00     0.173 A 
ATOM     86  F   UNL A   1      45.816  33.234  27.786  1.00  0.00    -0.203 F 
ATOM     87  C   UNL A   1      46.426  34.638  29.574  1.00  0.00     0.198 A 
ATOM     88  C   UNL A   1      46.453  33.785  31.818  1.00  0.00     0.198 A 
ATOM     89  F   UNL A   1      45.905  31.534  32.227  1.00  0.00    -0.203 F 
ATOM     90  F   UNL A   1      46.632  35.645  28.712  1.00  0.00    -0.200 F 
ATOM     91  C   UNL A   1      46.639  34.834  30.931  1.00  0.00     0.200 A 
ATOM     92  F   UNL A   1      46.645  33.975  33.130  1.00  0.00    -0.200 F 
ATOM     93  F   UNL A   1      47.031  36.033  31.382  1.00  0.00    -0.200 F 
ENDBRANCH  60  83
ENDBRANCH  34  35
ENDBRANCH  26  29
ENDBRANCH  24  25
ENDBRANCH  23  24
ENDBRANCH  22  23
ENDBRANCH   3  22
TORSDOF 15
ENDMDL
