MODEL 1
REMARK VINA RESULT:     -11.3      0.000      0.000
REMARK SMILES Cc1occc1C(=O)N[C@@H](C)CC(=O)NCCCNC(=O)c1ccc(-c2c3nc(c(-c4c(F)c(F)c(F)c(F)c4F)c4ccc([nH]4)c(-c4c(F)c(F)c(F)c(F)c4F)c4nc(c(-c5c(F)c(F)c(F)c(F)c5F)c5ccc2[nH]5)C=C4)C=C3)cc1
REMARK SMILES IDX 16 1 15 2 13 3 14 4 12 6 10 7 11 8 9 9 7 10 8 11 6 13 1 14
REMARK SMILES IDX 2 15 3 16 4 17 5 18 17 19 18 20 19 21 20 22 21 24 22 25
REMARK SMILES IDX 23 26 84 27 24 28 83 29 25 30 26 31 27 32 77 33 28 34 82 35
REMARK SMILES IDX 76 36 78 37 29 38 81 39 75 40 74 41 30 43 62 44 42 45 61 46
REMARK SMILES IDX 43 47 46 48 60 49 79 50 44 51 45 52 59 54 80 55 47 56 31 57
REMARK SMILES IDX 32 58 40 59 33 60 34 61 38 62 41 63 35 64 36 65 39 66 37 67
REMARK SMILES IDX 63 68 64 69 72 70 65 71 66 72 70 73 73 74 67 75 68 76 71 77
REMARK SMILES IDX 69 78 48 79 49 80 57 81 50 82 51 83 55 84 58 85 52 86 53 87
REMARK SMILES IDX 56 88 54 89
REMARK H PARENT 15 5 9 12 19 23 78 42 46 53
REMARK Flexibility Score: inf
ROOT
ATOM      1  C   UNL A   1      31.082  30.818  26.079  1.00  0.00     0.117 C 
ENDROOT
BRANCH   1   2
ATOM      2  N   UNL A   1      32.188  30.323  25.279  1.00  0.00    -0.356 N 
ATOM      3  C   UNL A   1      32.534  29.042  24.981  1.00  0.00     0.222 C 
ATOM      4  O   UNL A   1      33.588  28.841  24.374  1.00  0.00    -0.275 OA
ATOM      5  H   UNL A   1      32.773  31.016  24.896  1.00  0.00     0.163 HD
BRANCH   3   6
ATOM      6  C   UNL A   1      31.640  27.889  25.379  1.00  0.00     0.124 C 
BRANCH   6   7
ATOM      7  C   UNL A   1      30.551  27.644  24.330  1.00  0.00     0.088 C 
ATOM      8  C   UNL A   1      30.513  26.160  23.963  1.00  0.00     0.031 C 
BRANCH   7   9
ATOM      9  N   UNL A   1      30.773  28.381  23.095  1.00  0.00    -0.349 N 
ATOM     10  C   UNL A   1      30.065  29.339  22.414  1.00  0.00     0.255 C 
ATOM     11  O   UNL A   1      30.544  29.662  21.326  1.00  0.00    -0.269 OA
ATOM     12  H   UNL A   1      31.616  28.140  22.649  1.00  0.00     0.164 HD
BRANCH  10  13
ATOM     13  C   UNL A   1      28.916  30.062  22.946  1.00  0.00     0.080 A 
ATOM     14  C   UNL A   1      26.824  28.461  23.394  1.00  0.00     0.088 C 
ATOM     15  C   UNL A   1      27.636  29.696  23.344  1.00  0.00     0.113 A 
ATOM     16  O   UNL A   1      26.934  30.797  23.754  1.00  0.00    -0.469 OA
ATOM     17  C   UNL A   1      27.714  31.882  23.572  1.00  0.00     0.196 A 
ATOM     18  C   UNL A   1      28.926  31.500  23.066  1.00  0.00     0.056 A 
ENDBRANCH  10  13
ENDBRANCH   7   9
ENDBRANCH   6   7
ENDBRANCH   3   6
ENDBRANCH   1   2
BRANCH   1  19
ATOM     19  C   UNL A   1      31.272  32.285  26.439  1.00  0.00     0.042 C 
BRANCH  19  20
ATOM     20  C   UNL A   1      32.579  32.580  27.159  1.00  0.00     0.118 C 
BRANCH  20  21
ATOM     21  N   UNL A   1      32.675  33.973  27.567  1.00  0.00    -0.352 N 
ATOM     22  C   UNL A   1      33.471  34.580  28.504  1.00  0.00     0.251 C 
ATOM     23  H   UNL A   1      32.067  34.582  27.089  1.00  0.00     0.163 HD
ATOM     24  O   UNL A   1      33.208  35.730  28.850  1.00  0.00    -0.269 OA
BRANCH  22  25
ATOM     25  C   UNL A   1      34.630  33.884  29.113  1.00  0.00     0.039 A 
ATOM     26  C   UNL A   1      34.381  32.826  29.995  1.00  0.00     0.014 A 
ATOM     27  C   UNL A   1      35.945  34.302  28.900  1.00  0.00     0.014 A 
ATOM     28  C   UNL A   1      35.445  32.169  30.621  1.00  0.00     0.010 A 
ATOM     29  C   UNL A   1      37.009  33.589  29.451  1.00  0.00     0.010 A 
ATOM     30  C   UNL A   1      36.771  32.527  30.334  1.00  0.00    -0.014 A 
BRANCH  30  31
ATOM     31  C   UNL A   1      37.912  31.821  30.974  1.00  0.00     0.031 A 
ATOM     32  C   UNL A   1      38.330  32.170  32.378  1.00  0.00     0.074 A 
ATOM     33  C   UNL A   1      38.597  30.889  30.282  1.00  0.00     0.049 A 
ATOM     34  N   UNL A   1      39.325  31.700  33.089  1.00  0.00    -0.248 NA
ATOM     35  C   UNL A   1      37.540  33.202  33.069  1.00  0.00     0.031 C 
ATOM     36  C   UNL A   1      38.321  30.491  28.902  1.00  0.00     0.029 A 
ATOM     37  N   UNL A   1      39.670  30.113  30.643  1.00  0.00    -0.354 N 
ATOM     38  C   UNL A   1      39.287  32.386  34.297  1.00  0.00     0.074 A 
ATOM     39  C   UNL A   1      38.206  33.343  34.206  1.00  0.00     0.031 C 
ATOM     40  C   UNL A   1      39.183  29.526  28.542  1.00  0.00     0.029 A 
ATOM     41  C   UNL A   1      40.097  29.265  29.650  1.00  0.00     0.049 A 
ATOM     42  H   UNL A   1      40.094  30.158  31.531  1.00  0.00     0.167 HD
ATOM     43  C   UNL A   1      40.065  32.215  35.393  1.00  0.00     0.037 A 
ATOM     44  C   UNL A   1      41.113  28.383  29.633  1.00  0.00     0.037 A 
ATOM     45  C   UNL A   1      41.120  31.243  35.496  1.00  0.00     0.049 A 
ATOM     46  C   UNL A   1      41.964  28.218  30.864  1.00  0.00     0.074 A 
ATOM     47  C   UNL A   1      41.930  30.958  36.582  1.00  0.00     0.029 A 
ATOM     48  N   UNL A   1      41.510  30.392  34.472  1.00  0.00    -0.354 N 
ATOM     49  N   UNL A   1      41.877  28.829  32.020  1.00  0.00    -0.248 NA
ATOM     50  C   UNL A   1      43.054  27.234  30.787  1.00  0.00     0.031 C 
ATOM     51  C   UNL A   1      42.838  29.965  36.202  1.00  0.00     0.029 A 
ATOM     52  C   UNL A   1      42.562  29.595  34.896  1.00  0.00     0.049 A 
ATOM     53  H   UNL A   1      41.101  30.358  33.577  1.00  0.00     0.167 HD
ATOM     54  C   UNL A   1      42.875  28.284  32.816  1.00  0.00     0.074 A 
ATOM     55  C   UNL A   1      43.545  27.280  32.017  1.00  0.00     0.031 C 
ATOM     56  C   UNL A   1      43.209  28.590  34.093  1.00  0.00     0.037 A 
BRANCH  43  57
ATOM     57  C   UNL A   1      39.797  33.093  36.582  1.00  0.00     0.064 A 
ATOM     58  C   UNL A   1      38.833  32.753  37.544  1.00  0.00     0.173 A 
ATOM     59  C   UNL A   1      40.549  34.259  36.792  1.00  0.00     0.173 A 
ATOM     60  F   UNL A   1      38.080  31.654  37.385  1.00  0.00    -0.203 F 
ATOM     61  C   UNL A   1      38.616  33.559  38.659  1.00  0.00     0.198 A 
ATOM     62  C   UNL A   1      40.350  35.047  37.924  1.00  0.00     0.198 A 
ATOM     63  F   UNL A   1      41.488  34.628  35.908  1.00  0.00    -0.203 F 
ATOM     64  F   UNL A   1      37.661  33.235  39.541  1.00  0.00    -0.200 F 
ATOM     65  C   UNL A   1      39.380  34.699  38.852  1.00  0.00     0.200 A 
ATOM     66  F   UNL A   1      41.099  36.142  38.116  1.00  0.00    -0.200 F 
ATOM     67  F   UNL A   1      39.179  35.467  39.932  1.00  0.00    -0.200 F 
ENDBRANCH  43  57
BRANCH  44  68
ATOM     68  C   UNL A   1      41.375  27.569  28.416  1.00  0.00     0.064 A 
ATOM     69  C   UNL A   1      42.299  27.995  27.451  1.00  0.00     0.173 A 
ATOM     70  C   UNL A   1      40.694  26.367  28.180  1.00  0.00     0.173 A 
ATOM     71  F   UNL A   1      42.960  29.151  27.620  1.00  0.00    -0.203 F 
ATOM     72  C   UNL A   1      42.511  27.264  26.284  1.00  0.00     0.198 A 
ATOM     73  C   UNL A   1      40.929  25.621  27.027  1.00  0.00     0.198 A 
ATOM     74  F   UNL A   1      39.801  25.914  29.072  1.00  0.00    -0.203 F 
ATOM     75  F   UNL A   1      43.358  27.723  25.352  1.00  0.00    -0.200 F 
ATOM     76  C   UNL A   1      41.829  26.075  26.075  1.00  0.00     0.200 A 
ATOM     77  F   UNL A   1      40.277  24.466  26.834  1.00  0.00    -0.200 F 
ATOM     78  F   UNL A   1      42.031  25.373  24.951  1.00  0.00    -0.200 F 
ENDBRANCH  44  68
BRANCH  56  79
ATOM     79  C   UNL A   1      44.323  27.803  34.720  1.00  0.00     0.064 A 
ATOM     80  C   UNL A   1      45.653  28.246  34.675  1.00  0.00     0.173 A 
ATOM     81  C   UNL A   1      44.050  26.608  35.403  1.00  0.00     0.173 A 
ATOM     82  F   UNL A   1      45.968  29.374  34.021  1.00  0.00    -0.203 F 
ATOM     83  C   UNL A   1      46.674  27.505  35.267  1.00  0.00     0.198 A 
ATOM     84  C   UNL A   1      45.069  25.887  36.020  1.00  0.00     0.198 A 
ATOM     85  F   UNL A   1      42.793  26.146  35.481  1.00  0.00    -0.203 F 
ATOM     86  F   UNL A   1      47.944  27.921  35.168  1.00  0.00    -0.200 F 
ATOM     87  C   UNL A   1      46.379  26.332  35.944  1.00  0.00     0.200 A 
ATOM     88  F   UNL A   1      44.780  24.760  36.686  1.00  0.00    -0.200 F 
ATOM     89  F   UNL A   1      47.362  25.623  36.518  1.00  0.00    -0.200 F 
ENDBRANCH  56  79
ENDBRANCH  30  31
ENDBRANCH  22  25
ENDBRANCH  20  21
ENDBRANCH  19  20
ENDBRANCH   1  19
TORSDOF 13
ENDMDL
MODEL 2
REMARK VINA RESULT:     -11.3      0.664      7.569
REMARK SMILES Cc1occc1C(=O)N[C@@H](C)CC(=O)NCCCNC(=O)c1ccc(-c2c3nc(c(-c4c(F)c(F)c(F)c(F)c4F)c4ccc([nH]4)c(-c4c(F)c(F)c(F)c(F)c4F)c4nc(c(-c5c(F)c(F)c(F)c(F)c5F)c5ccc2[nH]5)C=C4)C=C3)cc1
REMARK SMILES IDX 16 1 15 2 13 3 14 4 12 6 10 7 11 8 9 9 7 10 8 11 6 13 1 14
REMARK SMILES IDX 2 15 3 16 4 17 5 18 17 19 18 20 19 21 20 22 21 24 22 25
REMARK SMILES IDX 23 26 84 27 24 28 83 29 25 30 26 31 27 32 77 33 28 34 82 35
REMARK SMILES IDX 76 36 78 37 29 38 81 39 75 40 74 41 30 43 62 44 42 45 61 46
REMARK SMILES IDX 43 47 46 48 60 49 79 50 44 51 45 52 59 54 80 55 47 56 31 57
REMARK SMILES IDX 32 58 40 59 33 60 34 61 38 62 41 63 35 64 36 65 39 66 37 67
REMARK SMILES IDX 63 68 64 69 72 70 65 71 66 72 70 73 73 74 67 75 68 76 71 77
REMARK SMILES IDX 69 78 48 79 49 80 57 81 50 82 51 83 55 84 58 85 52 86 53 87
REMARK SMILES IDX 56 88 54 89
REMARK H PARENT 15 5 9 12 19 23 78 42 46 53
REMARK Flexibility Score: inf
ROOT
ATOM      1  C   UNL A   1      31.099  30.796  26.100  1.00  0.00     0.117 C 
ENDROOT
BRANCH   1   2
ATOM      2  N   UNL A   1      32.206  30.302  25.302  1.00  0.00    -0.356 N 
ATOM      3  C   UNL A   1      32.557  29.020  25.009  1.00  0.00     0.222 C 
ATOM      4  O   UNL A   1      33.612  28.821  24.404  1.00  0.00    -0.275 OA
ATOM      5  H   UNL A   1      32.788  30.995  24.916  1.00  0.00     0.163 HD
BRANCH   3   6
ATOM      6  C   UNL A   1      31.668  27.866  25.412  1.00  0.00     0.124 C 
BRANCH   6   7
ATOM      7  C   UNL A   1      30.587  27.605  24.360  1.00  0.00     0.088 C 
ATOM      8  C   UNL A   1      30.572  26.121  23.991  1.00  0.00     0.031 C 
BRANCH   7   9
ATOM      9  N   UNL A   1      30.802  28.346  23.125  1.00  0.00    -0.349 N 
ATOM     10  C   UNL A   1      30.086  29.298  22.445  1.00  0.00     0.255 C 
ATOM     11  O   UNL A   1      30.562  29.627  21.358  1.00  0.00    -0.269 OA
ATOM     12  H   UNL A   1      31.648  28.113  22.679  1.00  0.00     0.164 HD
BRANCH  10  13
ATOM     13  C   UNL A   1      28.930  30.011  22.979  1.00  0.00     0.080 A 
ATOM     14  C   UNL A   1      26.817  28.411  23.320  1.00  0.00     0.088 C 
ATOM     15  C   UNL A   1      27.639  29.640  23.334  1.00  0.00     0.113 A 
ATOM     16  O   UNL A   1      26.935  30.730  23.768  1.00  0.00    -0.469 OA
ATOM     17  C   UNL A   1      27.727  31.816  23.644  1.00  0.00     0.196 A 
ATOM     18  C   UNL A   1      28.947  31.443  23.152  1.00  0.00     0.056 A 
ENDBRANCH  10  13
ENDBRANCH   7   9
ENDBRANCH   6   7
ENDBRANCH   3   6
ENDBRANCH   1   2
BRANCH   1  19
ATOM     19  C   UNL A   1      31.239  32.286  26.379  1.00  0.00     0.042 C 
BRANCH  19  20
ATOM     20  C   UNL A   1      32.458  32.645  27.215  1.00  0.00     0.118 C 
BRANCH  20  21
ATOM     21  N   UNL A   1      32.469  34.051  27.587  1.00  0.00    -0.352 N 
ATOM     22  C   UNL A   1      33.170  34.716  28.562  1.00  0.00     0.251 C 
ATOM     23  H   UNL A   1      31.875  34.622  27.048  1.00  0.00     0.163 HD
ATOM     24  O   UNL A   1      32.837  35.862  28.853  1.00  0.00    -0.269 OA
BRANCH  22  25
ATOM     25  C   UNL A   1      34.306  34.084  29.274  1.00  0.00     0.039 A 
ATOM     26  C   UNL A   1      35.606  34.468  28.924  1.00  0.00     0.014 A 
ATOM     27  C   UNL A   1      34.123  33.068  30.215  1.00  0.00     0.014 A 
ATOM     28  C   UNL A   1      36.706  33.869  29.545  1.00  0.00     0.010 A 
ATOM     29  C   UNL A   1      35.216  32.536  30.899  1.00  0.00     0.010 A 
ATOM     30  C   UNL A   1      36.521  32.915  30.558  1.00  0.00    -0.014 A 
BRANCH  30  31
ATOM     31  C   UNL A   1      37.682  32.287  31.241  1.00  0.00     0.031 A 
ATOM     32  C   UNL A   1      38.465  31.195  30.561  1.00  0.00     0.074 A 
ATOM     33  C   UNL A   1      38.014  32.673  32.489  1.00  0.00     0.049 A 
ATOM     34  N   UNL A   1      39.476  30.495  31.011  1.00  0.00    -0.248 NA
ATOM     35  C   UNL A   1      38.041  30.821  29.202  1.00  0.00     0.031 C 
ATOM     36  C   UNL A   1      37.310  33.688  33.274  1.00  0.00     0.029 A 
ATOM     37  N   UNL A   1      39.022  32.252  33.320  1.00  0.00    -0.354 N 
ATOM     38  C   UNL A   1      39.796  29.596  30.002  1.00  0.00     0.074 A 
ATOM     39  C   UNL A   1      38.840  29.799  28.935  1.00  0.00     0.031 C 
ATOM     40  C   UNL A   1      37.924  33.830  34.460  1.00  0.00     0.029 A 
ATOM     41  C   UNL A   1      39.039  32.891  34.535  1.00  0.00     0.049 A 
ATOM     42  H   UNL A   1      39.673  31.556  33.068  1.00  0.00     0.167 HD
ATOM     43  C   UNL A   1      40.812  28.700  29.955  1.00  0.00     0.037 A 
ATOM     44  C   UNL A   1      39.857  32.733  35.593  1.00  0.00     0.037 A 
ATOM     45  C   UNL A   1      41.782  28.519  31.001  1.00  0.00     0.049 A 
ATOM     46  C   UNL A   1      40.974  31.727  35.515  1.00  0.00     0.074 A 
ATOM     47  C   UNL A   1      42.879  27.674  31.026  1.00  0.00     0.029 A 
ATOM     48  N   UNL A   1      41.774  29.198  32.210  1.00  0.00    -0.354 N 
ATOM     49  N   UNL A   1      41.303  30.928  34.529  1.00  0.00    -0.248 NA
ATOM     50  C   UNL A   1      41.839  31.605  36.697  1.00  0.00     0.031 C 
ATOM     51  C   UNL A   1      43.509  27.810  32.266  1.00  0.00     0.029 A 
ATOM     52  C   UNL A   1      42.836  28.777  32.995  1.00  0.00     0.049 A 
ATOM     53  H   UNL A   1      41.112  29.879  32.473  1.00  0.00     0.167 HD
ATOM     54  C   UNL A   1      42.426  30.235  34.958  1.00  0.00     0.074 A 
ATOM     55  C   UNL A   1      42.733  30.719  36.287  1.00  0.00     0.031 C 
ATOM     56  C   UNL A   1      43.137  29.279  34.311  1.00  0.00     0.037 A 
BRANCH  43  57
ATOM     57  C   UNL A   1      40.938  27.851  28.722  1.00  0.00     0.064 A 
ATOM     58  C   UNL A   1      40.205  26.663  28.571  1.00  0.00     0.173 A 
ATOM     59  C   UNL A   1      41.758  28.255  27.658  1.00  0.00     0.173 A 
ATOM     60  F   UNL A   1      39.415  26.227  29.563  1.00  0.00    -0.203 F 
ATOM     61  C   UNL A   1      40.306  25.901  27.410  1.00  0.00     0.198 A 
ATOM     62  C   UNL A   1      41.833  27.505  26.486  1.00  0.00     0.198 A 
ATOM     63  F   UNL A   1      42.475  29.384  27.746  1.00  0.00    -0.203 F 
ATOM     64  F   UNL A   1      39.629  24.749  27.307  1.00  0.00    -0.200 F 
ATOM     65  C   UNL A   1      41.113  26.326  26.366  1.00  0.00     0.200 A 
ATOM     66  F   UNL A   1      42.603  27.925  25.472  1.00  0.00    -0.200 F 
ATOM     67  F   UNL A   1      41.199  25.597  25.245  1.00  0.00    -0.200 F 
ENDBRANCH  43  57
BRANCH  44  68
ATOM     68  C   UNL A   1      39.666  33.560  36.814  1.00  0.00     0.064 A 
ATOM     69  C   UNL A   1      38.824  33.130  37.849  1.00  0.00     0.173 A 
ATOM     70  C   UNL A   1      40.299  34.802  36.962  1.00  0.00     0.173 A 
ATOM     71  F   UNL A   1      38.177  31.959  37.745  1.00  0.00    -0.203 F 
ATOM     72  C   UNL A   1      38.600  33.924  38.972  1.00  0.00     0.198 A 
ATOM     73  C   UNL A   1      40.098  35.581  38.100  1.00  0.00     0.198 A 
ATOM     74  F   UNL A   1      41.116  35.258  36.002  1.00  0.00    -0.203 F 
ATOM     75  F   UNL A   1      37.745  33.514  39.921  1.00  0.00    -0.200 F 
ATOM     76  C   UNL A   1      39.241  35.147  39.099  1.00  0.00     0.200 A 
ATOM     77  F   UNL A   1      40.730  36.757  38.224  1.00  0.00    -0.200 F 
ATOM     78  F   UNL A   1      39.023  35.911  40.178  1.00  0.00    -0.200 F 
ENDBRANCH  44  68
BRANCH  56  79
ATOM     79  C   UNL A   1      44.341  28.723  35.014  1.00  0.00     0.064 A 
ATOM     80  C   UNL A   1      45.605  29.318  34.894  1.00  0.00     0.173 A 
ATOM     81  C   UNL A   1      44.219  27.599  35.846  1.00  0.00     0.173 A 
ATOM     82  F   UNL A   1      45.776  30.385  34.100  1.00  0.00    -0.203 F 
ATOM     83  C   UNL A   1      46.710  28.790  35.558  1.00  0.00     0.198 A 
ATOM     84  C   UNL A   1      45.320  27.093  36.533  1.00  0.00     0.198 A 
ATOM     85  F   UNL A   1      43.030  26.998  36.000  1.00  0.00    -0.203 F 
ATOM     86  F   UNL A   1      47.918  29.345  35.389  1.00  0.00    -0.200 F 
ATOM     87  C   UNL A   1      46.564  27.685  36.382  1.00  0.00     0.200 A 
ATOM     88  F   UNL A   1      45.174  26.032  37.339  1.00  0.00    -0.200 F 
ATOM     89  F   UNL A   1      47.627  27.181  37.025  1.00  0.00    -0.200 F 
ENDBRANCH  56  79
ENDBRANCH  30  31
ENDBRANCH  22  25
ENDBRANCH  20  21
ENDBRANCH  19  20
ENDBRANCH   1  19
TORSDOF 13
ENDMDL
MODEL 3
REMARK VINA RESULT:     -11.2      1.326      2.945
REMARK SMILES Cc1occc1C(=O)N[C@@H](C)CC(=O)NCCCNC(=O)c1ccc(-c2c3nc(c(-c4c(F)c(F)c(F)c(F)c4F)c4ccc([nH]4)c(-c4c(F)c(F)c(F)c(F)c4F)c4nc(c(-c5c(F)c(F)c(F)c(F)c5F)c5ccc2[nH]5)C=C4)C=C3)cc1
REMARK SMILES IDX 16 1 15 2 13 3 14 4 12 6 10 7 11 8 9 9 7 10 8 11 6 13 1 14
REMARK SMILES IDX 2 15 3 16 4 17 5 18 17 19 18 20 19 21 20 22 21 24 22 25
REMARK SMILES IDX 23 26 84 27 24 28 83 29 25 30 26 31 27 32 77 33 28 34 82 35
REMARK SMILES IDX 76 36 78 37 29 38 81 39 75 40 74 41 30 43 62 44 42 45 61 46
REMARK SMILES IDX 43 47 46 48 60 49 79 50 44 51 45 52 59 54 80 55 47 56 31 57
REMARK SMILES IDX 32 58 40 59 33 60 34 61 38 62 41 63 35 64 36 65 39 66 37 67
REMARK SMILES IDX 63 68 64 69 72 70 65 71 66 72 70 73 73 74 67 75 68 76 71 77
REMARK SMILES IDX 69 78 48 79 49 80 57 81 50 82 51 83 55 84 58 85 52 86 53 87
REMARK SMILES IDX 56 88 54 89
REMARK H PARENT 15 5 9 12 19 23 78 42 46 53
REMARK Flexibility Score: inf
ROOT
ATOM      1  C   UNL A   1      31.557  30.649  26.508  1.00  0.00     0.117 C 
ENDROOT
BRANCH   1   2
ATOM      2  N   UNL A   1      31.375  30.361  25.097  1.00  0.00    -0.356 N 
ATOM      3  C   UNL A   1      31.395  29.165  24.449  1.00  0.00     0.222 C 
ATOM      4  O   UNL A   1      31.332  29.160  23.218  1.00  0.00    -0.275 OA
ATOM      5  H   UNL A   1      31.214  31.146  24.526  1.00  0.00     0.163 HD
BRANCH   3   6
ATOM      6  C   UNL A   1      31.485  27.870  25.223  1.00  0.00     0.124 C 
BRANCH   6   7
ATOM      7  C   UNL A   1      32.847  27.198  25.024  1.00  0.00     0.088 C 
ATOM      8  C   UNL A   1      33.924  27.985  25.771  1.00  0.00     0.031 C 
BRANCH   7   9
ATOM      9  N   UNL A   1      33.256  27.139  23.628  1.00  0.00    -0.349 N 
ATOM     10  C   UNL A   1      33.429  26.121  22.726  1.00  0.00     0.255 C 
ATOM     11  O   UNL A   1      33.887  26.466  21.637  1.00  0.00    -0.269 OA
ATOM     12  H   UNL A   1      33.451  28.026  23.248  1.00  0.00     0.164 HD
BRANCH  10  13
ATOM     13  C   UNL A   1      32.987  24.746  22.926  1.00  0.00     0.080 A 
ATOM     14  C   UNL A   1      30.367  24.582  23.429  1.00  0.00     0.088 C 
ATOM     15  C   UNL A   1      31.761  24.148  23.193  1.00  0.00     0.113 A 
ATOM     16  O   UNL A   1      31.910  22.793  23.313  1.00  0.00    -0.469 OA
ATOM     17  C   UNL A   1      33.222  22.504  23.191  1.00  0.00     0.196 A 
ATOM     18  C   UNL A   1      33.930  23.654  22.972  1.00  0.00     0.056 A 
ENDBRANCH  10  13
ENDBRANCH   7   9
ENDBRANCH   6   7
ENDBRANCH   3   6
ENDBRANCH   1   2
BRANCH   1  19
ATOM     19  C   UNL A   1      31.390  32.135  26.796  1.00  0.00     0.042 C 
BRANCH  19  20
ATOM     20  C   UNL A   1      32.702  32.899  26.879  1.00  0.00     0.118 C 
BRANCH  20  21
ATOM     21  N   UNL A   1      32.559  34.150  27.606  1.00  0.00    -0.352 N 
ATOM     22  C   UNL A   1      33.176  34.601  28.746  1.00  0.00     0.251 C 
ATOM     23  H   UNL A   1      31.912  34.780  27.214  1.00  0.00     0.163 HD
ATOM     24  O   UNL A   1      32.719  35.591  29.315  1.00  0.00    -0.269 OA
BRANCH  22  25
ATOM     25  C   UNL A   1      34.367  33.923  29.310  1.00  0.00     0.039 A 
ATOM     26  C   UNL A   1      34.168  32.839  30.172  1.00  0.00     0.014 A 
ATOM     27  C   UNL A   1      35.665  34.380  29.073  1.00  0.00     0.014 A 
ATOM     28  C   UNL A   1      35.264  32.195  30.755  1.00  0.00     0.010 A 
ATOM     29  C   UNL A   1      36.761  33.683  29.581  1.00  0.00     0.010 A 
ATOM     30  C   UNL A   1      36.573  32.594  30.444  1.00  0.00    -0.014 A 
BRANCH  30  31
ATOM     31  C   UNL A   1      37.748  31.904  31.039  1.00  0.00     0.031 A 
ATOM     32  C   UNL A   1      38.208  32.251  32.431  1.00  0.00     0.074 A 
ATOM     33  C   UNL A   1      38.425  30.990  30.317  1.00  0.00     0.049 A 
ATOM     34  N   UNL A   1      39.235  31.794  33.103  1.00  0.00    -0.248 NA
ATOM     35  C   UNL A   1      37.424  33.264  33.157  1.00  0.00     0.031 C 
ATOM     36  C   UNL A   1      38.108  30.597  28.944  1.00  0.00     0.029 A 
ATOM     37  N   UNL A   1      39.523  30.231  30.635  1.00  0.00    -0.354 N 
ATOM     38  C   UNL A   1      39.227  32.470  34.317  1.00  0.00     0.074 A 
ATOM     39  C   UNL A   1      38.127  33.409  34.271  1.00  0.00     0.031 C 
ATOM     40  C   UNL A   1      38.975  29.651  28.546  1.00  0.00     0.029 A 
ATOM     41  C   UNL A   1      39.930  29.398  29.620  1.00  0.00     0.049 A 
ATOM     42  H   UNL A   1      39.977  30.278  31.508  1.00  0.00     0.167 HD
ATOM     43  C   UNL A   1      40.045  32.306  35.384  1.00  0.00     0.037 A 
ATOM     44  C   UNL A   1      40.961  28.534  29.561  1.00  0.00     0.037 A 
ATOM     45  C   UNL A   1      41.120  31.351  35.443  1.00  0.00     0.049 A 
ATOM     46  C   UNL A   1      41.857  28.376  30.761  1.00  0.00     0.074 A 
ATOM     47  C   UNL A   1      41.973  31.074  36.498  1.00  0.00     0.029 A 
ATOM     48  N   UNL A   1      41.489  30.515  34.400  1.00  0.00    -0.354 N 
ATOM     49  N   UNL A   1      41.799  28.977  31.924  1.00  0.00    -0.248 NA
ATOM     50  C   UNL A   1      42.960  27.412  30.639  1.00  0.00     0.031 C 
ATOM     51  C   UNL A   1      42.884  30.100  36.080  1.00  0.00     0.029 A 
ATOM     52  C   UNL A   1      42.569  29.734  34.781  1.00  0.00     0.049 A 
ATOM     53  H   UNL A   1      41.050  30.481  33.519  1.00  0.00     0.167 HD
ATOM     54  C   UNL A   1      42.833  28.444  32.681  1.00  0.00     0.074 A 
ATOM     55  C   UNL A   1      43.493  27.458  31.852  1.00  0.00     0.031 C 
ATOM     56  C   UNL A   1      43.206  28.747  33.949  1.00  0.00     0.037 A 
BRANCH  43  57
ATOM     57  C   UNL A   1      39.803  33.170  36.589  1.00  0.00     0.064 A 
ATOM     58  C   UNL A   1      40.482  34.385  36.769  1.00  0.00     0.173 A 
ATOM     59  C   UNL A   1      38.845  32.807  37.547  1.00  0.00     0.173 A 
ATOM     60  F   UNL A   1      41.416  34.774  35.888  1.00  0.00    -0.203 F 
ATOM     61  C   UNL A   1      40.226  35.193  37.874  1.00  0.00     0.198 A 
ATOM     62  C   UNL A   1      38.571  33.632  38.635  1.00  0.00     0.198 A 
ATOM     63  F   UNL A   1      38.163  31.659  37.421  1.00  0.00    -0.203 F 
ATOM     64  F   UNL A   1      40.917  36.328  38.045  1.00  0.00    -0.200 F 
ATOM     65  C   UNL A   1      39.265  34.820  38.801  1.00  0.00     0.200 A 
ATOM     66  F   UNL A   1      37.631  33.276  39.523  1.00  0.00    -0.200 F 
ATOM     67  F   UNL A   1      39.012  35.605  39.857  1.00  0.00    -0.200 F 
ENDBRANCH  43  57
BRANCH  44  68
ATOM     68  C   UNL A   1      41.195  27.735  28.330  1.00  0.00     0.064 A 
ATOM     69  C   UNL A   1      40.581  26.486  28.155  1.00  0.00     0.173 A 
ATOM     70  C   UNL A   1      42.054  28.186  27.318  1.00  0.00     0.173 A 
ATOM     71  F   UNL A   1      39.769  26.000  29.106  1.00  0.00    -0.203 F 
ATOM     72  C   UNL A   1      40.838  25.709  27.028  1.00  0.00     0.198 A 
ATOM     73  C   UNL A   1      42.286  27.421  26.176  1.00  0.00     0.198 A 
ATOM     74  F   UNL A   1      42.665  29.374  27.435  1.00  0.00    -0.203 F 
ATOM     75  F   UNL A   1      40.281  24.494  26.912  1.00  0.00    -0.200 F 
ATOM     76  C   UNL A   1      41.686  26.178  26.037  1.00  0.00     0.200 A 
ATOM     77  F   UNL A   1      43.097  27.885  25.215  1.00  0.00    -0.200 F 
ATOM     78  F   UNL A   1      41.935  25.429  24.954  1.00  0.00    -0.200 F 
ENDBRANCH  44  68
BRANCH  56  79
ATOM     79  C   UNL A   1      44.355  27.976  34.530  1.00  0.00     0.064 A 
ATOM     80  C   UNL A   1      45.674  28.446  34.450  1.00  0.00     0.173 A 
ATOM     81  C   UNL A   1      44.128  26.767  35.206  1.00  0.00     0.173 A 
ATOM     82  F   UNL A   1      45.945  29.589  33.802  1.00  0.00    -0.203 F 
ATOM     83  C   UNL A   1      46.727  27.719  35.000  1.00  0.00     0.198 A 
ATOM     84  C   UNL A   1      45.180  26.059  35.781  1.00  0.00     0.198 A 
ATOM     85  F   UNL A   1      42.883  26.278  35.317  1.00  0.00    -0.203 F 
ATOM     86  F   UNL A   1      47.985  28.163  34.868  1.00  0.00    -0.200 F 
ATOM     87  C   UNL A   1      46.478  26.532  35.671  1.00  0.00     0.200 A 
ATOM     88  F   UNL A   1      44.935  24.918  36.441  1.00  0.00    -0.200 F 
ATOM     89  F   UNL A   1      47.492  25.836  36.205  1.00  0.00    -0.200 F 
ENDBRANCH  56  79
ENDBRANCH  30  31
ENDBRANCH  22  25
ENDBRANCH  20  21
ENDBRANCH  19  20
ENDBRANCH   1  19
TORSDOF 13
ENDMDL
