MODEL 1
REMARK VINA RESULT:     -11.5      0.000      0.000
REMARK SMILES C=CC[N@H+](CC(=O)NCCCNC(=O)c1ccc(-c2c3nc(c(-c4c(F)c(F)c(F)c(F)c4F)c4ccc([nH]4)c(-c4c(F)c(F)c(F)c(F)c4F)c4nc(c(-c5c(F)c(F)c(F)c(F)c5F)c5ccc2[nH]5)C=C4)C=C3)cc1)[C@H]1CC(=O)N(c2ccccc2)C1=O
REMARK SMILES IDX 9 1 8 2 6 3 7 4 5 6 4 7 3 9 2 10 1 11 78 12 79 13 89 14
REMARK SMILES IDX 80 15 82 16 90 17 81 18 83 19 84 20 88 21 85 22 87 23 86 24
REMARK SMILES IDX 10 25 11 26 12 27 13 28 14 30 15 31 16 32 77 33 17 34 76 35
REMARK SMILES IDX 18 36 19 37 20 38 70 39 21 40 75 41 69 42 71 43 22 44 74 45
REMARK SMILES IDX 68 46 67 47 23 49 55 50 35 51 54 52 36 53 39 54 53 55 72 56
REMARK SMILES IDX 37 57 38 58 52 60 73 61 40 62 24 63 25 64 33 65 26 66 27 67
REMARK SMILES IDX 31 68 34 69 28 70 29 71 32 72 30 73 56 74 57 75 65 76 58 77
REMARK SMILES IDX 59 78 63 79 66 80 60 81 61 82 64 83 62 84 41 85 42 86 50 87
REMARK SMILES IDX 43 88 44 89 48 90 51 91 45 92 46 93 49 94 47 95
REMARK H PARENT 8 5 4 8 12 29 71 48 39 59
REMARK Flexibility Score: inf
ROOT
ATOM      1  C   UNL A   1      31.583  27.800  24.302  1.00  0.00     0.118 C 
ENDROOT
BRANCH   1   2
ATOM      2  N   UNL A   1      32.502  27.392  23.246  1.00  0.00    -0.351 N 
ATOM      3  C   UNL A   1      32.971  26.160  22.884  1.00  0.00     0.275 C 
ATOM      4  O   UNL A   1      33.808  26.113  21.980  1.00  0.00    -0.269 OA
ATOM      5  H   UNL A   1      32.844  28.134  22.697  1.00  0.00     0.163 HD
BRANCH   3   6
ATOM      6  C   UNL A   1      32.439  24.883  23.548  1.00  0.00     0.364 C 
BRANCH   6   7
ATOM      7  N   UNL A   1      33.212  24.478  24.774  1.00  0.00    -0.313 N 
ATOM      8  H   UNL A   1      34.050  25.034  24.942  1.00  0.00     0.349 HD
BRANCH   7   9
ATOM      9  C   UNL A   1      32.358  24.695  25.948  1.00  0.00     0.291 C 
BRANCH   9  10
ATOM     10  C   UNL A   1      30.950  24.171  25.916  1.00  0.00     0.025 C 
ATOM     11  C   UNL A   1      30.539  23.054  26.533  1.00  0.00     0.010 C 
ENDBRANCH   9  10
ENDBRANCH   7   9
BRANCH   7  12
ATOM     12  C   UNL A   1      33.670  23.073  24.560  1.00  0.00     0.285 C 
ATOM     13  C   UNL A   1      34.351  22.941  23.206  1.00  0.00     0.176 C 
ATOM     14  C   UNL A   1      34.778  22.597  25.479  1.00  0.00     0.292 C 
ATOM     15  C   UNL A   1      35.810  23.057  23.525  1.00  0.00     0.240 C 
ATOM     16  N   UNL A   1      35.991  22.830  24.873  1.00  0.00    -0.245 N 
ATOM     17  O   UNL A   1      34.536  22.088  26.570  1.00  0.00    -0.267 OA
ATOM     18  O   UNL A   1      36.649  23.185  22.643  1.00  0.00    -0.274 OA
BRANCH  16  19
ATOM     19  C   UNL A   1      37.265  22.756  25.512  1.00  0.00     0.052 A 
ATOM     20  C   UNL A   1      38.040  21.586  25.494  1.00  0.00     0.027 A 
ATOM     21  C   UNL A   1      37.784  23.858  26.214  1.00  0.00     0.027 A 
ATOM     22  C   UNL A   1      39.288  21.528  26.128  1.00  0.00     0.002 A 
ATOM     23  C   UNL A   1      39.024  23.797  26.861  1.00  0.00     0.002 A 
ATOM     24  C   UNL A   1      39.780  22.633  26.812  1.00  0.00     0.000 A 
ENDBRANCH  16  19
ENDBRANCH   7  12
ENDBRANCH   6   7
ENDBRANCH   3   6
ENDBRANCH   1   2
BRANCH   1  25
ATOM     25  C   UNL A   1      32.313  28.206  25.586  1.00  0.00     0.042 C 
BRANCH  25  26
ATOM     26  C   UNL A   1      33.400  29.252  25.376  1.00  0.00     0.118 C 
BRANCH  26  27
ATOM     27  N   UNL A   1      32.989  30.554  25.870  1.00  0.00    -0.352 N 
ATOM     28  C   UNL A   1      33.432  31.267  26.958  1.00  0.00     0.251 C 
ATOM     29  H   UNL A   1      32.285  30.995  25.342  1.00  0.00     0.163 HD
ATOM     30  O   UNL A   1      32.772  32.228  27.347  1.00  0.00    -0.269 OA
BRANCH  28  31
ATOM     31  C   UNL A   1      34.679  30.901  27.677  1.00  0.00     0.039 A 
ATOM     32  C   UNL A   1      34.783  29.612  28.214  1.00  0.00     0.014 A 
ATOM     33  C   UNL A   1      35.704  31.822  27.907  1.00  0.00     0.014 A 
ATOM     34  C   UNL A   1      35.917  29.243  28.945  1.00  0.00     0.010 A 
ATOM     35  C   UNL A   1      36.871  31.429  28.565  1.00  0.00     0.010 A 
ATOM     36  C   UNL A   1      36.981  30.143  29.113  1.00  0.00    -0.014 A 
BRANCH  36  37
ATOM     37  C   UNL A   1      38.191  29.765  29.891  1.00  0.00     0.031 A 
ATOM     38  C   UNL A   1      38.388  30.286  31.291  1.00  0.00     0.074 A 
ATOM     39  C   UNL A   1      39.142  28.993  29.329  1.00  0.00     0.049 A 
ATOM     40  N   UNL A   1      39.399  30.114  32.107  1.00  0.00    -0.248 NA
ATOM     41  C   UNL A   1      37.318  31.134  31.837  1.00  0.00     0.031 C 
ATOM     42  C   UNL A   1      39.103  28.464  27.965  1.00  0.00     0.029 A 
ATOM     43  N   UNL A   1      40.333  28.530  29.831  1.00  0.00    -0.354 N 
ATOM     44  C   UNL A   1      39.099  30.852  33.244  1.00  0.00     0.074 A 
ATOM     45  C   UNL A   1      37.832  31.507  32.999  1.00  0.00     0.031 C 
ATOM     46  C   UNL A   1      40.209  27.736  27.745  1.00  0.00     0.029 A 
ATOM     47  C   UNL A   1      41.049  27.771  28.938  1.00  0.00     0.049 A 
ATOM     48  H   UNL A   1      40.643  28.724  30.745  1.00  0.00     0.167 HD
ATOM     49  C   UNL A   1      39.802  30.958  34.397  1.00  0.00     0.037 A 
ATOM     50  C   UNL A   1      42.250  27.173  29.066  1.00  0.00     0.037 A 
ATOM     51  C   UNL A   1      41.038  30.269  34.662  1.00  0.00     0.049 A 
ATOM     52  C   UNL A   1      42.996  27.279  30.367  1.00  0.00     0.074 A 
ATOM     53  C   UNL A   1      41.779  30.245  35.831  1.00  0.00     0.029 A 
ATOM     54  N   UNL A   1      41.715  29.482  33.744  1.00  0.00    -0.354 N 
ATOM     55  N   UNL A   1      42.665  27.918  31.462  1.00  0.00    -0.248 NA
ATOM     56  C   UNL A   1      44.281  26.568  30.453  1.00  0.00     0.031 C 
ATOM     57  C   UNL A   1      42.924  29.473  35.608  1.00  0.00     0.029 A 
ATOM     58  C   UNL A   1      42.876  28.984  34.314  1.00  0.00     0.049 A 
ATOM     59  H   UNL A   1      41.415  29.303  32.823  1.00  0.00     0.167 HD
ATOM     60  C   UNL A   1      43.685  27.674  32.370  1.00  0.00     0.074 A 
ATOM     61  C   UNL A   1      44.641  26.814  31.706  1.00  0.00     0.031 C 
ATOM     62  C   UNL A   1      43.818  28.126  33.641  1.00  0.00     0.037 A 
BRANCH  49  63
ATOM     63  C   UNL A   1      39.249  31.850  35.469  1.00  0.00     0.064 A 
ATOM     64  C   UNL A   1      38.372  31.366  36.452  1.00  0.00     0.173 A 
ATOM     65  C   UNL A   1      39.627  33.200  35.534  1.00  0.00     0.173 A 
ATOM     66  F   UNL A   1      37.972  30.086  36.428  1.00  0.00    -0.203 F 
ATOM     67  C   UNL A   1      37.872  32.206  37.443  1.00  0.00     0.198 A 
ATOM     68  C   UNL A   1      39.146  34.031  36.545  1.00  0.00     0.198 A 
ATOM     69  F   UNL A   1      40.468  33.713  34.624  1.00  0.00    -0.203 F 
ATOM     70  F   UNL A   1      36.999  31.733  38.343  1.00  0.00    -0.200 F 
ATOM     71  C   UNL A   1      38.264  33.535  37.493  1.00  0.00     0.200 A 
ATOM     72  F   UNL A   1      39.535  35.313  36.598  1.00  0.00    -0.200 F 
ATOM     73  F   UNL A   1      37.785  34.341  38.450  1.00  0.00    -0.200 F 
ENDBRANCH  49  63
BRANCH  50  74
ATOM     74  C   UNL A   1      42.809  26.398  27.928  1.00  0.00     0.064 A 
ATOM     75  C   UNL A   1      42.570  25.022  27.810  1.00  0.00     0.173 A 
ATOM     76  C   UNL A   1      43.581  27.016  26.936  1.00  0.00     0.173 A 
ATOM     77  F   UNL A   1      41.855  24.383  28.748  1.00  0.00    -0.203 F 
ATOM     78  C   UNL A   1      43.096  24.291  26.748  1.00  0.00     0.198 A 
ATOM     79  C   UNL A   1      44.086  26.289  25.860  1.00  0.00     0.198 A 
ATOM     80  F   UNL A   1      43.833  28.333  27.003  1.00  0.00    -0.203 F 
ATOM     81  F   UNL A   1      42.885  22.969  26.678  1.00  0.00    -0.200 F 
ATOM     82  C   UNL A   1      43.848  24.925  25.771  1.00  0.00     0.200 A 
ATOM     83  F   UNL A   1      44.801  26.908  24.911  1.00  0.00    -0.200 F 
ATOM     84  F   UNL A   1      44.347  24.222  24.745  1.00  0.00    -0.200 F 
ENDBRANCH  50  74
BRANCH  62  85
ATOM     85  C   UNL A   1      45.028  27.680  34.407  1.00  0.00     0.064 A 
ATOM     86  C   UNL A   1      45.029  26.490  35.147  1.00  0.00     0.173 A 
ATOM     87  C   UNL A   1      46.213  28.431  34.366  1.00  0.00     0.173 A 
ATOM     88  F   UNL A   1      43.916  25.745  35.229  1.00  0.00    -0.203 F 
ATOM     89  C   UNL A   1      46.167  26.077  35.836  1.00  0.00     0.198 A 
ATOM     90  C   UNL A   1      47.355  28.003  35.035  1.00  0.00     0.198 A 
ATOM     91  F   UNL A   1      46.263  29.575  33.667  1.00  0.00    -0.203 F 
ATOM     92  F   UNL A   1      46.133  24.956  36.570  1.00  0.00    -0.200 F 
ATOM     93  C   UNL A   1      47.330  26.830  35.774  1.00  0.00     0.200 A 
ATOM     94  F   UNL A   1      48.481  28.726  34.965  1.00  0.00    -0.200 F 
ATOM     95  F   UNL A   1      48.425  26.429  36.433  1.00  0.00    -0.200 F 
ENDBRANCH  62  85
ENDBRANCH  36  37
ENDBRANCH  28  31
ENDBRANCH  26  27
ENDBRANCH  25  26
ENDBRANCH   1  25
TORSDOF 15
ENDMDL
MODEL 2
REMARK VINA RESULT:     -11.4      2.055      7.777
REMARK SMILES C=CC[N@H+](CC(=O)NCCCNC(=O)c1ccc(-c2c3nc(c(-c4c(F)c(F)c(F)c(F)c4F)c4ccc([nH]4)c(-c4c(F)c(F)c(F)c(F)c4F)c4nc(c(-c5c(F)c(F)c(F)c(F)c5F)c5ccc2[nH]5)C=C4)C=C3)cc1)[C@H]1CC(=O)N(c2ccccc2)C1=O
REMARK SMILES IDX 9 1 8 2 6 3 7 4 5 6 4 7 3 9 2 10 1 11 78 12 79 13 89 14
REMARK SMILES IDX 80 15 82 16 90 17 81 18 83 19 84 20 88 21 85 22 87 23 86 24
REMARK SMILES IDX 10 25 11 26 12 27 13 28 14 30 15 31 16 32 77 33 17 34 76 35
REMARK SMILES IDX 18 36 19 37 20 38 70 39 21 40 75 41 69 42 71 43 22 44 74 45
REMARK SMILES IDX 68 46 67 47 23 49 55 50 35 51 54 52 36 53 39 54 53 55 72 56
REMARK SMILES IDX 37 57 38 58 52 60 73 61 40 62 24 63 25 64 33 65 26 66 27 67
REMARK SMILES IDX 31 68 34 69 28 70 29 71 32 72 30 73 56 74 57 75 65 76 58 77
REMARK SMILES IDX 59 78 63 79 66 80 60 81 61 82 64 83 62 84 41 85 42 86 50 87
REMARK SMILES IDX 43 88 44 89 48 90 51 91 45 92 46 93 49 94 47 95
REMARK H PARENT 8 5 4 8 12 29 71 48 39 59
REMARK Flexibility Score: inf
ROOT
ATOM      1  C   UNL A   1      31.381  30.867  26.322  1.00  0.00     0.118 C 
ENDROOT
BRANCH   1   2
ATOM      2  N   UNL A   1      31.049  30.491  24.953  1.00  0.00    -0.351 N 
ATOM      3  C   UNL A   1      31.070  29.280  24.319  1.00  0.00     0.275 C 
ATOM      4  O   UNL A   1      30.801  29.263  23.116  1.00  0.00    -0.269 OA
ATOM      5  H   UNL A   1      30.759  31.241  24.385  1.00  0.00     0.163 HD
BRANCH   3   6
ATOM      6  C   UNL A   1      31.370  27.988  25.089  1.00  0.00     0.364 C 
BRANCH   6   7
ATOM      7  N   UNL A   1      32.452  27.152  24.459  1.00  0.00    -0.313 N 
ATOM      8  H   UNL A   1      32.654  27.392  23.489  1.00  0.00     0.349 HD
BRANCH   7   9
ATOM      9  C   UNL A   1      33.703  27.392  25.189  1.00  0.00     0.291 C 
BRANCH   9  10
ATOM     10  C   UNL A   1      33.624  27.984  26.567  1.00  0.00     0.025 C 
ATOM     11  C   UNL A   1      34.496  28.875  27.064  1.00  0.00     0.010 C 
ENDBRANCH   9  10
ENDBRANCH   7   9
BRANCH   7  12
ATOM     12  C   UNL A   1      31.967  25.739  24.455  1.00  0.00     0.285 C 
ATOM     13  C   UNL A   1      32.007  25.172  23.044  1.00  0.00     0.176 C 
ATOM     14  C   UNL A   1      32.849  24.742  25.183  1.00  0.00     0.292 C 
ATOM     15  C   UNL A   1      33.302  24.420  22.995  1.00  0.00     0.240 C 
ATOM     16  N   UNL A   1      33.732  24.188  24.284  1.00  0.00    -0.245 N 
ATOM     17  O   UNL A   1      32.717  24.521  26.383  1.00  0.00    -0.267 OA
ATOM     18  O   UNL A   1      33.750  23.990  21.940  1.00  0.00    -0.274 OA
BRANCH  16  19
ATOM     19  C   UNL A   1      34.877  23.406  24.621  1.00  0.00     0.052 A 
ATOM     20  C   UNL A   1      36.090  23.994  25.012  1.00  0.00     0.027 A 
ATOM     21  C   UNL A   1      34.838  22.003  24.548  1.00  0.00     0.027 A 
ATOM     22  C   UNL A   1      37.206  23.213  25.338  1.00  0.00     0.002 A 
ATOM     23  C   UNL A   1      35.957  21.221  24.860  1.00  0.00     0.002 A 
ATOM     24  C   UNL A   1      37.141  21.827  25.261  1.00  0.00     0.000 A 
ENDBRANCH  16  19
ENDBRANCH   7  12
ENDBRANCH   6   7
ENDBRANCH   3   6
ENDBRANCH   1   2
BRANCH   1  25
ATOM     25  C   UNL A   1      31.376  32.384  26.528  1.00  0.00     0.042 C 
BRANCH  25  26
ATOM     26  C   UNL A   1      32.672  32.935  27.111  1.00  0.00     0.118 C 
BRANCH  26  27
ATOM     27  N   UNL A   1      32.504  34.291  27.598  1.00  0.00    -0.352 N 
ATOM     28  C   UNL A   1      33.043  34.908  28.701  1.00  0.00     0.251 C 
ATOM     29  H   UNL A   1      31.913  34.859  27.052  1.00  0.00     0.163 HD
ATOM     30  O   UNL A   1      32.569  35.978  29.075  1.00  0.00    -0.269 OA
BRANCH  28  31
ATOM     31  C   UNL A   1      34.175  34.311  29.455  1.00  0.00     0.039 A 
ATOM     32  C   UNL A   1      35.475  34.514  28.976  1.00  0.00     0.014 A 
ATOM     33  C   UNL A   1      33.977  33.486  30.565  1.00  0.00     0.014 A 
ATOM     34  C   UNL A   1      36.565  33.925  29.625  1.00  0.00     0.010 A 
ATOM     35  C   UNL A   1      35.071  32.965  31.261  1.00  0.00     0.010 A 
ATOM     36  C   UNL A   1      36.375  33.158  30.785  1.00  0.00    -0.014 A 
BRANCH  36  37
ATOM     37  C   UNL A   1      37.525  32.522  31.482  1.00  0.00     0.031 A 
ATOM     38  C   UNL A   1      38.249  31.361  30.850  1.00  0.00     0.074 A 
ATOM     39  C   UNL A   1      37.894  32.949  32.705  1.00  0.00     0.049 A 
ATOM     40  N   UNL A   1      39.235  30.641  31.324  1.00  0.00    -0.248 NA
ATOM     41  C   UNL A   1      37.784  30.936  29.521  1.00  0.00     0.031 C 
ATOM     42  C   UNL A   1      37.247  34.029  33.453  1.00  0.00     0.029 A 
ATOM     43  N   UNL A   1      38.896  32.520  33.540  1.00  0.00    -0.354 N 
ATOM     44  C   UNL A   1      39.488  29.666  30.367  1.00  0.00     0.074 A 
ATOM     45  C   UNL A   1      38.526  29.860  29.304  1.00  0.00     0.031 C 
ATOM     46  C   UNL A   1      37.878  34.188  34.626  1.00  0.00     0.029 A 
ATOM     47  C   UNL A   1      38.953  33.205  34.729  1.00  0.00     0.049 A 
ATOM     48  H   UNL A   1      39.515  31.791  33.307  1.00  0.00     0.167 HD
ATOM     49  C   UNL A   1      40.449  28.711  30.362  1.00  0.00     0.037 A 
ATOM     50  C   UNL A   1      39.776  33.055  35.785  1.00  0.00     0.037 A 
ATOM     51  C   UNL A   1      41.438  28.546  31.394  1.00  0.00     0.049 A 
ATOM     52  C   UNL A   1      40.855  32.009  35.741  1.00  0.00     0.074 A 
ATOM     53  C   UNL A   1      42.504  27.664  31.435  1.00  0.00     0.029 A 
ATOM     54  N   UNL A   1      41.483  29.282  32.568  1.00  0.00    -0.354 N 
ATOM     55  N   UNL A   1      41.131  31.143  34.797  1.00  0.00    -0.248 NA
ATOM     56  C   UNL A   1      41.745  31.926  36.909  1.00  0.00     0.031 C 
ATOM     57  C   UNL A   1      43.172  27.840  32.652  1.00  0.00     0.029 A 
ATOM     58  C   UNL A   1      42.547  28.860  33.350  1.00  0.00     0.049 A 
ATOM     59  H   UNL A   1      40.853  29.999  32.810  1.00  0.00     0.167 HD
ATOM     60  C   UNL A   1      42.233  30.428  35.244  1.00  0.00     0.074 A 
ATOM     61  C   UNL A   1      42.587  30.970  36.538  1.00  0.00     0.031 C 
ATOM     62  C   UNL A   1      42.890  29.411  34.636  1.00  0.00     0.037 A 
BRANCH  49  63
ATOM     63  C   UNL A   1      40.482  27.766  29.196  1.00  0.00     0.064 A 
ATOM     64  C   UNL A   1      41.365  27.952  28.122  1.00  0.00     0.173 A 
ATOM     65  C   UNL A   1      39.644  26.641  29.170  1.00  0.00     0.173 A 
ATOM     66  F   UNL A   1      42.180  29.017  28.094  1.00  0.00    -0.203 F 
ATOM     67  C   UNL A   1      41.388  27.063  27.050  1.00  0.00     0.198 A 
ATOM     68  C   UNL A   1      39.689  25.738  28.109  1.00  0.00     0.198 A 
ATOM     69  F   UNL A   1      38.785  26.413  30.174  1.00  0.00    -0.203 F 
ATOM     70  F   UNL A   1      42.206  27.286  26.013  1.00  0.00    -0.200 F 
ATOM     71  C   UNL A   1      40.555  25.954  27.048  1.00  0.00     0.200 A 
ATOM     72  F   UNL A   1      38.892  24.661  28.114  1.00  0.00    -0.200 F 
ATOM     73  F   UNL A   1      40.581  25.097  26.018  1.00  0.00    -0.200 F 
ENDBRANCH  49  63
BRANCH  50  74
ATOM     74  C   UNL A   1      39.622  33.941  36.967  1.00  0.00     0.064 A 
ATOM     75  C   UNL A   1      38.865  33.537  38.075  1.00  0.00     0.173 A 
ATOM     76  C   UNL A   1      40.233  35.201  37.017  1.00  0.00     0.173 A 
ATOM     77  F   UNL A   1      38.243  32.349  38.064  1.00  0.00    -0.203 F 
ATOM     78  C   UNL A   1      38.714  34.367  39.184  1.00  0.00     0.198 A 
ATOM     79  C   UNL A   1      40.103  36.020  38.136  1.00  0.00     0.198 A 
ATOM     80  F   UNL A   1      40.972  35.631  35.982  1.00  0.00    -0.203 F 
ATOM     81  F   UNL A   1      37.954  33.973  40.215  1.00  0.00    -0.200 F 
ATOM     82  C   UNL A   1      39.338  35.605  39.216  1.00  0.00     0.200 A 
ATOM     83  F   UNL A   1      40.718  37.211  38.169  1.00  0.00    -0.200 F 
ATOM     84  F   UNL A   1      39.198  36.400  40.286  1.00  0.00    -0.200 F 
ENDBRANCH  50  74
BRANCH  62  85
ATOM     85  C   UNL A   1      44.073  28.831  35.351  1.00  0.00     0.064 A 
ATOM     86  C   UNL A   1      43.934  27.767  36.254  1.00  0.00     0.173 A 
ATOM     87  C   UNL A   1      45.366  29.317  35.100  1.00  0.00     0.173 A 
ATOM     88  F   UNL A   1      42.718  27.278  36.539  1.00  0.00    -0.203 F 
ATOM     89  C   UNL A   1      45.045  27.224  36.896  1.00  0.00     0.198 A 
ATOM     90  C   UNL A   1      46.476  28.755  35.724  1.00  0.00     0.198 A 
ATOM     91  F   UNL A   1      45.551  30.330  34.240  1.00  0.00    -0.203 F 
ATOM     92  F   UNL A   1      44.885  26.235  37.785  1.00  0.00    -0.200 F 
ATOM     93  C   UNL A   1      46.314  27.713  36.625  1.00  0.00     0.200 A 
ATOM     94  F   UNL A   1      47.702  29.222  35.453  1.00  0.00    -0.200 F 
ATOM     95  F   UNL A   1      47.382  27.186  37.239  1.00  0.00    -0.200 F 
ENDBRANCH  62  85
ENDBRANCH  36  37
ENDBRANCH  28  31
ENDBRANCH  26  27
ENDBRANCH  25  26
ENDBRANCH   1  25
TORSDOF 15
ENDMDL
MODEL 3
REMARK VINA RESULT:     -11.2      3.744      8.693
REMARK SMILES C=CC[N@H+](CC(=O)NCCCNC(=O)c1ccc(-c2c3nc(c(-c4c(F)c(F)c(F)c(F)c4F)c4ccc([nH]4)c(-c4c(F)c(F)c(F)c(F)c4F)c4nc(c(-c5c(F)c(F)c(F)c(F)c5F)c5ccc2[nH]5)C=C4)C=C3)cc1)[C@H]1CC(=O)N(c2ccccc2)C1=O
REMARK SMILES IDX 9 1 8 2 6 3 7 4 5 6 4 7 3 9 2 10 1 11 78 12 79 13 89 14
REMARK SMILES IDX 80 15 82 16 90 17 81 18 83 19 84 20 88 21 85 22 87 23 86 24
REMARK SMILES IDX 10 25 11 26 12 27 13 28 14 30 15 31 16 32 77 33 17 34 76 35
REMARK SMILES IDX 18 36 19 37 20 38 70 39 21 40 75 41 69 42 71 43 22 44 74 45
REMARK SMILES IDX 68 46 67 47 23 49 55 50 35 51 54 52 36 53 39 54 53 55 72 56
REMARK SMILES IDX 37 57 38 58 52 60 73 61 40 62 24 63 25 64 33 65 26 66 27 67
REMARK SMILES IDX 31 68 34 69 28 70 29 71 32 72 30 73 56 74 57 75 65 76 58 77
REMARK SMILES IDX 59 78 63 79 66 80 60 81 61 82 64 83 62 84 41 85 42 86 50 87
REMARK SMILES IDX 43 88 44 89 48 90 51 91 45 92 46 93 49 94 47 95
REMARK H PARENT 8 5 4 8 12 29 71 48 39 59
REMARK Flexibility Score: inf
ROOT
ATOM      1  C   UNL A   1      34.289  22.282  25.323  1.00  0.00     0.118 C 
ENDROOT
BRANCH   1   2
ATOM      2  N   UNL A   1      34.385  22.619  23.908  1.00  0.00    -0.351 N 
ATOM      3  C   UNL A   1      33.493  23.213  23.060  1.00  0.00     0.275 C 
ATOM      4  O   UNL A   1      33.816  23.314  21.874  1.00  0.00    -0.269 OA
ATOM      5  H   UNL A   1      35.242  22.375  23.490  1.00  0.00     0.163 HD
BRANCH   3   6
ATOM      6  C   UNL A   1      32.161  23.774  23.575  1.00  0.00     0.364 C 
BRANCH   6   7
ATOM      7  N   UNL A   1      32.088  25.277  23.534  1.00  0.00    -0.313 N 
ATOM      8  H   UNL A   1      31.811  25.657  22.629  1.00  0.00     0.349 HD
BRANCH   7   9
ATOM      9  C   UNL A   1      31.049  25.713  24.475  1.00  0.00     0.291 C 
BRANCH   9  10
ATOM     10  C   UNL A   1      29.860  26.455  23.934  1.00  0.00     0.025 C 
ATOM     11  C   UNL A   1      29.913  27.671  23.368  1.00  0.00     0.010 C 
ENDBRANCH   9  10
ENDBRANCH   7   9
BRANCH   7  12
ATOM     12  C   UNL A   1      33.463  25.790  23.808  1.00  0.00     0.285 C 
ATOM     13  C   UNL A   1      33.877  26.787  22.737  1.00  0.00     0.176 C 
ATOM     14  C   UNL A   1      33.609  26.641  25.056  1.00  0.00     0.292 C 
ATOM     15  C   UNL A   1      33.574  28.121  23.350  1.00  0.00     0.240 C 
ATOM     16  N   UNL A   1      33.443  27.964  24.714  1.00  0.00    -0.245 N 
ATOM     17  O   UNL A   1      33.846  26.142  26.151  1.00  0.00    -0.267 OA
ATOM     18  O   UNL A   1      33.608  29.150  22.690  1.00  0.00    -0.274 OA
BRANCH  16  19
ATOM     19  C   UNL A   1      33.258  29.040  25.633  1.00  0.00     0.052 A 
ATOM     20  C   UNL A   1      32.054  29.758  25.704  1.00  0.00     0.027 A 
ATOM     21  C   UNL A   1      34.296  29.441  26.492  1.00  0.00     0.027 A 
ATOM     22  C   UNL A   1      31.887  30.814  26.609  1.00  0.00     0.002 A 
ATOM     23  C   UNL A   1      34.136  30.506  27.387  1.00  0.00     0.002 A 
ATOM     24  C   UNL A   1      32.928  31.189  27.450  1.00  0.00     0.000 A 
ENDBRANCH  16  19
ENDBRANCH   7  12
ENDBRANCH   6   7
ENDBRANCH   3   6
ENDBRANCH   1   2
BRANCH   1  25
ATOM     25  C   UNL A   1      35.248  23.107  26.186  1.00  0.00     0.042 C 
BRANCH  25  26
ATOM     26  C   UNL A   1      36.548  23.478  25.486  1.00  0.00     0.118 C 
BRANCH  26  27
ATOM     27  N   UNL A   1      37.613  22.547  25.810  1.00  0.00    -0.352 N 
ATOM     28  C   UNL A   1      38.873  22.782  26.307  1.00  0.00     0.251 C 
ATOM     29  H   UNL A   1      37.400  21.600  25.650  1.00  0.00     0.163 HD
ATOM     30  O   UNL A   1      39.706  21.881  26.264  1.00  0.00    -0.269 OA
BRANCH  28  31
ATOM     31  C   UNL A   1      39.251  24.097  26.884  1.00  0.00     0.039 A 
ATOM     32  C   UNL A   1      39.957  25.000  26.079  1.00  0.00     0.014 A 
ATOM     33  C   UNL A   1      39.004  24.423  28.221  1.00  0.00     0.014 A 
ATOM     34  C   UNL A   1      40.379  26.228  26.600  1.00  0.00     0.010 A 
ATOM     35  C   UNL A   1      39.353  25.681  28.716  1.00  0.00     0.010 A 
ATOM     36  C   UNL A   1      40.066  26.588  27.920  1.00  0.00    -0.014 A 
BRANCH  36  37
ATOM     37  C   UNL A   1      40.512  27.889  28.487  1.00  0.00     0.031 A 
ATOM     38  C   UNL A   1      41.956  28.097  28.865  1.00  0.00     0.074 A 
ATOM     39  C   UNL A   1      39.617  28.870  28.713  1.00  0.00     0.049 A 
ATOM     40  N   UNL A   1      42.527  29.137  29.422  1.00  0.00    -0.248 NA
ATOM     41  C   UNL A   1      42.876  26.980  28.605  1.00  0.00     0.031 C 
ATOM     42  C   UNL A   1      38.182  28.782  28.443  1.00  0.00     0.029 A 
ATOM     43  N   UNL A   1      39.782  30.130  29.232  1.00  0.00    -0.354 N 
ATOM     44  C   UNL A   1      43.858  28.787  29.604  1.00  0.00     0.074 A 
ATOM     45  C   UNL A   1      44.004  27.426  29.136  1.00  0.00     0.031 C 
ATOM     46  C   UNL A   1      37.600  29.943  28.782  1.00  0.00     0.029 A 
ATOM     47  C   UNL A   1      38.612  30.846  29.321  1.00  0.00     0.049 A 
ATOM     48  H   UNL A   1      40.654  30.487  29.513  1.00  0.00     0.167 HD
ATOM     49  C   UNL A   1      44.874  29.538  30.094  1.00  0.00     0.037 A 
ATOM     50  C   UNL A   1      38.382  32.088  29.790  1.00  0.00     0.037 A 
ATOM     51  C   UNL A   1      44.743  30.909  30.515  1.00  0.00     0.049 A 
ATOM     52  C   UNL A   1      39.531  32.914  30.298  1.00  0.00     0.074 A 
ATOM     53  C   UNL A   1      45.730  31.778  30.944  1.00  0.00     0.029 A 
ATOM     54  N   UNL A   1      43.547  31.609  30.558  1.00  0.00    -0.354 N 
ATOM     55  N   UNL A   1      40.799  32.597  30.394  1.00  0.00    -0.248 NA
ATOM     56  C   UNL A   1      39.217  34.276  30.755  1.00  0.00     0.031 C 
ATOM     57  C   UNL A   1      45.127  32.994  31.282  1.00  0.00     0.029 A 
ATOM     58  C   UNL A   1      43.769  32.895  31.027  1.00  0.00     0.049 A 
ATOM     59  H   UNL A   1      42.670  31.248  30.295  1.00  0.00     0.167 HD
ATOM     60  C   UNL A   1      41.436  33.721  30.902  1.00  0.00     0.074 A 
ATOM     61  C   UNL A   1      40.418  34.734  31.080  1.00  0.00     0.031 C 
ATOM     62  C   UNL A   1      42.747  33.895  31.196  1.00  0.00     0.037 A 
BRANCH  49  63
ATOM     63  C   UNL A   1      46.225  28.895  30.199  1.00  0.00     0.064 A 
ATOM     64  C   UNL A   1      46.634  28.222  31.360  1.00  0.00     0.173 A 
ATOM     65  C   UNL A   1      47.111  28.922  29.110  1.00  0.00     0.173 A 
ATOM     66  F   UNL A   1      45.828  28.177  32.432  1.00  0.00    -0.203 F 
ATOM     67  C   UNL A   1      47.889  27.625  31.440  1.00  0.00     0.198 A 
ATOM     68  C   UNL A   1      48.355  28.299  29.183  1.00  0.00     0.198 A 
ATOM     69  F   UNL A   1      46.768  29.545  27.974  1.00  0.00    -0.203 F 
ATOM     70  F   UNL A   1      48.276  27.029  32.576  1.00  0.00    -0.200 F 
ATOM     71  C   UNL A   1      48.746  27.658  30.349  1.00  0.00     0.200 A 
ATOM     72  F   UNL A   1      49.177  28.321  28.125  1.00  0.00    -0.200 F 
ATOM     73  F   UNL A   1      49.952  27.080  30.426  1.00  0.00    -0.200 F 
ENDBRANCH  49  63
BRANCH  50  74
ATOM     74  C   UNL A   1      37.000  32.634  29.773  1.00  0.00     0.064 A 
ATOM     75  C   UNL A   1      36.156  32.486  30.882  1.00  0.00     0.173 A 
ATOM     76  C   UNL A   1      36.501  33.318  28.657  1.00  0.00     0.173 A 
ATOM     77  F   UNL A   1      36.582  31.818  31.964  1.00  0.00    -0.203 F 
ATOM     78  C   UNL A   1      34.858  32.992  30.869  1.00  0.00     0.198 A 
ATOM     79  C   UNL A   1      35.212  33.846  28.654  1.00  0.00     0.198 A 
ATOM     80  F   UNL A   1      37.273  33.489  27.573  1.00  0.00    -0.203 F 
ATOM     81  F   UNL A   1      34.057  32.805  31.927  1.00  0.00    -0.200 F 
ATOM     82  C   UNL A   1      34.389  33.676  29.758  1.00  0.00     0.200 A 
ATOM     83  F   UNL A   1      34.767  34.518  27.584  1.00  0.00    -0.200 F 
ATOM     84  F   UNL A   1      33.143  34.169  29.749  1.00  0.00    -0.200 F 
ENDBRANCH  50  74
BRANCH  62  85
ATOM     85  C   UNL A   1      43.162  35.237  31.720  1.00  0.00     0.064 A 
ATOM     86  C   UNL A   1      43.117  35.535  33.089  1.00  0.00     0.173 A 
ATOM     87  C   UNL A   1      43.651  36.222  30.847  1.00  0.00     0.173 A 
ATOM     88  F   UNL A   1      42.644  34.632  33.961  1.00  0.00    -0.203 F 
ATOM     89  C   UNL A   1      43.526  36.779  33.565  1.00  0.00     0.198 A 
ATOM     90  C   UNL A   1      44.082  37.455  31.329  1.00  0.00     0.198 A 
ATOM     91  F   UNL A   1      43.718  35.983  29.529  1.00  0.00    -0.203 F 
ATOM     92  F   UNL A   1      43.437  37.056  34.872  1.00  0.00    -0.200 F 
ATOM     93  C   UNL A   1      44.014  37.734  32.686  1.00  0.00     0.200 A 
ATOM     94  F   UNL A   1      44.563  38.373  30.479  1.00  0.00    -0.200 F 
ATOM     95  F   UNL A   1      44.413  38.928  33.145  1.00  0.00    -0.200 F 
ENDBRANCH  62  85
ENDBRANCH  36  37
ENDBRANCH  28  31
ENDBRANCH  26  27
ENDBRANCH  25  26
ENDBRANCH   1  25
TORSDOF 15
ENDMDL
