MODEL 1
REMARK VINA RESULT:     -11.3      0.000      0.000
REMARK SMILES Cc1nc(C[NH2+][C@@H](C(=O)NCCCNC(=O)c2ccc(-c3c4nc(c(-c5c(F)c(F)c(F)c(F)c5F)c5ccc([nH]5)c(-c5c(F)c(F)c(F)c(F)c5F)c5nc(c(-c6c(F)c(F)c(F)c(F)c6F)c6ccc3[nH]6)C=C5)C=C4)cc2)c2ccccc2)sc1C
REMARK SMILES IDX 11 1 10 2 8 3 9 4 7 6 6 7 5 10 4 11 1 12 2 13 3 14 87 15
REMARK SMILES IDX 86 16 88 17 80 18 81 19 85 20 82 21 84 22 83 23 12 24 13 25
REMARK SMILES IDX 14 26 15 27 16 29 17 30 18 31 79 32 19 33 78 34 20 35 21 36
REMARK SMILES IDX 22 37 72 38 23 39 77 40 71 41 73 42 24 43 76 44 70 45 69 46
REMARK SMILES IDX 25 48 57 49 37 50 56 51 38 52 41 53 55 54 74 55 39 56 40 57
REMARK SMILES IDX 54 59 75 60 42 61 26 62 27 63 35 64 28 65 29 66 33 67 36 68
REMARK SMILES IDX 30 69 31 70 34 71 32 72 58 73 59 74 67 75 60 76 61 77 65 78
REMARK SMILES IDX 68 79 62 80 63 81 66 82 64 83 43 84 44 85 52 86 45 87 46 88
REMARK SMILES IDX 50 89 53 90 47 91 48 92 51 93 49 94
REMARK H PARENT 10 5 6 8 6 9 14 28 73 47 41 58
REMARK Flexibility Score: inf
ROOT
ATOM      1  C   UNL A   1      34.796  24.688  25.619  1.00  0.00     0.118 C 
ENDROOT
BRANCH   1   2
ATOM      2  N   UNL A   1      34.406  25.640  24.585  1.00  0.00    -0.351 N 
ATOM      3  C   UNL A   1      33.380  26.538  24.471  1.00  0.00     0.283 C 
ATOM      4  O   UNL A   1      33.227  27.010  23.339  1.00  0.00    -0.268 OA
ATOM      5  H   UNL A   1      35.009  25.636  23.806  1.00  0.00     0.163 HD
BRANCH   3   6
ATOM      6  C   UNL A   1      32.435  26.898  25.671  1.00  0.00     0.304 C 
BRANCH   6   7
ATOM      7  N   UNL A   1      31.000  26.869  25.267  1.00  0.00    -0.326 N 
ATOM      8  H   UNL A   1      30.596  27.796  25.406  1.00  0.00     0.347 HD
ATOM      9  H   UNL A   1      30.945  26.597  24.285  1.00  0.00     0.347 HD
BRANCH   7  10
ATOM     10  C   UNL A   1      30.252  25.901  26.058  1.00  0.00     0.330 C 
BRANCH  10  11
ATOM     11  C   UNL A   1      30.830  24.517  26.163  1.00  0.00     0.148 A 
ATOM     12  C   UNL A   1      32.893  22.156  27.921  1.00  0.00     0.068 C 
ATOM     13  C   UNL A   1      32.101  22.842  26.866  1.00  0.00     0.052 A 
ATOM     14  N   UNL A   1      31.464  24.027  27.206  1.00  0.00    -0.240 NA
ATOM     15  C   UNL A   1      31.957  22.462  25.542  1.00  0.00     0.025 A 
ATOM     16  S   UNL A   1      30.894  23.538  24.745  1.00  0.00    -0.118 S 
ATOM     17  C   UNL A   1      32.569  21.324  24.803  1.00  0.00     0.058 C 
ENDBRANCH  10  11
ENDBRANCH   7  10
ENDBRANCH   6   7
BRANCH   6  18
ATOM     18  C   UNL A   1      32.766  28.285  26.236  1.00  0.00     0.019 A 
ATOM     19  C   UNL A   1      31.811  29.319  26.240  1.00  0.00     0.010 A 
ATOM     20  C   UNL A   1      34.032  28.555  26.781  1.00  0.00     0.010 A 
ATOM     21  C   UNL A   1      32.111  30.581  26.755  1.00  0.00     0.001 A 
ATOM     22  C   UNL A   1      34.331  29.820  27.299  1.00  0.00     0.001 A 
ATOM     23  C   UNL A   1      33.372  30.831  27.285  1.00  0.00     0.000 A 
ENDBRANCH   6  18
ENDBRANCH   3   6
ENDBRANCH   1   2
BRANCH   1  24
ATOM     24  C   UNL A   1      35.555  23.474  25.052  1.00  0.00     0.042 C 
BRANCH  24  25
ATOM     25  C   UNL A   1      37.037  23.707  24.760  1.00  0.00     0.118 C 
BRANCH  25  26
ATOM     26  N   UNL A   1      37.877  22.692  25.368  1.00  0.00    -0.352 N 
ATOM     27  C   UNL A   1      38.971  22.820  26.190  1.00  0.00     0.251 C 
ATOM     28  H   UNL A   1      37.623  21.764  25.159  1.00  0.00     0.163 HD
ATOM     29  O   UNL A   1      39.666  21.830  26.408  1.00  0.00    -0.269 OA
BRANCH  27  30
ATOM     30  C   UNL A   1      39.345  24.117  26.810  1.00  0.00     0.039 A 
ATOM     31  C   UNL A   1      40.096  25.022  26.050  1.00  0.00     0.014 A 
ATOM     32  C   UNL A   1      39.053  24.424  28.142  1.00  0.00     0.014 A 
ATOM     33  C   UNL A   1      40.518  26.235  26.606  1.00  0.00     0.010 A 
ATOM     34  C   UNL A   1      39.415  25.666  28.676  1.00  0.00     0.010 A 
ATOM     35  C   UNL A   1      40.165  26.580  27.919  1.00  0.00    -0.014 A 
BRANCH  35  36
ATOM     36  C   UNL A   1      40.595  27.877  28.510  1.00  0.00     0.031 A 
ATOM     37  C   UNL A   1      42.036  28.107  28.886  1.00  0.00     0.074 A 
ATOM     38  C   UNL A   1      39.686  28.845  28.743  1.00  0.00     0.049 A 
ATOM     39  N   UNL A   1      42.591  29.158  29.441  1.00  0.00    -0.248 NA
ATOM     40  C   UNL A   1      42.972  27.006  28.625  1.00  0.00     0.031 C 
ATOM     41  C   UNL A   1      38.254  28.740  28.464  1.00  0.00     0.029 A 
ATOM     42  N   UNL A   1      39.832  30.105  29.271  1.00  0.00    -0.354 N 
ATOM     43  C   UNL A   1      43.931  28.836  29.609  1.00  0.00     0.074 A 
ATOM     44  C   UNL A   1      44.099  27.477  29.139  1.00  0.00     0.031 C 
ATOM     45  C   UNL A   1      37.656  29.895  28.801  1.00  0.00     0.029 A 
ATOM     46  C   UNL A   1      38.656  30.809  29.348  1.00  0.00     0.049 A 
ATOM     47  H   UNL A   1      40.699  30.468  29.565  1.00  0.00     0.167 HD
ATOM     48  C   UNL A   1      44.936  29.607  30.093  1.00  0.00     0.037 A 
ATOM     49  C   UNL A   1      38.408  32.051  29.806  1.00  0.00     0.037 A 
ATOM     50  C   UNL A   1      44.782  30.971  30.526  1.00  0.00     0.049 A 
ATOM     51  C   UNL A   1      39.543  32.893  30.324  1.00  0.00     0.074 A 
ATOM     52  C   UNL A   1      45.756  31.851  30.967  1.00  0.00     0.029 A 
ATOM     53  N   UNL A   1      43.577  31.654  30.571  1.00  0.00    -0.354 N 
ATOM     54  N   UNL A   1      40.816  32.596  30.418  1.00  0.00    -0.248 NA
ATOM     55  C   UNL A   1      39.206  34.245  30.793  1.00  0.00     0.031 C 
ATOM     56  C   UNL A   1      45.134  33.056  31.313  1.00  0.00     0.029 A 
ATOM     57  C   UNL A   1      43.780  32.939  31.049  1.00  0.00     0.049 A 
ATOM     58  H   UNL A   1      42.706  31.282  30.303  1.00  0.00     0.167 HD
ATOM     59  C   UNL A   1      41.435  33.728  30.931  1.00  0.00     0.074 A 
ATOM     60  C   UNL A   1      40.401  34.724  31.117  1.00  0.00     0.031 C 
ATOM     61  C   UNL A   1      42.744  33.924  31.222  1.00  0.00     0.037 A 
BRANCH  48  62
ATOM     62  C   UNL A   1      46.304  28.993  30.174  1.00  0.00     0.064 A 
ATOM     63  C   UNL A   1      47.204  29.064  29.100  1.00  0.00     0.173 A 
ATOM     64  C   UNL A   1      46.735  28.368  31.353  1.00  0.00     0.173 A 
ATOM     65  F   UNL A   1      46.836  29.644  27.948  1.00  0.00    -0.203 F 
ATOM     66  C   UNL A   1      48.477  28.506  29.195  1.00  0.00     0.198 A 
ATOM     67  C   UNL A   1      48.018  27.835  31.454  1.00  0.00     0.198 A 
ATOM     68  F   UNL A   1      45.916  28.282  32.413  1.00  0.00    -0.203 F 
ATOM     69  F   UNL A   1      49.304  28.548  28.142  1.00  0.00    -0.200 F 
ATOM     70  C   UNL A   1      48.885  27.899  30.373  1.00  0.00     0.200 A 
ATOM     71  F   UNL A   1      48.415  27.260  32.597  1.00  0.00    -0.200 F 
ATOM     72  F   UNL A   1      50.112  27.369  30.465  1.00  0.00    -0.200 F 
ENDBRANCH  48  62
BRANCH  49  73
ATOM     73  C   UNL A   1      37.024  32.589  29.769  1.00  0.00     0.064 A 
ATOM     74  C   UNL A   1      36.162  32.432  30.865  1.00  0.00     0.173 A 
ATOM     75  C   UNL A   1      36.536  33.271  28.646  1.00  0.00     0.173 A 
ATOM     76  F   UNL A   1      36.580  31.768  31.953  1.00  0.00    -0.203 F 
ATOM     77  C   UNL A   1      34.860  32.923  30.831  1.00  0.00     0.198 A 
ATOM     78  C   UNL A   1      35.240  33.783  28.623  1.00  0.00     0.198 A 
ATOM     79  F   UNL A   1      37.322  33.454  27.575  1.00  0.00    -0.203 F 
ATOM     80  F   UNL A   1      34.045  32.725  31.876  1.00  0.00    -0.200 F 
ATOM     81  C   UNL A   1      34.401  33.603  29.713  1.00  0.00     0.200 A 
ATOM     82  F   UNL A   1      34.806  34.454  27.547  1.00  0.00    -0.200 F 
ATOM     83  F   UNL A   1      33.150  34.081  29.683  1.00  0.00    -0.200 F 
ENDBRANCH  49  73
BRANCH  61  84
ATOM     84  C   UNL A   1      43.140  35.272  31.744  1.00  0.00     0.064 A 
ATOM     85  C   UNL A   1      43.048  35.587  33.108  1.00  0.00     0.173 A 
ATOM     86  C   UNL A   1      43.658  36.247  30.877  1.00  0.00     0.173 A 
ATOM     87  F   UNL A   1      42.544  34.694  33.973  1.00  0.00    -0.203 F 
ATOM     88  C   UNL A   1      43.441  36.836  33.582  1.00  0.00     0.198 A 
ATOM     89  C   UNL A   1      44.072  37.485  31.359  1.00  0.00     0.198 A 
ATOM     90  F   UNL A   1      43.770  35.993  29.565  1.00  0.00    -0.203 F 
ATOM     91  F   UNL A   1      43.308  37.129  34.882  1.00  0.00    -0.200 F 
ATOM     92  C   UNL A   1      43.959  37.782  32.709  1.00  0.00     0.200 A 
ATOM     93  F   UNL A   1      44.582  38.394  30.514  1.00  0.00    -0.200 F 
ATOM     94  F   UNL A   1      44.343  38.980  33.167  1.00  0.00    -0.200 F 
ENDBRANCH  61  84
ENDBRANCH  35  36
ENDBRANCH  27  30
ENDBRANCH  25  26
ENDBRANCH  24  25
ENDBRANCH   1  24
TORSDOF 14
ENDMDL
MODEL 2
REMARK VINA RESULT:     -11.2      4.045      8.477
REMARK SMILES Cc1nc(C[NH2+][C@@H](C(=O)NCCCNC(=O)c2ccc(-c3c4nc(c(-c5c(F)c(F)c(F)c(F)c5F)c5ccc([nH]5)c(-c5c(F)c(F)c(F)c(F)c5F)c5nc(c(-c6c(F)c(F)c(F)c(F)c6F)c6ccc3[nH]6)C=C5)C=C4)cc2)c2ccccc2)sc1C
REMARK SMILES IDX 11 1 10 2 8 3 9 4 7 6 6 7 5 10 4 11 1 12 2 13 3 14 87 15
REMARK SMILES IDX 86 16 88 17 80 18 81 19 85 20 82 21 84 22 83 23 12 24 13 25
REMARK SMILES IDX 14 26 15 27 16 29 17 30 18 31 79 32 19 33 78 34 20 35 21 36
REMARK SMILES IDX 22 37 72 38 23 39 77 40 71 41 73 42 24 43 76 44 70 45 69 46
REMARK SMILES IDX 25 48 57 49 37 50 56 51 38 52 41 53 55 54 74 55 39 56 40 57
REMARK SMILES IDX 54 59 75 60 42 61 26 62 27 63 35 64 28 65 29 66 33 67 36 68
REMARK SMILES IDX 30 69 31 70 34 71 32 72 58 73 59 74 67 75 60 76 61 77 65 78
REMARK SMILES IDX 68 79 62 80 63 81 66 82 64 83 43 84 44 85 52 86 45 87 46 88
REMARK SMILES IDX 50 89 53 90 47 91 48 92 51 93 49 94
REMARK H PARENT 10 5 6 8 6 9 14 28 73 47 41 58
REMARK Flexibility Score: inf
ROOT
ATOM      1  C   UNL A   1      33.768  27.686  23.346  1.00  0.00     0.118 C 
ENDROOT
BRANCH   1   2
ATOM      2  N   UNL A   1      32.794  27.353  22.314  1.00  0.00    -0.351 N 
ATOM      3  C   UNL A   1      31.460  27.045  22.343  1.00  0.00     0.283 C 
ATOM      4  O   UNL A   1      31.013  26.580  21.289  1.00  0.00    -0.268 OA
ATOM      5  H   UNL A   1      33.174  27.351  21.406  1.00  0.00     0.163 HD
BRANCH   3   6
ATOM      6  C   UNL A   1      30.581  27.216  23.631  1.00  0.00     0.304 C 
BRANCH   6   7
ATOM      7  N   UNL A   1      29.852  25.959  23.968  1.00  0.00    -0.326 N 
ATOM      8  H   UNL A   1      28.858  26.090  23.781  1.00  0.00     0.347 HD
ATOM      9  H   UNL A   1      30.228  25.203  23.396  1.00  0.00     0.347 HD
BRANCH   7  10
ATOM     10  C   UNL A   1      30.029  25.610  25.371  1.00  0.00     0.330 C 
BRANCH  10  11
ATOM     11  C   UNL A   1      30.816  24.364  25.669  1.00  0.00     0.148 A 
ATOM     12  C   UNL A   1      33.015  22.548  27.857  1.00  0.00     0.068 C 
ATOM     13  C   UNL A   1      32.255  23.001  26.662  1.00  0.00     0.052 A 
ATOM     14  N   UNL A   1      31.389  24.075  26.817  1.00  0.00    -0.240 NA
ATOM     15  C   UNL A   1      32.343  22.504  25.372  1.00  0.00     0.025 A 
ATOM     16  S   UNL A   1      31.219  23.310  24.366  1.00  0.00    -0.118 S 
ATOM     17  C   UNL A   1      33.225  21.443  24.815  1.00  0.00     0.058 C 
ENDBRANCH  10  11
ENDBRANCH   7  10
ENDBRANCH   6   7
BRANCH   6  18
ATOM     18  C   UNL A   1      29.565  28.351  23.459  1.00  0.00     0.019 A 
ATOM     19  C   UNL A   1      28.206  28.083  23.207  1.00  0.00     0.010 A 
ATOM     20  C   UNL A   1      29.963  29.693  23.564  1.00  0.00     0.010 A 
ATOM     21  C   UNL A   1      27.280  29.116  23.051  1.00  0.00     0.001 A 
ATOM     22  C   UNL A   1      29.033  30.728  23.410  1.00  0.00     0.001 A 
ATOM     23  C   UNL A   1      27.695  30.439  23.153  1.00  0.00     0.000 A 
ENDBRANCH   6  18
ENDBRANCH   3   6
ENDBRANCH   1   2
BRANCH   1  24
ATOM     24  C   UNL A   1      33.550  29.091  23.937  1.00  0.00     0.042 C 
BRANCH  24  25
ATOM     25  C   UNL A   1      33.258  29.132  25.438  1.00  0.00     0.118 C 
BRANCH  25  26
ATOM     26  N   UNL A   1      32.870  30.458  25.880  1.00  0.00    -0.352 N 
ATOM     27  C   UNL A   1      33.358  31.230  26.907  1.00  0.00     0.251 C 
ATOM     28  H   UNL A   1      32.142  30.871  25.362  1.00  0.00     0.163 HD
ATOM     29  O   UNL A   1      32.730  32.232  27.244  1.00  0.00    -0.269 OA
BRANCH  27  30
ATOM     30  C   UNL A   1      34.609  30.884  27.630  1.00  0.00     0.039 A 
ATOM     31  C   UNL A   1      34.712  29.611  28.202  1.00  0.00     0.014 A 
ATOM     32  C   UNL A   1      35.639  31.807  27.831  1.00  0.00     0.014 A 
ATOM     33  C   UNL A   1      35.848  29.255  28.937  1.00  0.00     0.010 A 
ATOM     34  C   UNL A   1      36.805  31.429  28.506  1.00  0.00     0.010 A 
ATOM     35  C   UNL A   1      36.917  30.152  29.080  1.00  0.00    -0.014 A 
BRANCH  35  36
ATOM     36  C   UNL A   1      38.137  29.773  29.846  1.00  0.00     0.031 A 
ATOM     37  C   UNL A   1      38.368  30.311  31.234  1.00  0.00     0.074 A 
ATOM     38  C   UNL A   1      39.060  28.968  29.284  1.00  0.00     0.049 A 
ATOM     39  N   UNL A   1      39.384  30.118  32.039  1.00  0.00    -0.248 NA
ATOM     40  C   UNL A   1      37.333  31.199  31.781  1.00  0.00     0.031 C 
ATOM     41  C   UNL A   1      38.982  28.409  27.934  1.00  0.00     0.029 A 
ATOM     42  N   UNL A   1      40.247  28.483  29.777  1.00  0.00    -0.354 N 
ATOM     43  C   UNL A   1      39.118  30.872  33.175  1.00  0.00     0.074 A 
ATOM     44  C   UNL A   1      37.867  31.560  32.939  1.00  0.00     0.031 C 
ATOM     45  C   UNL A   1      40.061  27.640  27.715  1.00  0.00     0.029 A 
ATOM     46  C   UNL A   1      40.921  27.675  28.895  1.00  0.00     0.049 A 
ATOM     47  H   UNL A   1      40.583  28.695  30.678  1.00  0.00     0.167 HD
ATOM     48  C   UNL A   1      39.839  30.967  34.319  1.00  0.00     0.037 A 
ATOM     49  C   UNL A   1      42.100  27.034  29.019  1.00  0.00     0.037 A 
ATOM     50  C   UNL A   1      41.064  30.255  34.575  1.00  0.00     0.049 A 
ATOM     51  C   UNL A   1      42.874  27.145  30.306  1.00  0.00     0.074 A 
ATOM     52  C   UNL A   1      41.827  30.238  35.730  1.00  0.00     0.029 A 
ATOM     53  N   UNL A   1      41.704  29.432  33.662  1.00  0.00    -0.354 N 
ATOM     54  N   UNL A   1      42.577  27.812  31.394  1.00  0.00    -0.248 NA
ATOM     55  C   UNL A   1      44.143  26.406  30.381  1.00  0.00     0.031 C 
ATOM     56  C   UNL A   1      42.948  29.433  35.504  1.00  0.00     0.029 A 
ATOM     57  C   UNL A   1      42.862  28.916  34.222  1.00  0.00     0.049 A 
ATOM     58  H   UNL A   1      41.383  29.241  32.751  1.00  0.00     0.167 HD
ATOM     59  C   UNL A   1      43.606  27.555  32.291  1.00  0.00     0.074 A 
ATOM     60  C   UNL A   1      44.529  26.660  31.625  1.00  0.00     0.031 C 
ATOM     61  C   UNL A   1      43.769  28.020  33.553  1.00  0.00     0.037 A 
BRANCH  48  62
ATOM     62  C   UNL A   1      39.316  31.875  35.395  1.00  0.00     0.064 A 
ATOM     63  C   UNL A   1      39.618  33.245  35.411  1.00  0.00     0.173 A 
ATOM     64  C   UNL A   1      38.468  31.378  36.395  1.00  0.00     0.173 A 
ATOM     65  F   UNL A   1      40.433  33.767  34.481  1.00  0.00    -0.203 F 
ATOM     66  C   UNL A   1      39.111  34.079  36.404  1.00  0.00     0.198 A 
ATOM     67  C   UNL A   1      37.940  32.219  37.372  1.00  0.00     0.198 A 
ATOM     68  F   UNL A   1      38.140  30.076  36.420  1.00  0.00    -0.203 F 
ATOM     69  F   UNL A   1      39.448  35.376  36.424  1.00  0.00    -0.200 F 
ATOM     70  C   UNL A   1      38.268  33.567  37.379  1.00  0.00     0.200 A 
ATOM     71  F   UNL A   1      37.116  31.726  38.306  1.00  0.00    -0.200 F 
ATOM     72  F   UNL A   1      37.776  34.372  38.330  1.00  0.00    -0.200 F 
ENDBRANCH  48  62
BRANCH  49  73
ATOM     73  C   UNL A   1      42.610  26.203  27.899  1.00  0.00     0.064 A 
ATOM     74  C   UNL A   1      43.451  26.752  26.921  1.00  0.00     0.173 A 
ATOM     75  C   UNL A   1      42.272  24.847  27.785  1.00  0.00     0.173 A 
ATOM     76  F   UNL A   1      43.784  28.050  26.979  1.00  0.00    -0.203 F 
ATOM     77  C   UNL A   1      43.922  25.981  25.862  1.00  0.00     0.198 A 
ATOM     78  C   UNL A   1      42.764  24.070  26.738  1.00  0.00     0.198 A 
ATOM     79  F   UNL A   1      41.476  24.272  28.698  1.00  0.00    -0.203 F 
ATOM     80  F   UNL A   1      44.692  26.540  24.919  1.00  0.00    -0.200 F 
ATOM     81  C   UNL A   1      43.583  24.638  25.774  1.00  0.00     0.200 A 
ATOM     82  F   UNL A   1      42.447  22.770  26.666  1.00  0.00    -0.200 F 
ATOM     83  F   UNL A   1      44.042  23.895  24.759  1.00  0.00    -0.200 F 
ENDBRANCH  49  73
BRANCH  61  84
ATOM     84  C   UNL A   1      44.974  27.550  34.310  1.00  0.00     0.064 A 
ATOM     85  C   UNL A   1      44.949  26.375  35.076  1.00  0.00     0.173 A 
ATOM     86  C   UNL A   1      46.182  28.262  34.236  1.00  0.00     0.173 A 
ATOM     87  F   UNL A   1      43.814  25.670  35.190  1.00  0.00    -0.203 F 
ATOM     88  C   UNL A   1      46.083  25.940  35.756  1.00  0.00     0.198 A 
ATOM     89  C   UNL A   1      47.320  27.810  34.897  1.00  0.00     0.198 A 
ATOM     90  F   UNL A   1      46.259  29.389  33.514  1.00  0.00    -0.203 F 
ATOM     91  F   UNL A   1      46.026  24.836  36.512  1.00  0.00    -0.200 F 
ATOM     92  C   UNL A   1      47.270  26.654  35.661  1.00  0.00     0.200 A 
ATOM     93  F   UNL A   1      48.468  28.496  34.797  1.00  0.00    -0.200 F 
ATOM     94  F   UNL A   1      48.362  26.230  36.310  1.00  0.00    -0.200 F 
ENDBRANCH  61  84
ENDBRANCH  35  36
ENDBRANCH  27  30
ENDBRANCH  25  26
ENDBRANCH  24  25
ENDBRANCH   1  24
TORSDOF 14
ENDMDL
MODEL 3
REMARK VINA RESULT:     -11.2      3.881      8.551
REMARK SMILES Cc1nc(C[NH2+][C@@H](C(=O)NCCCNC(=O)c2ccc(-c3c4nc(c(-c5c(F)c(F)c(F)c(F)c5F)c5ccc([nH]5)c(-c5c(F)c(F)c(F)c(F)c5F)c5nc(c(-c6c(F)c(F)c(F)c(F)c6F)c6ccc3[nH]6)C=C5)C=C4)cc2)c2ccccc2)sc1C
REMARK SMILES IDX 11 1 10 2 8 3 9 4 7 6 6 7 5 10 4 11 1 12 2 13 3 14 87 15
REMARK SMILES IDX 86 16 88 17 80 18 81 19 85 20 82 21 84 22 83 23 12 24 13 25
REMARK SMILES IDX 14 26 15 27 16 29 17 30 18 31 79 32 19 33 78 34 20 35 21 36
REMARK SMILES IDX 22 37 72 38 23 39 77 40 71 41 73 42 24 43 76 44 70 45 69 46
REMARK SMILES IDX 25 48 57 49 37 50 56 51 38 52 41 53 55 54 74 55 39 56 40 57
REMARK SMILES IDX 54 59 75 60 42 61 26 62 27 63 35 64 28 65 29 66 33 67 36 68
REMARK SMILES IDX 30 69 31 70 34 71 32 72 58 73 59 74 67 75 60 76 61 77 65 78
REMARK SMILES IDX 68 79 62 80 63 81 66 82 64 83 43 84 44 85 52 86 45 87 46 88
REMARK SMILES IDX 50 89 53 90 47 91 48 92 51 93 49 94
REMARK H PARENT 10 5 6 8 6 9 14 28 73 47 41 58
REMARK Flexibility Score: inf
ROOT
ATOM      1  C   UNL A   1      34.008  28.630  22.851  1.00  0.00     0.118 C 
ENDROOT
BRANCH   1   2
ATOM      2  N   UNL A   1      33.581  27.574  21.939  1.00  0.00    -0.351 N 
ATOM      3  C   UNL A   1      33.523  26.210  22.040  1.00  0.00     0.283 C 
ATOM      4  O   UNL A   1      33.332  25.618  20.972  1.00  0.00    -0.268 OA
ATOM      5  H   UNL A   1      33.270  27.913  21.069  1.00  0.00     0.163 HD
BRANCH   3   6
ATOM      6  C   UNL A   1      33.735  25.454  23.399  1.00  0.00     0.304 C 
BRANCH   6   7
ATOM      7  N   UNL A   1      34.024  24.007  23.182  1.00  0.00    -0.326 N 
ATOM      8  H   UNL A   1      33.315  23.615  22.562  1.00  0.00     0.347 HD
ATOM      9  H   UNL A   1      34.952  23.921  22.765  1.00  0.00     0.347 HD
BRANCH   7  10
ATOM     10  C   UNL A   1      34.013  23.275  24.441  1.00  0.00     0.330 C 
BRANCH  10  11
ATOM     11  C   UNL A   1      35.340  23.052  25.110  1.00  0.00     0.148 A 
ATOM     12  C   UNL A   1      38.376  24.405  26.480  1.00  0.00     0.068 C 
ATOM     13  C   UNL A   1      37.365  23.477  25.907  1.00  0.00     0.052 A 
ATOM     14  N   UNL A   1      36.104  23.988  25.631  1.00  0.00    -0.240 NA
ATOM     15  C   UNL A   1      37.545  22.148  25.563  1.00  0.00     0.025 A 
ATOM     16  S   UNL A   1      36.066  21.492  25.007  1.00  0.00    -0.118 S 
ATOM     17  C   UNL A   1      38.769  21.304  25.617  1.00  0.00     0.058 C 
ENDBRANCH  10  11
ENDBRANCH   7  10
ENDBRANCH   6   7
BRANCH   6  18
ATOM     18  C   UNL A   1      32.503  25.585  24.302  1.00  0.00     0.019 A 
ATOM     19  C   UNL A   1      32.630  25.877  25.674  1.00  0.00     0.010 A 
ATOM     20  C   UNL A   1      31.209  25.434  23.777  1.00  0.00     0.010 A 
ATOM     21  C   UNL A   1      31.508  25.998  26.496  1.00  0.00     0.001 A 
ATOM     22  C   UNL A   1      30.085  25.558  24.602  1.00  0.00     0.001 A 
ATOM     23  C   UNL A   1      30.235  25.839  25.958  1.00  0.00     0.000 A 
ENDBRANCH   6  18
ENDBRANCH   3   6
ENDBRANCH   1   2
BRANCH   1  24
ATOM     24  C   UNL A   1      32.860  29.144  23.739  1.00  0.00     0.042 C 
BRANCH  24  25
ATOM     25  C   UNL A   1      33.195  29.287  25.224  1.00  0.00     0.118 C 
BRANCH  25  26
ATOM     26  N   UNL A   1      32.730  30.548  25.768  1.00  0.00    -0.352 N 
ATOM     27  C   UNL A   1      33.169  31.263  26.857  1.00  0.00     0.251 C 
ATOM     28  H   UNL A   1      31.980  30.959  25.279  1.00  0.00     0.163 HD
ATOM     29  O   UNL A   1      32.483  32.196  27.268  1.00  0.00    -0.269 OA
BRANCH  27  30
ATOM     30  C   UNL A   1      34.437  30.933  27.558  1.00  0.00     0.039 A 
ATOM     31  C   UNL A   1      34.592  29.639  28.070  1.00  0.00     0.014 A 
ATOM     32  C   UNL A   1      35.431  31.885  27.799  1.00  0.00     0.014 A 
ATOM     33  C   UNL A   1      35.745  29.293  28.784  1.00  0.00     0.010 A 
ATOM     34  C   UNL A   1      36.614  31.521  28.452  1.00  0.00     0.010 A 
ATOM     35  C   UNL A   1      36.778  30.225  28.966  1.00  0.00    -0.014 A 
BRANCH  35  36
ATOM     36  C   UNL A   1      38.016  29.858  29.709  1.00  0.00     0.031 A 
ATOM     37  C   UNL A   1      38.264  30.394  31.095  1.00  0.00     0.074 A 
ATOM     38  C   UNL A   1      38.939  29.067  29.128  1.00  0.00     0.049 A 
ATOM     39  N   UNL A   1      39.296  30.211  31.882  1.00  0.00    -0.248 NA
ATOM     40  C   UNL A   1      37.227  31.266  31.663  1.00  0.00     0.031 C 
ATOM     41  C   UNL A   1      38.845  28.511  27.778  1.00  0.00     0.029 A 
ATOM     42  N   UNL A   1      40.141  28.596  29.599  1.00  0.00    -0.354 N 
ATOM     43  C   UNL A   1      39.040  30.957  33.025  1.00  0.00     0.074 A 
ATOM     44  C   UNL A   1      37.777  31.631  32.813  1.00  0.00     0.031 C 
ATOM     45  C   UNL A   1      39.930  27.757  27.537  1.00  0.00     0.029 A 
ATOM     46  C   UNL A   1      40.810  27.799  28.702  1.00  0.00     0.049 A 
ATOM     47  H   UNL A   1      40.489  28.809  30.495  1.00  0.00     0.167 HD
ATOM     48  C   UNL A   1      39.780  31.058  34.157  1.00  0.00     0.037 A 
ATOM     49  C   UNL A   1      41.999  27.173  28.804  1.00  0.00     0.037 A 
ATOM     50  C   UNL A   1      41.017  30.361  34.389  1.00  0.00     0.049 A 
ATOM     51  C   UNL A   1      42.793  27.289  30.077  1.00  0.00     0.074 A 
ATOM     52  C   UNL A   1      41.800  30.349  35.531  1.00  0.00     0.029 A 
ATOM     53  N   UNL A   1      41.652  29.549  33.462  1.00  0.00    -0.354 N 
ATOM     54  N   UNL A   1      42.507  27.948  31.173  1.00  0.00    -0.248 NA
ATOM     55  C   UNL A   1      44.072  26.566  30.129  1.00  0.00     0.031 C 
ATOM     56  C   UNL A   1      42.928  29.559  35.282  1.00  0.00     0.029 A 
ATOM     57  C   UNL A   1      42.826  29.046  34.000  1.00  0.00     0.049 A 
ATOM     58  H   UNL A   1      41.318  29.357  32.556  1.00  0.00     0.167 HD
ATOM     59  C   UNL A   1      43.553  27.701  32.051  1.00  0.00     0.074 A 
ATOM     60  C   UNL A   1      44.476  26.821  31.367  1.00  0.00     0.031 C 
ATOM     61  C   UNL A   1      43.732  28.163  33.312  1.00  0.00     0.037 A 
BRANCH  48  62
ATOM     62  C   UNL A   1      39.263  31.955  35.245  1.00  0.00     0.064 A 
ATOM     63  C   UNL A   1      38.482  31.457  36.298  1.00  0.00     0.173 A 
ATOM     64  C   UNL A   1      39.590  33.319  35.258  1.00  0.00     0.173 A 
ATOM     65  F   UNL A   1      38.135  30.161  36.326  1.00  0.00    -0.203 F 
ATOM     66  C   UNL A   1      38.025  32.296  37.310  1.00  0.00     0.198 A 
ATOM     67  C   UNL A   1      39.155  34.151  36.286  1.00  0.00     0.198 A 
ATOM     68  F   UNL A   1      40.343  33.844  34.278  1.00  0.00    -0.203 F 
ATOM     69  F   UNL A   1      37.245  31.807  38.284  1.00  0.00    -0.200 F 
ATOM     70  C   UNL A   1      38.367  33.641  37.307  1.00  0.00     0.200 A 
ATOM     71  F   UNL A   1      39.496  35.447  36.289  1.00  0.00    -0.200 F 
ATOM     72  F   UNL A   1      37.932  34.446  38.286  1.00  0.00    -0.200 F 
ENDBRANCH  48  62
BRANCH  49  73
ATOM     73  C   UNL A   1      42.499  26.352  27.672  1.00  0.00     0.064 A 
ATOM     74  C   UNL A   1      42.053  25.036  27.487  1.00  0.00     0.173 A 
ATOM     75  C   UNL A   1      43.427  26.863  26.754  1.00  0.00     0.173 A 
ATOM     76  F   UNL A   1      41.181  24.498  28.352  1.00  0.00    -0.203 F 
ATOM     77  C   UNL A   1      42.528  24.257  26.435  1.00  0.00     0.198 A 
ATOM     78  C   UNL A   1      43.883  26.091  25.688  1.00  0.00     0.198 A 
ATOM     79  F   UNL A   1      43.880  28.119  26.884  1.00  0.00    -0.203 F 
ATOM     80  F   UNL A   1      42.115  22.989  26.303  1.00  0.00    -0.200 F 
ATOM     81  C   UNL A   1      43.439  24.787  25.532  1.00  0.00     0.200 A 
ATOM     82  F   UNL A   1      44.751  26.612  24.810  1.00  0.00    -0.200 F 
ATOM     83  F   UNL A   1      43.891  24.039  24.517  1.00  0.00    -0.200 F 
ENDBRANCH  49  73
BRANCH  61  84
ATOM     84  C   UNL A   1      44.957  27.706  34.047  1.00  0.00     0.064 A 
ATOM     85  C   UNL A   1      44.961  26.525  34.803  1.00  0.00     0.173 A 
ATOM     86  C   UNL A   1      46.152  28.438  33.961  1.00  0.00     0.173 A 
ATOM     87  F   UNL A   1      43.839  25.800  34.928  1.00  0.00    -0.203 F 
ATOM     88  C   UNL A   1      46.112  26.102  35.461  1.00  0.00     0.198 A 
ATOM     89  C   UNL A   1      47.307  27.998  34.601  1.00  0.00     0.198 A 
ATOM     90  F   UNL A   1      46.200  29.573  33.248  1.00  0.00    -0.203 F 
ATOM     91  F   UNL A   1      46.084  24.990  36.209  1.00  0.00    -0.200 F 
ATOM     92  C   UNL A   1      47.286  26.835  35.355  1.00  0.00     0.200 A 
ATOM     93  F   UNL A   1      48.442  28.703  34.489  1.00  0.00    -0.200 F 
ATOM     94  F   UNL A   1      48.395  26.422  35.984  1.00  0.00    -0.200 F 
ENDBRANCH  61  84
ENDBRANCH  35  36
ENDBRANCH  27  30
ENDBRANCH  25  26
ENDBRANCH  24  25
ENDBRANCH   1  24
TORSDOF 14
ENDMDL
