MODEL 1
REMARK VINA RESULT:     -12.3      0.000      0.000
REMARK SMILES C[N@H+]1CC[C@@H](Cc2nccnc2C(=O)NCCCNC(=O)c2ccc(-c3c4nc(c(-c5c(F)c(F)c(F)c(F)c5F)c5ccc([nH]5)c(-c5c(F)c(F)c(F)c(F)c5F)c5nc(c(-c6c(F)c(F)c(F)c(F)c6F)c6ccc3[nH]6)C=C5)C=C4)cc2)C1
REMARK SMILES IDX 17 1 16 2 15 3 13 4 14 5 12 7 7 8 8 9 9 10 11 11 10 12 6 13
REMARK SMILES IDX 5 14 1 15 2 16 3 17 85 18 4 20 18 21 19 22 20 23 21 25 22 26
REMARK SMILES IDX 23 27 84 28 24 29 83 30 25 31 26 32 27 33 77 34 28 35 82 36
REMARK SMILES IDX 76 37 78 38 29 39 81 40 75 41 74 42 30 44 62 45 42 46 61 47
REMARK SMILES IDX 43 48 46 49 60 50 79 51 44 52 45 53 59 55 80 56 47 57 31 58
REMARK SMILES IDX 32 59 40 60 33 61 34 62 38 63 41 64 35 65 36 66 39 67 37 68
REMARK SMILES IDX 63 69 64 70 72 71 65 72 66 73 70 74 73 75 67 76 68 77 71 78
REMARK SMILES IDX 69 79 48 80 49 81 57 82 50 83 51 84 55 85 58 86 52 87 53 88
REMARK SMILES IDX 56 89 54 90
REMARK H PARENT 15 6 2 19 19 24 78 43 46 54
REMARK Flexibility Score: inf
ROOT
ATOM      1  C   UNL A   1      31.390  32.322  26.533  1.00  0.00     0.042 C 
ENDROOT
BRANCH   1   2
ATOM      2  C   UNL A   1      31.315  30.790  26.402  1.00  0.00     0.118 C 
BRANCH   2   3
ATOM      3  N   UNL A   1      32.123  30.355  25.274  1.00  0.00    -0.351 N 
ATOM      4  C   UNL A   1      32.188  29.238  24.474  1.00  0.00     0.271 C 
ATOM      5  O   UNL A   1      33.145  29.239  23.690  1.00  0.00    -0.267 OA
ATOM      6  H   UNL A   1      32.792  31.030  25.019  1.00  0.00     0.163 HD
BRANCH   4   7
ATOM      7  C   UNL A   1      31.225  28.075  24.402  1.00  0.00     0.149 A 
ATOM      8  C   UNL A   1      30.069  27.938  23.619  1.00  0.00     0.072 A 
ATOM      9  N   UNL A   1      29.201  26.894  23.803  1.00  0.00    -0.257 NA
ATOM     10  C   UNL A   1      29.479  26.031  24.801  1.00  0.00     0.131 A 
ATOM     11  N   UNL A   1      31.492  27.160  25.388  1.00  0.00    -0.248 NA
ATOM     12  C   UNL A   1      30.606  26.162  25.577  1.00  0.00     0.132 A 
BRANCH   8  13
ATOM     13  C   UNL A   1      29.676  28.834  22.493  1.00  0.00     0.068 C 
BRANCH  13  14
ATOM     14  C   UNL A   1      28.493  29.782  22.719  1.00  0.00     0.056 C 
ATOM     15  C   UNL A   1      29.043  33.398  23.119  1.00  0.00     0.332 C 
ATOM     16  N   UNL A   1      28.360  32.153  22.801  1.00  0.00    -0.337 N 
ATOM     17  C   UNL A   1      28.464  31.808  21.387  1.00  0.00     0.262 C 
ATOM     18  C   UNL A   1      28.907  31.012  23.542  1.00  0.00     0.266 C 
ATOM     19  H   UNL A   1      27.388  32.321  23.062  1.00  0.00     0.347 HD
ATOM     20  C   UNL A   1      28.006  30.361  21.379  1.00  0.00     0.071 C 
ENDBRANCH  13  14
ENDBRANCH   8  13
ENDBRANCH   4   7
ENDBRANCH   2   3
ENDBRANCH   1   2
BRANCH   1  21
ATOM     21  C   UNL A   1      32.685  32.853  27.136  1.00  0.00     0.118 C 
BRANCH  21  22
ATOM     22  N   UNL A   1      32.540  34.227  27.585  1.00  0.00    -0.352 N 
ATOM     23  C   UNL A   1      33.059  34.893  28.665  1.00  0.00     0.251 C 
ATOM     24  H   UNL A   1      31.965  34.779  27.009  1.00  0.00     0.163 HD
ATOM     25  O   UNL A   1      32.548  35.980  28.966  1.00  0.00    -0.269 OA
BRANCH  23  26
ATOM     26  C   UNL A   1      34.190  34.388  29.489  1.00  0.00     0.039 A 
ATOM     27  C   UNL A   1      35.486  34.490  28.961  1.00  0.00     0.014 A 
ATOM     28  C   UNL A   1      34.015  33.702  30.694  1.00  0.00     0.014 A 
ATOM     29  C   UNL A   1      36.582  33.927  29.629  1.00  0.00     0.010 A 
ATOM     30  C   UNL A   1      35.120  33.213  31.403  1.00  0.00     0.010 A 
ATOM     31  C   UNL A   1      36.413  33.292  30.866  1.00  0.00    -0.014 A 
BRANCH  31  32
ATOM     32  C   UNL A   1      37.560  32.655  31.577  1.00  0.00     0.031 A 
ATOM     33  C   UNL A   1      38.299  31.499  30.951  1.00  0.00     0.074 A 
ATOM     34  C   UNL A   1      37.922  33.081  32.802  1.00  0.00     0.049 A 
ATOM     35  N   UNL A   1      39.260  30.758  31.446  1.00  0.00    -0.248 NA
ATOM     36  C   UNL A   1      37.885  31.108  29.594  1.00  0.00     0.031 C 
ATOM     37  C   UNL A   1      37.286  34.171  33.540  1.00  0.00     0.029 A 
ATOM     38  N   UNL A   1      38.911  32.639  33.647  1.00  0.00    -0.354 N 
ATOM     39  C   UNL A   1      39.535  29.795  30.483  1.00  0.00     0.074 A 
ATOM     40  C   UNL A   1      38.620  30.026  29.386  1.00  0.00     0.031 C 
ATOM     41  C   UNL A   1      37.916  34.331  34.716  1.00  0.00     0.029 A 
ATOM     42  C   UNL A   1      38.973  33.329  34.832  1.00  0.00     0.049 A 
ATOM     43  H   UNL A   1      39.519  31.897  33.423  1.00  0.00     0.167 HD
ATOM     44  C   UNL A   1      40.475  28.818  30.499  1.00  0.00     0.037 A 
ATOM     45  C   UNL A   1      39.784  33.172  35.897  1.00  0.00     0.037 A 
ATOM     46  C   UNL A   1      41.428  28.618  31.561  1.00  0.00     0.049 A 
ATOM     47  C   UNL A   1      40.826  32.089  35.889  1.00  0.00     0.074 A 
ATOM     48  C   UNL A   1      42.469  27.707  31.626  1.00  0.00     0.029 A 
ATOM     49  N   UNL A   1      41.457  29.344  32.742  1.00  0.00    -0.354 N 
ATOM     50  N   UNL A   1      41.102  31.214  34.954  1.00  0.00    -0.248 NA
ATOM     51  C   UNL A   1      41.667  31.970  37.089  1.00  0.00     0.031 C 
ATOM     52  C   UNL A   1      43.107  27.859  32.863  1.00  0.00     0.029 A 
ATOM     53  C   UNL A   1      42.486  28.887  33.552  1.00  0.00     0.049 A 
ATOM     54  H   UNL A   1      40.839  30.075  32.971  1.00  0.00     0.167 HD
ATOM     55  C   UNL A   1      42.158  30.455  35.441  1.00  0.00     0.074 A 
ATOM     56  C   UNL A   1      42.482  30.981  36.751  1.00  0.00     0.031 C 
ATOM     57  C   UNL A   1      42.799  29.416  34.853  1.00  0.00     0.037 A 
BRANCH  44  58
ATOM     58  C   UNL A   1      40.518  27.880  29.328  1.00  0.00     0.064 A 
ATOM     59  C   UNL A   1      39.695  26.747  29.260  1.00  0.00     0.173 A 
ATOM     60  C   UNL A   1      41.376  28.134  28.247  1.00  0.00     0.173 A 
ATOM     61  F   UNL A   1      38.864  26.454  30.271  1.00  0.00    -0.203 F 
ATOM     62  C   UNL A   1      39.755  25.882  28.170  1.00  0.00     0.198 A 
ATOM     63  C   UNL A   1      41.414  27.283  27.145  1.00  0.00     0.198 A 
ATOM     64  F   UNL A   1      42.177  29.210  28.257  1.00  0.00    -0.203 F 
ATOM     65  F   UNL A   1      38.999  24.776  28.151  1.00  0.00    -0.200 F 
ATOM     66  C   UNL A   1      40.610  26.153  27.111  1.00  0.00     0.200 A 
ATOM     67  F   UNL A   1      42.232  27.552  26.119  1.00  0.00    -0.200 F 
ATOM     68  F   UNL A   1      40.667  25.320  26.064  1.00  0.00    -0.200 F 
ENDBRANCH  44  58
BRANCH  45  69
ATOM     69  C   UNL A   1      39.655  34.090  37.057  1.00  0.00     0.064 A 
ATOM     70  C   UNL A   1      38.871  33.735  38.163  1.00  0.00     0.173 A 
ATOM     71  C   UNL A   1      40.321  35.323  37.093  1.00  0.00     0.173 A 
ATOM     72  F   UNL A   1      38.195  32.576  38.159  1.00  0.00    -0.203 F 
ATOM     73  C   UNL A   1      38.755  34.582  39.262  1.00  0.00     0.198 A 
ATOM     74  C   UNL A   1      40.221  36.159  38.203  1.00  0.00     0.198 A 
ATOM     75  F   UNL A   1      41.082  35.705  36.057  1.00  0.00    -0.203 F 
ATOM     76  F   UNL A   1      37.976  34.233  40.295  1.00  0.00    -0.200 F 
ATOM     77  C   UNL A   1      39.436  35.790  39.284  1.00  0.00     0.200 A 
ATOM     78  F   UNL A   1      40.886  37.322  38.224  1.00  0.00    -0.200 F 
ATOM     79  F   UNL A   1      39.330  36.600  40.346  1.00  0.00    -0.200 F 
ENDBRANCH  45  69
BRANCH  57  80
ATOM     80  C   UNL A   1      43.931  28.788  35.611  1.00  0.00     0.064 A 
ATOM     81  C   UNL A   1      45.253  29.225  35.446  1.00  0.00     0.173 A 
ATOM     82  C   UNL A   1      43.686  27.766  36.539  1.00  0.00     0.173 A 
ATOM     83  F   UNL A   1      45.540  30.189  34.559  1.00  0.00    -0.203 F 
ATOM     84  C   UNL A   1      46.292  28.647  36.171  1.00  0.00     0.198 A 
ATOM     85  C   UNL A   1      44.724  27.206  37.279  1.00  0.00     0.198 A 
ATOM     86  F   UNL A   1      42.437  27.316  36.736  1.00  0.00    -0.203 F 
ATOM     87  F   UNL A   1      47.554  29.054  35.971  1.00  0.00    -0.200 F 
ATOM     88  C   UNL A   1      46.027  27.644  37.090  1.00  0.00     0.200 A 
ATOM     89  F   UNL A   1      44.465  26.242  38.173  1.00  0.00    -0.200 F 
ATOM     90  F   UNL A   1      47.027  27.091  37.790  1.00  0.00    -0.200 F 
ENDBRANCH  57  80
ENDBRANCH  31  32
ENDBRANCH  23  26
ENDBRANCH  21  22
ENDBRANCH   1  21
TORSDOF 12
ENDMDL
MODEL 2
REMARK VINA RESULT:     -12.2      2.048      7.818
REMARK SMILES C[N@H+]1CC[C@@H](Cc2nccnc2C(=O)NCCCNC(=O)c2ccc(-c3c4nc(c(-c5c(F)c(F)c(F)c(F)c5F)c5ccc([nH]5)c(-c5c(F)c(F)c(F)c(F)c5F)c5nc(c(-c6c(F)c(F)c(F)c(F)c6F)c6ccc3[nH]6)C=C5)C=C4)cc2)C1
REMARK SMILES IDX 17 1 16 2 15 3 13 4 14 5 12 7 7 8 8 9 9 10 11 11 10 12 6 13
REMARK SMILES IDX 5 14 1 15 2 16 3 17 85 18 4 20 18 21 19 22 20 23 21 25 22 26
REMARK SMILES IDX 23 27 84 28 24 29 83 30 25 31 26 32 27 33 77 34 28 35 82 36
REMARK SMILES IDX 76 37 78 38 29 39 81 40 75 41 74 42 30 44 62 45 42 46 61 47
REMARK SMILES IDX 43 48 46 49 60 50 79 51 44 52 45 53 59 55 80 56 47 57 31 58
REMARK SMILES IDX 32 59 40 60 33 61 34 62 38 63 41 64 35 65 36 66 39 67 37 68
REMARK SMILES IDX 63 69 64 70 72 71 65 72 66 73 70 74 73 75 67 76 68 77 71 78
REMARK SMILES IDX 69 79 48 80 49 81 57 82 50 83 51 84 55 85 58 86 52 87 53 88
REMARK SMILES IDX 56 89 54 90
REMARK H PARENT 15 6 2 19 19 24 78 43 46 54
REMARK Flexibility Score: inf
ROOT
ATOM      1  C   UNL A   1      31.644  29.174  26.695  1.00  0.00     0.042 C 
ENDROOT
BRANCH   1   2
ATOM      2  C   UNL A   1      32.088  27.774  27.155  1.00  0.00     0.118 C 
BRANCH   2   3
ATOM      3  N   UNL A   1      31.045  26.806  26.856  1.00  0.00    -0.351 N 
ATOM      4  C   UNL A   1      30.501  26.254  25.719  1.00  0.00     0.271 C 
ATOM      5  O   UNL A   1      29.512  25.542  25.933  1.00  0.00    -0.267 OA
ATOM      6  H   UNL A   1      30.621  26.459  27.673  1.00  0.00     0.163 HD
BRANCH   4   7
ATOM      7  C   UNL A   1      30.990  26.363  24.294  1.00  0.00     0.149 A 
ATOM      8  C   UNL A   1      30.544  27.215  23.273  1.00  0.00     0.072 A 
ATOM      9  N   UNL A   1      30.968  27.064  21.979  1.00  0.00    -0.257 NA
ATOM     10  C   UNL A   1      31.795  26.032  21.719  1.00  0.00     0.131 A 
ATOM     11  N   UNL A   1      31.856  25.341  23.997  1.00  0.00    -0.248 NA
ATOM     12  C   UNL A   1      32.232  25.187  22.711  1.00  0.00     0.132 A 
BRANCH   8  13
ATOM     13  C   UNL A   1      29.635  28.384  23.458  1.00  0.00     0.068 C 
BRANCH  13  14
ATOM     14  C   UNL A   1      30.167  29.767  23.064  1.00  0.00     0.056 C 
ATOM     15  C   UNL A   1      28.224  31.952  20.831  1.00  0.00     0.332 C 
ATOM     16  N   UNL A   1      29.174  31.558  21.861  1.00  0.00    -0.337 N 
ATOM     17  C   UNL A   1      28.593  31.606  23.199  1.00  0.00     0.262 C 
ATOM     18  C   UNL A   1      29.663  30.189  21.676  1.00  0.00     0.266 C 
ATOM     19  H   UNL A   1      29.937  32.230  21.774  1.00  0.00     0.347 HD
ATOM     20  C   UNL A   1      29.618  30.844  24.018  1.00  0.00     0.071 C 
ENDBRANCH  13  14
ENDBRANCH   8  13
ENDBRANCH   4   7
ENDBRANCH   2   3
ENDBRANCH   1   2
BRANCH   1  21
ATOM     21  C   UNL A   1      32.720  29.992  25.991  1.00  0.00     0.118 C 
BRANCH  21  22
ATOM     22  N   UNL A   1      32.689  31.383  26.405  1.00  0.00    -0.352 N 
ATOM     23  C   UNL A   1      33.434  32.080  27.321  1.00  0.00     0.251 C 
ATOM     24  H   UNL A   1      32.009  31.924  25.944  1.00  0.00     0.163 HD
ATOM     25  O   UNL A   1      33.011  33.186  27.680  1.00  0.00    -0.269 OA
BRANCH  23  26
ATOM     26  C   UNL A   1      34.710  31.585  27.904  1.00  0.00     0.039 A 
ATOM     27  C   UNL A   1      34.749  30.265  28.380  1.00  0.00     0.014 A 
ATOM     28  C   UNL A   1      35.822  32.403  28.122  1.00  0.00     0.014 A 
ATOM     29  C   UNL A   1      35.878  29.773  29.048  1.00  0.00     0.010 A 
ATOM     30  C   UNL A   1      36.982  31.887  28.715  1.00  0.00     0.010 A 
ATOM     31  C   UNL A   1      37.015  30.576  29.213  1.00  0.00    -0.014 A 
BRANCH  31  32
ATOM     32  C   UNL A   1      38.214  30.085  29.952  1.00  0.00     0.031 A 
ATOM     33  C   UNL A   1      38.471  30.529  31.370  1.00  0.00     0.074 A 
ATOM     34  C   UNL A   1      39.099  29.270  29.347  1.00  0.00     0.049 A 
ATOM     35  N   UNL A   1      39.499  30.286  32.146  1.00  0.00    -0.248 NA
ATOM     36  C   UNL A   1      37.447  31.385  31.990  1.00  0.00     0.031 C 
ATOM     37  C   UNL A   1      38.993  28.776  27.975  1.00  0.00     0.029 A 
ATOM     38  N   UNL A   1      40.270  28.719  29.810  1.00  0.00    -0.354 N 
ATOM     39  C   UNL A   1      39.263  30.985  33.324  1.00  0.00     0.074 A 
ATOM     40  C   UNL A   1      38.011  31.688  33.150  1.00  0.00     0.031 C 
ATOM     41  C   UNL A   1      40.040  27.976  27.715  1.00  0.00     0.029 A 
ATOM     42  C   UNL A   1      40.912  27.932  28.886  1.00  0.00     0.049 A 
ATOM     43  H   UNL A   1      40.616  28.875  30.719  1.00  0.00     0.167 HD
ATOM     44  C   UNL A   1      40.010  31.025  34.454  1.00  0.00     0.037 A 
ATOM     45  C   UNL A   1      42.074  27.256  28.968  1.00  0.00     0.037 A 
ATOM     46  C   UNL A   1      41.228  30.283  34.657  1.00  0.00     0.049 A 
ATOM     47  C   UNL A   1      42.881  27.307  30.235  1.00  0.00     0.074 A 
ATOM     48  C   UNL A   1      42.007  30.198  35.798  1.00  0.00     0.029 A 
ATOM     49  N   UNL A   1      41.840  29.494  33.695  1.00  0.00    -0.354 N 
ATOM     50  N   UNL A   1      42.624  27.938  31.354  1.00  0.00    -0.248 NA
ATOM     51  C   UNL A   1      44.143  26.552  30.248  1.00  0.00     0.031 C 
ATOM     52  C   UNL A   1      43.111  29.385  35.516  1.00  0.00     0.029 A 
ATOM     53  C   UNL A   1      42.999  28.935  34.211  1.00  0.00     0.049 A 
ATOM     54  H   UNL A   1      41.502  29.353  32.782  1.00  0.00     0.167 HD
ATOM     55  C   UNL A   1      43.678  27.643  32.209  1.00  0.00     0.074 A 
ATOM     56  C   UNL A   1      44.573  26.766  31.483  1.00  0.00     0.031 C 
ATOM     57  C   UNL A   1      43.883  28.064  33.481  1.00  0.00     0.037 A 
BRANCH  44  58
ATOM     58  C   UNL A   1      39.531  31.911  35.568  1.00  0.00     0.064 A 
ATOM     59  C   UNL A   1      38.595  31.468  36.513  1.00  0.00     0.173 A 
ATOM     60  C   UNL A   1      40.036  33.213  35.705  1.00  0.00     0.173 A 
ATOM     61  F   UNL A   1      38.075  30.235  36.421  1.00  0.00    -0.203 F 
ATOM     62  C   UNL A   1      38.154  32.306  37.534  1.00  0.00     0.198 A 
ATOM     63  C   UNL A   1      39.614  34.041  36.743  1.00  0.00     0.198 A 
ATOM     64  F   UNL A   1      40.940  33.684  34.833  1.00  0.00    -0.203 F 
ATOM     65  F   UNL A   1      37.220  31.880  38.394  1.00  0.00    -0.200 F 
ATOM     66  C   UNL A   1      38.667  33.590  37.651  1.00  0.00     0.200 A 
ATOM     67  F   UNL A   1      40.119  35.277  36.861  1.00  0.00    -0.200 F 
ATOM     68  F   UNL A   1      38.243  34.396  38.633  1.00  0.00    -0.200 F 
ENDBRANCH  44  58
BRANCH  45  69
ATOM     69  C   UNL A   1      42.532  26.445  27.811  1.00  0.00     0.064 A 
ATOM     70  C   UNL A   1      42.070  25.134  27.632  1.00  0.00     0.173 A 
ATOM     71  C   UNL A   1      43.420  26.965  26.858  1.00  0.00     0.173 A 
ATOM     72  F   UNL A   1      41.239  24.589  28.533  1.00  0.00    -0.203 F 
ATOM     73  C   UNL A   1      42.482  24.371  26.543  1.00  0.00     0.198 A 
ATOM     74  C   UNL A   1      43.814  26.206  25.759  1.00  0.00     0.198 A 
ATOM     75  F   UNL A   1      43.889  28.214  26.990  1.00  0.00    -0.203 F 
ATOM     76  F   UNL A   1      42.048  23.110  26.409  1.00  0.00    -0.200 F 
ATOM     77  C   UNL A   1      43.348  24.910  25.604  1.00  0.00     0.200 A 
ATOM     78  F   UNL A   1      44.645  26.732  24.848  1.00  0.00    -0.200 F 
ATOM     79  F   UNL A   1      43.738  24.177  24.552  1.00  0.00    -0.200 F 
ENDBRANCH  45  69
BRANCH  57  80
ATOM     80  C   UNL A   1      45.113  27.566  34.180  1.00  0.00     0.064 A 
ATOM     81  C   UNL A   1      46.315  28.288  34.149  1.00  0.00     0.173 A 
ATOM     82  C   UNL A   1      45.078  26.374  34.919  1.00  0.00     0.173 A 
ATOM     83  F   UNL A   1      46.402  29.425  33.443  1.00  0.00    -0.203 F 
ATOM     84  C   UNL A   1      47.444  27.824  34.818  1.00  0.00     0.198 A 
ATOM     85  C   UNL A   1      46.203  25.926  35.606  1.00  0.00     0.198 A 
ATOM     86  F   UNL A   1      43.951  25.650  34.983  1.00  0.00    -0.203 F 
ATOM     87  F   UNL A   1      48.593  28.510  34.746  1.00  0.00    -0.200 F 
ATOM     88  C   UNL A   1      47.386  26.648  35.551  1.00  0.00     0.200 A 
ATOM     89  F   UNL A   1      46.143  24.794  36.320  1.00  0.00    -0.200 F 
ATOM     90  F   UNL A   1      48.473  26.205  36.198  1.00  0.00    -0.200 F 
ENDBRANCH  57  80
ENDBRANCH  31  32
ENDBRANCH  23  26
ENDBRANCH  21  22
ENDBRANCH   1  21
TORSDOF 12
ENDMDL
MODEL 3
REMARK VINA RESULT:     -12.1      2.069      7.993
REMARK SMILES C[N@H+]1CC[C@@H](Cc2nccnc2C(=O)NCCCNC(=O)c2ccc(-c3c4nc(c(-c5c(F)c(F)c(F)c(F)c5F)c5ccc([nH]5)c(-c5c(F)c(F)c(F)c(F)c5F)c5nc(c(-c6c(F)c(F)c(F)c(F)c6F)c6ccc3[nH]6)C=C5)C=C4)cc2)C1
REMARK SMILES IDX 17 1 16 2 15 3 13 4 14 5 12 7 7 8 8 9 9 10 11 11 10 12 6 13
REMARK SMILES IDX 5 14 1 15 2 16 3 17 85 18 4 20 18 21 19 22 20 23 21 25 22 26
REMARK SMILES IDX 23 27 84 28 24 29 83 30 25 31 26 32 27 33 77 34 28 35 82 36
REMARK SMILES IDX 76 37 78 38 29 39 81 40 75 41 74 42 30 44 62 45 42 46 61 47
REMARK SMILES IDX 43 48 46 49 60 50 79 51 44 52 45 53 59 55 80 56 47 57 31 58
REMARK SMILES IDX 32 59 40 60 33 61 34 62 38 63 41 64 35 65 36 66 39 67 37 68
REMARK SMILES IDX 63 69 64 70 72 71 65 72 66 73 70 74 73 75 67 76 68 77 71 78
REMARK SMILES IDX 69 79 48 80 49 81 57 82 50 83 51 84 55 85 58 86 52 87 53 88
REMARK SMILES IDX 56 89 54 90
REMARK H PARENT 15 6 2 19 19 24 78 43 46 54
REMARK Flexibility Score: inf
ROOT
ATOM      1  C   UNL A   1      31.620  29.180  26.689  1.00  0.00     0.042 C 
ENDROOT
BRANCH   1   2
ATOM      2  C   UNL A   1      32.063  27.788  27.175  1.00  0.00     0.118 C 
BRANCH   2   3
ATOM      3  N   UNL A   1      31.040  26.807  26.848  1.00  0.00    -0.351 N 
ATOM      4  C   UNL A   1      30.528  26.256  25.697  1.00  0.00     0.271 C 
ATOM      5  O   UNL A   1      29.546  25.527  25.886  1.00  0.00    -0.267 OA
ATOM      6  H   UNL A   1      30.606  26.447  27.654  1.00  0.00     0.163 HD
BRANCH   4   7
ATOM      7  C   UNL A   1      31.044  26.382  24.282  1.00  0.00     0.149 A 
ATOM      8  C   UNL A   1      30.602  27.232  23.257  1.00  0.00     0.072 A 
ATOM      9  N   UNL A   1      31.055  27.097  21.971  1.00  0.00    -0.257 NA
ATOM     10  C   UNL A   1      31.908  26.083  21.723  1.00  0.00     0.131 A 
ATOM     11  N   UNL A   1      31.936  25.380  23.998  1.00  0.00    -0.248 NA
ATOM     12  C   UNL A   1      32.341  25.242  22.719  1.00  0.00     0.132 A 
BRANCH   8  13
ATOM     13  C   UNL A   1      29.666  28.381  23.430  1.00  0.00     0.068 C 
BRANCH  13  14
ATOM     14  C   UNL A   1      30.169  29.774  23.033  1.00  0.00     0.056 C 
ATOM     15  C   UNL A   1      28.166  31.926  20.821  1.00  0.00     0.332 C 
ATOM     16  N   UNL A   1      29.133  31.549  21.842  1.00  0.00    -0.337 N 
ATOM     17  C   UNL A   1      28.564  31.584  23.185  1.00  0.00     0.262 C 
ATOM     18  C   UNL A   1      29.644  30.188  21.650  1.00  0.00     0.266 C 
ATOM     19  H   UNL A   1      29.883  32.233  21.748  1.00  0.00     0.347 HD
ATOM     20  C   UNL A   1      29.611  30.839  23.993  1.00  0.00     0.071 C 
ENDBRANCH  13  14
ENDBRANCH   8  13
ENDBRANCH   4   7
ENDBRANCH   2   3
ENDBRANCH   1   2
BRANCH   1  21
ATOM     21  C   UNL A   1      32.699  29.985  25.975  1.00  0.00     0.118 C 
BRANCH  21  22
ATOM     22  N   UNL A   1      32.677  31.381  26.377  1.00  0.00    -0.352 N 
ATOM     23  C   UNL A   1      33.430  32.081  27.283  1.00  0.00     0.251 C 
ATOM     24  H   UNL A   1      31.998  31.921  25.914  1.00  0.00     0.163 HD
ATOM     25  O   UNL A   1      33.015  33.193  27.635  1.00  0.00    -0.269 OA
BRANCH  23  26
ATOM     26  C   UNL A   1      34.707  31.585  27.864  1.00  0.00     0.039 A 
ATOM     27  C   UNL A   1      34.749  30.260  28.327  1.00  0.00     0.014 A 
ATOM     28  C   UNL A   1      35.815  32.404  28.093  1.00  0.00     0.014 A 
ATOM     29  C   UNL A   1      35.878  29.766  28.993  1.00  0.00     0.010 A 
ATOM     30  C   UNL A   1      36.975  31.886  28.684  1.00  0.00     0.010 A 
ATOM     31  C   UNL A   1      37.011  30.570  29.169  1.00  0.00    -0.014 A 
BRANCH  31  32
ATOM     32  C   UNL A   1      38.210  30.075  29.906  1.00  0.00     0.031 A 
ATOM     33  C   UNL A   1      38.474  30.523  31.322  1.00  0.00     0.074 A 
ATOM     34  C   UNL A   1      39.090  29.255  29.300  1.00  0.00     0.049 A 
ATOM     35  N   UNL A   1      39.503  30.277  32.096  1.00  0.00    -0.248 NA
ATOM     36  C   UNL A   1      37.455  31.384  31.942  1.00  0.00     0.031 C 
ATOM     37  C   UNL A   1      38.978  28.758  27.930  1.00  0.00     0.029 A 
ATOM     38  N   UNL A   1      40.260  28.701  29.762  1.00  0.00    -0.354 N 
ATOM     39  C   UNL A   1      39.273  30.980  33.272  1.00  0.00     0.074 A 
ATOM     40  C   UNL A   1      38.023  31.689  33.100  1.00  0.00     0.031 C 
ATOM     41  C   UNL A   1      40.021  27.953  27.669  1.00  0.00     0.029 A 
ATOM     42  C   UNL A   1      40.896  27.909  28.838  1.00  0.00     0.049 A 
ATOM     43  H   UNL A   1      40.609  28.857  30.669  1.00  0.00     0.167 HD
ATOM     44  C   UNL A   1      40.023  31.020  34.400  1.00  0.00     0.037 A 
ATOM     45  C   UNL A   1      42.055  27.227  28.918  1.00  0.00     0.037 A 
ATOM     46  C   UNL A   1      41.239  30.273  34.602  1.00  0.00     0.049 A 
ATOM     47  C   UNL A   1      42.866  27.278  30.183  1.00  0.00     0.074 A 
ATOM     48  C   UNL A   1      42.020  30.187  35.741  1.00  0.00     0.029 A 
ATOM     49  N   UNL A   1      41.844  29.479  33.640  1.00  0.00    -0.354 N 
ATOM     50  N   UNL A   1      42.615  27.913  31.302  1.00  0.00    -0.248 NA
ATOM     51  C   UNL A   1      44.124  26.518  30.194  1.00  0.00     0.031 C 
ATOM     52  C   UNL A   1      43.120  29.369  35.458  1.00  0.00     0.029 A 
ATOM     53  C   UNL A   1      43.003  28.916  34.154  1.00  0.00     0.049 A 
ATOM     54  H   UNL A   1      41.503  29.337  32.728  1.00  0.00     0.167 HD
ATOM     55  C   UNL A   1      43.670  27.616  32.154  1.00  0.00     0.074 A 
ATOM     56  C   UNL A   1      44.559  26.732  31.428  1.00  0.00     0.031 C 
ATOM     57  C   UNL A   1      43.880  28.039  33.424  1.00  0.00     0.037 A 
BRANCH  44  58
ATOM     58  C   UNL A   1      39.552  31.911  35.513  1.00  0.00     0.064 A 
ATOM     59  C   UNL A   1      39.991  33.238  35.632  1.00  0.00     0.173 A 
ATOM     60  C   UNL A   1      38.628  31.438  36.457  1.00  0.00     0.173 A 
ATOM     61  F   UNL A   1      40.881  33.735  34.760  1.00  0.00    -0.203 F 
ATOM     62  C   UNL A   1      39.551  34.048  36.676  1.00  0.00     0.198 A 
ATOM     63  C   UNL A   1      38.168  32.259  37.485  1.00  0.00     0.198 A 
ATOM     64  F   UNL A   1      38.169  30.180  36.384  1.00  0.00    -0.203 F 
ATOM     65  F   UNL A   1      40.024  35.295  36.801  1.00  0.00    -0.200 F 
ATOM     66  C   UNL A   1      38.636  33.560  37.599  1.00  0.00     0.200 A 
ATOM     67  F   UNL A   1      37.277  31.790  38.368  1.00  0.00    -0.200 F 
ATOM     68  F   UNL A   1      38.214  34.339  38.602  1.00  0.00    -0.200 F 
ENDBRANCH  44  58
BRANCH  45  69
ATOM     69  C   UNL A   1      42.506  26.411  27.762  1.00  0.00     0.064 A 
ATOM     70  C   UNL A   1      43.418  26.932  26.835  1.00  0.00     0.173 A 
ATOM     71  C   UNL A   1      42.053  25.098  27.572  1.00  0.00     0.173 A 
ATOM     72  F   UNL A   1      43.857  28.193  26.964  1.00  0.00    -0.203 F 
ATOM     73  C   UNL A   1      43.858  26.170  25.756  1.00  0.00     0.198 A 
ATOM     74  C   UNL A   1      42.511  24.330  26.504  1.00  0.00     0.198 A 
ATOM     75  F   UNL A   1      41.179  24.558  28.434  1.00  0.00    -0.203 F 
ATOM     76  F   UNL A   1      44.708  26.700  24.866  1.00  0.00    -0.200 F 
ATOM     77  C   UNL A   1      43.409  24.867  25.595  1.00  0.00     0.200 A 
ATOM     78  F   UNL A   1      42.082  23.069  26.356  1.00  0.00    -0.200 F 
ATOM     79  F   UNL A   1      43.840  24.132  24.561  1.00  0.00    -0.200 F 
ENDBRANCH  45  69
BRANCH  57  80
ATOM     80  C   UNL A   1      45.110  27.537  34.121  1.00  0.00     0.064 A 
ATOM     81  C   UNL A   1      46.310  28.263  34.101  1.00  0.00     0.173 A 
ATOM     82  C   UNL A   1      45.077  26.338  34.848  1.00  0.00     0.173 A 
ATOM     83  F   UNL A   1      46.395  29.408  33.407  1.00  0.00    -0.203 F 
ATOM     84  C   UNL A   1      47.438  27.796  34.768  1.00  0.00     0.198 A 
ATOM     85  C   UNL A   1      46.202  25.885  35.533  1.00  0.00     0.198 A 
ATOM     86  F   UNL A   1      43.952  25.610  34.901  1.00  0.00    -0.203 F 
ATOM     87  F   UNL A   1      48.586  28.485  34.706  1.00  0.00    -0.200 F 
ATOM     88  C   UNL A   1      47.382  26.612  35.488  1.00  0.00     0.200 A 
ATOM     89  F   UNL A   1      46.143  24.746  36.235  1.00  0.00    -0.200 F 
ATOM     90  F   UNL A   1      48.469  26.166  36.134  1.00  0.00    -0.200 F 
ENDBRANCH  57  80
ENDBRANCH  31  32
ENDBRANCH  23  26
ENDBRANCH  21  22
ENDBRANCH   1  21
TORSDOF 12
ENDMDL
