MODEL 1
REMARK VINA RESULT:     -11.9      0.000      0.000
REMARK SMILES O=C(NCCCNC(=O)[C@@H]1C=C[C@@H](Nc2ccc3ccccc3n2)C1)c1ccc(-c2c3nc(c(-c4c(F)c(F)c(F)c(F)c4F)c4ccc([nH]4)c(-c4c(F)c(F)c(F)c(F)c4F)c4nc(c(-c5c(F)c(F)c(F)c(F)c5F)c5ccc2[nH]5)C=C4)C=C3)cc1
REMARK SMILES IDX 5 1 4 2 3 3 1 4 2 5 26 7 27 8 88 9 28 10 87 11 29 12 30 13
REMARK SMILES IDX 31 14 81 15 32 16 86 17 80 18 82 19 33 20 85 21 79 22 78 23
REMARK SMILES IDX 34 25 66 26 46 27 65 28 47 29 50 30 64 31 83 32 48 33 49 34
REMARK SMILES IDX 63 36 84 37 51 38 35 39 36 40 44 41 37 42 38 43 42 44 45 45
REMARK SMILES IDX 39 46 40 47 43 48 41 49 67 50 68 51 76 52 69 53 70 54 74 55
REMARK SMILES IDX 77 56 71 57 72 58 75 59 73 60 52 61 53 62 61 63 54 64 55 65
REMARK SMILES IDX 59 66 62 67 56 68 57 69 60 70 58 71 6 72 7 73 8 74 9 76
REMARK SMILES IDX 10 77 11 78 25 79 12 80 13 81 14 82 15 84 16 85 24 86 17 87
REMARK SMILES IDX 23 88 18 89 22 90 19 91 21 92 20 93
REMARK H PARENT 3 6 82 24 50 35 7 75 14 83
REMARK Flexibility Score: inf
ROOT
ATOM      1  C   UNL A   1      34.641  33.616  28.032  1.00  0.00     0.042 C 
ENDROOT
BRANCH   1   2
ATOM      2  C   UNL A   1      34.738  32.462  29.026  1.00  0.00     0.118 C 
BRANCH   2   3
ATOM      3  N   UNL A   1      34.102  31.251  28.531  1.00  0.00    -0.352 N 
ATOM      4  O   UNL A   1      33.948  29.250  27.520  1.00  0.00    -0.269 OA
ATOM      5  C   UNL A   1      34.652  30.068  28.110  1.00  0.00     0.251 C 
ATOM      6  H   UNL A   1      33.120  31.286  28.492  1.00  0.00     0.163 HD
BRANCH   5   7
ATOM      7  C   UNL A   1      36.080  29.765  28.343  1.00  0.00     0.039 A 
ATOM      8  C   UNL A   1      37.045  29.994  27.357  1.00  0.00     0.014 A 
ATOM      9  C   UNL A   1      36.469  29.310  29.606  1.00  0.00     0.014 A 
ATOM     10  C   UNL A   1      38.377  29.661  27.594  1.00  0.00     0.010 A 
ATOM     11  C   UNL A   1      37.814  29.043  29.866  1.00  0.00     0.010 A 
ATOM     12  C   UNL A   1      38.776  29.195  28.855  1.00  0.00    -0.014 A 
BRANCH  12  13
ATOM     13  C   UNL A   1      40.205  28.915  29.136  1.00  0.00     0.031 A 
ATOM     14  C   UNL A   1      41.073  29.954  29.782  1.00  0.00     0.074 A 
ATOM     15  C   UNL A   1      40.728  27.733  28.763  1.00  0.00     0.049 A 
ATOM     16  N   UNL A   1      42.361  29.928  30.015  1.00  0.00    -0.248 NA
ATOM     17  C   UNL A   1      40.408  31.193  30.213  1.00  0.00     0.031 C 
ATOM     18  C   UNL A   1      39.985  26.651  28.119  1.00  0.00     0.029 A 
ATOM     19  N   UNL A   1      42.010  27.252  28.853  1.00  0.00    -0.354 N 
ATOM     20  C   UNL A   1      42.666  31.153  30.595  1.00  0.00     0.074 A 
ATOM     21  C   UNL A   1      41.432  31.907  30.659  1.00  0.00     0.031 C 
ATOM     22  C   UNL A   1      40.821  25.632  27.870  1.00  0.00     0.029 A 
ATOM     23  C   UNL A   1      42.167  26.011  28.288  1.00  0.00     0.049 A 
ATOM     24  H   UNL A   1      42.744  27.748  29.283  1.00  0.00     0.167 HD
ATOM     25  C   UNL A   1      43.866  31.600  31.035  1.00  0.00     0.037 A 
ATOM     26  C   UNL A   1      43.277  25.274  28.093  1.00  0.00     0.037 A 
ATOM     27  C   UNL A   1      45.086  30.836  30.979  1.00  0.00     0.049 A 
ATOM     28  C   UNL A   1      44.601  25.800  28.564  1.00  0.00     0.074 A 
ATOM     29  C   UNL A   1      46.342  31.179  31.449  1.00  0.00     0.029 A 
ATOM     30  N   UNL A   1      45.204  29.577  30.405  1.00  0.00    -0.354 N 
ATOM     31  N   UNL A   1      44.872  26.940  29.152  1.00  0.00    -0.248 NA
ATOM     32  C   UNL A   1      45.773  24.942  28.347  1.00  0.00     0.031 C 
ATOM     33  C   UNL A   1      47.230  30.150  31.117  1.00  0.00     0.029 A 
ATOM     34  C   UNL A   1      46.517  29.143  30.484  1.00  0.00     0.049 A 
ATOM     35  H   UNL A   1      44.464  29.069  30.002  1.00  0.00     0.167 HD
ATOM     36  C   UNL A   1      46.238  26.929  29.396  1.00  0.00     0.074 A 
ATOM     37  C   UNL A   1      46.741  25.666  28.895  1.00  0.00     0.031 C 
ATOM     38  C   UNL A   1      47.002  27.880  29.987  1.00  0.00     0.037 A 
BRANCH  25  39
ATOM     39  C   UNL A   1      43.923  32.993  31.590  1.00  0.00     0.064 A 
ATOM     40  C   UNL A   1      44.093  34.114  30.764  1.00  0.00     0.173 A 
ATOM     41  C   UNL A   1      43.787  33.212  32.970  1.00  0.00     0.173 A 
ATOM     42  F   UNL A   1      44.238  33.961  29.439  1.00  0.00    -0.203 F 
ATOM     43  C   UNL A   1      44.162  35.398  31.301  1.00  0.00     0.198 A 
ATOM     44  C   UNL A   1      43.828  34.498  33.501  1.00  0.00     0.198 A 
ATOM     45  F   UNL A   1      43.615  32.176  33.805  1.00  0.00    -0.203 F 
ATOM     46  F   UNL A   1      44.381  36.448  30.499  1.00  0.00    -0.200 F 
ATOM     47  C   UNL A   1      44.024  35.589  32.669  1.00  0.00     0.200 A 
ATOM     48  F   UNL A   1      43.682  34.682  34.821  1.00  0.00    -0.200 F 
ATOM     49  F   UNL A   1      44.093  36.824  33.185  1.00  0.00    -0.200 F 
ENDBRANCH  25  39
BRANCH  26  50
ATOM     50  C   UNL A   1      43.159  23.965  27.405  1.00  0.00     0.064 A 
ATOM     51  C   UNL A   1      42.731  22.824  28.094  1.00  0.00     0.173 A 
ATOM     52  C   UNL A   1      43.413  23.845  26.030  1.00  0.00     0.173 A 
ATOM     53  F   UNL A   1      42.493  22.887  29.412  1.00  0.00    -0.203 F 
ATOM     54  C   UNL A   1      42.558  21.610  27.432  1.00  0.00     0.198 A 
ATOM     55  C   UNL A   1      43.215  22.638  25.365  1.00  0.00     0.198 A 
ATOM     56  F   UNL A   1      43.817  24.913  25.326  1.00  0.00    -0.203 F 
ATOM     57  F   UNL A   1      42.165  20.527  28.116  1.00  0.00    -0.200 F 
ATOM     58  C   UNL A   1      42.791  21.520  26.067  1.00  0.00     0.200 A 
ATOM     59  F   UNL A   1      43.423  22.560  24.044  1.00  0.00    -0.200 F 
ATOM     60  F   UNL A   1      42.603  20.357  25.428  1.00  0.00    -0.200 F 
ENDBRANCH  26  50
BRANCH  38  61
ATOM     61  C   UNL A   1      48.462  27.583  30.160  1.00  0.00     0.064 A 
ATOM     62  C   UNL A   1      48.948  26.927  31.299  1.00  0.00     0.173 A 
ATOM     63  C   UNL A   1      49.372  27.897  29.140  1.00  0.00     0.173 A 
ATOM     64  F   UNL A   1      48.120  26.622  32.308  1.00  0.00    -0.203 F 
ATOM     65  C   UNL A   1      50.298  26.601  31.413  1.00  0.00     0.198 A 
ATOM     66  C   UNL A   1      50.715  27.548  29.246  1.00  0.00     0.198 A 
ATOM     67  F   UNL A   1      48.953  28.521  28.028  1.00  0.00    -0.203 F 
ATOM     68  F   UNL A   1      50.748  25.997  32.521  1.00  0.00    -0.200 F 
ATOM     69  C   UNL A   1      51.176  26.901  30.383  1.00  0.00     0.200 A 
ATOM     70  F   UNL A   1      51.561  27.828  28.245  1.00  0.00    -0.200 F 
ATOM     71  F   UNL A   1      52.471  26.571  30.487  1.00  0.00    -0.200 F 
ENDBRANCH  38  61
ENDBRANCH  12  13
ENDBRANCH   5   7
ENDBRANCH   2   3
ENDBRANCH   1   2
BRANCH   1  72
ATOM     72  C   UNL A   1      33.272  34.289  28.003  1.00  0.00     0.117 C 
BRANCH  72  73
ATOM     73  N   UNL A   1      33.364  35.699  28.336  1.00  0.00    -0.356 N 
ATOM     74  C   UNL A   1      33.184  36.322  29.537  1.00  0.00     0.227 C 
ATOM     75  H   UNL A   1      33.590  36.293  27.584  1.00  0.00     0.163 HD
ATOM     76  O   UNL A   1      33.181  37.553  29.549  1.00  0.00    -0.274 OA
BRANCH  74  77
ATOM     77  C   UNL A   1      33.006  35.473  30.794  1.00  0.00     0.103 C 
ATOM     78  C   UNL A   1      32.115  36.146  31.793  1.00  0.00    -0.016 C 
ATOM     79  C   UNL A   1      34.327  35.297  31.558  1.00  0.00     0.046 C 
ATOM     80  C   UNL A   1      32.775  36.492  32.903  1.00  0.00    -0.006 C 
ATOM     81  C   UNL A   1      34.223  36.138  32.841  1.00  0.00     0.104 C 
BRANCH  81  82
ATOM     82  N   UNL A   1      34.551  35.296  33.961  1.00  0.00    -0.364 N 
ATOM     83  H   UNL A   1      33.989  35.323  34.768  1.00  0.00     0.162 HD
BRANCH  82  84
ATOM     84  C   UNL A   1      35.636  34.452  33.919  1.00  0.00     0.127 A 
ATOM     85  C   UNL A   1      35.413  33.102  33.680  1.00  0.00     0.047 A 
ATOM     86  N   UNL A   1      36.878  34.953  34.063  1.00  0.00    -0.231 NA
ATOM     87  C   UNL A   1      36.495  32.238  33.573  1.00  0.00     0.014 A 
ATOM     88  C   UNL A   1      37.930  34.112  34.012  1.00  0.00     0.073 A 
ATOM     89  C   UNL A   1      37.786  32.735  33.750  1.00  0.00     0.000 A 
ATOM     90  C   UNL A   1      39.212  34.601  34.230  1.00  0.00     0.029 A 
ATOM     91  C   UNL A   1      38.913  31.897  33.680  1.00  0.00     0.010 A 
ATOM     92  C   UNL A   1      40.336  33.769  34.183  1.00  0.00     0.002 A 
ATOM     93  C   UNL A   1      40.186  32.417  33.899  1.00  0.00     0.001 A 
ENDBRANCH  82  84
ENDBRANCH  81  82
ENDBRANCH  74  77
ENDBRANCH  72  73
ENDBRANCH   1  72
TORSDOF 12
ENDMDL
MODEL 2
REMARK VINA RESULT:     -11.7      4.955     11.049
REMARK SMILES O=C(NCCCNC(=O)[C@@H]1C=C[C@@H](Nc2ccc3ccccc3n2)C1)c1ccc(-c2c3nc(c(-c4c(F)c(F)c(F)c(F)c4F)c4ccc([nH]4)c(-c4c(F)c(F)c(F)c(F)c4F)c4nc(c(-c5c(F)c(F)c(F)c(F)c5F)c5ccc2[nH]5)C=C4)C=C3)cc1
REMARK SMILES IDX 5 1 4 2 3 3 1 4 2 5 26 7 27 8 88 9 28 10 87 11 29 12 30 13
REMARK SMILES IDX 31 14 81 15 32 16 86 17 80 18 82 19 33 20 85 21 79 22 78 23
REMARK SMILES IDX 34 25 66 26 46 27 65 28 47 29 50 30 64 31 83 32 48 33 49 34
REMARK SMILES IDX 63 36 84 37 51 38 35 39 36 40 44 41 37 42 38 43 42 44 45 45
REMARK SMILES IDX 39 46 40 47 43 48 41 49 67 50 68 51 76 52 69 53 70 54 74 55
REMARK SMILES IDX 77 56 71 57 72 58 75 59 73 60 52 61 53 62 61 63 54 64 55 65
REMARK SMILES IDX 59 66 62 67 56 68 57 69 60 70 58 71 6 72 7 73 8 74 9 76
REMARK SMILES IDX 10 77 11 78 25 79 12 80 13 81 14 82 15 84 16 85 24 86 17 87
REMARK SMILES IDX 23 88 18 89 22 90 19 91 21 92 20 93
REMARK H PARENT 3 6 82 24 50 35 7 75 14 83
REMARK Flexibility Score: inf
ROOT
ATOM      1  C   UNL A   1      31.396  32.271  26.592  1.00  0.00     0.042 C 
ENDROOT
BRANCH   1   2
ATOM      2  C   UNL A   1      32.698  32.933  27.030  1.00  0.00     0.118 C 
BRANCH   2   3
ATOM      3  N   UNL A   1      32.480  34.243  27.626  1.00  0.00    -0.352 N 
ATOM      4  O   UNL A   1      32.544  35.846  29.199  1.00  0.00    -0.269 OA
ATOM      5  C   UNL A   1      33.031  34.812  28.745  1.00  0.00     0.251 C 
ATOM      6  H   UNL A   1      31.835  34.811  27.149  1.00  0.00     0.163 HD
BRANCH   5   7
ATOM      7  C   UNL A   1      34.193  34.197  29.420  1.00  0.00     0.039 A 
ATOM      8  C   UNL A   1      34.029  33.286  30.468  1.00  0.00     0.014 A 
ATOM      9  C   UNL A   1      35.474  34.485  28.940  1.00  0.00     0.014 A 
ATOM     10  C   UNL A   1      35.145  32.754  31.110  1.00  0.00     0.010 A 
ATOM     11  C   UNL A   1      36.590  33.897  29.539  1.00  0.00     0.010 A 
ATOM     12  C   UNL A   1      36.436  33.044  30.643  1.00  0.00    -0.014 A 
BRANCH  12  13
ATOM     13  C   UNL A   1      37.623  32.417  31.273  1.00  0.00     0.031 A 
ATOM     14  C   UNL A   1      38.324  31.270  30.607  1.00  0.00     0.074 A 
ATOM     15  C   UNL A   1      38.038  32.858  32.475  1.00  0.00     0.049 A 
ATOM     16  N   UNL A   1      39.312  30.534  31.049  1.00  0.00    -0.248 NA
ATOM     17  C   UNL A   1      37.843  30.892  29.270  1.00  0.00     0.031 C 
ATOM     18  C   UNL A   1      37.430  33.958  33.222  1.00  0.00     0.029 A 
ATOM     19  N   UNL A   1      39.056  32.423  33.286  1.00  0.00    -0.354 N 
ATOM     20  C   UNL A   1      39.554  29.590  30.060  1.00  0.00     0.074 A 
ATOM     21  C   UNL A   1      38.596  29.834  29.002  1.00  0.00     0.031 C 
ATOM     22  C   UNL A   1      38.084  34.113  34.383  1.00  0.00     0.029 A 
ATOM     23  C   UNL A   1      39.120  33.090  34.484  1.00  0.00     0.049 A 
ATOM     24  H   UNL A   1      39.679  31.704  33.032  1.00  0.00     0.167 HD
ATOM     25  C   UNL A   1      40.494  28.615  30.038  1.00  0.00     0.037 A 
ATOM     26  C   UNL A   1      39.901  32.879  35.560  1.00  0.00     0.037 A 
ATOM     27  C   UNL A   1      41.452  28.389  31.090  1.00  0.00     0.049 A 
ATOM     28  C   UNL A   1      40.918  31.776  35.526  1.00  0.00     0.074 A 
ATOM     29  C   UNL A   1      42.479  27.464  31.139  1.00  0.00     0.029 A 
ATOM     30  N   UNL A   1      41.491  29.093  32.287  1.00  0.00    -0.354 N 
ATOM     31  N   UNL A   1      41.170  30.918  34.568  1.00  0.00    -0.248 NA
ATOM     32  C   UNL A   1      41.758  31.609  36.719  1.00  0.00     0.031 C 
ATOM     33  C   UNL A   1      43.109  27.573  32.384  1.00  0.00     0.029 A 
ATOM     34  C   UNL A   1      42.506  28.601  33.092  1.00  0.00     0.049 A 
ATOM     35  H   UNL A   1      40.887  29.831  32.528  1.00  0.00     0.167 HD
ATOM     36  C   UNL A   1      42.211  30.125  35.029  1.00  0.00     0.074 A 
ATOM     37  C   UNL A   1      42.546  30.606  36.354  1.00  0.00     0.031 C 
ATOM     38  C   UNL A   1      42.833  29.094  34.406  1.00  0.00     0.037 A 
BRANCH  25  39
ATOM     39  C   UNL A   1      40.512  27.698  28.850  1.00  0.00     0.064 A 
ATOM     40  C   UNL A   1      39.737  26.530  28.803  1.00  0.00     0.173 A 
ATOM     41  C   UNL A   1      41.304  28.003  27.733  1.00  0.00     0.173 A 
ATOM     42  F   UNL A   1      38.969  26.187  29.849  1.00  0.00    -0.203 F 
ATOM     43  C   UNL A   1      39.782  25.683  27.698  1.00  0.00     0.198 A 
ATOM     44  C   UNL A   1      41.326  27.170  26.618  1.00  0.00     0.198 A 
ATOM     45  F   UNL A   1      42.060  29.112  27.722  1.00  0.00    -0.203 F 
ATOM     46  F   UNL A   1      39.075  24.545  27.699  1.00  0.00    -0.200 F 
ATOM     47  C   UNL A   1      40.573  26.006  26.605  1.00  0.00     0.200 A 
ATOM     48  F   UNL A   1      42.081  27.489  25.558  1.00  0.00    -0.200 F 
ATOM     49  F   UNL A   1      40.617  25.190  25.543  1.00  0.00    -0.200 F 
ENDBRANCH  25  39
BRANCH  26  50
ATOM     50  C   UNL A   1      39.724  33.740  36.756  1.00  0.00     0.064 A 
ATOM     51  C   UNL A   1      40.353  34.987  36.847  1.00  0.00     0.173 A 
ATOM     52  C   UNL A   1      38.872  33.355  37.803  1.00  0.00     0.173 A 
ATOM     53  F   UNL A   1      41.189  35.388  35.878  1.00  0.00    -0.203 F 
ATOM     54  C   UNL A   1      40.135  35.822  37.941  1.00  0.00     0.198 A 
ATOM     55  C   UNL A   1      38.635  34.202  38.883  1.00  0.00     0.198 A 
ATOM     56  F   UNL A   1      38.241  32.173  37.757  1.00  0.00    -0.203 F 
ATOM     57  F   UNL A   1      40.762  37.003  38.015  1.00  0.00    -0.200 F 
ATOM     58  C   UNL A   1      39.269  35.433  38.953  1.00  0.00     0.200 A 
ATOM     59  F   UNL A   1      37.785  33.830  39.849  1.00  0.00    -0.200 F 
ATOM     60  F   UNL A   1      39.043  36.247  39.994  1.00  0.00    -0.200 F 
ENDBRANCH  26  50
BRANCH  38  61
ATOM     61  C   UNL A   1      43.967  28.433  35.130  1.00  0.00     0.064 A 
ATOM     62  C   UNL A   1      43.767  27.299  35.929  1.00  0.00     0.173 A 
ATOM     63  C   UNL A   1      45.280  28.898  34.961  1.00  0.00     0.173 A 
ATOM     64  F   UNL A   1      42.529  26.827  36.135  1.00  0.00    -0.203 F 
ATOM     65  C   UNL A   1      44.843  26.658  36.541  1.00  0.00     0.198 A 
ATOM     66  C   UNL A   1      46.354  28.241  35.553  1.00  0.00     0.198 A 
ATOM     67  F   UNL A   1      45.522  29.978  34.201  1.00  0.00    -0.203 F 
ATOM     68  F   UNL A   1      44.628  25.592  37.323  1.00  0.00    -0.200 F 
ATOM     69  C   UNL A   1      46.134  27.123  36.343  1.00  0.00     0.200 A 
ATOM     70  F   UNL A   1      47.603  28.684  35.352  1.00  0.00    -0.200 F 
ATOM     71  F   UNL A   1      47.169  26.495  36.919  1.00  0.00    -0.200 F 
ENDBRANCH  38  61
ENDBRANCH  12  13
ENDBRANCH   5   7
ENDBRANCH   2   3
ENDBRANCH   1   2
BRANCH   1  72
ATOM     72  C   UNL A   1      31.455  30.746  26.575  1.00  0.00     0.117 C 
BRANCH  72  73
ATOM     73  N   UNL A   1      31.426  30.227  25.220  1.00  0.00    -0.356 N 
ATOM     74  C   UNL A   1      31.672  28.962  24.768  1.00  0.00     0.227 C 
ATOM     75  H   UNL A   1      31.193  30.883  24.524  1.00  0.00     0.163 HD
ATOM     76  O   UNL A   1      31.719  28.787  23.550  1.00  0.00    -0.274 OA
BRANCH  74  77
ATOM     77  C   UNL A   1      31.866  27.836  25.783  1.00  0.00     0.103 C 
ATOM     78  C   UNL A   1      33.317  27.538  26.005  1.00  0.00    -0.016 C 
ATOM     79  C   UNL A   1      31.303  26.502  25.272  1.00  0.00     0.046 C 
ATOM     80  C   UNL A   1      33.654  26.322  25.562  1.00  0.00    -0.006 C 
ATOM     81  C   UNL A   1      32.504  25.599  24.945  1.00  0.00     0.104 C 
BRANCH  81  82
ATOM     82  N   UNL A   1      32.320  24.342  25.620  1.00  0.00    -0.364 N 
ATOM     83  H   UNL A   1      32.217  24.328  26.599  1.00  0.00     0.162 HD
BRANCH  82  84
ATOM     84  C   UNL A   1      32.285  23.159  24.919  1.00  0.00     0.127 A 
ATOM     85  C   UNL A   1      31.973  23.205  23.566  1.00  0.00     0.047 A 
ATOM     86  N   UNL A   1      32.593  22.004  25.539  1.00  0.00    -0.231 NA
ATOM     87  C   UNL A   1      31.988  22.033  22.821  1.00  0.00     0.014 A 
ATOM     88  C   UNL A   1      32.560  20.857  24.834  1.00  0.00     0.073 A 
ATOM     89  C   UNL A   1      32.276  20.824  23.454  1.00  0.00     0.000 A 
ATOM     90  C   UNL A   1      32.805  19.648  25.475  1.00  0.00     0.029 A 
ATOM     91  C   UNL A   1      32.276  19.607  22.751  1.00  0.00     0.010 A 
ATOM     92  C   UNL A   1      32.786  18.431  24.786  1.00  0.00     0.002 A 
ATOM     93  C   UNL A   1      32.530  18.412  23.419  1.00  0.00     0.001 A 
ENDBRANCH  82  84
ENDBRANCH  81  82
ENDBRANCH  74  77
ENDBRANCH  72  73
ENDBRANCH   1  72
TORSDOF 12
ENDMDL
MODEL 3
REMARK VINA RESULT:     -11.7      4.397     10.502
REMARK SMILES O=C(NCCCNC(=O)[C@@H]1C=C[C@@H](Nc2ccc3ccccc3n2)C1)c1ccc(-c2c3nc(c(-c4c(F)c(F)c(F)c(F)c4F)c4ccc([nH]4)c(-c4c(F)c(F)c(F)c(F)c4F)c4nc(c(-c5c(F)c(F)c(F)c(F)c5F)c5ccc2[nH]5)C=C4)C=C3)cc1
REMARK SMILES IDX 5 1 4 2 3 3 1 4 2 5 26 7 27 8 88 9 28 10 87 11 29 12 30 13
REMARK SMILES IDX 31 14 81 15 32 16 86 17 80 18 82 19 33 20 85 21 79 22 78 23
REMARK SMILES IDX 34 25 66 26 46 27 65 28 47 29 50 30 64 31 83 32 48 33 49 34
REMARK SMILES IDX 63 36 84 37 51 38 35 39 36 40 44 41 37 42 38 43 42 44 45 45
REMARK SMILES IDX 39 46 40 47 43 48 41 49 67 50 68 51 76 52 69 53 70 54 74 55
REMARK SMILES IDX 77 56 71 57 72 58 75 59 73 60 52 61 53 62 61 63 54 64 55 65
REMARK SMILES IDX 59 66 62 67 56 68 57 69 60 70 58 71 6 72 7 73 8 74 9 76
REMARK SMILES IDX 10 77 11 78 25 79 12 80 13 81 14 82 15 84 16 85 24 86 17 87
REMARK SMILES IDX 23 88 18 89 22 90 19 91 21 92 20 93
REMARK H PARENT 3 6 82 24 50 35 7 75 14 83
REMARK Flexibility Score: inf
ROOT
ATOM      1  C   UNL A   1      31.290  32.023  26.452  1.00  0.00     0.042 C 
ENDROOT
BRANCH   1   2
ATOM      2  C   UNL A   1      32.586  32.588  27.026  1.00  0.00     0.118 C 
BRANCH   2   3
ATOM      3  N   UNL A   1      32.432  33.956  27.499  1.00  0.00    -0.352 N 
ATOM      4  O   UNL A   1      32.621  35.703  28.898  1.00  0.00    -0.269 OA
ATOM      5  C   UNL A   1      33.058  34.617  28.523  1.00  0.00     0.251 C 
ATOM      6  H   UNL A   1      31.773  34.492  27.003  1.00  0.00     0.163 HD
BRANCH   5   7
ATOM      7  C   UNL A   1      34.243  34.039  29.191  1.00  0.00     0.039 A 
ATOM      8  C   UNL A   1      34.117  33.047  30.169  1.00  0.00     0.014 A 
ATOM      9  C   UNL A   1      35.512  34.449  28.775  1.00  0.00     0.014 A 
ATOM     10  C   UNL A   1      35.250  32.551  30.809  1.00  0.00     0.010 A 
ATOM     11  C   UNL A   1      36.651  33.901  29.368  1.00  0.00     0.010 A 
ATOM     12  C   UNL A   1      36.529  32.963  30.405  1.00  0.00    -0.014 A 
BRANCH  12  13
ATOM     13  C   UNL A   1      37.741  32.378  31.029  1.00  0.00     0.031 A 
ATOM     14  C   UNL A   1      38.499  31.282  30.342  1.00  0.00     0.074 A 
ATOM     15  C   UNL A   1      38.128  32.810  32.243  1.00  0.00     0.049 A 
ATOM     16  N   UNL A   1      39.518  30.583  30.774  1.00  0.00    -0.248 NA
ATOM     17  C   UNL A   1      38.044  30.913  28.993  1.00  0.00     0.031 C 
ATOM     18  C   UNL A   1      37.464  33.863  33.011  1.00  0.00     0.029 A 
ATOM     19  N   UNL A   1      39.160  32.406  33.051  1.00  0.00    -0.354 N 
ATOM     20  C   UNL A   1      39.810  29.675  29.764  1.00  0.00     0.074 A 
ATOM     21  C   UNL A   1      38.848  29.898  28.706  1.00  0.00     0.031 C 
ATOM     22  C   UNL A   1      38.103  34.021  34.180  1.00  0.00     0.029 A 
ATOM     23  C   UNL A   1      39.185  33.047  34.264  1.00  0.00     0.049 A 
ATOM     24  H   UNL A   1      39.818  31.723  32.786  1.00  0.00     0.167 HD
ATOM     25  C   UNL A   1      40.795  28.746  29.727  1.00  0.00     0.037 A 
ATOM     26  C   UNL A   1      39.969  32.848  35.341  1.00  0.00     0.037 A 
ATOM     27  C   UNL A   1      41.757  28.542  30.780  1.00  0.00     0.049 A 
ATOM     28  C   UNL A   1      41.038  31.795  35.289  1.00  0.00     0.074 A 
ATOM     29  C   UNL A   1      42.827  27.665  30.815  1.00  0.00     0.029 A 
ATOM     30  N   UNL A   1      41.756  29.218  31.993  1.00  0.00    -0.354 N 
ATOM     31  N   UNL A   1      41.335  30.973  34.313  1.00  0.00    -0.248 NA
ATOM     32  C   UNL A   1      41.877  31.641  36.484  1.00  0.00     0.031 C 
ATOM     33  C   UNL A   1      43.443  27.774  32.066  1.00  0.00     0.029 A 
ATOM     34  C   UNL A   1      42.789  28.756  32.793  1.00  0.00     0.049 A 
ATOM     35  H   UNL A   1      41.116  29.921  32.247  1.00  0.00     0.167 HD
ATOM     36  C   UNL A   1      42.410  30.219  34.763  1.00  0.00     0.074 A 
ATOM     37  C   UNL A   1      42.714  30.684  36.101  1.00  0.00     0.031 C 
ATOM     38  C   UNL A   1      43.084  29.234  34.121  1.00  0.00     0.037 A 
BRANCH  25  39
ATOM     39  C   UNL A   1      40.864  27.859  28.518  1.00  0.00     0.064 A 
ATOM     40  C   UNL A   1      40.167  26.644  28.450  1.00  0.00     0.173 A 
ATOM     41  C   UNL A   1      41.626  28.240  27.403  1.00  0.00     0.173 A 
ATOM     42  F   UNL A   1      39.432  26.228  29.493  1.00  0.00    -0.203 F 
ATOM     43  C   UNL A   1      40.259  25.827  27.326  1.00  0.00     0.198 A 
ATOM     44  C   UNL A   1      41.693  27.435  26.269  1.00  0.00     0.198 A 
ATOM     45  F   UNL A   1      42.307  29.397  27.412  1.00  0.00    -0.203 F 
ATOM     46  F   UNL A   1      39.628  24.644  27.305  1.00  0.00    -0.200 F 
ATOM     47  C   UNL A   1      41.017  26.225  26.234  1.00  0.00     0.200 A 
ATOM     48  F   UNL A   1      42.416  27.827  25.211  1.00  0.00    -0.200 F 
ATOM     49  F   UNL A   1      41.106  25.437  25.154  1.00  0.00    -0.200 F 
ENDBRANCH  25  39
BRANCH  26  50
ATOM     50  C   UNL A   1      39.745  33.671  36.555  1.00  0.00     0.064 A 
ATOM     51  C   UNL A   1      40.326  34.938  36.686  1.00  0.00     0.173 A 
ATOM     52  C   UNL A   1      38.894  33.230  37.580  1.00  0.00     0.173 A 
ATOM     53  F   UNL A   1      41.159  35.394  35.739  1.00  0.00    -0.203 F 
ATOM     54  C   UNL A   1      40.062  35.736  37.797  1.00  0.00     0.198 A 
ATOM     55  C   UNL A   1      38.611  34.039  38.677  1.00  0.00     0.198 A 
ATOM     56  F   UNL A   1      38.308  32.026  37.496  1.00  0.00    -0.203 F 
ATOM     57  F   UNL A   1      40.644  36.938  37.908  1.00  0.00    -0.200 F 
ATOM     58  C   UNL A   1      39.198  35.291  38.786  1.00  0.00     0.200 A 
ATOM     59  F   UNL A   1      37.762  33.612  39.622  1.00  0.00    -0.200 F 
ATOM     60  F   UNL A   1      38.928  36.069  39.844  1.00  0.00    -0.200 F 
ENDBRANCH  26  50
BRANCH  38  61
ATOM     61  C   UNL A   1      44.244  28.610  34.837  1.00  0.00     0.064 A 
ATOM     62  C   UNL A   1      44.097  27.439  35.593  1.00  0.00     0.173 A 
ATOM     63  C   UNL A   1      45.531  29.152  34.703  1.00  0.00     0.173 A 
ATOM     64  F   UNL A   1      42.884  26.893  35.764  1.00  0.00    -0.203 F 
ATOM     65  C   UNL A   1      45.198  26.837  36.197  1.00  0.00     0.198 A 
ATOM     66  C   UNL A   1      46.632  28.534  35.288  1.00  0.00     0.198 A 
ATOM     67  F   UNL A   1      45.722  30.270  33.986  1.00  0.00    -0.203 F 
ATOM     68  F   UNL A   1      45.033  25.733  36.938  1.00  0.00    -0.200 F 
ATOM     69  C   UNL A   1      46.465  27.378  36.035  1.00  0.00     0.200 A 
ATOM     70  F   UNL A   1      47.857  29.052  35.120  1.00  0.00    -0.200 F 
ATOM     71  F   UNL A   1      47.526  26.787  36.603  1.00  0.00    -0.200 F 
ENDBRANCH  38  61
ENDBRANCH  12  13
ENDBRANCH   5   7
ENDBRANCH   2   3
ENDBRANCH   1   2
BRANCH   1  72
ATOM     72  C   UNL A   1      31.440  30.628  25.851  1.00  0.00     0.117 C 
BRANCH  72  73
ATOM     73  N   UNL A   1      30.629  30.472  24.658  1.00  0.00    -0.356 N 
ATOM     74  C   UNL A   1      30.639  29.476  23.724  1.00  0.00     0.227 C 
ATOM     75  H   UNL A   1      29.973  31.189  24.500  1.00  0.00     0.163 HD
ATOM     76  O   UNL A   1      29.947  29.627  22.717  1.00  0.00    -0.274 OA
BRANCH  74  77
ATOM     77  C   UNL A   1      31.493  28.233  23.974  1.00  0.00     0.103 C 
ATOM     78  C   UNL A   1      32.028  27.666  22.694  1.00  0.00    -0.016 C 
ATOM     79  C   UNL A   1      30.664  27.078  24.555  1.00  0.00     0.046 C 
ATOM     80  C   UNL A   1      31.511  26.464  22.422  1.00  0.00    -0.006 C 
ATOM     81  C   UNL A   1      30.523  26.020  23.448  1.00  0.00     0.104 C 
BRANCH  81  82
ATOM     82  N   UNL A   1      30.937  24.749  23.983  1.00  0.00    -0.364 N 
ATOM     83  H   UNL A   1      30.281  24.021  24.061  1.00  0.00     0.162 HD
BRANCH  82  84
ATOM     84  C   UNL A   1      32.236  24.539  24.384  1.00  0.00     0.127 A 
ATOM     85  C   UNL A   1      32.597  24.917  25.670  1.00  0.00     0.047 A 
ATOM     86  N   UNL A   1      33.104  23.936  23.549  1.00  0.00    -0.231 NA
ATOM     87  C   UNL A   1      33.886  24.662  26.122  1.00  0.00     0.014 A 
ATOM     88  C   UNL A   1      34.370  23.731  23.962  1.00  0.00     0.073 A 
ATOM     89  C   UNL A   1      34.806  24.066  25.259  1.00  0.00     0.000 A 
ATOM     90  C   UNL A   1      35.297  23.177  23.088  1.00  0.00     0.029 A 
ATOM     91  C   UNL A   1      36.130  23.812  25.658  1.00  0.00     0.010 A 
ATOM     92  C   UNL A   1      36.621  22.941  23.471  1.00  0.00     0.002 A 
ATOM     93  C   UNL A   1      37.036  23.252  24.761  1.00  0.00     0.001 A 
ENDBRANCH  82  84
ENDBRANCH  81  82
ENDBRANCH  74  77
ENDBRANCH  72  73
ENDBRANCH   1  72
TORSDOF 12
ENDMDL
