MODEL 1
REMARK VINA RESULT:     -12.9      0.000      0.000
REMARK SMILES Nc1c(Cl)ccc2c1C=C(C(=O)NCCCNC(=O)c1ccc(-c3c4nc(c(-c5c(F)c(F)c(F)c(F)c5F)c5ccc([nH]5)c(-c5c(F)c(F)c(F)c(F)c5F)c5nc(c(-c6c(F)c(F)c(F)c(F)c6F)c6ccc3[nH]6)C=C5)C=C4)cc1)[C@@H](C(F)(F)F)O2
REMARK SMILES IDX 15 1 14 2 13 3 11 4 12 5 10 7 2 8 3 9 8 10 4 11 5 12 7 13
REMARK SMILES IDX 9 14 6 15 88 16 83 17 1 18 84 21 85 22 86 23 87 24 16 25
REMARK SMILES IDX 17 26 18 27 19 29 20 30 21 31 82 32 22 33 81 34 23 35 24 36
REMARK SMILES IDX 25 37 75 38 26 39 80 40 74 41 76 42 27 43 79 44 73 45 72 46
REMARK SMILES IDX 28 48 60 49 40 50 59 51 41 52 44 53 58 54 77 55 42 56 43 57
REMARK SMILES IDX 57 59 78 60 45 61 29 62 30 63 38 64 31 65 32 66 36 67 39 68
REMARK SMILES IDX 33 69 34 70 37 71 35 72 61 73 62 74 70 75 63 76 64 77 68 78
REMARK SMILES IDX 71 79 65 80 66 81 69 82 67 83 46 84 47 85 55 86 48 87 49 88
REMARK SMILES IDX 53 89 56 90 50 91 51 92 54 93 52 94
REMARK H PARENT 13 6 1 19 1 20 17 28 76 47 44 58
REMARK Flexibility Score: inf
ROOT
ATOM      1  C   UNL A   1      31.308  31.808  26.514  1.00  0.00     0.042 C 
ENDROOT
BRANCH   1   2
ATOM      2  C   UNL A   1      31.521  30.540  25.699  1.00  0.00     0.118 C 
BRANCH   2   3
ATOM      3  N   UNL A   1      30.637  30.496  24.543  1.00  0.00    -0.352 N 
ATOM      4  C   UNL A   1      30.311  29.615  23.570  1.00  0.00     0.251 C 
ATOM      5  O   UNL A   1      29.508  30.040  22.734  1.00  0.00    -0.270 OA
ATOM      6  H   UNL A   1      30.138  31.338  24.443  1.00  0.00     0.163 HD
BRANCH   4   7
ATOM      7  C   UNL A   1      30.838  28.225  23.452  1.00  0.00     0.067 C 
ATOM      8  C   UNL A   1      30.359  24.973  25.221  1.00  0.00     0.061 A 
ATOM      9  C   UNL A   1      30.906  23.672  25.124  1.00  0.00     0.064 A 
ATOM     10  C   UNL A   1      30.744  25.929  24.254  1.00  0.00     0.042 A 
ATOM     11  Cl  UNL A   1      30.517  22.461  26.301  1.00  0.00    -0.082 Cl
ATOM     12  C   UNL A   1      31.755  23.310  24.077  1.00  0.00     0.026 A 
ATOM     13  C   UNL A   1      31.607  25.549  23.214  1.00  0.00     0.130 A 
ATOM     14  C   UNL A   1      30.262  27.314  24.257  1.00  0.00     0.027 C 
ATOM     15  C   UNL A   1      32.097  24.249  23.112  1.00  0.00     0.049 A 
ATOM     16  O   UNL A   1      31.993  26.404  22.218  1.00  0.00    -0.475 OA
ATOM     17  C   UNL A   1      31.958  27.818  22.543  1.00  0.00     0.314 C 
BRANCH   8  18
ATOM     18  N   UNL A   1      29.560  25.310  26.318  1.00  0.00    -0.397 N 
ATOM     19  H   UNL A   1      28.933  26.066  26.257  1.00  0.00     0.156 HD
ATOM     20  H   UNL A   1      29.624  24.790  27.152  1.00  0.00     0.156 HD
ENDBRANCH   8  18
BRANCH  17  21
ATOM     21  C   UNL A   1      33.342  28.265  23.052  1.00  0.00     0.429 C 
ATOM     22  F   UNL A   1      34.323  27.693  22.310  1.00  0.00    -0.167 F 
ATOM     23  F   UNL A   1      33.524  29.604  22.960  1.00  0.00    -0.167 F 
ATOM     24  F   UNL A   1      33.560  27.928  24.342  1.00  0.00    -0.167 F 
ENDBRANCH  17  21
ENDBRANCH   4   7
ENDBRANCH   2   3
ENDBRANCH   1   2
BRANCH   1  25
ATOM     25  C   UNL A   1      32.623  32.395  27.013  1.00  0.00     0.118 C 
BRANCH  25  26
ATOM     26  N   UNL A   1      32.472  33.796  27.395  1.00  0.00    -0.352 N 
ATOM     27  C   UNL A   1      33.059  34.484  28.426  1.00  0.00     0.251 C 
ATOM     28  H   UNL A   1      31.863  34.322  26.830  1.00  0.00     0.163 HD
ATOM     29  O   UNL A   1      32.605  35.568  28.786  1.00  0.00    -0.269 OA
BRANCH  27  30
ATOM     30  C   UNL A   1      34.242  33.920  29.099  1.00  0.00     0.039 A 
ATOM     31  C   UNL A   1      35.515  34.389  28.767  1.00  0.00     0.014 A 
ATOM     32  C   UNL A   1      34.084  32.899  30.041  1.00  0.00     0.014 A 
ATOM     33  C   UNL A   1      36.630  33.869  29.424  1.00  0.00     0.010 A 
ATOM     34  C   UNL A   1      35.185  32.436  30.746  1.00  0.00     0.010 A 
ATOM     35  C   UNL A   1      36.468  32.904  30.432  1.00  0.00    -0.014 A 
BRANCH  35  36
ATOM     36  C   UNL A   1      37.631  32.312  31.130  1.00  0.00     0.031 A 
ATOM     37  C   UNL A   1      38.397  31.204  30.464  1.00  0.00     0.074 A 
ATOM     38  C   UNL A   1      37.957  32.728  32.368  1.00  0.00     0.049 A 
ATOM     39  N   UNL A   1      39.386  30.486  30.930  1.00  0.00    -0.248 NA
ATOM     40  C   UNL A   1      37.981  30.839  29.099  1.00  0.00     0.031 C 
ATOM     41  C   UNL A   1      37.270  33.780  33.115  1.00  0.00     0.029 A 
ATOM     42  N   UNL A   1      38.948  32.308  33.217  1.00  0.00    -0.354 N 
ATOM     43  C   UNL A   1      39.708  29.593  29.917  1.00  0.00     0.074 A 
ATOM     44  C   UNL A   1      38.770  29.810  28.838  1.00  0.00     0.031 C 
ATOM     45  C   UNL A   1      37.875  33.942  34.304  1.00  0.00     0.029 A 
ATOM     46  C   UNL A   1      38.969  32.981  34.414  1.00  0.00     0.049 A 
ATOM     47  H   UNL A   1      39.585  31.592  32.991  1.00  0.00     0.167 HD
ATOM     48  C   UNL A   1      40.720  28.696  29.878  1.00  0.00     0.037 A 
ATOM     49  C   UNL A   1      39.782  32.831  35.478  1.00  0.00     0.037 A 
ATOM     50  C   UNL A   1      41.662  28.499  30.945  1.00  0.00     0.049 A 
ATOM     51  C   UNL A   1      40.868  31.788  35.425  1.00  0.00     0.074 A 
ATOM     52  C   UNL A   1      42.736  27.629  30.997  1.00  0.00     0.029 A 
ATOM     53  N   UNL A   1      41.645  29.194  32.146  1.00  0.00    -0.354 N 
ATOM     54  N   UNL A   1      41.187  30.975  34.449  1.00  0.00    -0.248 NA
ATOM     55  C   UNL A   1      41.708  31.645  36.623  1.00  0.00     0.031 C 
ATOM     56  C   UNL A   1      43.351  27.774  32.244  1.00  0.00     0.029 A 
ATOM     57  C   UNL A   1      42.685  28.764  32.951  1.00  0.00     0.049 A 
ATOM     58  H   UNL A   1      40.992  29.889  32.389  1.00  0.00     0.167 HD
ATOM     59  C   UNL A   1      42.281  30.248  34.899  1.00  0.00     0.074 A 
ATOM     60  C   UNL A   1      42.579  30.725  36.233  1.00  0.00     0.031 C 
ATOM     61  C   UNL A   1      42.976  29.271  34.266  1.00  0.00     0.037 A 
BRANCH  48  62
ATOM     62  C   UNL A   1      40.885  27.883  28.629  1.00  0.00     0.064 A 
ATOM     63  C   UNL A   1      40.214  26.661  28.468  1.00  0.00     0.173 A 
ATOM     64  C   UNL A   1      41.658  28.357  27.560  1.00  0.00     0.173 A 
ATOM     65  F   UNL A   1      39.476  26.159  29.468  1.00  0.00    -0.203 F 
ATOM     66  C   UNL A   1      40.319  25.938  27.282  1.00  0.00     0.198 A 
ATOM     67  C   UNL A   1      41.740  27.645  26.367  1.00  0.00     0.198 A 
ATOM     68  F   UNL A   1      42.317  29.520  27.665  1.00  0.00    -0.203 F 
ATOM     69  F   UNL A   1      39.693  24.760  27.162  1.00  0.00    -0.200 F 
ATOM     70  C   UNL A   1      41.072  26.436  26.230  1.00  0.00     0.200 A 
ATOM     71  F   UNL A   1      42.458  28.130  25.346  1.00  0.00    -0.200 F 
ATOM     72  F   UNL A   1      41.156  25.749  25.083  1.00  0.00    -0.200 F 
ENDBRANCH  48  62
BRANCH  49  73
ATOM     73  C   UNL A   1      39.631  33.710  36.666  1.00  0.00     0.064 A 
ATOM     74  C   UNL A   1      38.842  33.309  37.755  1.00  0.00     0.173 A 
ATOM     75  C   UNL A   1      40.249  34.966  36.738  1.00  0.00     0.173 A 
ATOM     76  F   UNL A   1      38.213  32.124  37.724  1.00  0.00    -0.203 F 
ATOM     77  C   UNL A   1      38.660  34.140  38.858  1.00  0.00     0.198 A 
ATOM     78  C   UNL A   1      40.088  35.785  37.854  1.00  0.00     0.198 A 
ATOM     79  F   UNL A   1      41.017  35.396  35.725  1.00  0.00    -0.203 F 
ATOM     80  F   UNL A   1      37.863  33.750  39.863  1.00  0.00    -0.200 F 
ATOM     81  C   UNL A   1      39.287  35.375  38.909  1.00  0.00     0.200 A 
ATOM     82  F   UNL A   1      40.705  36.973  37.906  1.00  0.00    -0.200 F 
ATOM     83  F   UNL A   1      39.112  36.174  39.970  1.00  0.00    -0.200 F 
ENDBRANCH  49  73
BRANCH  61  84
ATOM     84  C   UNL A   1      44.147  28.673  34.987  1.00  0.00     0.064 A 
ATOM     85  C   UNL A   1      44.010  27.521  35.774  1.00  0.00     0.173 A 
ATOM     86  C   UNL A   1      45.431  29.210  34.819  1.00  0.00     0.173 A 
ATOM     87  F   UNL A   1      42.799  26.979  35.973  1.00  0.00    -0.203 F 
ATOM     88  C   UNL A   1      45.118  26.935  36.378  1.00  0.00     0.198 A 
ATOM     89  C   UNL A   1      46.541  28.604  35.400  1.00  0.00     0.198 A 
ATOM     90  F   UNL A   1      45.614  30.306  34.067  1.00  0.00    -0.203 F 
ATOM     91  F   UNL A   1      44.962  25.851  37.151  1.00  0.00    -0.200 F 
ATOM     92  C   UNL A   1      46.383  27.470  36.181  1.00  0.00     0.200 A 
ATOM     93  F   UNL A   1      47.764  29.112  35.195  1.00  0.00    -0.200 F 
ATOM     94  F   UNL A   1      47.451  26.891  36.747  1.00  0.00    -0.200 F 
ENDBRANCH  61  84
ENDBRANCH  35  36
ENDBRANCH  27  30
ENDBRANCH  25  26
ENDBRANCH   1  25
TORSDOF 12
ENDMDL
MODEL 2
REMARK VINA RESULT:     -12.9      1.122      2.014
REMARK SMILES Nc1c(Cl)ccc2c1C=C(C(=O)NCCCNC(=O)c1ccc(-c3c4nc(c(-c5c(F)c(F)c(F)c(F)c5F)c5ccc([nH]5)c(-c5c(F)c(F)c(F)c(F)c5F)c5nc(c(-c6c(F)c(F)c(F)c(F)c6F)c6ccc3[nH]6)C=C5)C=C4)cc1)[C@@H](C(F)(F)F)O2
REMARK SMILES IDX 15 1 14 2 13 3 11 4 12 5 10 7 2 8 3 9 8 10 4 11 5 12 7 13
REMARK SMILES IDX 9 14 6 15 88 16 83 17 1 18 84 21 85 22 86 23 87 24 16 25
REMARK SMILES IDX 17 26 18 27 19 29 20 30 21 31 82 32 22 33 81 34 23 35 24 36
REMARK SMILES IDX 25 37 75 38 26 39 80 40 74 41 76 42 27 43 79 44 73 45 72 46
REMARK SMILES IDX 28 48 60 49 40 50 59 51 41 52 44 53 58 54 77 55 42 56 43 57
REMARK SMILES IDX 57 59 78 60 45 61 29 62 30 63 38 64 31 65 32 66 36 67 39 68
REMARK SMILES IDX 33 69 34 70 37 71 35 72 61 73 62 74 70 75 63 76 64 77 68 78
REMARK SMILES IDX 71 79 65 80 66 81 69 82 67 83 46 84 47 85 55 86 48 87 49 88
REMARK SMILES IDX 53 89 56 90 50 91 51 92 54 93 52 94
REMARK H PARENT 13 6 1 19 1 20 17 28 76 47 44 58
REMARK Flexibility Score: inf
ROOT
ATOM      1  C   UNL A   1      31.295  32.350  26.530  1.00  0.00     0.042 C 
ENDROOT
BRANCH   1   2
ATOM      2  C   UNL A   1      31.295  30.834  26.392  1.00  0.00     0.118 C 
BRANCH   2   3
ATOM      3  N   UNL A   1      31.232  30.425  24.997  1.00  0.00    -0.352 N 
ATOM      4  C   UNL A   1      31.489  29.314  24.271  1.00  0.00     0.251 C 
ATOM      5  O   UNL A   1      31.327  29.442  23.053  1.00  0.00    -0.270 OA
ATOM      6  H   UNL A   1      30.915  31.160  24.424  1.00  0.00     0.163 HD
BRANCH   4   7
ATOM      7  C   UNL A   1      31.932  28.003  24.826  1.00  0.00     0.067 C 
ATOM      8  C   UNL A   1      30.304  24.923  26.168  1.00  0.00     0.061 A 
ATOM      9  C   UNL A   1      30.745  23.705  26.735  1.00  0.00     0.064 A 
ATOM     10  C   UNL A   1      31.281  25.813  25.667  1.00  0.00     0.042 A 
ATOM     11  Cl  UNL A   1      29.608  22.586  27.413  1.00  0.00    -0.082 Cl
ATOM     12  C   UNL A   1      32.095  23.351  26.755  1.00  0.00     0.026 A 
ATOM     13  C   UNL A   1      32.635  25.445  25.704  1.00  0.00     0.130 A 
ATOM     14  C   UNL A   1      30.953  27.113  25.072  1.00  0.00     0.027 C 
ATOM     15  C   UNL A   1      33.041  24.220  26.227  1.00  0.00     0.049 A 
ATOM     16  O   UNL A   1      33.634  26.232  25.203  1.00  0.00    -0.475 OA
ATOM     17  C   UNL A   1      33.356  27.656  25.143  1.00  0.00     0.314 C 
BRANCH   8  18
ATOM     18  N   UNL A   1      28.949  25.265  26.222  1.00  0.00    -0.397 N 
ATOM     19  H   UNL A   1      28.365  24.856  26.901  1.00  0.00     0.156 HD
ATOM     20  H   UNL A   1      28.579  25.914  25.581  1.00  0.00     0.156 HD
ENDBRANCH   8  18
BRANCH  17  21
ATOM     21  C   UNL A   1      33.870  28.337  26.426  1.00  0.00     0.429 C 
ATOM     22  F   UNL A   1      35.027  27.755  26.835  1.00  0.00    -0.167 F 
ATOM     23  F   UNL A   1      34.148  29.650  26.244  1.00  0.00    -0.167 F 
ATOM     24  F   UNL A   1      32.993  28.259  27.450  1.00  0.00    -0.167 F 
ENDBRANCH  17  21
ENDBRANCH   4   7
ENDBRANCH   2   3
ENDBRANCH   1   2
BRANCH   1  25
ATOM     25  C   UNL A   1      32.580  32.866  27.165  1.00  0.00     0.118 C 
BRANCH  25  26
ATOM     26  N   UNL A   1      32.445  34.257  27.589  1.00  0.00    -0.352 N 
ATOM     27  C   UNL A   1      33.026  34.903  28.650  1.00  0.00     0.251 C 
ATOM     28  H   UNL A   1      31.852  34.811  27.032  1.00  0.00     0.163 HD
ATOM     29  O   UNL A   1      32.583  35.982  29.038  1.00  0.00    -0.269 OA
BRANCH  27  30
ATOM     30  C   UNL A   1      34.190  34.299  29.322  1.00  0.00     0.039 A 
ATOM     31  C   UNL A   1      35.476  34.562  28.846  1.00  0.00     0.014 A 
ATOM     32  C   UNL A   1      33.996  33.444  30.411  1.00  0.00     0.014 A 
ATOM     33  C   UNL A   1      36.577  34.007  29.500  1.00  0.00     0.010 A 
ATOM     34  C   UNL A   1      35.092  32.954  31.105  1.00  0.00     0.010 A 
ATOM     35  C   UNL A   1      36.390  33.217  30.646  1.00  0.00    -0.014 A 
BRANCH  35  36
ATOM     36  C   UNL A   1      37.533  32.592  31.348  1.00  0.00     0.031 A 
ATOM     37  C   UNL A   1      38.259  31.452  30.691  1.00  0.00     0.074 A 
ATOM     38  C   UNL A   1      37.875  33.008  32.581  1.00  0.00     0.049 A 
ATOM     39  N   UNL A   1      39.223  30.704  31.163  1.00  0.00    -0.248 NA
ATOM     40  C   UNL A   1      37.828  31.088  29.330  1.00  0.00     0.031 C 
ATOM     41  C   UNL A   1      37.226  34.091  33.319  1.00  0.00     0.029 A 
ATOM     42  N   UNL A   1      38.853  32.562  33.434  1.00  0.00    -0.354 N 
ATOM     43  C   UNL A   1      39.513  29.791  30.158  1.00  0.00     0.074 A 
ATOM     44  C   UNL A   1      38.581  30.030  29.078  1.00  0.00     0.031 C 
ATOM     45  C   UNL A   1      37.839  34.242  34.506  1.00  0.00     0.029 A 
ATOM     46  C   UNL A   1      38.899  33.245  34.624  1.00  0.00     0.049 A 
ATOM     47  H   UNL A   1      39.463  31.822  33.213  1.00  0.00     0.167 HD
ATOM     48  C   UNL A   1      40.493  28.859  30.126  1.00  0.00     0.037 A 
ATOM     49  C   UNL A   1      39.708  33.077  35.688  1.00  0.00     0.037 A 
ATOM     50  C   UNL A   1      41.429  28.640  31.194  1.00  0.00     0.049 A 
ATOM     51  C   UNL A   1      40.757  31.997  35.643  1.00  0.00     0.074 A 
ATOM     52  C   UNL A   1      42.472  27.734  31.254  1.00  0.00     0.029 A 
ATOM     53  N   UNL A   1      41.438  29.346  32.388  1.00  0.00    -0.354 N 
ATOM     54  N   UNL A   1      41.046  31.164  34.675  1.00  0.00    -0.248 NA
ATOM     55  C   UNL A   1      41.593  31.837  36.842  1.00  0.00     0.031 C 
ATOM     56  C   UNL A   1      43.094  27.869  32.498  1.00  0.00     0.029 A 
ATOM     57  C   UNL A   1      42.464  28.888  33.197  1.00  0.00     0.049 A 
ATOM     58  H   UNL A   1      40.810  30.066  32.625  1.00  0.00     0.167 HD
ATOM     59  C   UNL A   1      42.115  30.404  35.131  1.00  0.00     0.074 A 
ATOM     60  C   UNL A   1      42.432  30.883  36.459  1.00  0.00     0.031 C 
ATOM     61  C   UNL A   1      42.774  29.397  34.506  1.00  0.00     0.037 A 
BRANCH  48  62
ATOM     62  C   UNL A   1      40.627  28.029  28.886  1.00  0.00     0.064 A 
ATOM     63  C   UNL A   1      39.909  26.833  28.734  1.00  0.00     0.173 A 
ATOM     64  C   UNL A   1      41.420  28.462  27.813  1.00  0.00     0.173 A 
ATOM     65  F   UNL A   1      39.150  26.369  29.737  1.00  0.00    -0.203 F 
ATOM     66  C   UNL A   1      39.987  26.096  27.555  1.00  0.00     0.198 A 
ATOM     67  C   UNL A   1      41.475  27.736  26.627  1.00  0.00     0.198 A 
ATOM     68  F   UNL A   1      42.125  29.599  27.910  1.00  0.00    -0.203 F 
ATOM     69  F   UNL A   1      39.315  24.942  27.444  1.00  0.00    -0.200 F 
ATOM     70  C   UNL A   1      40.761  26.554  26.500  1.00  0.00     0.200 A 
ATOM     71  F   UNL A   1      42.214  28.184  25.603  1.00  0.00    -0.200 F 
ATOM     72  F   UNL A   1      40.819  25.854  25.359  1.00  0.00    -0.200 F 
ENDBRANCH  48  62
BRANCH  49  73
ATOM     73  C   UNL A   1      39.590  33.972  36.868  1.00  0.00     0.064 A 
ATOM     74  C   UNL A   1      40.269  35.200  36.903  1.00  0.00     0.173 A 
ATOM     75  C   UNL A   1      38.818  33.623  37.985  1.00  0.00     0.173 A 
ATOM     76  F   UNL A   1      41.036  35.569  35.867  1.00  0.00    -0.203 F 
ATOM     77  C   UNL A   1      40.198  36.030  38.019  1.00  0.00     0.198 A 
ATOM     78  C   UNL A   1      38.727  34.468  39.090  1.00  0.00     0.198 A 
ATOM     79  F   UNL A   1      38.146  32.462  38.000  1.00  0.00    -0.203 F 
ATOM     80  F   UNL A   1      40.895  37.175  38.044  1.00  0.00    -0.200 F 
ATOM     81  C   UNL A   1      39.423  35.666  39.109  1.00  0.00     0.200 A 
ATOM     82  F   UNL A   1      37.968  34.118  40.137  1.00  0.00    -0.200 F 
ATOM     83  F   UNL A   1      39.356  36.466  40.183  1.00  0.00    -0.200 F 
ENDBRANCH  49  73
BRANCH  61  84
ATOM     84  C   UNL A   1      43.925  28.766  35.231  1.00  0.00     0.064 A 
ATOM     85  C   UNL A   1      45.232  29.251  35.093  1.00  0.00     0.173 A 
ATOM     86  C   UNL A   1      43.701  27.719  36.138  1.00  0.00     0.173 A 
ATOM     87  F   UNL A   1      45.496  30.243  34.228  1.00  0.00    -0.203 F 
ATOM     88  C   UNL A   1      46.278  28.702  35.828  1.00  0.00     0.198 A 
ATOM     89  C   UNL A   1      44.744  27.192  36.893  1.00  0.00     0.198 A 
ATOM     90  F   UNL A   1      42.465  27.227  36.312  1.00  0.00    -0.203 F 
ATOM     91  F   UNL A   1      47.526  29.161  35.658  1.00  0.00    -0.200 F 
ATOM     92  C   UNL A   1      46.032  27.682  36.735  1.00  0.00     0.200 A 
ATOM     93  F   UNL A   1      44.502  26.218  37.781  1.00  0.00    -0.200 F 
ATOM     94  F   UNL A   1      47.038  27.169  37.457  1.00  0.00    -0.200 F 
ENDBRANCH  61  84
ENDBRANCH  35  36
ENDBRANCH  27  30
ENDBRANCH  25  26
ENDBRANCH   1  25
TORSDOF 12
ENDMDL
MODEL 3
REMARK VINA RESULT:     -12.8      3.297      8.615
REMARK SMILES Nc1c(Cl)ccc2c1C=C(C(=O)NCCCNC(=O)c1ccc(-c3c4nc(c(-c5c(F)c(F)c(F)c(F)c5F)c5ccc([nH]5)c(-c5c(F)c(F)c(F)c(F)c5F)c5nc(c(-c6c(F)c(F)c(F)c(F)c6F)c6ccc3[nH]6)C=C5)C=C4)cc1)[C@@H](C(F)(F)F)O2
REMARK SMILES IDX 15 1 14 2 13 3 11 4 12 5 10 7 2 8 3 9 8 10 4 11 5 12 7 13
REMARK SMILES IDX 9 14 6 15 88 16 83 17 1 18 84 21 85 22 86 23 87 24 16 25
REMARK SMILES IDX 17 26 18 27 19 29 20 30 21 31 82 32 22 33 81 34 23 35 24 36
REMARK SMILES IDX 25 37 75 38 26 39 80 40 74 41 76 42 27 43 79 44 73 45 72 46
REMARK SMILES IDX 28 48 60 49 40 50 59 51 41 52 44 53 58 54 77 55 42 56 43 57
REMARK SMILES IDX 57 59 78 60 45 61 29 62 30 63 38 64 31 65 32 66 36 67 39 68
REMARK SMILES IDX 33 69 34 70 37 71 35 72 61 73 62 74 70 75 63 76 64 77 68 78
REMARK SMILES IDX 71 79 65 80 66 81 69 82 67 83 46 84 47 85 55 86 48 87 49 88
REMARK SMILES IDX 53 89 56 90 50 91 51 92 54 93 52 94
REMARK H PARENT 13 6 1 19 1 20 17 28 76 47 44 58
REMARK Flexibility Score: inf
ROOT
ATOM      1  C   UNL A   1      33.701  27.680  25.577  1.00  0.00     0.042 C 
ENDROOT
BRANCH   1   2
ATOM      2  C   UNL A   1      33.745  26.158  25.609  1.00  0.00     0.118 C 
BRANCH   2   3
ATOM      3  N   UNL A   1      33.582  25.592  24.278  1.00  0.00    -0.352 N 
ATOM      4  C   UNL A   1      32.612  25.516  23.339  1.00  0.00     0.251 C 
ATOM      5  O   UNL A   1      32.917  24.872  22.330  1.00  0.00    -0.270 OA
ATOM      6  H   UNL A   1      34.404  25.142  23.978  1.00  0.00     0.163 HD
BRANCH   4   7
ATOM      7  C   UNL A   1      31.260  26.136  23.442  1.00  0.00     0.067 C 
ATOM      8  C   UNL A   1      29.638  29.324  22.374  1.00  0.00     0.061 A 
ATOM      9  C   UNL A   1      28.362  29.915  22.523  1.00  0.00     0.064 A 
ATOM     10  C   UNL A   1      29.818  28.005  22.850  1.00  0.00     0.042 A 
ATOM     11  Cl  UNL A   1      28.079  31.545  22.005  1.00  0.00    -0.082 Cl
ATOM     12  C   UNL A   1      27.286  29.212  23.069  1.00  0.00     0.026 A 
ATOM     13  C   UNL A   1      28.728  27.317  23.406  1.00  0.00     0.130 A 
ATOM     14  C   UNL A   1      31.096  27.290  22.771  1.00  0.00     0.027 C 
ATOM     15  C   UNL A   1      27.468  27.904  23.501  1.00  0.00     0.049 A 
ATOM     16  O   UNL A   1      28.811  26.027  23.851  1.00  0.00    -0.475 OA
ATOM     17  C   UNL A   1      30.131  25.575  24.254  1.00  0.00     0.314 C 
BRANCH   8  18
ATOM     18  N   UNL A   1      30.701  30.083  21.876  1.00  0.00    -0.397 N 
ATOM     19  H   UNL A   1      31.364  30.466  22.495  1.00  0.00     0.156 HD
ATOM     20  H   UNL A   1      30.787  30.234  20.907  1.00  0.00     0.156 HD
ENDBRANCH   8  18
BRANCH  17  21
ATOM     21  C   UNL A   1      30.312  25.794  25.769  1.00  0.00     0.429 C 
ATOM     22  F   UNL A   1      29.142  25.566  26.419  1.00  0.00    -0.167 F 
ATOM     23  F   UNL A   1      31.220  24.950  26.313  1.00  0.00    -0.167 F 
ATOM     24  F   UNL A   1      30.708  27.048  26.074  1.00  0.00    -0.167 F 
ENDBRANCH  17  21
ENDBRANCH   4   7
ENDBRANCH   2   3
ENDBRANCH   1   2
BRANCH   1  25
ATOM     25  C   UNL A   1      33.611  28.279  26.976  1.00  0.00     0.118 C 
BRANCH  25  26
ATOM     26  N   UNL A   1      33.592  29.738  26.931  1.00  0.00    -0.352 N 
ATOM     27  C   UNL A   1      34.431  30.637  27.538  1.00  0.00     0.251 C 
ATOM     28  H   UNL A   1      32.874  30.133  26.387  1.00  0.00     0.163 HD
ATOM     29  O   UNL A   1      34.105  31.818  27.642  1.00  0.00    -0.269 OA
BRANCH  27  30
ATOM     30  C   UNL A   1      35.730  30.182  28.064  1.00  0.00     0.039 A 
ATOM     31  C   UNL A   1      35.821  29.729  29.382  1.00  0.00     0.014 A 
ATOM     32  C   UNL A   1      36.866  30.235  27.251  1.00  0.00     0.014 A 
ATOM     33  C   UNL A   1      37.047  29.277  29.869  1.00  0.00     0.010 A 
ATOM     34  C   UNL A   1      38.067  29.716  27.711  1.00  0.00     0.010 A 
ATOM     35  C   UNL A   1      38.172  29.248  29.028  1.00  0.00    -0.014 A 
BRANCH  35  36
ATOM     36  C   UNL A   1      39.494  28.800  29.519  1.00  0.00     0.031 A 
ATOM     37  C   UNL A   1      40.216  29.634  30.539  1.00  0.00     0.074 A 
ATOM     38  C   UNL A   1      40.059  27.688  29.013  1.00  0.00     0.049 A 
ATOM     39  N   UNL A   1      41.416  29.477  31.037  1.00  0.00    -0.248 NA
ATOM     40  C   UNL A   1      39.503  30.817  31.052  1.00  0.00     0.031 C 
ATOM     41  C   UNL A   1      39.456  26.816  28.006  1.00  0.00     0.029 A 
ATOM     42  N   UNL A   1      41.273  27.107  29.275  1.00  0.00    -0.354 N 
ATOM     43  C   UNL A   1      41.595  30.535  31.918  1.00  0.00     0.074 A 
ATOM     44  C   UNL A   1      40.414  31.365  31.841  1.00  0.00     0.031 C 
ATOM     45  C   UNL A   1      40.292  25.795  27.752  1.00  0.00     0.029 A 
ATOM     46  C   UNL A   1      41.502  25.962  28.552  1.00  0.00     0.049 A 
ATOM     47  H   UNL A   1      41.919  27.474  29.920  1.00  0.00     0.167 HD
ATOM     48  C   UNL A   1      42.640  30.771  32.745  1.00  0.00     0.037 A 
ATOM     49  C   UNL A   1      42.573  25.145  28.541  1.00  0.00     0.037 A 
ATOM     50  C   UNL A   1      43.802  29.931  32.833  1.00  0.00     0.049 A 
ATOM     51  C   UNL A   1      43.743  25.462  29.435  1.00  0.00     0.074 A 
ATOM     52  C   UNL A   1      44.907  30.072  33.653  1.00  0.00     0.029 A 
ATOM     53  N   UNL A   1      44.002  28.784  32.078  1.00  0.00    -0.354 N 
ATOM     54  N   UNL A   1      43.887  26.443  30.291  1.00  0.00    -0.248 NA
ATOM     55  C   UNL A   1      44.898  24.556  29.362  1.00  0.00     0.031 C 
ATOM     56  C   UNL A   1      45.792  29.027  33.371  1.00  0.00     0.029 A 
ATOM     57  C   UNL A   1      45.219  28.213  32.405  1.00  0.00     0.049 A 
ATOM     58  H   UNL A   1      43.372  28.430  31.410  1.00  0.00     0.167 HD
ATOM     59  C   UNL A   1      45.130  26.256  30.882  1.00  0.00     0.074 A 
ATOM     60  C   UNL A   1      45.695  25.060  30.294  1.00  0.00     0.031 C 
ATOM     61  C   UNL A   1      45.749  27.008  31.824  1.00  0.00     0.037 A 
BRANCH  48  62
ATOM     62  C   UNL A   1      42.560  31.965  33.647  1.00  0.00     0.064 A 
ATOM     63  C   UNL A   1      43.015  33.223  33.224  1.00  0.00     0.173 A 
ATOM     64  C   UNL A   1      41.961  31.872  34.912  1.00  0.00     0.173 A 
ATOM     65  F   UNL A   1      43.609  33.359  32.030  1.00  0.00    -0.203 F 
ATOM     66  C   UNL A   1      42.883  34.344  34.040  1.00  0.00     0.198 A 
ATOM     67  C   UNL A   1      41.807  33.000  35.714  1.00  0.00     0.198 A 
ATOM     68  F   UNL A   1      41.509  30.693  35.361  1.00  0.00    -0.203 F 
ATOM     69  F   UNL A   1      43.352  35.529  33.626  1.00  0.00    -0.200 F 
ATOM     70  C   UNL A   1      42.269  34.233  35.278  1.00  0.00     0.200 A 
ATOM     71  F   UNL A   1      41.204  32.896  36.905  1.00  0.00    -0.200 F 
ATOM     72  F   UNL A   1      42.124  35.317  36.053  1.00  0.00    -0.200 F 
ENDBRANCH  48  62
BRANCH  49  73
ATOM     73  C   UNL A   1      42.579  23.929  27.686  1.00  0.00     0.064 A 
ATOM     74  C   UNL A   1      42.236  22.679  28.222  1.00  0.00     0.173 A 
ATOM     75  C   UNL A   1      42.940  23.980  26.332  1.00  0.00     0.173 A 
ATOM     76  F   UNL A   1      41.903  22.575  29.517  1.00  0.00    -0.203 F 
ATOM     77  C   UNL A   1      42.275  21.525  27.442  1.00  0.00     0.198 A 
ATOM     78  C   UNL A   1      42.953  22.829  25.547  1.00  0.00     0.198 A 
ATOM     79  F   UNL A   1      43.273  25.152  25.770  1.00  0.00    -0.203 F 
ATOM     80  F   UNL A   1      41.987  20.337  27.994  1.00  0.00    -0.200 F 
ATOM     81  C   UNL A   1      42.629  21.602  26.104  1.00  0.00     0.200 A 
ATOM     82  F   UNL A   1      43.283  22.909  24.251  1.00  0.00    -0.200 F 
ATOM     83  F   UNL A   1      42.666  20.492  25.355  1.00  0.00    -0.200 F 
ENDBRANCH  49  73
BRANCH  61  84
ATOM     84  C   UNL A   1      47.092  26.548  32.307  1.00  0.00     0.064 A 
ATOM     85  C   UNL A   1      47.215  25.569  33.302  1.00  0.00     0.173 A 
ATOM     86  C   UNL A   1      48.264  27.033  31.708  1.00  0.00     0.173 A 
ATOM     87  F   UNL A   1      46.123  25.086  33.913  1.00  0.00    -0.203 F 
ATOM     88  C   UNL A   1      48.467  25.099  33.689  1.00  0.00     0.198 A 
ATOM     89  C   UNL A   1      49.512  26.539  32.076  1.00  0.00     0.198 A 
ATOM     90  F   UNL A   1      48.197  27.964  30.744  1.00  0.00    -0.203 F 
ATOM     91  F   UNL A   1      48.564  24.184  34.664  1.00  0.00    -0.200 F 
ATOM     92  C   UNL A   1      49.612  25.576  33.068  1.00  0.00     0.200 A 
ATOM     93  F   UNL A   1      50.616  26.988  31.464  1.00  0.00    -0.200 F 
ATOM     94  F   UNL A   1      50.814  25.106  33.428  1.00  0.00    -0.200 F 
ENDBRANCH  61  84
ENDBRANCH  35  36
ENDBRANCH  27  30
ENDBRANCH  25  26
ENDBRANCH   1  25
TORSDOF 12
ENDMDL
