MODEL 1
REMARK VINA RESULT:     -13.9      0.000      0.000
REMARK SMILES O=C(NCCCNC(=O)c1cc(Cl)cc(Cl)c1NC(=S)NC(=O)c1cccc2ccccc12)c1ccc(-c2c3nc(c(-c4c(F)c(F)c(F)c(F)c4F)c4ccc([nH]4)c(-c4c(F)c(F)c(F)c(F)c4F)c4nc(c(-c5c(F)c(F)c(F)c(F)c5F)c5ccc2[nH]5)C=C4)C=C3)cc1
REMARK SMILES IDX 6 1 5 2 4 3 3 4 1 5 2 6 34 8 35 9 96 10 36 11 95 12 37 13
REMARK SMILES IDX 38 14 39 15 89 16 40 17 94 18 88 19 90 20 41 21 93 22 87 23
REMARK SMILES IDX 86 24 42 26 74 27 54 28 73 29 55 30 58 31 72 32 91 33 56 34
REMARK SMILES IDX 57 35 71 37 92 38 59 39 43 40 44 41 52 42 45 43 46 44 50 45
REMARK SMILES IDX 53 46 47 47 48 48 51 49 49 50 75 51 76 52 84 53 77 54 78 55
REMARK SMILES IDX 82 56 85 57 79 58 80 59 83 60 81 61 60 62 61 63 69 64 62 65
REMARK SMILES IDX 63 66 67 67 70 68 64 69 65 70 68 71 66 72 7 73 8 74 9 76
REMARK SMILES IDX 10 77 11 78 17 79 12 80 15 81 13 82 14 83 16 84 18 85 19 87
REMARK SMILES IDX 20 88 21 89 22 90 23 92 24 93 25 94 33 95 26 96 28 97 32 98
REMARK SMILES IDX 27 99 29 100 31 101 30 102
REMARK H PARENT 3 7 90 25 58 36 7 75 18 86 21 91
REMARK Flexibility Score: inf
ROOT
ATOM      1  C   UNL A   1      33.737  28.831  25.476  1.00  0.00     0.118 C 
ENDROOT
BRANCH   1   2
ATOM      2  C   UNL A   1      32.666  29.916  25.447  1.00  0.00     0.042 C 
BRANCH   2   3
ATOM      3  C   UNL A   1      32.300  30.488  26.814  1.00  0.00     0.118 C 
BRANCH   3   4
ATOM      4  N   UNL A   1      32.449  31.935  26.881  1.00  0.00    -0.352 N 
ATOM      5  O   UNL A   1      33.128  33.936  27.627  1.00  0.00    -0.269 OA
ATOM      6  C   UNL A   1      33.334  32.726  27.568  1.00  0.00     0.251 C 
ATOM      7  H   UNL A   1      31.799  32.433  26.334  1.00  0.00     0.163 HD
BRANCH   6   8
ATOM      8  C   UNL A   1      34.517  32.157  28.252  1.00  0.00     0.039 A 
ATOM      9  C   UNL A   1      34.588  30.808  28.603  1.00  0.00     0.014 A 
ATOM     10  C   UNL A   1      35.623  32.988  28.475  1.00  0.00     0.014 A 
ATOM     11  C   UNL A   1      35.700  30.322  29.288  1.00  0.00     0.010 A 
ATOM     12  C   UNL A   1      36.767  32.484  29.101  1.00  0.00     0.010 A 
ATOM     13  C   UNL A   1      36.801  31.153  29.542  1.00  0.00    -0.014 A 
BRANCH  13  14
ATOM     14  C   UNL A   1      37.991  30.609  30.242  1.00  0.00     0.031 A 
ATOM     15  C   UNL A   1      38.261  30.950  31.680  1.00  0.00     0.074 A 
ATOM     16  C   UNL A   1      38.829  29.788  29.580  1.00  0.00     0.049 A 
ATOM     17  N   UNL A   1      39.251  30.568  32.447  1.00  0.00    -0.248 NA
ATOM     18  C   UNL A   1      37.299  31.844  32.343  1.00  0.00     0.031 C 
ATOM     19  C   UNL A   1      38.694  29.401  28.176  1.00  0.00     0.029 A 
ATOM     20  N   UNL A   1      39.952  29.124  30.004  1.00  0.00    -0.354 N 
ATOM     21  C   UNL A   1      39.054  31.202  33.666  1.00  0.00     0.074 A 
ATOM     22  C   UNL A   1      37.850  31.995  33.540  1.00  0.00     0.031 C 
ATOM     23  C   UNL A   1      39.673  28.538  27.864  1.00  0.00     0.029 A 
ATOM     24  C   UNL A   1      40.522  28.338  29.035  1.00  0.00     0.049 A 
ATOM     25  H   UNL A   1      40.314  29.203  30.917  1.00  0.00     0.167 HD
ATOM     26  C   UNL A   1      39.807  31.126  34.789  1.00  0.00     0.037 A 
ATOM     27  C   UNL A   1      41.610  27.549  29.080  1.00  0.00     0.037 A 
ATOM     28  C   UNL A   1      40.974  30.299  34.938  1.00  0.00     0.049 A 
ATOM     29  C   UNL A   1      42.400  27.445  30.350  1.00  0.00     0.074 A 
ATOM     30  C   UNL A   1      41.759  30.107  36.063  1.00  0.00     0.029 A 
ATOM     31  N   UNL A   1      41.521  29.520  33.931  1.00  0.00    -0.354 N 
ATOM     32  N   UNL A   1      42.189  28.033  31.501  1.00  0.00    -0.248 NA
ATOM     33  C   UNL A   1      43.586  26.577  30.324  1.00  0.00     0.031 C 
ATOM     34  C   UNL A   1      42.792  29.223  35.730  1.00  0.00     0.029 A 
ATOM     35  C   UNL A   1      42.641  28.856  34.403  1.00  0.00     0.049 A 
ATOM     36  H   UNL A   1      41.166  29.450  33.015  1.00  0.00     0.167 HD
ATOM     37  C   UNL A   1      43.216  27.617  32.334  1.00  0.00     0.074 A 
ATOM     38  C   UNL A   1      44.040  26.709  31.564  1.00  0.00     0.031 C 
ATOM     39  C   UNL A   1      43.457  27.967  33.619  1.00  0.00     0.037 A 
BRANCH  26  40
ATOM     40  C   UNL A   1      39.393  31.972  35.950  1.00  0.00     0.064 A 
ATOM     41  C   UNL A   1      39.978  33.223  36.190  1.00  0.00     0.173 A 
ATOM     42  C   UNL A   1      38.374  31.540  36.811  1.00  0.00     0.173 A 
ATOM     43  F   UNL A   1      40.967  33.668  35.401  1.00  0.00    -0.203 F 
ATOM     44  C   UNL A   1      39.564  34.009  37.262  1.00  0.00     0.198 A 
ATOM     45  C   UNL A   1      37.954  32.335  37.874  1.00  0.00     0.198 A 
ATOM     46  F   UNL A   1      37.786  30.350  36.620  1.00  0.00    -0.203 F 
ATOM     47  F   UNL A   1      40.154  35.190  37.492  1.00  0.00    -0.200 F 
ATOM     48  C   UNL A   1      38.551  33.566  38.100  1.00  0.00     0.200 A 
ATOM     49  F   UNL A   1      36.974  31.907  38.683  1.00  0.00    -0.200 F 
ATOM     50  F   UNL A   1      38.154  34.325  39.132  1.00  0.00    -0.200 F 
ENDBRANCH  26  40
BRANCH  27  51
ATOM     51  C   UNL A   1      42.002  26.791  27.870  1.00  0.00     0.064 A 
ATOM     52  C   UNL A   1      42.933  27.316  26.966  1.00  0.00     0.173 A 
ATOM     53  C   UNL A   1      41.494  25.508  27.625  1.00  0.00     0.173 A 
ATOM     54  F   UNL A   1      43.432  28.546  27.157  1.00  0.00    -0.203 F 
ATOM     55  C   UNL A   1      43.346  26.580  25.858  1.00  0.00     0.198 A 
ATOM     56  C   UNL A   1      41.918  24.768  26.524  1.00  0.00     0.198 A 
ATOM     57  F   UNL A   1      40.601  24.968  28.468  1.00  0.00    -0.203 F 
ATOM     58  F   UNL A   1      44.232  27.106  25.001  1.00  0.00    -0.200 F 
ATOM     59  C   UNL A   1      42.844  25.305  25.642  1.00  0.00     0.200 A 
ATOM     60  F   UNL A   1      41.438  23.533  26.324  1.00  0.00    -0.200 F 
ATOM     61  F   UNL A   1      43.253  24.593  24.584  1.00  0.00    -0.200 F 
ENDBRANCH  27  51
BRANCH  39  62
ATOM     62  C   UNL A   1      44.669  27.379  34.268  1.00  0.00     0.064 A 
ATOM     63  C   UNL A   1      45.896  28.057  34.245  1.00  0.00     0.173 A 
ATOM     64  C   UNL A   1      44.598  26.155  34.946  1.00  0.00     0.173 A 
ATOM     65  F   UNL A   1      46.009  29.224  33.594  1.00  0.00    -0.203 F 
ATOM     66  C   UNL A   1      47.016  27.523  34.876  1.00  0.00     0.198 A 
ATOM     67  C   UNL A   1      45.717  25.630  35.585  1.00  0.00     0.198 A 
ATOM     68  F   UNL A   1      43.443  25.473  34.990  1.00  0.00    -0.203 F 
ATOM     69  F   UNL A   1      48.185  28.175  34.827  1.00  0.00    -0.200 F 
ATOM     70  C   UNL A   1      46.924  26.313  35.548  1.00  0.00     0.200 A 
ATOM     71  F   UNL A   1      45.629  24.460  36.234  1.00  0.00    -0.200 F 
ATOM     72  F   UNL A   1      48.003  25.800  36.156  1.00  0.00    -0.200 F 
ENDBRANCH  39  62
ENDBRANCH  13  14
ENDBRANCH   6   8
ENDBRANCH   3   4
ENDBRANCH   2   3
ENDBRANCH   1   2
BRANCH   1  73
ATOM     73  N   UNL A   1      33.958  28.215  24.181  1.00  0.00    -0.352 N 
ATOM     74  C   UNL A   1      33.140  27.654  23.223  1.00  0.00     0.253 C 
ATOM     75  H   UNL A   1      34.909  28.193  23.928  1.00  0.00     0.163 HD
ATOM     76  O   UNL A   1      33.720  27.159  22.249  1.00  0.00    -0.269 OA
BRANCH  74  77
ATOM     77  C   UNL A   1      31.385  27.452  23.420  1.00  0.00     0.066 A 
ATOM     78  C   UNL A   1      29.865  28.630  22.706  1.00  0.00     0.036 A 
ATOM     79  C   UNL A   1      31.604  26.294  23.957  1.00  0.00     0.072 A 
ATOM     80  C   UNL A   1      28.608  28.752  22.438  1.00  0.00     0.043 A 
ATOM     81  C   UNL A   1      30.675  27.138  24.244  1.00  0.00     0.066 A 
ATOM     82  Cl  UNL A   1      27.650  30.109  22.156  1.00  0.00    -0.084 Cl
ATOM     83  C   UNL A   1      29.204  28.351  23.502  1.00  0.00     0.043 A 
ATOM     84  Cl  UNL A   1      31.069  26.636  26.278  1.00  0.00    -0.082 Cl
BRANCH  79  85
ATOM     85  N   UNL A   1      31.773  25.109  23.216  1.00  0.00    -0.330 N 
ATOM     86  H   UNL A   1      32.102  25.289  22.306  1.00  0.00     0.169 HD
BRANCH  85  87
ATOM     87  C   UNL A   1      31.598  23.786  23.434  1.00  0.00     0.177 C 
ATOM     88  S   UNL A   1      32.402  22.726  22.412  1.00  0.00    -0.040 S 
BRANCH  87  89
ATOM     89  N   UNL A   1      30.834  23.239  24.420  1.00  0.00    -0.299 N 
ATOM     90  C   UNL A   1      31.085  22.388  25.472  1.00  0.00     0.258 C 
ATOM     91  H   UNL A   1      29.891  23.515  24.369  1.00  0.00     0.172 HD
ATOM     92  O   UNL A   1      30.220  21.828  26.127  1.00  0.00    -0.269 OA
BRANCH  90  93
ATOM     93  C   UNL A   1      32.491  22.150  25.726  1.00  0.00     0.048 A 
ATOM     94  C   UNL A   1      33.586  23.701  26.220  1.00  0.00     0.014 A 
ATOM     95  C   UNL A   1      33.167  20.394  25.086  1.00  0.00    -0.006 A 
ATOM     96  C   UNL A   1      35.556  23.690  26.123  1.00  0.00     0.001 A 
ATOM     97  C   UNL A   1      35.160  20.378  24.966  1.00  0.00    -0.018 A 
ATOM     98  C   UNL A   1      32.528  19.172  24.799  1.00  0.00     0.009 A 
ATOM     99  C   UNL A   1      36.253  21.946  25.447  1.00  0.00     0.009 A 
ATOM    100  C   UNL A   1      35.665  19.124  24.626  1.00  0.00     0.009 A 
ATOM    101  C   UNL A   1      33.334  18.058  24.489  1.00  0.00     0.001 A 
ATOM    102  C   UNL A   1      34.777  18.037  24.411  1.00  0.00     0.001 A 
ENDBRANCH  90  93
ENDBRANCH  87  89
ENDBRANCH  85  87
ENDBRANCH  79  85
ENDBRANCH  74  77
ENDBRANCH   1  73
TORSDOF 14
ENDMDL
MODEL 2
REMARK VINA RESULT:     -13.8      1.744      7.290
REMARK SMILES O=C(NCCCNC(=O)c1cc(Cl)cc(Cl)c1NC(=S)NC(=O)c1cccc2ccccc12)c1ccc(-c2c3nc(c(-c4c(F)c(F)c(F)c(F)c4F)c4ccc([nH]4)c(-c4c(F)c(F)c(F)c(F)c4F)c4nc(c(-c5c(F)c(F)c(F)c(F)c5F)c5ccc2[nH]5)C=C4)C=C3)cc1
REMARK SMILES IDX 6 1 5 2 4 3 3 4 1 5 2 6 34 8 35 9 96 10 36 11 95 12 37 13
REMARK SMILES IDX 38 14 39 15 89 16 40 17 94 18 88 19 90 20 41 21 93 22 87 23
REMARK SMILES IDX 86 24 42 26 74 27 54 28 73 29 55 30 58 31 72 32 91 33 56 34
REMARK SMILES IDX 57 35 71 37 92 38 59 39 43 40 44 41 52 42 45 43 46 44 50 45
REMARK SMILES IDX 53 46 47 47 48 48 51 49 49 50 75 51 76 52 84 53 77 54 78 55
REMARK SMILES IDX 82 56 85 57 79 58 80 59 83 60 81 61 60 62 61 63 69 64 62 65
REMARK SMILES IDX 63 66 67 67 70 68 64 69 65 70 68 71 66 72 7 73 8 74 9 76
REMARK SMILES IDX 10 77 11 78 17 79 12 80 15 81 13 82 14 83 16 84 18 85 19 87
REMARK SMILES IDX 20 88 21 89 22 90 23 92 24 93 25 94 33 95 26 96 28 97 32 98
REMARK SMILES IDX 27 99 29 100 31 101 30 102
REMARK H PARENT 3 7 90 25 58 36 7 75 18 86 21 91
REMARK Flexibility Score: inf
ROOT
ATOM      1  C   UNL A   1      31.025  31.239  25.412  1.00  0.00     0.118 C 
ENDROOT
BRANCH   1   2
ATOM      2  C   UNL A   1      31.189  32.019  26.711  1.00  0.00     0.042 C 
BRANCH   2   3
ATOM      3  C   UNL A   1      32.562  32.661  26.900  1.00  0.00     0.118 C 
BRANCH   3   4
ATOM      4  N   UNL A   1      32.488  34.007  27.450  1.00  0.00    -0.352 N 
ATOM      5  O   UNL A   1      32.762  35.691  28.903  1.00  0.00    -0.269 OA
ATOM      6  C   UNL A   1      33.146  34.597  28.499  1.00  0.00     0.251 C 
ATOM      7  H   UNL A   1      31.854  34.599  26.985  1.00  0.00     0.163 HD
BRANCH   6   8
ATOM      8  C   UNL A   1      34.294  33.941  29.164  1.00  0.00     0.039 A 
ATOM      9  C   UNL A   1      35.609  34.356  28.945  1.00  0.00     0.014 A 
ATOM     10  C   UNL A   1      34.037  32.932  30.101  1.00  0.00     0.014 A 
ATOM     11  C   UNL A   1      36.666  33.681  29.554  1.00  0.00     0.010 A 
ATOM     12  C   UNL A   1      35.093  32.301  30.765  1.00  0.00     0.010 A 
ATOM     13  C   UNL A   1      36.419  32.650  30.472  1.00  0.00    -0.014 A 
BRANCH  13  14
ATOM     14  C   UNL A   1      37.555  31.965  31.138  1.00  0.00     0.031 A 
ATOM     15  C   UNL A   1      38.387  30.956  30.399  1.00  0.00     0.074 A 
ATOM     16  C   UNL A   1      37.850  32.268  32.417  1.00  0.00     0.049 A 
ATOM     17  N   UNL A   1      39.412  30.261  30.824  1.00  0.00    -0.248 NA
ATOM     18  C   UNL A   1      38.014  30.682  29.003  1.00  0.00     0.031 C 
ATOM     19  C   UNL A   1      37.105  33.210  33.253  1.00  0.00     0.029 A 
ATOM     20  N   UNL A   1      38.859  31.824  33.233  1.00  0.00    -0.354 N 
ATOM     21  C   UNL A   1      39.782  29.445  29.765  1.00  0.00     0.074 A 
ATOM     22  C   UNL A   1      38.873  29.727  28.675  1.00  0.00     0.031 C 
ATOM     23  C   UNL A   1      37.704  33.302  34.450  1.00  0.00     0.029 A 
ATOM     24  C   UNL A   1      38.854  32.401  34.476  1.00  0.00     0.049 A 
ATOM     25  H   UNL A   1      39.525  31.155  32.951  1.00  0.00     0.167 HD
ATOM     26  C   UNL A   1      40.792  28.544  29.707  1.00  0.00     0.037 A 
ATOM     27  C   UNL A   1      39.677  32.224  35.525  1.00  0.00     0.037 A 
ATOM     28  C   UNL A   1      41.732  28.297  30.767  1.00  0.00     0.049 A 
ATOM     29  C   UNL A   1      40.816  31.255  35.419  1.00  0.00     0.074 A 
ATOM     30  C   UNL A   1      42.829  27.451  30.769  1.00  0.00     0.029 A 
ATOM     31  N   UNL A   1      41.689  28.901  32.013  1.00  0.00    -0.354 N 
ATOM     32  N   UNL A   1      41.167  30.506  34.404  1.00  0.00    -0.248 NA
ATOM     33  C   UNL A   1      41.667  31.099  36.607  1.00  0.00     0.031 C 
ATOM     34  C   UNL A   1      43.441  27.532  32.026  1.00  0.00     0.029 A 
ATOM     35  C   UNL A   1      42.733  28.437  32.799  1.00  0.00     0.049 A 
ATOM     36  H   UNL A   1      41.017  29.561  32.299  1.00  0.00     0.167 HD
ATOM     37  C   UNL A   1      42.270  29.782  34.829  1.00  0.00     0.074 A 
ATOM     38  C   UNL A   1      42.546  30.197  36.189  1.00  0.00     0.031 C 
ATOM     39  C   UNL A   1      42.983  28.851  34.153  1.00  0.00     0.037 A 
BRANCH  26  40
ATOM     40  C   UNL A   1      40.927  27.746  28.449  1.00  0.00     0.064 A 
ATOM     41  C   UNL A   1      41.749  28.172  27.396  1.00  0.00     0.173 A 
ATOM     42  C   UNL A   1      40.254  26.524  28.313  1.00  0.00     0.173 A 
ATOM     43  F   UNL A   1      42.400  29.342  27.480  1.00  0.00    -0.203 F 
ATOM     44  C   UNL A   1      41.883  27.405  26.243  1.00  0.00     0.198 A 
ATOM     45  C   UNL A   1      40.400  25.753  27.163  1.00  0.00     0.198 A 
ATOM     46  F   UNL A   1      39.456  26.077  29.294  1.00  0.00    -0.203 F 
ATOM     47  F   UNL A   1      42.653  27.841  25.236  1.00  0.00    -0.200 F 
ATOM     48  C   UNL A   1      41.212  26.196  26.128  1.00  0.00     0.200 A 
ATOM     49  F   UNL A   1      39.752  24.585  27.052  1.00  0.00    -0.200 F 
ATOM     50  F   UNL A   1      41.342  25.459  25.016  1.00  0.00    -0.200 F 
ENDBRANCH  26  40
BRANCH  27  51
ATOM     51  C   UNL A   1      39.443  32.998  36.765  1.00  0.00     0.064 A 
ATOM     52  C   UNL A   1      40.127  34.196  37.002  1.00  0.00     0.173 A 
ATOM     53  C   UNL A   1      38.494  32.582  37.708  1.00  0.00     0.173 A 
ATOM     54  F   UNL A   1      41.054  34.622  36.131  1.00  0.00    -0.203 F 
ATOM     55  C   UNL A   1      39.866  34.955  38.141  1.00  0.00     0.198 A 
ATOM     56  C   UNL A   1      38.224  33.348  38.839  1.00  0.00     0.198 A 
ATOM     57  F   UNL A   1      37.815  31.441  37.517  1.00  0.00    -0.203 F 
ATOM     58  F   UNL A   1      40.540  36.094  38.352  1.00  0.00    -0.200 F 
ATOM     59  C   UNL A   1      38.911  34.534  39.054  1.00  0.00     0.200 A 
ATOM     60  F   UNL A   1      37.294  32.943  39.714  1.00  0.00    -0.200 F 
ATOM     61  F   UNL A   1      38.650  35.271  40.142  1.00  0.00    -0.200 F 
ENDBRANCH  27  51
BRANCH  39  62
ATOM     62  C   UNL A   1      44.118  28.204  34.881  1.00  0.00     0.064 A 
ATOM     63  C   UNL A   1      43.925  27.023  35.610  1.00  0.00     0.173 A 
ATOM     64  C   UNL A   1      45.410  28.743  34.819  1.00  0.00     0.173 A 
ATOM     65  F   UNL A   1      42.701  26.483  35.706  1.00  0.00    -0.203 F 
ATOM     66  C   UNL A   1      44.989  26.405  36.261  1.00  0.00     0.198 A 
ATOM     67  C   UNL A   1      46.474  28.117  35.461  1.00  0.00     0.198 A 
ATOM     68  F   UNL A   1      45.638  29.874  34.133  1.00  0.00    -0.203 F 
ATOM     69  F   UNL A   1      44.782  25.288  36.970  1.00  0.00    -0.200 F 
ATOM     70  C   UNL A   1      46.262  26.951  36.182  1.00  0.00     0.200 A 
ATOM     71  F   UNL A   1      47.705  28.644  35.387  1.00  0.00    -0.200 F 
ATOM     72  F   UNL A   1      47.286  26.354  36.809  1.00  0.00    -0.200 F 
ENDBRANCH  39  62
ENDBRANCH  13  14
ENDBRANCH   6   8
ENDBRANCH   3   4
ENDBRANCH   2   3
ENDBRANCH   1   2
BRANCH   1  73
ATOM     73  N   UNL A   1      31.333  29.829  25.554  1.00  0.00    -0.352 N 
ATOM     74  C   UNL A   1      31.006  28.689  24.848  1.00  0.00     0.253 C 
ATOM     75  H   UNL A   1      31.906  29.641  26.332  1.00  0.00     0.163 HD
ATOM     76  O   UNL A   1      31.417  27.627  25.330  1.00  0.00    -0.269 OA
BRANCH  74  77
ATOM     77  C   UNL A   1      29.908  28.676  23.451  1.00  0.00     0.066 A 
ATOM     78  C   UNL A   1      29.270  30.248  22.299  1.00  0.00     0.036 A 
ATOM     79  C   UNL A   1      29.935  27.381  23.474  1.00  0.00     0.072 A 
ATOM     80  C   UNL A   1      28.728  30.649  21.199  1.00  0.00     0.043 A 
ATOM     81  C   UNL A   1      28.952  28.148  23.154  1.00  0.00     0.066 A 
ATOM     82  Cl  UNL A   1      28.026  32.120  20.768  1.00  0.00    -0.084 Cl
ATOM     83  C   UNL A   1      28.354  29.756  22.041  1.00  0.00     0.043 A 
ATOM     84  Cl  UNL A   1      27.740  26.782  24.254  1.00  0.00    -0.082 Cl
BRANCH  79  85
ATOM     85  N   UNL A   1      30.932  26.610  22.844  1.00  0.00    -0.330 N 
ATOM     86  H   UNL A   1      31.564  27.169  22.339  1.00  0.00     0.169 HD
BRANCH  85  87
ATOM     87  C   UNL A   1      31.241  25.296  22.756  1.00  0.00     0.177 C 
ATOM     88  S   UNL A   1      30.716  24.299  23.998  1.00  0.00    -0.040 S 
BRANCH  87  89
ATOM     89  N   UNL A   1      31.934  24.711  21.740  1.00  0.00    -0.299 N 
ATOM     90  C   UNL A   1      33.039  23.894  21.674  1.00  0.00     0.258 C 
ATOM     91  H   UNL A   1      31.559  24.920  20.854  1.00  0.00     0.172 HD
ATOM     92  O   UNL A   1      33.652  23.646  20.647  1.00  0.00    -0.269 OA
BRANCH  90  93
ATOM     93  C   UNL A   1      33.474  23.371  22.952  1.00  0.00     0.048 A 
ATOM     94  C   UNL A   1      34.700  24.488  24.003  1.00  0.00     0.014 A 
ATOM     95  C   UNL A   1      33.136  21.431  23.219  1.00  0.00    -0.006 A 
ATOM     96  C   UNL A   1      35.778  23.776  25.493  1.00  0.00     0.001 A 
ATOM     97  C   UNL A   1      34.237  20.697  24.713  1.00  0.00    -0.018 A 
ATOM     98  C   UNL A   1      32.228  20.531  22.630  1.00  0.00     0.009 A 
ATOM     99  C   UNL A   1      35.479  21.820  25.754  1.00  0.00     0.009 A 
ATOM    100  C   UNL A   1      33.938  19.363  24.993  1.00  0.00     0.009 A 
ATOM    101  C   UNL A   1      32.152  19.224  23.154  1.00  0.00     0.001 A 
ATOM    102  C   UNL A   1      32.939  18.690  24.242  1.00  0.00     0.001 A 
ENDBRANCH  90  93
ENDBRANCH  87  89
ENDBRANCH  85  87
ENDBRANCH  79  85
ENDBRANCH  74  77
ENDBRANCH   1  73
TORSDOF 14
ENDMDL
MODEL 3
REMARK VINA RESULT:     -13.8      1.755      2.824
REMARK SMILES O=C(NCCCNC(=O)c1cc(Cl)cc(Cl)c1NC(=S)NC(=O)c1cccc2ccccc12)c1ccc(-c2c3nc(c(-c4c(F)c(F)c(F)c(F)c4F)c4ccc([nH]4)c(-c4c(F)c(F)c(F)c(F)c4F)c4nc(c(-c5c(F)c(F)c(F)c(F)c5F)c5ccc2[nH]5)C=C4)C=C3)cc1
REMARK SMILES IDX 6 1 5 2 4 3 3 4 1 5 2 6 34 8 35 9 96 10 36 11 95 12 37 13
REMARK SMILES IDX 38 14 39 15 89 16 40 17 94 18 88 19 90 20 41 21 93 22 87 23
REMARK SMILES IDX 86 24 42 26 74 27 54 28 73 29 55 30 58 31 72 32 91 33 56 34
REMARK SMILES IDX 57 35 71 37 92 38 59 39 43 40 44 41 52 42 45 43 46 44 50 45
REMARK SMILES IDX 53 46 47 47 48 48 51 49 49 50 75 51 76 52 84 53 77 54 78 55
REMARK SMILES IDX 82 56 85 57 79 58 80 59 83 60 81 61 60 62 61 63 69 64 62 65
REMARK SMILES IDX 63 66 67 67 70 68 64 69 65 70 68 71 66 72 7 73 8 74 9 76
REMARK SMILES IDX 10 77 11 78 17 79 12 80 15 81 13 82 14 83 16 84 18 85 19 87
REMARK SMILES IDX 20 88 21 89 22 90 23 92 24 93 25 94 33 95 26 96 28 97 32 98
REMARK SMILES IDX 27 99 29 100 31 101 30 102
REMARK H PARENT 3 7 90 25 58 36 7 75 18 86 21 91
REMARK Flexibility Score: inf
ROOT
ATOM      1  C   UNL A   1      31.025  31.209  25.402  1.00  0.00     0.118 C 
ENDROOT
BRANCH   1   2
ATOM      2  C   UNL A   1      31.117  31.968  26.720  1.00  0.00     0.042 C 
BRANCH   2   3
ATOM      3  C   UNL A   1      32.492  32.563  27.019  1.00  0.00     0.118 C 
BRANCH   3   4
ATOM      4  N   UNL A   1      32.422  33.928  27.518  1.00  0.00    -0.352 N 
ATOM      5  O   UNL A   1      32.739  35.674  28.888  1.00  0.00    -0.269 OA
ATOM      6  C   UNL A   1      33.122  34.570  28.509  1.00  0.00     0.251 C 
ATOM      7  H   UNL A   1      31.756  34.492  27.063  1.00  0.00     0.163 HD
BRANCH   6   8
ATOM      8  C   UNL A   1      34.313  33.959  29.141  1.00  0.00     0.039 A 
ATOM      9  C   UNL A   1      35.605  34.413  28.871  1.00  0.00     0.014 A 
ATOM     10  C   UNL A   1      34.120  32.953  30.096  1.00  0.00     0.014 A 
ATOM     11  C   UNL A   1      36.704  33.779  29.450  1.00  0.00     0.010 A 
ATOM     12  C   UNL A   1      35.218  32.364  30.730  1.00  0.00     0.010 A 
ATOM     13  C   UNL A   1      36.522  32.751  30.387  1.00  0.00    -0.014 A 
BRANCH  13  14
ATOM     14  C   UNL A   1      37.702  32.111  31.020  1.00  0.00     0.031 A 
ATOM     15  C   UNL A   1      38.115  32.472  32.419  1.00  0.00     0.074 A 
ATOM     16  C   UNL A   1      38.398  31.185  30.334  1.00  0.00     0.049 A 
ATOM     17  N   UNL A   1      39.118  32.016  33.126  1.00  0.00    -0.248 NA
ATOM     18  C   UNL A   1      37.303  33.483  33.112  1.00  0.00     0.031 C 
ATOM     19  C   UNL A   1      38.117  30.766  28.961  1.00  0.00     0.029 A 
ATOM     20  N   UNL A   1      39.478  30.423  30.702  1.00  0.00    -0.354 N 
ATOM     21  C   UNL A   1      39.081  32.709  34.328  1.00  0.00     0.074 A 
ATOM     22  C   UNL A   1      37.957  33.618  34.257  1.00  0.00     0.031 C 
ATOM     23  C   UNL A   1      38.975  29.795  28.615  1.00  0.00     0.029 A 
ATOM     24  C   UNL A   1      39.888  29.549  29.728  1.00  0.00     0.049 A 
ATOM     25  H   UNL A   1      39.915  30.496  31.581  1.00  0.00     0.167 HD
ATOM     26  C   UNL A   1      39.907  32.593  35.395  1.00  0.00     0.037 A 
ATOM     27  C   UNL A   1      40.891  28.653  29.726  1.00  0.00     0.037 A 
ATOM     28  C   UNL A   1      40.993  31.655  35.492  1.00  0.00     0.049 A 
ATOM     29  C   UNL A   1      41.763  28.511  30.937  1.00  0.00     0.074 A 
ATOM     30  C   UNL A   1      41.839  31.422  36.564  1.00  0.00     0.029 A 
ATOM     31  N   UNL A   1      41.378  30.789  34.482  1.00  0.00    -0.354 N 
ATOM     32  N   UNL A   1      41.702  29.158  32.074  1.00  0.00    -0.248 NA
ATOM     33  C   UNL A   1      42.849  27.525  30.861  1.00  0.00     0.031 C 
ATOM     34  C   UNL A   1      42.749  30.424  36.194  1.00  0.00     0.029 A 
ATOM     35  C   UNL A   1      42.459  30.029  34.898  1.00  0.00     0.049 A 
ATOM     36  H   UNL A   1      40.948  30.725  33.599  1.00  0.00     0.167 HD
ATOM     37  C   UNL A   1      42.743  28.666  32.847  1.00  0.00     0.074 A 
ATOM     38  C   UNL A   1      43.409  27.651  32.058  1.00  0.00     0.031 C 
ATOM     39  C   UNL A   1      43.117  29.033  34.095  1.00  0.00     0.037 A 
BRANCH  26  40
ATOM     40  C   UNL A   1      39.673  33.518  36.546  1.00  0.00     0.064 A 
ATOM     41  C   UNL A   1      38.810  33.175  37.598  1.00  0.00     0.173 A 
ATOM     42  C   UNL A   1      40.348  34.745  36.616  1.00  0.00     0.173 A 
ATOM     43  F   UNL A   1      38.134  32.018  37.564  1.00  0.00    -0.203 F 
ATOM     44  C   UNL A   1      38.623  34.037  38.674  1.00  0.00     0.198 A 
ATOM     45  C   UNL A   1      40.168  35.598  37.700  1.00  0.00     0.198 A 
ATOM     46  F   UNL A   1      41.182  35.114  35.633  1.00  0.00    -0.203 F 
ATOM     47  F   UNL A   1      37.774  33.704  39.657  1.00  0.00    -0.200 F 
ATOM     48  C   UNL A   1      39.303  35.245  38.727  1.00  0.00     0.200 A 
ATOM     49  F   UNL A   1      40.826  36.765  37.751  1.00  0.00    -0.200 F 
ATOM     50  F   UNL A   1      39.121  36.074  39.765  1.00  0.00    -0.200 F 
ENDBRANCH  26  40
BRANCH  27  51
ATOM     51  C   UNL A   1      41.109  27.817  28.524  1.00  0.00     0.064 A 
ATOM     52  C   UNL A   1      40.392  26.629  28.337  1.00  0.00     0.173 A 
ATOM     53  C   UNL A   1      41.997  28.217  27.517  1.00  0.00     0.173 A 
ATOM     54  F   UNL A   1      39.543  26.203  29.284  1.00  0.00    -0.203 F 
ATOM     55  C   UNL A   1      40.554  25.871  27.180  1.00  0.00     0.198 A 
ATOM     56  C   UNL A   1      42.148  27.466  26.354  1.00  0.00     0.198 A 
ATOM     57  F   UNL A   1      42.702  29.350  27.656  1.00  0.00    -0.203 F 
ATOM     58  F   UNL A   1      39.864  24.732  27.026  1.00  0.00    -0.200 F 
ATOM     59  C   UNL A   1      41.426  26.293  26.187  1.00  0.00     0.200 A 
ATOM     60  F   UNL A   1      42.984  27.881  25.393  1.00  0.00    -0.200 F 
ATOM     61  F   UNL A   1      41.571  25.571  25.068  1.00  0.00    -0.200 F 
ENDBRANCH  27  51
BRANCH  39  62
ATOM     62  C   UNL A   1      44.310  28.345  34.677  1.00  0.00     0.064 A 
ATOM     63  C   UNL A   1      44.172  27.146  35.389  1.00  0.00     0.173 A 
ATOM     64  C   UNL A   1      45.599  28.863  34.492  1.00  0.00     0.173 A 
ATOM     65  F   UNL A   1      42.954  26.625  35.601  1.00  0.00    -0.203 F 
ATOM     66  C   UNL A   1      45.286  26.490  35.903  1.00  0.00     0.198 A 
ATOM     67  C   UNL A   1      46.712  28.199  34.998  1.00  0.00     0.198 A 
ATOM     68  F   UNL A   1      45.775  30.010  33.818  1.00  0.00    -0.203 F 
ATOM     69  F   UNL A   1      45.133  25.355  36.599  1.00  0.00    -0.200 F 
ATOM     70  C   UNL A   1      46.555  27.016  35.704  1.00  0.00     0.200 A 
ATOM     71  F   UNL A   1      47.938  28.706  34.806  1.00  0.00    -0.200 F 
ATOM     72  F   UNL A   1      47.628  26.382  36.199  1.00  0.00    -0.200 F 
ENDBRANCH  39  62
ENDBRANCH  13  14
ENDBRANCH   6   8
ENDBRANCH   3   4
ENDBRANCH   2   3
ENDBRANCH   1   2
BRANCH   1  73
ATOM     73  N   UNL A   1      31.343  29.800  25.535  1.00  0.00    -0.352 N 
ATOM     74  C   UNL A   1      31.022  28.661  24.825  1.00  0.00     0.253 C 
ATOM     75  H   UNL A   1      31.922  29.612  26.310  1.00  0.00     0.163 HD
ATOM     76  O   UNL A   1      31.442  27.600  25.299  1.00  0.00    -0.269 OA
BRANCH  74  77
ATOM     77  C   UNL A   1      29.918  28.648  23.431  1.00  0.00     0.066 A 
ATOM     78  C   UNL A   1      29.285  30.218  22.274  1.00  0.00     0.036 A 
ATOM     79  C   UNL A   1      29.938  27.353  23.461  1.00  0.00     0.072 A 
ATOM     80  C   UNL A   1      28.741  30.618  21.174  1.00  0.00     0.043 A 
ATOM     81  C   UNL A   1      28.958  28.125  23.141  1.00  0.00     0.066 A 
ATOM     82  Cl  UNL A   1      28.047  32.090  20.739  1.00  0.00    -0.084 Cl
ATOM     83  C   UNL A   1      28.366  29.731  22.023  1.00  0.00     0.043 A 
ATOM     84  Cl  UNL A   1      27.742  26.772  24.253  1.00  0.00    -0.082 Cl
BRANCH  79  85
ATOM     85  N   UNL A   1      30.927  26.573  22.831  1.00  0.00    -0.330 N 
ATOM     86  H   UNL A   1      31.565  27.126  22.326  1.00  0.00     0.169 HD
BRANCH  85  87
ATOM     87  C   UNL A   1      31.225  25.257  22.743  1.00  0.00     0.177 C 
ATOM     88  S   UNL A   1      30.663  24.259  23.968  1.00  0.00    -0.040 S 
BRANCH  87  89
ATOM     89  N   UNL A   1      31.932  24.669  21.739  1.00  0.00    -0.299 N 
ATOM     90  C   UNL A   1      33.040  23.855  21.691  1.00  0.00     0.258 C 
ATOM     91  H   UNL A   1      31.569  24.873  20.847  1.00  0.00     0.172 HD
ATOM     92  O   UNL A   1      33.668  23.605  20.674  1.00  0.00    -0.269 OA
BRANCH  90  93
ATOM     93  C   UNL A   1      33.461  23.340  22.978  1.00  0.00     0.048 A 
ATOM     94  C   UNL A   1      34.684  24.456  24.031  1.00  0.00     0.014 A 
ATOM     95  C   UNL A   1      33.107  21.404  23.257  1.00  0.00    -0.006 A 
ATOM     96  C   UNL A   1      35.743  23.749  25.536  1.00  0.00     0.001 A 
ATOM     97  C   UNL A   1      34.190  20.674  24.767  1.00  0.00    -0.018 A 
ATOM     98  C   UNL A   1      32.198  20.505  22.666  1.00  0.00     0.009 A 
ATOM     99  C   UNL A   1      35.429  21.797  25.810  1.00  0.00     0.009 A 
ATOM    100  C   UNL A   1      33.879  19.345  25.055  1.00  0.00     0.009 A 
ATOM    101  C   UNL A   1      32.109  19.203  23.200  1.00  0.00     0.001 A 
ATOM    102  C   UNL A   1      32.882  18.672  24.300  1.00  0.00     0.001 A 
ENDBRANCH  90  93
ENDBRANCH  87  89
ENDBRANCH  85  87
ENDBRANCH  79  85
ENDBRANCH  74  77
ENDBRANCH   1  73
TORSDOF 14
ENDMDL
