MODEL 1
REMARK VINA RESULT:     -13.0      0.000      0.000
REMARK SMILES CC(=O)c1cccc(C(=O)NCCCNC(=O)c2ccc(-c3c4nc(c(-c5c(F)c(F)c(F)c(F)c5F)c5ccc([nH]5)c(-c5c(F)c(F)c(F)c(F)c5F)c5nc(c(-c6c(F)c(F)c(F)c(F)c6F)c6ccc3[nH]6)C=C5)C=C4)cc2)c1C
REMARK SMILES IDX 13 1 12 2 11 3 9 4 10 5 8 7 4 8 5 9 81 10 6 11 82 12 7 13
REMARK SMILES IDX 2 14 1 15 3 16 14 17 15 18 16 19 17 21 18 22 19 23 80 24
REMARK SMILES IDX 20 25 79 26 21 27 22 28 23 29 73 30 24 31 78 32 72 33 74 34
REMARK SMILES IDX 25 35 77 36 71 37 70 38 26 40 58 41 38 42 57 43 39 44 42 45
REMARK SMILES IDX 56 46 75 47 40 48 41 49 55 51 76 52 43 53 27 54 28 55 36 56
REMARK SMILES IDX 29 57 30 58 34 59 37 60 31 61 32 62 35 63 33 64 59 65 60 66
REMARK SMILES IDX 68 67 61 68 62 69 66 70 69 71 63 72 64 73 67 74 65 75 44 76
REMARK SMILES IDX 45 77 53 78 46 79 47 80 51 81 54 82 48 83 49 84 52 85 50 86
REMARK H PARENT 11 6 15 20 74 39 42 50
REMARK Flexibility Score: inf
ROOT
ATOM      1  C   UNL A   1      32.530  29.965  27.248  1.00  0.00     0.042 C 
ENDROOT
BRANCH   1   2
ATOM      2  C   UNL A   1      32.016  28.596  27.666  1.00  0.00     0.118 C 
BRANCH   2   3
ATOM      3  N   UNL A   1      32.412  27.495  26.799  1.00  0.00    -0.352 N 
ATOM      4  C   UNL A   1      32.048  26.949  25.601  1.00  0.00     0.251 C 
ATOM      5  O   UNL A   1      32.758  26.012  25.220  1.00  0.00    -0.269 OA
ATOM      6  H   UNL A   1      33.162  26.996  27.194  1.00  0.00     0.163 HD
BRANCH   4   7
ATOM      7  C   UNL A   1      30.853  27.298  24.776  1.00  0.00     0.043 A 
ATOM      8  C   UNL A   1      29.416  28.558  23.283  1.00  0.00     0.021 A 
ATOM      9  C   UNL A   1      28.447  27.547  23.312  1.00  0.00     0.012 A 
ATOM     10  C   UNL A   1      30.673  28.404  23.925  1.00  0.00    -0.028 A 
ATOM     11  C   UNL A   1      28.676  26.399  24.051  1.00  0.00     0.002 A 
ATOM     12  C   UNL A   1      31.789  29.331  23.550  1.00  0.00     0.046 C 
ATOM     13  C   UNL A   1      29.846  26.299  24.801  1.00  0.00     0.014 A 
BRANCH   8  14
ATOM     14  C   UNL A   1      29.039  29.784  22.532  1.00  0.00     0.160 C 
ATOM     15  C   UNL A   1      28.338  30.883  23.288  1.00  0.00     0.093 C 
ATOM     16  O   UNL A   1      29.247  29.851  21.325  1.00  0.00    -0.295 OA
ENDBRANCH   8  14
ENDBRANCH   4   7
ENDBRANCH   2   3
ENDBRANCH   1   2
BRANCH   1  17
ATOM     17  C   UNL A   1      34.054  30.022  27.279  1.00  0.00     0.118 C 
BRANCH  17  18
ATOM     18  N   UNL A   1      34.659  31.091  28.073  1.00  0.00    -0.352 N 
ATOM     19  C   UNL A   1      35.871  31.082  28.763  1.00  0.00     0.251 C 
ATOM     20  H   UNL A   1      34.143  31.928  28.126  1.00  0.00     0.163 HD
ATOM     21  O   UNL A   1      36.219  32.025  29.427  1.00  0.00    -0.269 OA
BRANCH  19  22
ATOM     22  C   UNL A   1      36.790  29.927  28.554  1.00  0.00     0.039 A 
ATOM     23  C   UNL A   1      36.958  29.023  29.611  1.00  0.00     0.014 A 
ATOM     24  C   UNL A   1      37.665  29.923  27.474  1.00  0.00     0.014 A 
ATOM     25  C   UNL A   1      38.162  28.332  29.718  1.00  0.00     0.010 A 
ATOM     26  C   UNL A   1      38.905  29.343  27.648  1.00  0.00     0.010 A 
ATOM     27  C   UNL A   1      39.180  28.611  28.809  1.00  0.00    -0.014 A 
BRANCH  27  28
ATOM     28  C   UNL A   1      40.585  28.290  29.053  1.00  0.00     0.031 A 
ATOM     29  C   UNL A   1      41.174  27.055  28.498  1.00  0.00     0.074 A 
ATOM     30  C   UNL A   1      41.374  29.181  29.697  1.00  0.00     0.049 A 
ATOM     31  N   UNL A   1      42.267  26.515  28.922  1.00  0.00    -0.248 NA
ATOM     32  C   UNL A   1      40.540  26.292  27.431  1.00  0.00     0.031 C 
ATOM     33  C   UNL A   1      42.836  29.189  29.762  1.00  0.00     0.029 A 
ATOM     34  N   UNL A   1      40.984  30.168  30.621  1.00  0.00    -0.354 N 
ATOM     35  C   UNL A   1      42.621  25.520  28.039  1.00  0.00     0.074 A 
ATOM     36  C   UNL A   1      41.483  25.387  27.160  1.00  0.00     0.031 C 
ATOM     37  C   UNL A   1      43.218  29.870  30.853  1.00  0.00     0.029 A 
ATOM     38  C   UNL A   1      42.012  30.192  31.594  1.00  0.00     0.049 A 
ATOM     39  H   UNL A   1      40.171  30.723  30.595  1.00  0.00     0.167 HD
ATOM     40  C   UNL A   1      43.889  25.017  28.083  1.00  0.00     0.037 A 
ATOM     41  C   UNL A   1      41.781  29.858  32.896  1.00  0.00     0.037 A 
ATOM     42  C   UNL A   1      44.634  25.566  29.213  1.00  0.00     0.049 A 
ATOM     43  C   UNL A   1      42.655  28.737  33.410  1.00  0.00     0.074 A 
ATOM     44  C   UNL A   1      45.569  26.584  29.326  1.00  0.00     0.029 A 
ATOM     45  N   UNL A   1      44.228  25.262  30.507  1.00  0.00    -0.354 N 
ATOM     46  N   UNL A   1      43.274  27.887  32.641  1.00  0.00    -0.248 NA
ATOM     47  C   UNL A   1      42.866  28.462  34.828  1.00  0.00     0.031 C 
ATOM     48  C   UNL A   1      45.706  26.907  30.699  1.00  0.00     0.029 A 
ATOM     49  C   UNL A   1      44.866  26.078  31.420  1.00  0.00     0.049 A 
ATOM     50  H   UNL A   1      43.577  24.562  30.740  1.00  0.00     0.167 HD
ATOM     51  C   UNL A   1      43.933  26.962  33.413  1.00  0.00     0.074 A 
ATOM     52  C   UNL A   1      43.665  27.382  34.775  1.00  0.00     0.031 C 
ATOM     53  C   UNL A   1      44.626  25.926  32.848  1.00  0.00     0.037 A 
BRANCH  40  54
ATOM     54  C   UNL A   1      44.539  24.256  26.944  1.00  0.00     0.064 A 
ATOM     55  C   UNL A   1      44.236  22.894  26.718  1.00  0.00     0.173 A 
ATOM     56  C   UNL A   1      45.521  24.781  26.086  1.00  0.00     0.173 A 
ATOM     57  F   UNL A   1      43.234  22.281  27.361  1.00  0.00    -0.203 F 
ATOM     58  C   UNL A   1      44.953  22.101  25.817  1.00  0.00     0.198 A 
ATOM     59  C   UNL A   1      46.281  23.978  25.228  1.00  0.00     0.198 A 
ATOM     60  F   UNL A   1      45.735  26.098  25.998  1.00  0.00    -0.203 F 
ATOM     61  F   UNL A   1      44.625  20.811  25.657  1.00  0.00    -0.200 F 
ATOM     62  C   UNL A   1      46.007  22.633  25.105  1.00  0.00     0.200 A 
ATOM     63  F   UNL A   1      47.279  24.524  24.520  1.00  0.00    -0.200 F 
ATOM     64  F   UNL A   1      46.731  21.863  24.281  1.00  0.00    -0.200 F 
ENDBRANCH  40  54
BRANCH  41  65
ATOM     65  C   UNL A   1      40.384  30.118  33.332  1.00  0.00     0.064 A 
ATOM     66  C   UNL A   1      39.988  31.452  33.557  1.00  0.00     0.173 A 
ATOM     67  C   UNL A   1      39.374  29.164  33.164  1.00  0.00     0.173 A 
ATOM     68  F   UNL A   1      40.918  32.408  33.720  1.00  0.00    -0.203 F 
ATOM     69  C   UNL A   1      38.651  31.834  33.486  1.00  0.00     0.198 A 
ATOM     70  C   UNL A   1      38.032  29.548  33.115  1.00  0.00     0.198 A 
ATOM     71  F   UNL A   1      39.684  27.882  32.926  1.00  0.00    -0.203 F 
ATOM     72  F   UNL A   1      38.321  33.131  33.572  1.00  0.00    -0.200 F 
ATOM     73  C   UNL A   1      37.675  30.884  33.238  1.00  0.00     0.200 A 
ATOM     74  F   UNL A   1      37.089  28.637  32.839  1.00  0.00    -0.200 F 
ATOM     75  F   UNL A   1      36.401  31.260  33.066  1.00  0.00    -0.200 F 
ENDBRANCH  41  65
BRANCH  53  76
ATOM     76  C   UNL A   1      45.211  24.714  33.544  1.00  0.00     0.064 A 
ATOM     77  C   UNL A   1      44.517  23.517  33.783  1.00  0.00     0.173 A 
ATOM     78  C   UNL A   1      46.594  24.679  33.870  1.00  0.00     0.173 A 
ATOM     79  F   UNL A   1      43.238  23.364  33.420  1.00  0.00    -0.203 F 
ATOM     80  C   UNL A   1      45.139  22.398  34.350  1.00  0.00     0.198 A 
ATOM     81  C   UNL A   1      47.223  23.542  34.375  1.00  0.00     0.198 A 
ATOM     82  F   UNL A   1      47.390  25.741  33.681  1.00  0.00    -0.203 F 
ATOM     83  F   UNL A   1      44.418  21.292  34.592  1.00  0.00    -0.200 F 
ATOM     84  C   UNL A   1      46.492  22.404  34.630  1.00  0.00     0.200 A 
ATOM     85  F   UNL A   1      48.546  23.553  34.590  1.00  0.00    -0.200 F 
ATOM     86  F   UNL A   1      47.091  21.311  35.120  1.00  0.00    -0.200 F 
ENDBRANCH  53  76
ENDBRANCH  27  28
ENDBRANCH  19  22
ENDBRANCH  17  18
ENDBRANCH   1  17
TORSDOF 11
ENDMDL
MODEL 2
REMARK VINA RESULT:     -12.9      4.470     10.371
REMARK SMILES CC(=O)c1cccc(C(=O)NCCCNC(=O)c2ccc(-c3c4nc(c(-c5c(F)c(F)c(F)c(F)c5F)c5ccc([nH]5)c(-c5c(F)c(F)c(F)c(F)c5F)c5nc(c(-c6c(F)c(F)c(F)c(F)c6F)c6ccc3[nH]6)C=C5)C=C4)cc2)c1C
REMARK SMILES IDX 13 1 12 2 11 3 9 4 10 5 8 7 4 8 5 9 81 10 6 11 82 12 7 13
REMARK SMILES IDX 2 14 1 15 3 16 14 17 15 18 16 19 17 21 18 22 19 23 80 24
REMARK SMILES IDX 20 25 79 26 21 27 22 28 23 29 73 30 24 31 78 32 72 33 74 34
REMARK SMILES IDX 25 35 77 36 71 37 70 38 26 40 58 41 38 42 57 43 39 44 42 45
REMARK SMILES IDX 56 46 75 47 40 48 41 49 55 51 76 52 43 53 27 54 28 55 36 56
REMARK SMILES IDX 29 57 30 58 34 59 37 60 31 61 32 62 35 63 33 64 59 65 60 66
REMARK SMILES IDX 68 67 61 68 62 69 66 70 69 71 63 72 64 73 67 74 65 75 44 76
REMARK SMILES IDX 45 77 53 78 46 79 47 80 51 81 54 82 48 83 49 84 52 85 50 86
REMARK H PARENT 11 6 15 20 74 39 42 50
REMARK Flexibility Score: inf
ROOT
ATOM      1  C   UNL A   1      37.874  21.453  25.469  1.00  0.00     0.042 C 
ENDROOT
BRANCH   1   2
ATOM      2  C   UNL A   1      36.389  21.652  25.728  1.00  0.00     0.118 C 
BRANCH   2   3
ATOM      3  N   UNL A   1      35.538  20.535  25.345  1.00  0.00    -0.352 N 
ATOM      4  C   UNL A   1      34.262  20.319  24.909  1.00  0.00     0.251 C 
ATOM      5  O   UNL A   1      33.999  19.143  24.635  1.00  0.00    -0.269 OA
ATOM      6  H   UNL A   1      36.026  19.685  25.424  1.00  0.00     0.163 HD
BRANCH   4   7
ATOM      7  C   UNL A   1      33.154  21.317  24.827  1.00  0.00     0.043 A 
ATOM      8  C   UNL A   1      31.463  22.895  25.558  1.00  0.00     0.021 A 
ATOM      9  C   UNL A   1      31.127  23.197  24.232  1.00  0.00     0.012 A 
ATOM     10  C   UNL A   1      32.548  22.035  25.874  1.00  0.00    -0.028 A 
ATOM     11  C   UNL A   1      31.810  22.584  23.195  1.00  0.00     0.002 A 
ATOM     12  C   UNL A   1      33.091  22.049  27.271  1.00  0.00     0.046 C 
ATOM     13  C   UNL A   1      32.781  21.630  23.494  1.00  0.00     0.014 A 
BRANCH   8  14
ATOM     14  C   UNL A   1      30.615  23.539  26.595  1.00  0.00     0.160 C 
ATOM     15  C   UNL A   1      29.484  22.733  27.179  1.00  0.00     0.093 C 
ATOM     16  O   UNL A   1      30.812  24.709  26.905  1.00  0.00    -0.295 OA
ENDBRANCH   8  14
ENDBRANCH   4   7
ENDBRANCH   2   3
ENDBRANCH   1   2
BRANCH   1  17
ATOM     17  C   UNL A   1      38.646  22.760  25.613  1.00  0.00     0.118 C 
BRANCH  17  18
ATOM     18  N   UNL A   1      40.005  22.669  26.147  1.00  0.00    -0.352 N 
ATOM     19  C   UNL A   1      40.779  23.672  26.729  1.00  0.00     0.251 C 
ATOM     20  H   UNL A   1      40.428  21.782  26.088  1.00  0.00     0.163 HD
ATOM     21  O   UNL A   1      41.914  23.465  27.077  1.00  0.00    -0.269 OA
BRANCH  19  22
ATOM     22  C   UNL A   1      40.126  24.978  27.031  1.00  0.00     0.039 A 
ATOM     23  C   UNL A   1      40.517  26.096  26.285  1.00  0.00     0.014 A 
ATOM     24  C   UNL A   1      39.390  25.130  28.201  1.00  0.00     0.014 A 
ATOM     25  C   UNL A   1      40.426  27.358  26.867  1.00  0.00     0.010 A 
ATOM     26  C   UNL A   1      39.420  26.358  28.829  1.00  0.00     0.010 A 
ATOM     27  C   UNL A   1      40.010  27.457  28.194  1.00  0.00    -0.014 A 
BRANCH  27  28
ATOM     28  C   UNL A   1      40.269  28.626  29.031  1.00  0.00     0.031 A 
ATOM     29  C   UNL A   1      39.249  29.685  29.168  1.00  0.00     0.074 A 
ATOM     30  C   UNL A   1      41.402  28.686  29.768  1.00  0.00     0.049 A 
ATOM     31  N   UNL A   1      39.493  30.881  29.585  1.00  0.00    -0.248 NA
ATOM     32  C   UNL A   1      37.855  29.486  28.795  1.00  0.00     0.031 C 
ATOM     33  C   UNL A   1      41.695  29.593  30.877  1.00  0.00     0.029 A 
ATOM     34  N   UNL A   1      42.631  28.050  29.511  1.00  0.00    -0.354 N 
ATOM     35  C   UNL A   1      38.287  31.514  29.793  1.00  0.00     0.074 A 
ATOM     36  C   UNL A   1      37.302  30.620  29.233  1.00  0.00     0.031 C 
ATOM     37  C   UNL A   1      43.026  29.705  31.007  1.00  0.00     0.029 A 
ATOM     38  C   UNL A   1      43.620  28.988  29.895  1.00  0.00     0.049 A 
ATOM     39  H   UNL A   1      42.773  27.147  29.144  1.00  0.00     0.167 HD
ATOM     40  C   UNL A   1      38.262  32.663  30.528  1.00  0.00     0.037 A 
ATOM     41  C   UNL A   1      44.494  29.524  28.995  1.00  0.00     0.037 A 
ATOM     42  C   UNL A   1      39.614  33.105  30.863  1.00  0.00     0.049 A 
ATOM     43  C   UNL A   1      44.471  31.035  28.938  1.00  0.00     0.074 A 
ATOM     44  C   UNL A   1      40.394  32.983  32.003  1.00  0.00     0.029 A 
ATOM     45  N   UNL A   1      40.468  33.510  29.845  1.00  0.00    -0.354 N 
ATOM     46  N   UNL A   1      43.480  31.764  29.368  1.00  0.00    -0.248 NA
ATOM     47  C   UNL A   1      45.543  31.838  28.358  1.00  0.00     0.031 C 
ATOM     48  C   UNL A   1      41.732  33.297  31.657  1.00  0.00     0.029 A 
ATOM     49  C   UNL A   1      41.762  33.621  30.312  1.00  0.00     0.049 A 
ATOM     50  H   UNL A   1      40.189  33.693  28.919  1.00  0.00     0.167 HD
ATOM     51  C   UNL A   1      43.742  33.089  29.121  1.00  0.00     0.074 A 
ATOM     52  C   UNL A   1      45.057  33.083  28.510  1.00  0.00     0.031 C 
ATOM     53  C   UNL A   1      42.835  34.064  29.434  1.00  0.00     0.037 A 
BRANCH  40  54
ATOM     54  C   UNL A   1      37.014  33.223  31.183  1.00  0.00     0.064 A 
ATOM     55  C   UNL A   1      36.778  33.039  32.565  1.00  0.00     0.173 A 
ATOM     56  C   UNL A   1      35.977  33.883  30.501  1.00  0.00     0.173 A 
ATOM     57  F   UNL A   1      37.718  32.545  33.379  1.00  0.00    -0.203 F 
ATOM     58  C   UNL A   1      35.557  33.356  33.170  1.00  0.00     0.198 A 
ATOM     59  C   UNL A   1      34.735  34.147  31.089  1.00  0.00     0.198 A 
ATOM     60  F   UNL A   1      36.151  34.358  29.263  1.00  0.00    -0.203 F 
ATOM     61  F   UNL A   1      35.391  33.146  34.483  1.00  0.00    -0.200 F 
ATOM     62  C   UNL A   1      34.519  33.868  32.421  1.00  0.00     0.200 A 
ATOM     63  F   UNL A   1      33.750  34.676  30.349  1.00  0.00    -0.200 F 
ATOM     64  F   UNL A   1      33.331  34.123  32.987  1.00  0.00    -0.200 F 
ENDBRANCH  40  54
BRANCH  41  65
ATOM     65  C   UNL A   1      44.771  28.632  27.839  1.00  0.00     0.064 A 
ATOM     66  C   UNL A   1      45.582  27.498  28.046  1.00  0.00     0.173 A 
ATOM     67  C   UNL A   1      43.979  28.659  26.686  1.00  0.00     0.173 A 
ATOM     68  F   UNL A   1      46.359  27.421  29.140  1.00  0.00    -0.203 F 
ATOM     69  C   UNL A   1      45.504  26.388  27.209  1.00  0.00     0.198 A 
ATOM     70  C   UNL A   1      43.920  27.551  25.837  1.00  0.00     0.198 A 
ATOM     71  F   UNL A   1      43.170  29.699  26.442  1.00  0.00    -0.203 F 
ATOM     72  F   UNL A   1      46.190  25.275  27.509  1.00  0.00    -0.200 F 
ATOM     73  C   UNL A   1      44.652  26.406  26.119  1.00  0.00     0.200 A 
ATOM     74  F   UNL A   1      43.068  27.552  24.802  1.00  0.00    -0.200 F 
ATOM     75  F   UNL A   1      44.496  25.306  25.370  1.00  0.00    -0.200 F 
ENDBRANCH  41  65
BRANCH  53  76
ATOM     76  C   UNL A   1      42.870  35.526  29.032  1.00  0.00     0.064 A 
ATOM     77  C   UNL A   1      42.168  36.073  27.946  1.00  0.00     0.173 A 
ATOM     78  C   UNL A   1      43.526  36.476  29.860  1.00  0.00     0.173 A 
ATOM     79  F   UNL A   1      41.409  35.313  27.148  1.00  0.00    -0.203 F 
ATOM     80  C   UNL A   1      42.167  37.447  27.678  1.00  0.00     0.198 A 
ATOM     81  C   UNL A   1      43.471  37.849  29.627  1.00  0.00     0.198 A 
ATOM     82  F   UNL A   1      44.222  36.105  30.945  1.00  0.00    -0.203 F 
ATOM     83  F   UNL A   1      41.511  37.911  26.604  1.00  0.00    -0.200 F 
ATOM     84  C   UNL A   1      42.802  38.335  28.525  1.00  0.00     0.200 A 
ATOM     85  F   UNL A   1      44.049  38.695  30.490  1.00  0.00    -0.200 F 
ATOM     86  F   UNL A   1      42.750  39.654  28.294  1.00  0.00    -0.200 F 
ENDBRANCH  53  76
ENDBRANCH  27  28
ENDBRANCH  19  22
ENDBRANCH  17  18
ENDBRANCH   1  17
TORSDOF 11
ENDMDL
MODEL 3
REMARK VINA RESULT:     -12.9      1.284      1.869
REMARK SMILES CC(=O)c1cccc(C(=O)NCCCNC(=O)c2ccc(-c3c4nc(c(-c5c(F)c(F)c(F)c(F)c5F)c5ccc([nH]5)c(-c5c(F)c(F)c(F)c(F)c5F)c5nc(c(-c6c(F)c(F)c(F)c(F)c6F)c6ccc3[nH]6)C=C5)C=C4)cc2)c1C
REMARK SMILES IDX 13 1 12 2 11 3 9 4 10 5 8 7 4 8 5 9 81 10 6 11 82 12 7 13
REMARK SMILES IDX 2 14 1 15 3 16 14 17 15 18 16 19 17 21 18 22 19 23 80 24
REMARK SMILES IDX 20 25 79 26 21 27 22 28 23 29 73 30 24 31 78 32 72 33 74 34
REMARK SMILES IDX 25 35 77 36 71 37 70 38 26 40 58 41 38 42 57 43 39 44 42 45
REMARK SMILES IDX 56 46 75 47 40 48 41 49 55 51 76 52 43 53 27 54 28 55 36 56
REMARK SMILES IDX 29 57 30 58 34 59 37 60 31 61 32 62 35 63 33 64 59 65 60 66
REMARK SMILES IDX 68 67 61 68 62 69 66 70 69 71 63 72 64 73 67 74 65 75 44 76
REMARK SMILES IDX 45 77 53 78 46 79 47 80 51 81 54 82 48 83 49 84 52 85 50 86
REMARK H PARENT 11 6 15 20 74 39 42 50
REMARK Flexibility Score: inf
ROOT
ATOM      1  C   UNL A   1      32.381  30.904  26.923  1.00  0.00     0.042 C 
ENDROOT
BRANCH   1   2
ATOM      2  C   UNL A   1      31.777  29.695  26.224  1.00  0.00     0.118 C 
BRANCH   2   3
ATOM      3  N   UNL A   1      31.118  29.979  24.957  1.00  0.00    -0.352 N 
ATOM      4  C   UNL A   1      30.667  29.302  23.860  1.00  0.00     0.251 C 
ATOM      5  O   UNL A   1      30.083  29.998  23.023  1.00  0.00    -0.269 OA
ATOM      6  H   UNL A   1      30.949  30.943  24.863  1.00  0.00     0.163 HD
BRANCH   4   7
ATOM      7  C   UNL A   1      30.888  27.861  23.535  1.00  0.00     0.043 A 
ATOM      8  C   UNL A   1      32.012  25.857  22.756  1.00  0.00     0.021 A 
ATOM      9  C   UNL A   1      30.919  25.063  23.127  1.00  0.00     0.012 A 
ATOM     10  C   UNL A   1      32.057  27.245  23.051  1.00  0.00    -0.028 A 
ATOM     11  C   UNL A   1      29.815  25.650  23.720  1.00  0.00     0.002 A 
ATOM     12  C   UNL A   1      33.377  27.952  22.978  1.00  0.00     0.046 C 
ATOM     13  C   UNL A   1      29.789  27.034  23.883  1.00  0.00     0.014 A 
BRANCH   8  14
ATOM     14  C   UNL A   1      33.109  25.146  22.050  1.00  0.00     0.160 C 
ATOM     15  C   UNL A   1      34.028  24.278  22.871  1.00  0.00     0.093 C 
ATOM     16  O   UNL A   1      33.278  25.323  20.848  1.00  0.00    -0.295 OA
ENDBRANCH   8  14
ENDBRANCH   4   7
ENDBRANCH   2   3
ENDBRANCH   1   2
BRANCH   1  17
ATOM     17  C   UNL A   1      33.852  30.679  27.256  1.00  0.00     0.118 C 
BRANCH  17  18
ATOM     18  N   UNL A   1      34.462  31.606  28.209  1.00  0.00    -0.352 N 
ATOM     19  C   UNL A   1      35.572  31.404  29.028  1.00  0.00     0.251 C 
ATOM     20  H   UNL A   1      34.033  32.489  28.280  1.00  0.00     0.163 HD
ATOM     21  O   UNL A   1      35.933  32.245  29.812  1.00  0.00    -0.269 OA
BRANCH  19  22
ATOM     22  C   UNL A   1      36.385  30.171  28.820  1.00  0.00     0.039 A 
ATOM     23  C   UNL A   1      36.620  29.345  29.925  1.00  0.00     0.014 A 
ATOM     24  C   UNL A   1      37.124  30.017  27.652  1.00  0.00     0.014 A 
ATOM     25  C   UNL A   1      37.781  28.578  29.957  1.00  0.00     0.010 A 
ATOM     26  C   UNL A   1      38.336  29.363  27.735  1.00  0.00     0.010 A 
ATOM     27  C   UNL A   1      38.700  28.708  28.917  1.00  0.00    -0.014 A 
BRANCH  27  28
ATOM     28  C   UNL A   1      40.101  28.306  29.029  1.00  0.00     0.031 A 
ATOM     29  C   UNL A   1      40.537  26.983  28.538  1.00  0.00     0.074 A 
ATOM     30  C   UNL A   1      41.018  29.190  29.484  1.00  0.00     0.049 A 
ATOM     31  N   UNL A   1      41.636  26.404  28.886  1.00  0.00    -0.248 NA
ATOM     32  C   UNL A   1      39.729  26.175  27.634  1.00  0.00     0.031 C 
ATOM     33  C   UNL A   1      42.474  29.094  29.378  1.00  0.00     0.029 A 
ATOM     34  N   UNL A   1      40.808  30.286  30.341  1.00  0.00    -0.354 N 
ATOM     35  C   UNL A   1      41.815  25.307  28.072  1.00  0.00     0.074 A 
ATOM     36  C   UNL A   1      40.572  25.179  27.350  1.00  0.00     0.031 C 
ATOM     37  C   UNL A   1      43.030  29.842  30.343  1.00  0.00     0.029 A 
ATOM     38  C   UNL A   1      41.947  30.322  31.181  1.00  0.00     0.049 A 
ATOM     39  H   UNL A   1      40.036  30.896  30.353  1.00  0.00     0.167 HD
ATOM     40  C   UNL A   1      43.044  24.715  28.021  1.00  0.00     0.037 A 
ATOM     41  C   UNL A   1      41.856  30.129  32.529  1.00  0.00     0.037 A 
ATOM     42  C   UNL A   1      43.956  25.309  28.996  1.00  0.00     0.049 A 
ATOM     43  C   UNL A   1      42.713  28.998  33.050  1.00  0.00     0.074 A 
ATOM     44  C   UNL A   1      44.961  26.258  28.896  1.00  0.00     0.029 A 
ATOM     45  N   UNL A   1      43.692  25.159  30.352  1.00  0.00    -0.354 N 
ATOM     46  N   UNL A   1      43.177  28.035  32.304  1.00  0.00    -0.248 NA
ATOM     47  C   UNL A   1      43.078  28.841  34.455  1.00  0.00     0.031 C 
ATOM     48  C   UNL A   1      45.285  26.697  30.204  1.00  0.00     0.029 A 
ATOM     49  C   UNL A   1      44.488  26.005  31.098  1.00  0.00     0.049 A 
ATOM     50  H   UNL A   1      43.031  24.535  30.729  1.00  0.00     0.167 HD
ATOM     51  C   UNL A   1      43.865  27.139  33.085  1.00  0.00     0.074 A 
ATOM     52  C   UNL A   1      43.793  27.703  34.419  1.00  0.00     0.031 C 
ATOM     53  C   UNL A   1      44.415  26.006  32.552  1.00  0.00     0.037 A 
BRANCH  40  54
ATOM     54  C   UNL A   1      43.499  23.804  26.898  1.00  0.00     0.064 A 
ATOM     55  C   UNL A   1      43.051  22.465  26.826  1.00  0.00     0.173 A 
ATOM     56  C   UNL A   1      44.430  24.158  25.905  1.00  0.00     0.173 A 
ATOM     57  F   UNL A   1      42.071  22.009  27.614  1.00  0.00    -0.203 F 
ATOM     58  C   UNL A   1      43.596  21.535  25.934  1.00  0.00     0.198 A 
ATOM     59  C   UNL A   1      45.019  23.218  25.053  1.00  0.00     0.198 A 
ATOM     60  F   UNL A   1      44.753  25.436  25.679  1.00  0.00    -0.203 F 
ATOM     61  F   UNL A   1      43.136  20.276  25.924  1.00  0.00    -0.200 F 
ATOM     62  C   UNL A   1      44.613  21.901  25.079  1.00  0.00     0.200 A 
ATOM     63  F   UNL A   1      45.984  23.602  24.206  1.00  0.00    -0.200 F 
ATOM     64  F   UNL A   1      45.174  20.999  24.262  1.00  0.00    -0.200 F 
ENDBRANCH  40  54
BRANCH  41  65
ATOM     65  C   UNL A   1      40.543  30.534  33.095  1.00  0.00     0.064 A 
ATOM     66  C   UNL A   1      40.255  31.910  33.206  1.00  0.00     0.173 A 
ATOM     67  C   UNL A   1      39.467  29.642  33.162  1.00  0.00     0.173 A 
ATOM     68  F   UNL A   1      41.251  32.809  33.143  1.00  0.00    -0.203 F 
ATOM     69  C   UNL A   1      38.944  32.375  33.251  1.00  0.00     0.198 A 
ATOM     70  C   UNL A   1      38.154  30.112  33.229  1.00  0.00     0.198 A 
ATOM     71  F   UNL A   1      39.671  28.322  33.042  1.00  0.00    -0.203 F 
ATOM     72  F   UNL A   1      38.701  33.694  33.223  1.00  0.00    -0.200 F 
ATOM     73  C   UNL A   1      37.892  31.476  33.235  1.00  0.00     0.200 A 
ATOM     74  F   UNL A   1      37.133  29.245  33.176  1.00  0.00    -0.200 F 
ATOM     75  F   UNL A   1      36.629  31.919  33.174  1.00  0.00    -0.200 F 
ENDBRANCH  41  65
BRANCH  53  76
ATOM     76  C   UNL A   1      45.002  24.822  33.295  1.00  0.00     0.064 A 
ATOM     77  C   UNL A   1      44.308  23.636  33.585  1.00  0.00     0.173 A 
ATOM     78  C   UNL A   1      46.386  24.799  33.618  1.00  0.00     0.173 A 
ATOM     79  F   UNL A   1      43.028  23.469  33.233  1.00  0.00    -0.203 F 
ATOM     80  C   UNL A   1      44.931  22.541  34.196  1.00  0.00     0.198 A 
ATOM     81  C   UNL A   1      47.017  23.684  34.167  1.00  0.00     0.198 A 
ATOM     82  F   UNL A   1      47.183  25.852  33.382  1.00  0.00    -0.203 F 
ATOM     83  F   UNL A   1      44.211  21.447  34.485  1.00  0.00    -0.200 F 
ATOM     84  C   UNL A   1      46.285  22.557  34.471  1.00  0.00     0.200 A 
ATOM     85  F   UNL A   1      48.340  23.703  34.376  1.00  0.00    -0.200 F 
ATOM     86  F   UNL A   1      46.886  21.485  35.003  1.00  0.00    -0.200 F 
ENDBRANCH  53  76
ENDBRANCH  27  28
ENDBRANCH  19  22
ENDBRANCH  17  18
ENDBRANCH   1  17
TORSDOF 11
ENDMDL
