MODEL 1
REMARK VINA RESULT:     -14.5      0.000      0.000
REMARK SMILES Cc1ccc(C(=O)N2CCCC[C@@H]2C(=O)NCCCNC(=O)c2ccc(-c3c4nc(c(-c5c(F)c(F)c(F)c(F)c5F)c5ccc([nH]5)c(-c5c(F)c(F)c(F)c(F)c5F)c5nc(c(-c6c(F)c(F)c(F)c(F)c6F)c6ccc3[nH]6)C=C5)C=C4)cc2)cc1S(=O)(=O)N1CCCCC1
REMARK SMILES IDX 17 1 16 2 14 3 15 4 13 6 8 7 9 8 10 9 12 10 11 11 6 12 7 13
REMARK SMILES IDX 5 14 1 15 2 16 3 17 87 18 4 19 86 20 88 21 89 22 90 23 91 24
REMARK SMILES IDX 92 25 96 26 93 27 95 28 94 29 18 30 19 31 20 32 21 33 22 35
REMARK SMILES IDX 23 36 24 37 85 38 25 39 84 40 26 41 27 42 28 43 78 44 29 45
REMARK SMILES IDX 83 46 77 47 79 48 30 49 82 50 76 51 75 52 31 54 63 55 43 56
REMARK SMILES IDX 62 57 44 58 47 59 61 60 80 61 45 62 46 63 60 65 81 66 48 67
REMARK SMILES IDX 32 68 33 69 41 70 34 71 35 72 39 73 42 74 36 75 37 76 40 77
REMARK SMILES IDX 38 78 64 79 65 80 73 81 66 82 67 83 71 84 74 85 68 86 69 87
REMARK SMILES IDX 72 88 70 89 49 90 50 91 58 92 51 93 52 94 56 95 59 96 53 97
REMARK SMILES IDX 54 98 57 99 55 100
REMARK H PARENT 16 5 20 34 79 53 47 64
REMARK Flexibility Score: inf
ROOT
ATOM      1  C   UNL A   1      32.128  29.032  25.476  1.00  0.00     0.117 C 
ENDROOT
BRANCH   1   2
ATOM      2  N   UNL A   1      31.435  27.988  26.216  1.00  0.00    -0.354 N 
ATOM      3  C   UNL A   1      31.068  26.730  25.831  1.00  0.00     0.242 C 
ATOM      4  O   UNL A   1      30.281  26.129  26.570  1.00  0.00    -0.273 OA
ATOM      5  H   UNL A   1      31.192  28.226  27.140  1.00  0.00     0.163 HD
BRANCH   3   6
ATOM      6  C   UNL A   1      31.486  26.130  24.461  1.00  0.00     0.174 C 
ATOM      7  N   UNL A   1      32.953  25.966  24.286  1.00  0.00    -0.327 N 
ATOM      8  C   UNL A   1      33.462  25.846  22.925  1.00  0.00     0.120 C 
ATOM      9  C   UNL A   1      32.921  26.912  21.997  1.00  0.00     0.022 C 
ATOM     10  C   UNL A   1      30.854  27.046  23.386  1.00  0.00     0.035 C 
ATOM     11  C   UNL A   1      31.403  26.854  21.981  1.00  0.00     0.004 C 
BRANCH   7  12
ATOM     12  C   UNL A   1      33.851  25.563  25.281  1.00  0.00     0.254 C 
ATOM     13  O   UNL A   1      34.287  26.346  26.125  1.00  0.00    -0.269 OA
BRANCH  12  14
ATOM     14  C   UNL A   1      34.337  24.171  25.349  1.00  0.00     0.041 A 
ATOM     15  C   UNL A   1      36.143  20.283  25.001  1.00  0.00     0.046 C 
ATOM     16  C   UNL A   1      35.365  21.549  25.137  1.00  0.00    -0.031 A 
ATOM     17  C   UNL A   1      36.168  22.638  25.564  1.00  0.00     0.005 A 
ATOM     18  C   UNL A   1      34.007  21.791  24.858  1.00  0.00     0.086 A 
ATOM     19  C   UNL A   1      35.666  23.931  25.669  1.00  0.00     0.014 A 
ATOM     20  C   UNL A   1      33.525  23.116  24.941  1.00  0.00     0.035 A 
BRANCH  18  21
ATOM     21  S   UNL A   1      32.681  20.671  24.376  1.00  0.00     0.243 S 
ATOM     22  O   UNL A   1      31.640  20.865  25.376  1.00  0.00    -0.207 OA
ATOM     23  O   UNL A   1      32.422  20.969  22.988  1.00  0.00    -0.207 OA
BRANCH  21  24
ATOM     24  N   UNL A   1      33.148  19.051  24.454  1.00  0.00    -0.198 NA
ATOM     25  C   UNL A   1      32.903  18.364  25.737  1.00  0.00     0.102 C 
ATOM     26  C   UNL A   1      33.277  18.332  23.171  1.00  0.00     0.102 C 
ATOM     27  C   UNL A   1      33.314  16.901  25.752  1.00  0.00     0.017 C 
ATOM     28  C   UNL A   1      33.631  16.858  23.303  1.00  0.00     0.017 C 
ATOM     29  C   UNL A   1      32.953  16.171  24.473  1.00  0.00     0.003 C 
ENDBRANCH  21  24
ENDBRANCH  18  21
ENDBRANCH  12  14
ENDBRANCH   7  12
ENDBRANCH   3   6
ENDBRANCH   1   2
BRANCH   1  30
ATOM     30  C   UNL A   1      32.301  30.282  26.321  1.00  0.00     0.042 C 
BRANCH  30  31
ATOM     31  C   UNL A   1      33.110  30.031  27.574  1.00  0.00     0.118 C 
BRANCH  31  32
ATOM     32  N   UNL A   1      33.821  31.208  28.061  1.00  0.00    -0.352 N 
ATOM     33  C   UNL A   1      35.089  31.299  28.609  1.00  0.00     0.251 C 
ATOM     34  H   UNL A   1      33.329  32.059  27.991  1.00  0.00     0.163 HD
ATOM     35  O   UNL A   1      35.529  32.374  29.000  1.00  0.00    -0.269 OA
BRANCH  33  36
ATOM     36  C   UNL A   1      35.968  30.113  28.554  1.00  0.00     0.039 A 
ATOM     37  C   UNL A   1      36.315  29.527  29.777  1.00  0.00     0.014 A 
ATOM     38  C   UNL A   1      36.709  29.859  27.406  1.00  0.00     0.014 A 
ATOM     39  C   UNL A   1      37.568  28.953  29.911  1.00  0.00     0.010 A 
ATOM     40  C   UNL A   1      38.006  29.450  27.569  1.00  0.00     0.010 A 
ATOM     41  C   UNL A   1      38.444  29.055  28.834  1.00  0.00    -0.014 A 
BRANCH  41  42
ATOM     42  C   UNL A   1      39.842  28.696  28.898  1.00  0.00     0.031 A 
ATOM     43  C   UNL A   1      40.187  27.322  28.510  1.00  0.00     0.074 A 
ATOM     44  C   UNL A   1      40.753  29.651  29.182  1.00  0.00     0.049 A 
ATOM     45  N   UNL A   1      41.240  26.703  28.897  1.00  0.00    -0.248 NA
ATOM     46  C   UNL A   1      39.308  26.501  27.683  1.00  0.00     0.031 C 
ATOM     47  C   UNL A   1      42.205  29.574  29.068  1.00  0.00     0.029 A 
ATOM     48  N   UNL A   1      40.523  30.879  29.828  1.00  0.00    -0.354 N 
ATOM     49  C   UNL A   1      41.332  25.540  28.163  1.00  0.00     0.074 A 
ATOM     50  C   UNL A   1      40.060  25.413  27.499  1.00  0.00     0.031 C 
ATOM     51  C   UNL A   1      42.750  30.494  29.886  1.00  0.00     0.029 A 
ATOM     52  C   UNL A   1      41.660  31.085  30.646  1.00  0.00     0.049 A 
ATOM     53  H   UNL A   1      39.740  31.467  29.732  1.00  0.00     0.167 HD
ATOM     54  C   UNL A   1      42.543  24.917  28.106  1.00  0.00     0.037 A 
ATOM     55  C   UNL A   1      41.546  31.060  32.007  1.00  0.00     0.037 A 
ATOM     56  C   UNL A   1      43.491  25.622  28.967  1.00  0.00     0.049 A 
ATOM     57  C   UNL A   1      42.341  29.932  32.625  1.00  0.00     0.074 A 
ATOM     58  C   UNL A   1      44.414  26.622  28.703  1.00  0.00     0.029 A 
ATOM     59  N   UNL A   1      43.281  25.629  30.341  1.00  0.00    -0.354 N 
ATOM     60  N   UNL A   1      42.658  28.836  31.988  1.00  0.00    -0.248 NA
ATOM     61  C   UNL A   1      42.874  29.966  33.982  1.00  0.00     0.031 C 
ATOM     62  C   UNL A   1      44.704  27.279  29.926  1.00  0.00     0.029 A 
ATOM     63  C   UNL A   1      43.984  26.659  30.934  1.00  0.00     0.049 A 
ATOM     64  H   UNL A   1      42.709  24.989  30.824  1.00  0.00     0.167 HD
ATOM     65  C   UNL A   1      43.439  28.048  32.795  1.00  0.00     0.074 A 
ATOM     66  C   UNL A   1      43.543  28.800  34.033  1.00  0.00     0.031 C 
ATOM     67  C   UNL A   1      43.945  26.850  32.376  1.00  0.00     0.037 A 
BRANCH  54  68
ATOM     68  C   UNL A   1      42.963  23.882  27.084  1.00  0.00     0.064 A 
ATOM     69  C   UNL A   1      42.570  22.532  27.247  1.00  0.00     0.173 A 
ATOM     70  C   UNL A   1      43.778  24.118  25.962  1.00  0.00     0.173 A 
ATOM     71  F   UNL A   1      41.730  22.160  28.220  1.00  0.00    -0.203 F 
ATOM     72  C   UNL A   1      43.025  21.506  26.414  1.00  0.00     0.198 A 
ATOM     73  C   UNL A   1      44.264  23.087  25.149  1.00  0.00     0.198 A 
ATOM     74  F   UNL A   1      44.094  25.354  25.566  1.00  0.00    -0.203 F 
ATOM     75  F   UNL A   1      42.620  20.248  26.630  1.00  0.00    -0.200 F 
ATOM     76  C   UNL A   1      43.893  21.780  25.379  1.00  0.00     0.200 A 
ATOM     77  F   UNL A   1      45.090  23.377  24.134  1.00  0.00    -0.200 F 
ATOM     78  F   UNL A   1      44.347  20.795  24.592  1.00  0.00    -0.200 F 
ENDBRANCH  54  68
BRANCH  55  79
ATOM     79  C   UNL A   1      40.218  31.568  32.465  1.00  0.00     0.064 A 
ATOM     80  C   UNL A   1      39.874  32.890  32.100  1.00  0.00     0.173 A 
ATOM     81  C   UNL A   1      39.170  30.705  32.802  1.00  0.00     0.173 A 
ATOM     82  F   UNL A   1      40.841  33.773  31.796  1.00  0.00    -0.203 F 
ATOM     83  C   UNL A   1      38.550  33.263  31.886  1.00  0.00     0.198 A 
ATOM     84  C   UNL A   1      37.839  31.102  32.633  1.00  0.00     0.198 A 
ATOM     85  F   UNL A   1      39.421  29.442  33.174  1.00  0.00    -0.203 F 
ATOM     86  F   UNL A   1      38.272  34.468  31.364  1.00  0.00    -0.200 F 
ATOM     87  C   UNL A   1      37.534  32.355  32.119  1.00  0.00     0.200 A 
ATOM     88  F   UNL A   1      36.849  30.229  32.872  1.00  0.00    -0.200 F 
ATOM     89  F   UNL A   1      36.268  32.673  31.809  1.00  0.00    -0.200 F 
ENDBRANCH  55  79
BRANCH  67  90
ATOM     90  C   UNL A   1      44.539  25.767  33.252  1.00  0.00     0.064 A 
ATOM     91  C   UNL A   1      45.890  25.389  33.226  1.00  0.00     0.173 A 
ATOM     92  C   UNL A   1      43.771  25.184  34.295  1.00  0.00     0.173 A 
ATOM     93  F   UNL A   1      46.760  25.954  32.380  1.00  0.00    -0.203 F 
ATOM     94  C   UNL A   1      46.415  24.456  34.124  1.00  0.00     0.198 A 
ATOM     95  C   UNL A   1      44.317  24.317  35.238  1.00  0.00     0.198 A 
ATOM     96  F   UNL A   1      42.468  25.462  34.457  1.00  0.00    -0.203 F 
ATOM     97  F   UNL A   1      47.700  24.090  34.019  1.00  0.00    -0.200 F 
ATOM     98  C   UNL A   1      45.636  23.935  35.139  1.00  0.00     0.200 A 
ATOM     99  F   UNL A   1      43.561  23.878  36.255  1.00  0.00    -0.200 F 
ATOM    100  F   UNL A   1      46.160  23.087  36.032  1.00  0.00    -0.200 F 
ENDBRANCH  67  90
ENDBRANCH  41  42
ENDBRANCH  33  36
ENDBRANCH  31  32
ENDBRANCH  30  31
ENDBRANCH   1  30
TORSDOF 14
ENDMDL
MODEL 2
REMARK VINA RESULT:     -14.4      2.078      3.159
REMARK SMILES Cc1ccc(C(=O)N2CCCC[C@@H]2C(=O)NCCCNC(=O)c2ccc(-c3c4nc(c(-c5c(F)c(F)c(F)c(F)c5F)c5ccc([nH]5)c(-c5c(F)c(F)c(F)c(F)c5F)c5nc(c(-c6c(F)c(F)c(F)c(F)c6F)c6ccc3[nH]6)C=C5)C=C4)cc2)cc1S(=O)(=O)N1CCCCC1
REMARK SMILES IDX 17 1 16 2 14 3 15 4 13 6 8 7 9 8 10 9 12 10 11 11 6 12 7 13
REMARK SMILES IDX 5 14 1 15 2 16 3 17 87 18 4 19 86 20 88 21 89 22 90 23 91 24
REMARK SMILES IDX 92 25 96 26 93 27 95 28 94 29 18 30 19 31 20 32 21 33 22 35
REMARK SMILES IDX 23 36 24 37 85 38 25 39 84 40 26 41 27 42 28 43 78 44 29 45
REMARK SMILES IDX 83 46 77 47 79 48 30 49 82 50 76 51 75 52 31 54 63 55 43 56
REMARK SMILES IDX 62 57 44 58 47 59 61 60 80 61 45 62 46 63 60 65 81 66 48 67
REMARK SMILES IDX 32 68 33 69 41 70 34 71 35 72 39 73 42 74 36 75 37 76 40 77
REMARK SMILES IDX 38 78 64 79 65 80 73 81 66 82 67 83 71 84 74 85 68 86 69 87
REMARK SMILES IDX 72 88 70 89 49 90 50 91 58 92 51 93 52 94 56 95 59 96 53 97
REMARK SMILES IDX 54 98 57 99 55 100
REMARK H PARENT 16 5 20 34 79 53 47 64
REMARK Flexibility Score: inf
ROOT
ATOM      1  C   UNL A   1      33.478  29.705  26.618  1.00  0.00     0.117 C 
ENDROOT
BRANCH   1   2
ATOM      2  N   UNL A   1      33.763  29.406  25.223  1.00  0.00    -0.354 N 
ATOM      3  C   UNL A   1      32.951  28.906  24.245  1.00  0.00     0.242 C 
ATOM      4  O   UNL A   1      33.501  28.522  23.208  1.00  0.00    -0.273 OA
ATOM      5  H   UNL A   1      34.688  29.593  24.939  1.00  0.00     0.163 HD
BRANCH   3   6
ATOM      6  C   UNL A   1      31.432  28.678  24.468  1.00  0.00     0.174 C 
ATOM      7  N   UNL A   1      31.081  27.319  24.957  1.00  0.00    -0.327 N 
ATOM      8  C   UNL A   1      29.707  26.868  24.772  1.00  0.00     0.120 C 
ATOM      9  C   UNL A   1      29.201  27.083  23.362  1.00  0.00     0.022 C 
ATOM     10  C   UNL A   1      30.749  29.024  23.123  1.00  0.00     0.035 C 
ATOM     11  C   UNL A   1      29.307  28.554  23.000  1.00  0.00     0.004 C 
BRANCH   7  12
ATOM     12  C   UNL A   1      31.820  26.573  25.882  1.00  0.00     0.254 C 
ATOM     13  O   UNL A   1      31.726  26.758  27.097  1.00  0.00    -0.269 OA
BRANCH  12  14
ATOM     14  C   UNL A   1      32.769  25.533  25.438  1.00  0.00     0.041 A 
ATOM     15  C   UNL A   1      35.812  23.006  23.749  1.00  0.00     0.046 C 
ATOM     16  C   UNL A   1      34.645  23.755  24.301  1.00  0.00    -0.031 A 
ATOM     17  C   UNL A   1      35.032  24.777  25.205  1.00  0.00     0.005 A 
ATOM     18  C   UNL A   1      33.277  23.607  24.007  1.00  0.00     0.086 A 
ATOM     19  C   UNL A   1      34.112  25.656  25.767  1.00  0.00     0.014 A 
ATOM     20  C   UNL A   1      32.362  24.530  24.563  1.00  0.00     0.035 A 
BRANCH  18  21
ATOM     21  S   UNL A   1      32.409  22.402  22.988  1.00  0.00     0.243 S 
ATOM     22  O   UNL A   1      30.994  22.667  23.210  1.00  0.00    -0.207 OA
ATOM     23  O   UNL A   1      32.978  22.544  21.669  1.00  0.00    -0.207 OA
BRANCH  21  24
ATOM     24  N   UNL A   1      32.700  20.814  23.482  1.00  0.00    -0.198 NA
ATOM     25  C   UNL A   1      32.900  20.610  24.929  1.00  0.00     0.102 C 
ATOM     26  C   UNL A   1      32.248  19.741  22.575  1.00  0.00     0.102 C 
ATOM     27  C   UNL A   1      33.133  19.163  25.331  1.00  0.00     0.017 C 
ATOM     28  C   UNL A   1      32.473  18.331  23.101  1.00  0.00     0.017 C 
ATOM     29  C   UNL A   1      32.232  18.192  24.592  1.00  0.00     0.003 C 
ENDBRANCH  21  24
ENDBRANCH  18  21
ENDBRANCH  12  14
ENDBRANCH   7  12
ENDBRANCH   3   6
ENDBRANCH   1   2
BRANCH   1  30
ATOM     30  C   UNL A   1      34.651  29.338  27.509  1.00  0.00     0.042 C 
BRANCH  30  31
ATOM     31  C   UNL A   1      35.359  30.552  28.069  1.00  0.00     0.118 C 
BRANCH  31  32
ATOM     32  N   UNL A   1      34.458  31.628  28.468  1.00  0.00    -0.352 N 
ATOM     33  C   UNL A   1      34.652  32.629  29.403  1.00  0.00     0.251 C 
ATOM     34  H   UNL A   1      33.588  31.643  28.007  1.00  0.00     0.163 HD
ATOM     35  O   UNL A   1      33.770  33.446  29.642  1.00  0.00    -0.269 OA
BRANCH  33  36
ATOM     36  C   UNL A   1      36.002  32.804  29.981  1.00  0.00     0.039 A 
ATOM     37  C   UNL A   1      36.960  33.419  29.167  1.00  0.00     0.014 A 
ATOM     38  C   UNL A   1      36.380  32.052  31.085  1.00  0.00     0.014 A 
ATOM     39  C   UNL A   1      38.282  33.020  29.275  1.00  0.00     0.010 A 
ATOM     40  C   UNL A   1      37.646  31.527  31.089  1.00  0.00     0.010 A 
ATOM     41  C   UNL A   1      38.572  31.973  30.145  1.00  0.00    -0.014 A 
BRANCH  41  42
ATOM     42  C   UNL A   1      39.855  31.312  30.208  1.00  0.00     0.031 A 
ATOM     43  C   UNL A   1      39.949  29.994  29.567  1.00  0.00     0.074 A 
ATOM     44  C   UNL A   1      40.911  31.973  30.728  1.00  0.00     0.049 A 
ATOM     45  N   UNL A   1      40.812  29.098  29.873  1.00  0.00    -0.248 NA
ATOM     46  C   UNL A   1      39.004  29.555  28.544  1.00  0.00     0.031 C 
ATOM     47  C   UNL A   1      42.321  31.605  30.678  1.00  0.00     0.029 A 
ATOM     48  N   UNL A   1      40.875  33.078  31.598  1.00  0.00    -0.354 N 
ATOM     49  C   UNL A   1      40.735  28.103  28.924  1.00  0.00     0.074 A 
ATOM     50  C   UNL A   1      39.532  28.383  28.182  1.00  0.00     0.031 C 
ATOM     51  C   UNL A   1      42.961  32.213  31.694  1.00  0.00     0.029 A 
ATOM     52  C   UNL A   1      41.947  32.874  32.500  1.00  0.00     0.049 A 
ATOM     53  H   UNL A   1      40.241  33.831  31.583  1.00  0.00     0.167 HD
ATOM     54  C   UNL A   1      41.794  27.252  28.804  1.00  0.00     0.037 A 
ATOM     55  C   UNL A   1      41.701  32.618  33.819  1.00  0.00     0.037 A 
ATOM     56  C   UNL A   1      42.779  27.559  29.840  1.00  0.00     0.049 A 
ATOM     57  C   UNL A   1      42.188  31.249  34.234  1.00  0.00     0.074 A 
ATOM     58  C   UNL A   1      43.907  28.364  29.835  1.00  0.00     0.029 A 
ATOM     59  N   UNL A   1      42.445  27.353  31.174  1.00  0.00    -0.354 N 
ATOM     60  N   UNL A   1      42.335  30.249  33.405  1.00  0.00    -0.248 NA
ATOM     61  C   UNL A   1      42.585  30.910  35.597  1.00  0.00     0.031 C 
ATOM     62  C   UNL A   1      44.208  28.700  31.179  1.00  0.00     0.029 A 
ATOM     63  C   UNL A   1      43.284  28.073  32.001  1.00  0.00     0.049 A 
ATOM     64  H   UNL A   1      41.712  26.774  31.485  1.00  0.00     0.167 HD
ATOM     65  C   UNL A   1      42.858  29.173  34.075  1.00  0.00     0.074 A 
ATOM     66  C   UNL A   1      42.995  29.638  35.443  1.00  0.00     0.031 C 
ATOM     67  C   UNL A   1      43.148  27.994  33.447  1.00  0.00     0.037 A 
BRANCH  54  68
ATOM     68  C   UNL A   1      42.089  26.362  27.617  1.00  0.00     0.064 A 
ATOM     69  C   UNL A   1      41.386  25.145  27.457  1.00  0.00     0.173 A 
ATOM     70  C   UNL A   1      43.066  26.602  26.632  1.00  0.00     0.173 A 
ATOM     71  F   UNL A   1      40.373  24.810  28.265  1.00  0.00    -0.203 F 
ATOM     72  C   UNL A   1      41.695  24.218  26.457  1.00  0.00     0.198 A 
ATOM     73  C   UNL A   1      43.401  25.659  25.653  1.00  0.00     0.198 A 
ATOM     74  F   UNL A   1      43.697  27.775  26.534  1.00  0.00    -0.203 F 
ATOM     75  F   UNL A   1      40.994  23.080  26.369  1.00  0.00    -0.200 F 
ATOM     76  C   UNL A   1      42.720  24.464  25.569  1.00  0.00     0.200 A 
ATOM     77  F   UNL A   1      44.387  25.926  24.785  1.00  0.00    -0.200 F 
ATOM     78  F   UNL A   1      43.032  23.567  24.624  1.00  0.00    -0.200 F 
ENDBRANCH  54  68
BRANCH  55  79
ATOM     79  C   UNL A   1      40.467  33.309  34.300  1.00  0.00     0.064 A 
ATOM     80  C   UNL A   1      39.326  32.506  34.525  1.00  0.00     0.173 A 
ATOM     81  C   UNL A   1      40.517  34.548  34.949  1.00  0.00     0.173 A 
ATOM     82  F   UNL A   1      39.209  31.320  33.904  1.00  0.00    -0.203 F 
ATOM     83  C   UNL A   1      38.390  32.833  35.503  1.00  0.00     0.198 A 
ATOM     84  C   UNL A   1      39.545  34.894  35.895  1.00  0.00     0.198 A 
ATOM     85  F   UNL A   1      41.560  35.369  34.769  1.00  0.00    -0.203 F 
ATOM     86  F   UNL A   1      37.421  31.959  35.818  1.00  0.00    -0.200 F 
ATOM     87  C   UNL A   1      38.521  34.012  36.214  1.00  0.00     0.200 A 
ATOM     88  F   UNL A   1      39.661  36.044  36.576  1.00  0.00    -0.200 F 
ATOM     89  F   UNL A   1      37.688  34.278  37.229  1.00  0.00    -0.200 F 
ENDBRANCH  55  79
BRANCH  67  90
ATOM     90  C   UNL A   1      43.423  26.663  34.114  1.00  0.00     0.064 A 
ATOM     91  C   UNL A   1      42.441  25.879  34.738  1.00  0.00     0.173 A 
ATOM     92  C   UNL A   1      44.695  26.044  33.985  1.00  0.00     0.173 A 
ATOM     93  F   UNL A   1      41.167  26.283  34.816  1.00  0.00    -0.203 F 
ATOM     94  C   UNL A   1      42.722  24.610  35.251  1.00  0.00     0.198 A 
ATOM     95  C   UNL A   1      44.948  24.746  34.425  1.00  0.00     0.198 A 
ATOM     96  F   UNL A   1      45.729  26.663  33.396  1.00  0.00    -0.203 F 
ATOM     97  F   UNL A   1      41.759  23.928  35.887  1.00  0.00    -0.200 F 
ATOM     98  C   UNL A   1      43.966  24.037  35.078  1.00  0.00     0.200 A 
ATOM     99  F   UNL A   1      46.142  24.184  34.185  1.00  0.00    -0.200 F 
ATOM    100  F   UNL A   1      44.212  22.797  35.520  1.00  0.00    -0.200 F 
ENDBRANCH  67  90
ENDBRANCH  41  42
ENDBRANCH  33  36
ENDBRANCH  31  32
ENDBRANCH  30  31
ENDBRANCH   1  30
TORSDOF 14
ENDMDL
MODEL 3
REMARK VINA RESULT:     -14.2      3.463      9.718
REMARK SMILES Cc1ccc(C(=O)N2CCCC[C@@H]2C(=O)NCCCNC(=O)c2ccc(-c3c4nc(c(-c5c(F)c(F)c(F)c(F)c5F)c5ccc([nH]5)c(-c5c(F)c(F)c(F)c(F)c5F)c5nc(c(-c6c(F)c(F)c(F)c(F)c6F)c6ccc3[nH]6)C=C5)C=C4)cc2)cc1S(=O)(=O)N1CCCCC1
REMARK SMILES IDX 17 1 16 2 14 3 15 4 13 6 8 7 9 8 10 9 12 10 11 11 6 12 7 13
REMARK SMILES IDX 5 14 1 15 2 16 3 17 87 18 4 19 86 20 88 21 89 22 90 23 91 24
REMARK SMILES IDX 92 25 96 26 93 27 95 28 94 29 18 30 19 31 20 32 21 33 22 35
REMARK SMILES IDX 23 36 24 37 85 38 25 39 84 40 26 41 27 42 28 43 78 44 29 45
REMARK SMILES IDX 83 46 77 47 79 48 30 49 82 50 76 51 75 52 31 54 63 55 43 56
REMARK SMILES IDX 62 57 44 58 47 59 61 60 80 61 45 62 46 63 60 65 81 66 48 67
REMARK SMILES IDX 32 68 33 69 41 70 34 71 35 72 39 73 42 74 36 75 37 76 40 77
REMARK SMILES IDX 38 78 64 79 65 80 73 81 66 82 67 83 71 84 74 85 68 86 69 87
REMARK SMILES IDX 72 88 70 89 49 90 50 91 58 92 51 93 52 94 56 95 59 96 53 97
REMARK SMILES IDX 54 98 57 99 55 100
REMARK H PARENT 16 5 20 34 79 53 47 64
REMARK Flexibility Score: inf
ROOT
ATOM      1  C   UNL A   1      37.505  21.615  25.078  1.00  0.00     0.117 C 
ENDROOT
BRANCH   1   2
ATOM      2  N   UNL A   1      36.429  21.732  26.051  1.00  0.00    -0.354 N 
ATOM      3  C   UNL A   1      35.075  21.677  25.880  1.00  0.00     0.242 C 
ATOM      4  O   UNL A   1      34.379  22.043  26.832  1.00  0.00    -0.273 OA
ATOM      5  H   UNL A   1      36.725  21.875  26.980  1.00  0.00     0.163 HD
BRANCH   3   6
ATOM      6  C   UNL A   1      34.429  21.324  24.513  1.00  0.00     0.174 C 
ATOM      7  N   UNL A   1      33.951  22.500  23.740  1.00  0.00    -0.327 N 
ATOM      8  C   UNL A   1      32.960  22.266  22.697  1.00  0.00     0.120 C 
ATOM      9  C   UNL A   1      31.797  21.420  23.168  1.00  0.00     0.022 C 
ATOM     10  C   UNL A   1      33.299  20.315  24.826  1.00  0.00     0.035 C 
ATOM     11  C   UNL A   1      32.313  20.089  23.690  1.00  0.00     0.004 C 
BRANCH   7  12
ATOM     12  C   UNL A   1      34.599  23.739  23.660  1.00  0.00     0.254 C 
ATOM     13  O   UNL A   1      35.707  23.865  23.137  1.00  0.00    -0.269 OA
BRANCH  12  14
ATOM     14  C   UNL A   1      33.984  24.957  24.222  1.00  0.00     0.041 A 
ATOM     15  C   UNL A   1      31.762  28.072  26.189  1.00  0.00     0.046 C 
ATOM     16  C   UNL A   1      32.518  27.085  25.362  1.00  0.00    -0.031 A 
ATOM     17  C   UNL A   1      33.350  26.244  26.144  1.00  0.00     0.005 A 
ATOM     18  C   UNL A   1      32.467  26.868  23.972  1.00  0.00     0.086 A 
ATOM     19  C   UNL A   1      34.074  25.194  25.587  1.00  0.00     0.014 A 
ATOM     20  C   UNL A   1      33.184  25.777  23.432  1.00  0.00     0.035 A 
BRANCH  18  21
ATOM     21  S   UNL A   1      31.604  27.759  22.667  1.00  0.00     0.243 S 
ATOM     22  O   UNL A   1      32.372  28.980  22.470  1.00  0.00    -0.207 OA
ATOM     23  O   UNL A   1      31.461  26.807  21.591  1.00  0.00    -0.207 OA
BRANCH  21  24
ATOM     24  N   UNL A   1      30.046  28.221  23.125  1.00  0.00    -0.198 NA
ATOM     25  C   UNL A   1      29.622  29.574  22.716  1.00  0.00     0.102 C 
ATOM     26  C   UNL A   1      29.090  27.137  23.425  1.00  0.00     0.102 C 
ATOM     27  C   UNL A   1      28.205  29.937  23.127  1.00  0.00     0.017 C 
ATOM     28  C   UNL A   1      27.684  27.608  23.764  1.00  0.00     0.017 C 
ATOM     29  C   UNL A   1      27.224  28.796  22.940  1.00  0.00     0.003 C 
ENDBRANCH  21  24
ENDBRANCH  18  21
ENDBRANCH  12  14
ENDBRANCH   7  12
ENDBRANCH   3   6
ENDBRANCH   1   2
BRANCH   1  30
ATOM     30  C   UNL A   1      38.856  21.501  25.762  1.00  0.00     0.042 C 
BRANCH  30  31
ATOM     31  C   UNL A   1      39.214  22.740  26.553  1.00  0.00     0.118 C 
BRANCH  31  32
ATOM     32  N   UNL A   1      40.643  23.036  26.568  1.00  0.00    -0.352 N 
ATOM     33  C   UNL A   1      41.281  24.260  26.671  1.00  0.00     0.251 C 
ATOM     34  H   UNL A   1      41.237  22.254  26.492  1.00  0.00     0.163 HD
ATOM     35  O   UNL A   1      42.504  24.336  26.637  1.00  0.00    -0.269 OA
BRANCH  33  36
ATOM     36  C   UNL A   1      40.472  25.452  27.001  1.00  0.00     0.039 A 
ATOM     37  C   UNL A   1      40.800  26.639  26.336  1.00  0.00     0.014 A 
ATOM     38  C   UNL A   1      39.721  25.472  28.169  1.00  0.00     0.014 A 
ATOM     39  C   UNL A   1      40.650  27.843  27.006  1.00  0.00     0.010 A 
ATOM     40  C   UNL A   1      39.725  26.629  28.903  1.00  0.00     0.010 A 
ATOM     41  C   UNL A   1      40.244  27.795  28.337  1.00  0.00    -0.014 A 
BRANCH  41  42
ATOM     42  C   UNL A   1      40.247  28.939  29.219  1.00  0.00     0.031 A 
ATOM     43  C   UNL A   1      39.185  29.932  29.012  1.00  0.00     0.074 A 
ATOM     44  C   UNL A   1      41.125  28.976  30.244  1.00  0.00     0.049 A 
ATOM     45  N   UNL A   1      39.263  31.161  29.368  1.00  0.00    -0.248 NA
ATOM     46  C   UNL A   1      37.945  29.614  28.310  1.00  0.00     0.031 C 
ATOM     47  C   UNL A   1      41.150  29.894  31.377  1.00  0.00     0.029 A 
ATOM     48  N   UNL A   1      42.326  28.254  30.360  1.00  0.00    -0.354 N 
ATOM     49  C   UNL A   1      38.012  31.718  29.214  1.00  0.00     0.074 A 
ATOM     50  C   UNL A   1      37.258  30.749  28.461  1.00  0.00     0.031 C 
ATOM     51  C   UNL A   1      42.401  29.932  31.872  1.00  0.00     0.029 A 
ATOM     52  C   UNL A   1      43.236  29.145  30.978  1.00  0.00     0.049 A 
ATOM     53  H   UNL A   1      42.497  27.328  30.073  1.00  0.00     0.167 HD
ATOM     54  C   UNL A   1      37.744  32.876  29.881  1.00  0.00     0.037 A 
ATOM     55  C   UNL A   1      44.315  29.620  30.288  1.00  0.00     0.037 A 
ATOM     56  C   UNL A   1      38.953  33.330  30.568  1.00  0.00     0.049 A 
ATOM     57  C   UNL A   1      44.261  31.119  30.108  1.00  0.00     0.074 A 
ATOM     58  C   UNL A   1      39.412  33.130  31.861  1.00  0.00     0.029 A 
ATOM     59  N   UNL A   1      40.051  33.727  29.814  1.00  0.00    -0.354 N 
ATOM     60  N   UNL A   1      43.153  31.811  30.117  1.00  0.00    -0.248 NA
ATOM     61  C   UNL A   1      45.444  31.958  29.946  1.00  0.00     0.031 C 
ATOM     62  C   UNL A   1      40.814  33.344  31.861  1.00  0.00     0.029 A 
ATOM     63  C   UNL A   1      41.200  33.703  30.580  1.00  0.00     0.049 A 
ATOM     64  H   UNL A   1      40.014  33.988  28.865  1.00  0.00     0.167 HD
ATOM     65  C   UNL A   1      43.446  33.146  30.001  1.00  0.00     0.074 A 
ATOM     66  C   UNL A   1      44.894  33.184  29.896  1.00  0.00     0.031 C 
ATOM     67  C   UNL A   1      42.477  34.110  30.014  1.00  0.00     0.037 A 
BRANCH  54  68
ATOM     68  C   UNL A   1      36.369  33.441  30.165  1.00  0.00     0.064 A 
ATOM     69  C   UNL A   1      35.579  33.938  29.102  1.00  0.00     0.173 A 
ATOM     70  C   UNL A   1      35.781  33.575  31.437  1.00  0.00     0.173 A 
ATOM     71  F   UNL A   1      35.964  33.813  27.825  1.00  0.00    -0.203 F 
ATOM     72  C   UNL A   1      34.357  34.586  29.305  1.00  0.00     0.198 A 
ATOM     73  C   UNL A   1      34.575  34.256  31.645  1.00  0.00     0.198 A 
ATOM     74  F   UNL A   1      36.311  33.006  32.523  1.00  0.00    -0.203 F 
ATOM     75  F   UNL A   1      33.664  35.041  28.253  1.00  0.00    -0.200 F 
ATOM     76  C   UNL A   1      33.867  34.768  30.580  1.00  0.00     0.200 A 
ATOM     77  F   UNL A   1      34.105  34.403  32.892  1.00  0.00    -0.200 F 
ATOM     78  F   UNL A   1      32.707  35.408  30.779  1.00  0.00    -0.200 F 
ENDBRANCH  54  68
BRANCH  55  79
ATOM     79  C   UNL A   1      44.830  28.621  29.303  1.00  0.00     0.064 A 
ATOM     80  C   UNL A   1      44.574  28.874  27.937  1.00  0.00     0.173 A 
ATOM     81  C   UNL A   1      45.888  27.758  29.608  1.00  0.00     0.173 A 
ATOM     82  F   UNL A   1      43.549  29.669  27.584  1.00  0.00    -0.203 F 
ATOM     83  C   UNL A   1      45.454  28.454  26.943  1.00  0.00     0.198 A 
ATOM     84  C   UNL A   1      46.742  27.298  28.599  1.00  0.00     0.198 A 
ATOM     85  F   UNL A   1      46.179  27.460  30.881  1.00  0.00    -0.203 F 
ATOM     86  F   UNL A   1      45.280  28.867  25.678  1.00  0.00    -0.200 F 
ATOM     87  C   UNL A   1      46.560  27.694  27.281  1.00  0.00     0.200 A 
ATOM     88  F   UNL A   1      47.807  26.549  28.920  1.00  0.00    -0.200 F 
ATOM     89  F   UNL A   1      47.468  27.382  26.346  1.00  0.00    -0.200 F 
ENDBRANCH  55  79
BRANCH  67  90
ATOM     90  C   UNL A   1      42.637  35.554  29.587  1.00  0.00     0.064 A 
ATOM     91  C   UNL A   1      43.346  36.516  30.322  1.00  0.00     0.173 A 
ATOM     92  C   UNL A   1      42.210  35.973  28.299  1.00  0.00     0.173 A 
ATOM     93  F   UNL A   1      43.916  36.220  31.496  1.00  0.00    -0.203 F 
ATOM     94  C   UNL A   1      43.553  37.810  29.839  1.00  0.00     0.198 A 
ATOM     95  C   UNL A   1      42.490  37.239  27.789  1.00  0.00     0.198 A 
ATOM     96  F   UNL A   1      41.535  35.158  27.474  1.00  0.00    -0.203 F 
ATOM     97  F   UNL A   1      44.190  38.706  30.606  1.00  0.00    -0.200 F 
ATOM     98  C   UNL A   1      43.144  38.166  28.569  1.00  0.00     0.200 A 
ATOM     99  F   UNL A   1      42.145  37.540  26.529  1.00  0.00    -0.200 F 
ATOM    100  F   UNL A   1      43.398  39.390  28.089  1.00  0.00    -0.200 F 
ENDBRANCH  67  90
ENDBRANCH  41  42
ENDBRANCH  33  36
ENDBRANCH  31  32
ENDBRANCH  30  31
ENDBRANCH   1  30
TORSDOF 14
ENDMDL
