MODEL 1
REMARK VINA RESULT:     -12.4      0.000      0.000
REMARK SMILES CN1C(=O)C[C@H](C(=O)NCCCNC(=O)c2ccc(-c3c4nc(c(-c5c(F)c(F)c(F)c(F)c5F)c5ccc([nH]5)c(-c5c(F)c(F)c(F)c(F)c5F)c5nc(c(-c6c(F)c(F)c(F)c(F)c6F)c6ccc3[nH]6)C=C5)C=C4)cc2)c2cccc(Cl)c21
REMARK SMILES IDX 12 1 11 2 10 3 9 4 7 5 8 6 6 8 1 9 2 10 3 11 85 12 4 13 5 14
REMARK SMILES IDX 79 15 83 16 80 17 82 18 84 19 81 20 13 21 14 22 15 24 16 25
REMARK SMILES IDX 17 26 78 27 18 28 77 29 19 30 20 31 21 32 71 33 22 34 76 35
REMARK SMILES IDX 70 36 72 37 23 38 75 39 69 40 68 41 24 43 56 44 36 45 55 46
REMARK SMILES IDX 37 47 40 48 54 49 73 50 38 51 39 52 53 54 74 55 41 56 25 57
REMARK SMILES IDX 26 58 34 59 27 60 28 61 32 62 35 63 29 64 30 65 33 66 31 67
REMARK SMILES IDX 57 68 58 69 66 70 59 71 60 72 64 73 67 74 61 75 62 76 65 77
REMARK SMILES IDX 63 78 42 79 43 80 51 81 44 82 45 83 49 84 52 85 46 86 47 87
REMARK SMILES IDX 50 88 48 89
REMARK H PARENT 9 7 13 23 72 42 40 53
REMARK Flexibility Score: inf
ROOT
ATOM      1  C   UNL A   1      37.035  23.620  24.996  1.00  0.00     0.118 C 
ENDROOT
BRANCH   1   2
ATOM      2  C   UNL A   1      35.698  23.671  25.722  1.00  0.00     0.042 C 
BRANCH   2   3
ATOM      3  C   UNL A   1      34.774  24.765  25.206  1.00  0.00     0.117 C 
BRANCH   3   4
ATOM      4  N   UNL A   1      33.517  24.819  25.940  1.00  0.00    -0.355 N 
ATOM      5  C   UNL A   1      32.462  25.677  25.844  1.00  0.00     0.228 C 
ATOM      6  O   UNL A   1      31.497  25.475  26.585  1.00  0.00    -0.274 OA
ATOM      7  H   UNL A   1      33.413  24.118  26.623  1.00  0.00     0.163 HD
BRANCH   5   8
ATOM      8  C   UNL A   1      32.464  26.863  24.873  1.00  0.00     0.120 C 
ATOM      9  C   UNL A   1      29.837  30.163  23.819  1.00  0.00     0.153 C 
ATOM     10  N   UNL A   1      30.762  29.106  24.200  1.00  0.00    -0.314 N 
ATOM     11  C   UNL A   1      30.699  27.963  23.411  1.00  0.00     0.227 C 
ATOM     12  C   UNL A   1      31.706  29.278  25.279  1.00  0.00     0.066 A 
ATOM     13  O   UNL A   1      30.065  27.906  22.353  1.00  0.00    -0.274 OA
ATOM     14  C   UNL A   1      31.293  26.697  23.938  1.00  0.00     0.119 C 
ATOM     15  C   UNL A   1      32.563  28.196  25.581  1.00  0.00    -0.010 A 
ATOM     16  C   UNL A   1      31.866  30.452  26.069  1.00  0.00     0.065 A 
ATOM     17  C   UNL A   1      33.559  28.309  26.582  1.00  0.00     0.007 A 
ATOM     18  C   UNL A   1      32.833  30.519  27.090  1.00  0.00     0.023 A 
ATOM     19  Cl  UNL A   1      30.961  31.924  25.921  1.00  0.00    -0.082 Cl
ATOM     20  C   UNL A   1      33.683  29.457  27.343  1.00  0.00     0.002 A 
ENDBRANCH   5   8
ENDBRANCH   3   4
ENDBRANCH   2   3
ENDBRANCH   1   2
BRANCH   1  21
ATOM     21  N   UNL A   1      37.929  22.617  25.555  1.00  0.00    -0.352 N 
ATOM     22  C   UNL A   1      39.057  22.785  26.322  1.00  0.00     0.251 C 
ATOM     23  H   UNL A   1      37.692  21.682  25.356  1.00  0.00     0.163 HD
ATOM     24  O   UNL A   1      39.805  21.838  26.542  1.00  0.00    -0.269 OA
BRANCH  22  25
ATOM     25  C   UNL A   1      39.380  24.121  26.860  1.00  0.00     0.039 A 
ATOM     26  C   UNL A   1      39.017  24.430  28.172  1.00  0.00     0.014 A 
ATOM     27  C   UNL A   1      40.048  25.062  26.071  1.00  0.00     0.014 A 
ATOM     28  C   UNL A   1      39.389  25.659  28.718  1.00  0.00     0.010 A 
ATOM     29  C   UNL A   1      40.481  26.257  26.636  1.00  0.00     0.010 A 
ATOM     30  C   UNL A   1      40.152  26.567  27.964  1.00  0.00    -0.014 A 
BRANCH  30  31
ATOM     31  C   UNL A   1      40.601  27.851  28.554  1.00  0.00     0.031 A 
ATOM     32  C   UNL A   1      42.046  28.048  28.909  1.00  0.00     0.074 A 
ATOM     33  C   UNL A   1      39.698  28.819  28.803  1.00  0.00     0.049 A 
ATOM     34  N   UNL A   1      42.633  29.104  29.415  1.00  0.00    -0.248 NA
ATOM     35  C   UNL A   1      42.951  26.908  28.689  1.00  0.00     0.031 C 
ATOM     36  C   UNL A   1      38.259  28.715  28.561  1.00  0.00     0.029 A 
ATOM     37  N   UNL A   1      39.858  30.081  29.321  1.00  0.00    -0.354 N 
ATOM     38  C   UNL A   1      43.967  28.756  29.568  1.00  0.00     0.074 A 
ATOM     39  C   UNL A   1      44.099  27.376  29.159  1.00  0.00     0.031 C 
ATOM     40  C   UNL A   1      37.669  29.871  28.911  1.00  0.00     0.029 A 
ATOM     41  C   UNL A   1      38.685  30.790  29.416  1.00  0.00     0.049 A 
ATOM     42  H   UNL A   1      40.730  30.442  29.599  1.00  0.00     0.167 HD
ATOM     43  C   UNL A   1      44.994  29.531  29.981  1.00  0.00     0.037 A 
ATOM     44  C   UNL A   1      38.460  32.044  29.855  1.00  0.00     0.037 A 
ATOM     45  C   UNL A   1      44.866  30.915  30.349  1.00  0.00     0.049 A 
ATOM     46  C   UNL A   1      39.624  32.885  30.305  1.00  0.00     0.074 A 
ATOM     47  C   UNL A   1      45.863  31.807  30.695  1.00  0.00     0.029 A 
ATOM     48  N   UNL A   1      43.664  31.603  30.417  1.00  0.00    -0.354 N 
ATOM     49  N   UNL A   1      40.898  32.579  30.342  1.00  0.00    -0.248 NA
ATOM     50  C   UNL A   1      39.324  34.250  30.764  1.00  0.00     0.031 C 
ATOM     51  C   UNL A   1      45.262  33.028  31.012  1.00  0.00     0.029 A 
ATOM     52  C   UNL A   1      43.895  32.905  30.826  1.00  0.00     0.049 A 
ATOM     53  H   UNL A   1      42.781  31.223  30.207  1.00  0.00     0.167 HD
ATOM     54  C   UNL A   1      41.550  33.713  30.801  1.00  0.00     0.074 A 
ATOM     55  C   UNL A   1      40.537  34.722  31.021  1.00  0.00     0.031 C 
ATOM     56  C   UNL A   1      42.874  33.900  31.022  1.00  0.00     0.037 A 
BRANCH  43  57
ATOM     57  C   UNL A   1      46.363  28.925  30.023  1.00  0.00     0.064 A 
ATOM     58  C   UNL A   1      46.829  28.267  31.170  1.00  0.00     0.173 A 
ATOM     59  C   UNL A   1      47.173  28.913  28.879  1.00  0.00     0.173 A 
ATOM     60  F   UNL A   1      46.092  28.260  32.291  1.00  0.00    -0.203 F 
ATOM     61  C   UNL A   1      48.060  27.617  31.169  1.00  0.00     0.198 A 
ATOM     62  C   UNL A   1      48.393  28.245  28.875  1.00  0.00     0.198 A 
ATOM     63  F   UNL A   1      46.767  29.525  27.756  1.00  0.00    -0.203 F 
ATOM     64  F   UNL A   1      48.494  27.007  32.281  1.00  0.00    -0.200 F 
ATOM     65  C   UNL A   1      48.835  27.597  30.020  1.00  0.00     0.200 A 
ATOM     66  F   UNL A   1      49.137  28.214  27.761  1.00  0.00    -0.200 F 
ATOM     67  F   UNL A   1      50.010  26.952  30.015  1.00  0.00    -0.200 F 
ENDBRANCH  43  57
BRANCH  44  68
ATOM     68  C   UNL A   1      37.079  32.593  29.855  1.00  0.00     0.064 A 
ATOM     69  C   UNL A   1      36.579  33.279  28.739  1.00  0.00     0.173 A 
ATOM     70  C   UNL A   1      36.236  32.450  30.966  1.00  0.00     0.173 A 
ATOM     71  F   UNL A   1      37.355  33.459  27.660  1.00  0.00    -0.203 F 
ATOM     72  C   UNL A   1      35.293  33.818  28.742  1.00  0.00     0.198 A 
ATOM     73  C   UNL A   1      34.943  32.968  30.959  1.00  0.00     0.198 A 
ATOM     74  F   UNL A   1      36.668  31.799  32.056  1.00  0.00    -0.203 F 
ATOM     75  F   UNL A   1      34.854  34.503  27.679  1.00  0.00    -0.200 F 
ATOM     76  C   UNL A   1      34.475  33.658  29.850  1.00  0.00     0.200 A 
ATOM     77  F   UNL A   1      34.151  32.803  32.028  1.00  0.00    -0.200 F 
ATOM     78  F   UNL A   1      33.238  34.175  29.853  1.00  0.00    -0.200 F 
ENDBRANCH  44  68
BRANCH  56  79
ATOM     79  C   UNL A   1      43.322  35.244  31.510  1.00  0.00     0.064 A 
ATOM     80  C   UNL A   1      43.709  36.248  30.613  1.00  0.00     0.173 A 
ATOM     81  C   UNL A   1      43.248  35.563  32.874  1.00  0.00     0.173 A 
ATOM     82  F   UNL A   1      43.804  35.983  29.301  1.00  0.00    -0.203 F 
ATOM     83  C   UNL A   1      44.004  37.531  31.065  1.00  0.00     0.198 A 
ATOM     84  C   UNL A   1      43.521  36.853  33.319  1.00  0.00     0.198 A 
ATOM     85  F   UNL A   1      42.872  34.636  33.767  1.00  0.00    -0.203 F 
ATOM     86  F   UNL A   1      44.385  38.475  30.194  1.00  0.00    -0.200 F 
ATOM     87  C   UNL A   1      43.897  37.835  32.415  1.00  0.00     0.200 A 
ATOM     88  F   UNL A   1      43.402  37.150  34.621  1.00  0.00    -0.200 F 
ATOM     89  F   UNL A   1      44.154  39.079  32.844  1.00  0.00    -0.200 F 
ENDBRANCH  56  79
ENDBRANCH  30  31
ENDBRANCH  22  25
ENDBRANCH   1  21
TORSDOF 10
ENDMDL
MODEL 2
REMARK VINA RESULT:     -12.3      3.716      9.215
REMARK SMILES CN1C(=O)C[C@H](C(=O)NCCCNC(=O)c2ccc(-c3c4nc(c(-c5c(F)c(F)c(F)c(F)c5F)c5ccc([nH]5)c(-c5c(F)c(F)c(F)c(F)c5F)c5nc(c(-c6c(F)c(F)c(F)c(F)c6F)c6ccc3[nH]6)C=C5)C=C4)cc2)c2cccc(Cl)c21
REMARK SMILES IDX 12 1 11 2 10 3 9 4 7 5 8 6 6 8 1 9 2 10 3 11 85 12 4 13 5 14
REMARK SMILES IDX 79 15 83 16 80 17 82 18 84 19 81 20 13 21 14 22 15 24 16 25
REMARK SMILES IDX 17 26 78 27 18 28 77 29 19 30 20 31 21 32 71 33 22 34 76 35
REMARK SMILES IDX 70 36 72 37 23 38 75 39 69 40 68 41 24 43 56 44 36 45 55 46
REMARK SMILES IDX 37 47 40 48 54 49 73 50 38 51 39 52 53 54 74 55 41 56 25 57
REMARK SMILES IDX 26 58 34 59 27 60 28 61 32 62 35 63 29 64 30 65 33 66 31 67
REMARK SMILES IDX 57 68 58 69 66 70 59 71 60 72 64 73 67 74 61 75 62 76 65 77
REMARK SMILES IDX 63 78 42 79 43 80 51 81 44 82 45 83 49 84 52 85 46 86 47 87
REMARK SMILES IDX 50 88 48 89
REMARK H PARENT 9 7 13 23 72 42 40 53
REMARK Flexibility Score: inf
ROOT
ATOM      1  C   UNL A   1      33.365  28.480  27.263  1.00  0.00     0.118 C 
ENDROOT
BRANCH   1   2
ATOM      2  C   UNL A   1      33.635  27.943  25.864  1.00  0.00     0.042 C 
BRANCH   2   3
ATOM      3  C   UNL A   1      33.462  26.435  25.754  1.00  0.00     0.117 C 
BRANCH   3   4
ATOM      4  N   UNL A   1      33.804  25.935  24.430  1.00  0.00    -0.355 N 
ATOM      5  C   UNL A   1      34.019  24.665  23.982  1.00  0.00     0.228 C 
ATOM      6  O   UNL A   1      34.275  24.521  22.784  1.00  0.00    -0.274 OA
ATOM      7  H   UNL A   1      33.897  26.632  23.742  1.00  0.00     0.163 HD
BRANCH   5   8
ATOM      8  C   UNL A   1      33.970  23.453  24.920  1.00  0.00     0.120 C 
ATOM      9  C   UNL A   1      34.414  19.138  24.626  1.00  0.00     0.153 C 
ATOM     10  N   UNL A   1      34.326  20.584  24.761  1.00  0.00    -0.314 N 
ATOM     11  C   UNL A   1      33.034  21.097  24.726  1.00  0.00     0.227 C 
ATOM     12  C   UNL A   1      35.500  21.397  24.977  1.00  0.00     0.066 A 
ATOM     13  O   UNL A   1      32.025  20.389  24.778  1.00  0.00    -0.274 OA
ATOM     14  C   UNL A   1      32.852  22.555  24.455  1.00  0.00     0.119 C 
ATOM     15  C   UNL A   1      35.320  22.794  25.093  1.00  0.00    -0.010 A 
ATOM     16  C   UNL A   1      36.836  20.920  25.098  1.00  0.00     0.065 A 
ATOM     17  C   UNL A   1      36.413  23.652  25.369  1.00  0.00     0.007 A 
ATOM     18  C   UNL A   1      37.910  21.801  25.325  1.00  0.00     0.023 A 
ATOM     19  Cl  UNL A   1      37.351  19.266  25.001  1.00  0.00    -0.082 Cl
ATOM     20  C   UNL A   1      37.702  23.162  25.469  1.00  0.00     0.002 A 
ENDBRANCH   5   8
ENDBRANCH   3   4
ENDBRANCH   2   3
ENDBRANCH   1   2
BRANCH   1  21
ATOM     21  N   UNL A   1      33.407  29.935  27.314  1.00  0.00    -0.352 N 
ATOM     22  C   UNL A   1      34.387  30.761  27.810  1.00  0.00     0.251 C 
ATOM     23  H   UNL A   1      32.621  30.393  26.939  1.00  0.00     0.163 HD
ATOM     24  O   UNL A   1      34.172  31.961  27.955  1.00  0.00    -0.269 OA
BRANCH  22  25
ATOM     25  C   UNL A   1      35.694  30.194  28.194  1.00  0.00     0.039 A 
ATOM     26  C   UNL A   1      36.723  30.162  27.251  1.00  0.00     0.014 A 
ATOM     27  C   UNL A   1      35.903  29.703  29.486  1.00  0.00     0.014 A 
ATOM     28  C   UNL A   1      37.986  29.703  27.627  1.00  0.00     0.010 A 
ATOM     29  C   UNL A   1      37.179  29.314  29.880  1.00  0.00     0.010 A 
ATOM     30  C   UNL A   1      38.231  29.307  28.953  1.00  0.00    -0.014 A 
BRANCH  30  31
ATOM     31  C   UNL A   1      39.583  28.872  29.375  1.00  0.00     0.031 A 
ATOM     32  C   UNL A   1      40.396  29.738  30.294  1.00  0.00     0.074 A 
ATOM     33  C   UNL A   1      40.090  27.719  28.898  1.00  0.00     0.049 A 
ATOM     34  N   UNL A   1      41.589  29.521  30.789  1.00  0.00    -0.248 NA
ATOM     35  C   UNL A   1      39.806  31.026  30.696  1.00  0.00     0.031 C 
ATOM     36  C   UNL A   1      39.420  26.830  27.949  1.00  0.00     0.029 A 
ATOM     37  N   UNL A   1      41.291  27.099  29.143  1.00  0.00    -0.354 N 
ATOM     38  C   UNL A   1      41.885  30.637  31.558  1.00  0.00     0.074 A 
ATOM     39  C   UNL A   1      40.780  31.557  31.422  1.00  0.00     0.031 C 
ATOM     40  C   UNL A   1      40.208  25.769  27.707  1.00  0.00     0.029 A 
ATOM     41  C   UNL A   1      41.445  25.911  28.470  1.00  0.00     0.049 A 
ATOM     42  H   UNL A   1      41.976  27.471  29.743  1.00  0.00     0.167 HD
ATOM     43  C   UNL A   1      42.971  30.856  32.334  1.00  0.00     0.037 A 
ATOM     44  C   UNL A   1      42.468  25.034  28.476  1.00  0.00     0.037 A 
ATOM     45  C   UNL A   1      44.049  29.921  32.498  1.00  0.00     0.049 A 
ATOM     46  C   UNL A   1      43.660  25.302  29.354  1.00  0.00     0.074 A 
ATOM     47  C   UNL A   1      45.148  30.015  33.331  1.00  0.00     0.029 A 
ATOM     48  N   UNL A   1      44.163  28.721  31.812  1.00  0.00    -0.354 N 
ATOM     49  N   UNL A   1      43.880  26.311  30.162  1.00  0.00    -0.248 NA
ATOM     50  C   UNL A   1      44.743  24.308  29.332  1.00  0.00     0.031 C 
ATOM     51  C   UNL A   1      45.949  28.890  33.123  1.00  0.00     0.029 A 
ATOM     52  C   UNL A   1      45.329  28.078  32.187  1.00  0.00     0.049 A 
ATOM     53  H   UNL A   1      43.512  28.379  31.158  1.00  0.00     0.167 HD
ATOM     54  C   UNL A   1      45.106  26.062  30.760  1.00  0.00     0.074 A 
ATOM     55  C   UNL A   1      45.584  24.802  30.233  1.00  0.00     0.031 C 
ATOM     56  C   UNL A   1      45.777  26.814  31.664  1.00  0.00     0.037 A 
BRANCH  43  57
ATOM     57  C   UNL A   1      43.039  32.137  33.106  1.00  0.00     0.064 A 
ATOM     58  C   UNL A   1      43.607  33.291  32.547  1.00  0.00     0.173 A 
ATOM     59  C   UNL A   1      42.441  32.241  34.370  1.00  0.00     0.173 A 
ATOM     60  F   UNL A   1      44.197  33.237  31.344  1.00  0.00    -0.203 F 
ATOM     61  C   UNL A   1      43.575  34.504  33.228  1.00  0.00     0.198 A 
ATOM     62  C   UNL A   1      42.393  33.460  35.039  1.00  0.00     0.198 A 
ATOM     63  F   UNL A   1      41.880  31.166  34.943  1.00  0.00    -0.203 F 
ATOM     64  F   UNL A   1      44.138  35.591  32.682  1.00  0.00    -0.200 F 
ATOM     65  C   UNL A   1      42.960  34.590  34.467  1.00  0.00     0.200 A 
ATOM     66  F   UNL A   1      41.787  33.547  36.231  1.00  0.00    -0.200 F 
ATOM     67  F   UNL A   1      42.910  35.765  35.111  1.00  0.00    -0.200 F 
ENDBRANCH  43  57
BRANCH  44  68
ATOM     68  C   UNL A   1      42.392  23.800  27.652  1.00  0.00     0.064 A 
ATOM     69  C   UNL A   1      41.923  22.598  28.200  1.00  0.00     0.173 A 
ATOM     70  C   UNL A   1      42.790  23.794  26.308  1.00  0.00     0.173 A 
ATOM     71  F   UNL A   1      41.550  22.549  29.487  1.00  0.00    -0.203 F 
ATOM     72  C   UNL A   1      41.873  21.431  27.439  1.00  0.00     0.198 A 
ATOM     73  C   UNL A   1      42.716  22.633  25.541  1.00  0.00     0.198 A 
ATOM     74  F   UNL A   1      43.242  24.921  25.738  1.00  0.00    -0.203 F 
ATOM     75  F   UNL A   1      41.458  20.287  27.997  1.00  0.00    -0.200 F 
ATOM     76  C   UNL A   1      42.265  21.451  26.108  1.00  0.00     0.200 A 
ATOM     77  F   UNL A   1      43.087  22.659  24.253  1.00  0.00    -0.200 F 
ATOM     78  F   UNL A   1      42.216  20.330  25.376  1.00  0.00    -0.200 F 
ENDBRANCH  44  68
BRANCH  56  79
ATOM     79  C   UNL A   1      47.093  26.301  32.167  1.00  0.00     0.064 A 
ATOM     80  C   UNL A   1      47.159  25.413  33.248  1.00  0.00     0.173 A 
ATOM     81  C   UNL A   1      48.281  26.608  31.486  1.00  0.00     0.173 A 
ATOM     82  F   UNL A   1      46.049  25.101  33.935  1.00  0.00    -0.203 F 
ATOM     83  C   UNL A   1      48.371  24.844  33.629  1.00  0.00     0.198 A 
ATOM     84  C   UNL A   1      49.486  26.019  31.855  1.00  0.00     0.198 A 
ATOM     85  F   UNL A   1      48.263  27.446  30.438  1.00  0.00    -0.203 F 
ATOM     86  F   UNL A   1      48.416  24.006  34.673  1.00  0.00    -0.200 F 
ATOM     87  C   UNL A   1      49.530  25.138  32.924  1.00  0.00     0.200 A 
ATOM     88  F   UNL A   1      50.602  26.291  31.164  1.00  0.00    -0.200 F 
ATOM     89  F   UNL A   1      50.691  24.566  33.276  1.00  0.00    -0.200 F 
ENDBRANCH  56  79
ENDBRANCH  30  31
ENDBRANCH  22  25
ENDBRANCH   1  21
TORSDOF 10
ENDMDL
MODEL 3
REMARK VINA RESULT:     -12.2      4.231      9.051
REMARK SMILES CN1C(=O)C[C@H](C(=O)NCCCNC(=O)c2ccc(-c3c4nc(c(-c5c(F)c(F)c(F)c(F)c5F)c5ccc([nH]5)c(-c5c(F)c(F)c(F)c(F)c5F)c5nc(c(-c6c(F)c(F)c(F)c(F)c6F)c6ccc3[nH]6)C=C5)C=C4)cc2)c2cccc(Cl)c21
REMARK SMILES IDX 12 1 11 2 10 3 9 4 7 5 8 6 6 8 1 9 2 10 3 11 85 12 4 13 5 14
REMARK SMILES IDX 79 15 83 16 80 17 82 18 84 19 81 20 13 21 14 22 15 24 16 25
REMARK SMILES IDX 17 26 78 27 18 28 77 29 19 30 20 31 21 32 71 33 22 34 76 35
REMARK SMILES IDX 70 36 72 37 23 38 75 39 69 40 68 41 24 43 56 44 36 45 55 46
REMARK SMILES IDX 37 47 40 48 54 49 73 50 38 51 39 52 53 54 74 55 41 56 25 57
REMARK SMILES IDX 26 58 34 59 27 60 28 61 32 62 35 63 29 64 30 65 33 66 31 67
REMARK SMILES IDX 57 68 58 69 66 70 59 71 60 72 64 73 67 74 61 75 62 76 65 77
REMARK SMILES IDX 63 78 42 79 43 80 51 81 44 82 45 83 49 84 52 85 46 86 47 87
REMARK SMILES IDX 50 88 48 89
REMARK H PARENT 9 7 13 23 72 42 40 53
REMARK Flexibility Score: inf
ROOT
ATOM      1  C   UNL A   1      32.618  32.931  27.266  1.00  0.00     0.118 C 
ENDROOT
BRANCH   1   2
ATOM      2  C   UNL A   1      31.410  32.398  26.509  1.00  0.00     0.042 C 
BRANCH   2   3
ATOM      3  C   UNL A   1      31.314  30.879  26.519  1.00  0.00     0.117 C 
BRANCH   3   4
ATOM      4  N   UNL A   1      32.613  30.245  26.691  1.00  0.00    -0.355 N 
ATOM      5  C   UNL A   1      33.279  29.346  25.910  1.00  0.00     0.228 C 
ATOM      6  O   UNL A   1      34.397  28.985  26.288  1.00  0.00    -0.274 OA
ATOM      7  H   UNL A   1      33.091  30.508  27.510  1.00  0.00     0.163 HD
BRANCH   5   8
ATOM      8  C   UNL A   1      32.671  28.781  24.622  1.00  0.00     0.120 C 
ATOM      9  C   UNL A   1      33.393  25.457  21.913  1.00  0.00     0.153 C 
ATOM     10  N   UNL A   1      33.091  26.538  22.840  1.00  0.00    -0.314 N 
ATOM     11  C   UNL A   1      33.638  27.770  22.499  1.00  0.00     0.227 C 
ATOM     12  C   UNL A   1      32.235  26.336  23.985  1.00  0.00     0.066 A 
ATOM     13  O   UNL A   1      34.167  27.995  21.407  1.00  0.00    -0.274 OA
ATOM     14  C   UNL A   1      33.732  28.826  23.552  1.00  0.00     0.119 C 
ATOM     15  C   UNL A   1      32.000  27.442  24.833  1.00  0.00    -0.010 A 
ATOM     16  C   UNL A   1      31.588  25.118  24.340  1.00  0.00     0.065 A 
ATOM     17  C   UNL A   1      31.122  27.341  25.939  1.00  0.00     0.007 A 
ATOM     18  C   UNL A   1      30.757  25.035  25.474  1.00  0.00     0.023 A 
ATOM     19  Cl  UNL A   1      31.691  23.611  23.488  1.00  0.00    -0.082 Cl
ATOM     20  C   UNL A   1      30.517  26.142  26.268  1.00  0.00     0.002 A 
ENDBRANCH   5   8
ENDBRANCH   3   4
ENDBRANCH   2   3
ENDBRANCH   1   2
BRANCH   1  21
ATOM     21  N   UNL A   1      32.432  34.307  27.705  1.00  0.00    -0.352 N 
ATOM     22  C   UNL A   1      33.068  34.994  28.711  1.00  0.00     0.251 C 
ATOM     23  H   UNL A   1      31.754  34.820  27.210  1.00  0.00     0.163 HD
ATOM     24  O   UNL A   1      32.648  36.087  29.078  1.00  0.00    -0.269 OA
BRANCH  22  25
ATOM     25  C   UNL A   1      34.247  34.398  29.369  1.00  0.00     0.039 A 
ATOM     26  C   UNL A   1      34.060  33.598  30.499  1.00  0.00     0.014 A 
ATOM     27  C   UNL A   1      35.531  34.622  28.866  1.00  0.00     0.014 A 
ATOM     28  C   UNL A   1      35.158  32.964  31.081  1.00  0.00     0.010 A 
ATOM     29  C   UNL A   1      36.615  33.933  29.402  1.00  0.00     0.010 A 
ATOM     30  C   UNL A   1      36.438  33.101  30.517  1.00  0.00    -0.014 A 
BRANCH  30  31
ATOM     31  C   UNL A   1      37.600  32.385  31.094  1.00  0.00     0.031 A 
ATOM     32  C   UNL A   1      38.106  32.754  32.459  1.00  0.00     0.074 A 
ATOM     33  C   UNL A   1      38.220  31.433  30.371  1.00  0.00     0.049 A 
ATOM     34  N   UNL A   1      39.094  32.231  33.140  1.00  0.00    -0.248 NA
ATOM     35  C   UNL A   1      37.429  33.867  33.145  1.00  0.00     0.031 C 
ATOM     36  C   UNL A   1      37.860  31.037  29.009  1.00  0.00     0.029 A 
ATOM     37  N   UNL A   1      39.289  30.628  30.679  1.00  0.00    -0.354 N 
ATOM     38  C   UNL A   1      39.153  32.947  34.327  1.00  0.00     0.074 A 
ATOM     39  C   UNL A   1      38.144  33.978  34.256  1.00  0.00     0.031 C 
ATOM     40  C   UNL A   1      38.679  30.051  28.606  1.00  0.00     0.029 A 
ATOM     41  C   UNL A   1      39.632  29.757  29.673  1.00  0.00     0.049 A 
ATOM     42  H   UNL A   1      39.766  30.672  31.539  1.00  0.00     0.167 HD
ATOM     43  C   UNL A   1      39.958  32.737  35.393  1.00  0.00     0.037 A 
ATOM     44  C   UNL A   1      40.601  28.823  29.623  1.00  0.00     0.037 A 
ATOM     45  C   UNL A   1      40.933  31.685  35.475  1.00  0.00     0.049 A 
ATOM     46  C   UNL A   1      41.478  28.609  30.827  1.00  0.00     0.074 A 
ATOM     47  C   UNL A   1      41.733  31.338  36.548  1.00  0.00     0.029 A 
ATOM     48  N   UNL A   1      41.240  30.813  34.443  1.00  0.00    -0.354 N 
ATOM     49  N   UNL A   1      41.451  29.221  31.986  1.00  0.00    -0.248 NA
ATOM     50  C   UNL A   1      42.513  27.569  30.724  1.00  0.00     0.031 C 
ATOM     51  C   UNL A   1      42.554  30.279  36.154  1.00  0.00     0.029 A 
ATOM     52  C   UNL A   1      42.238  29.943  34.847  1.00  0.00     0.049 A 
ATOM     53  H   UNL A   1      40.814  30.813  33.556  1.00  0.00     0.167 HD
ATOM     54  C   UNL A   1      42.441  28.627  32.755  1.00  0.00     0.074 A 
ATOM     55  C   UNL A   1      43.048  27.599  31.938  1.00  0.00     0.031 C 
ATOM     56  C   UNL A   1      42.815  28.913  34.025  1.00  0.00     0.037 A 
BRANCH  43  57
ATOM     57  C   UNL A   1      39.799  33.632  36.583  1.00  0.00     0.064 A 
ATOM     58  C   UNL A   1      40.440  34.877  36.644  1.00  0.00     0.173 A 
ATOM     59  C   UNL A   1      38.920  33.290  37.620  1.00  0.00     0.173 A 
ATOM     60  F   UNL A   1      41.295  35.244  35.679  1.00  0.00    -0.203 F 
ATOM     61  C   UNL A   1      40.208  35.749  37.704  1.00  0.00     0.198 A 
ATOM     62  C   UNL A   1      38.675  34.171  38.668  1.00  0.00     0.198 A 
ATOM     63  F   UNL A   1      38.280  32.111  37.603  1.00  0.00    -0.203 F 
ATOM     64  F   UNL A   1      40.843  36.928  37.751  1.00  0.00    -0.200 F 
ATOM     65  C   UNL A   1      39.318  35.400  38.709  1.00  0.00     0.200 A 
ATOM     66  F   UNL A   1      37.805  33.840  39.633  1.00  0.00    -0.200 F 
ATOM     67  F   UNL A   1      39.078  36.250  39.718  1.00  0.00    -0.200 F 
ENDBRANCH  43  57
BRANCH  44  68
ATOM     68  C   UNL A   1      40.769  27.992  28.403  1.00  0.00     0.064 A 
ATOM     69  C   UNL A   1      40.144  26.742  28.294  1.00  0.00     0.173 A 
ATOM     70  C   UNL A   1      41.557  28.424  27.327  1.00  0.00     0.173 A 
ATOM     71  F   UNL A   1      39.395  26.276  29.304  1.00  0.00    -0.203 F 
ATOM     72  C   UNL A   1      40.317  25.947  27.161  1.00  0.00     0.198 A 
ATOM     73  C   UNL A   1      41.710  27.640  26.186  1.00  0.00     0.198 A 
ATOM     74  F   UNL A   1      42.172  29.615  27.383  1.00  0.00    -0.203 F 
ATOM     75  F   UNL A   1      39.741  24.739  27.099  1.00  0.00    -0.200 F 
ATOM     76  C   UNL A   1      41.096  26.399  26.107  1.00  0.00     0.200 A 
ATOM     77  F   UNL A   1      42.456  28.084  25.165  1.00  0.00    -0.200 F 
ATOM     78  F   UNL A   1      41.263  25.635  25.018  1.00  0.00    -0.200 F 
ENDBRANCH  44  68
BRANCH  56  79
ATOM     79  C   UNL A   1      43.917  28.100  34.632  1.00  0.00     0.064 A 
ATOM     80  C   UNL A   1      45.238  28.567  34.651  1.00  0.00     0.173 A 
ATOM     81  C   UNL A   1      43.628  26.902  35.303  1.00  0.00     0.173 A 
ATOM     82  F   UNL A   1      45.561  29.702  34.012  1.00  0.00    -0.203 F 
ATOM     83  C   UNL A   1      46.232  27.866  35.326  1.00  0.00     0.198 A 
ATOM     84  C   UNL A   1      44.620  26.215  35.996  1.00  0.00     0.198 A 
ATOM     85  F   UNL A   1      42.376  26.421  35.321  1.00  0.00    -0.203 F 
ATOM     86  F   UNL A   1      47.492  28.322  35.322  1.00  0.00    -0.200 F 
ATOM     87  C   UNL A   1      45.920  26.698  36.008  1.00  0.00     0.200 A 
ATOM     88  F   UNL A   1      44.314  25.097  36.668  1.00  0.00    -0.200 F 
ATOM     89  F   UNL A   1      46.875  26.039  36.681  1.00  0.00    -0.200 F 
ENDBRANCH  56  79
ENDBRANCH  30  31
ENDBRANCH  22  25
ENDBRANCH   1  21
TORSDOF 10
ENDMDL
