MODEL 1
REMARK VINA RESULT:     -12.4      0.000      0.000
REMARK SMILES Cc1cc(C)cc([S@@](=O)Cc2ccc(C(=O)NCCCNC(=O)c3ccc(-c4c5nc(c(-c6c(F)c(F)c(F)c(F)c6F)c6ccc([nH]6)c(-c6c(F)c(F)c(F)c(F)c6F)c6nc(c(-c7c(F)c(F)c(F)c(F)c7F)c7ccc4[nH]7)C=C6)C=C5)cc3)o2)c1
REMARK SMILES IDX 18 1 17 2 15 3 16 4 14 6 11 7 12 8 87 9 13 10 10 11 8 12
REMARK SMILES IDX 9 13 7 14 1 15 2 16 3 17 88 18 4 19 5 20 6 21 19 22 20 23
REMARK SMILES IDX 21 24 22 25 23 27 24 28 25 29 86 30 26 31 85 32 27 33 28 34
REMARK SMILES IDX 29 35 79 36 30 37 84 38 78 39 80 40 31 41 83 42 77 43 76 44
REMARK SMILES IDX 32 46 64 47 44 48 63 49 45 50 48 51 62 52 81 53 46 54 47 55
REMARK SMILES IDX 61 57 82 58 49 59 33 60 34 61 42 62 35 63 36 64 40 65 43 66
REMARK SMILES IDX 37 67 38 68 41 69 39 70 65 71 66 72 74 73 67 74 68 75 72 76
REMARK SMILES IDX 75 77 69 78 70 79 73 80 71 81 50 82 51 83 59 84 52 85 53 86
REMARK SMILES IDX 57 87 60 88 54 89 55 90 58 91 56 92
REMARK H PARENT 17 5 21 26 80 45 48 56
REMARK Flexibility Score: inf
ROOT
ATOM      1  C   UNL A   1      36.616  20.426  25.016  1.00  0.00     0.118 C 
ENDROOT
BRANCH   1   2
ATOM      2  N   UNL A   1      35.376  19.673  24.975  1.00  0.00    -0.349 N 
ATOM      3  C   UNL A   1      34.065  20.113  25.009  1.00  0.00     0.286 C 
ATOM      4  O   UNL A   1      33.195  19.258  24.865  1.00  0.00    -0.266 OA
ATOM      5  H   UNL A   1      35.484  18.697  24.913  1.00  0.00     0.163 HD
BRANCH   3   6
ATOM      6  C   UNL A   1      33.790  21.527  25.186  1.00  0.00     0.191 A 
ATOM      7  C   UNL A   1      34.022  23.689  24.712  1.00  0.00     0.117 A 
ATOM      8  C   UNL A   1      33.349  23.595  25.907  1.00  0.00     0.047 A 
ATOM      9  O   UNL A   1      34.309  22.420  24.273  1.00  0.00    -0.455 OA
ATOM     10  C   UNL A   1      33.068  22.239  26.118  1.00  0.00     0.056 A 
BRANCH   7  11
ATOM     11  C   UNL A   1      34.367  24.798  23.780  1.00  0.00     0.185 C 
BRANCH  11  12
ATOM     12  S   UNL A   1      33.060  25.553  22.776  1.00  0.00     0.061 S 
ATOM     13  O   UNL A   1      33.639  25.985  21.460  1.00  0.00    -0.254 OA
BRANCH  12  14
ATOM     14  C   UNL A   1      32.609  27.075  23.643  1.00  0.00     0.040 A 
ATOM     15  C   UNL A   1      29.905  29.736  23.621  1.00  0.00     0.044 C 
ATOM     16  C   UNL A   1      31.151  28.985  23.996  1.00  0.00    -0.050 A 
ATOM     17  C   UNL A   1      31.739  29.205  25.247  1.00  0.00     0.007 A 
ATOM     18  C   UNL A   1      31.671  27.990  23.153  1.00  0.00     0.021 A 
ATOM     19  C   UNL A   1      32.794  28.401  25.687  1.00  0.00    -0.050 A 
ATOM     20  C   UNL A   1      33.438  28.664  27.016  1.00  0.00     0.044 C 
ATOM     21  C   UNL A   1      33.194  27.317  24.896  1.00  0.00     0.021 A 
ENDBRANCH  12  14
ENDBRANCH  11  12
ENDBRANCH   7  11
ENDBRANCH   3   6
ENDBRANCH   1   2
BRANCH   1  22
ATOM     22  C   UNL A   1      37.835  19.503  24.991  1.00  0.00     0.042 C 
BRANCH  22  23
ATOM     23  C   UNL A   1      39.022  20.086  25.745  1.00  0.00     0.118 C 
BRANCH  23  24
ATOM     24  N   UNL A   1      40.107  19.120  25.854  1.00  0.00    -0.352 N 
ATOM     25  C   UNL A   1      41.448  19.315  26.054  1.00  0.00     0.251 C 
ATOM     26  H   UNL A   1      39.834  18.178  25.771  1.00  0.00     0.163 HD
ATOM     27  O   UNL A   1      42.227  18.381  25.881  1.00  0.00    -0.269 OA
BRANCH  25  28
ATOM     28  C   UNL A   1      41.963  20.636  26.465  1.00  0.00     0.039 A 
ATOM     29  C   UNL A   1      42.343  21.544  25.473  1.00  0.00     0.014 A 
ATOM     30  C   UNL A   1      42.118  20.967  27.813  1.00  0.00     0.014 A 
ATOM     31  C   UNL A   1      42.833  22.799  25.832  1.00  0.00     0.010 A 
ATOM     32  C   UNL A   1      42.530  22.247  28.171  1.00  0.00     0.010 A 
ATOM     33  C   UNL A   1      42.901  23.172  27.185  1.00  0.00    -0.014 A 
BRANCH  33  34
ATOM     34  C   UNL A   1      43.371  24.521  27.586  1.00  0.00     0.031 A 
ATOM     35  C   UNL A   1      42.375  25.596  27.920  1.00  0.00     0.074 A 
ATOM     36  C   UNL A   1      44.692  24.787  27.598  1.00  0.00     0.049 A 
ATOM     37  N   UNL A   1      42.582  26.855  28.212  1.00  0.00    -0.248 NA
ATOM     38  C   UNL A   1      40.953  25.213  27.900  1.00  0.00     0.031 C 
ATOM     39  C   UNL A   1      45.751  23.834  27.261  1.00  0.00     0.029 A 
ATOM     40  N   UNL A   1      45.370  25.942  27.899  1.00  0.00    -0.354 N 
ATOM     41  C   UNL A   1      41.324  27.411  28.407  1.00  0.00     0.074 A 
ATOM     42  C   UNL A   1      40.355  26.372  28.138  1.00  0.00     0.031 C 
ATOM     43  C   UNL A   1      46.943  24.435  27.395  1.00  0.00     0.029 A 
ATOM     44  C   UNL A   1      46.734  25.826  27.782  1.00  0.00     0.049 A 
ATOM     45  H   UNL A   1      44.921  26.774  28.173  1.00  0.00     0.167 HD
ATOM     46  C   UNL A   1      41.009  28.666  28.804  1.00  0.00     0.037 A 
ATOM     47  C   UNL A   1      47.703  26.745  27.954  1.00  0.00     0.037 A 
ATOM     48  C   UNL A   1      41.978  29.692  29.085  1.00  0.00     0.049 A 
ATOM     49  C   UNL A   1      47.315  28.144  28.355  1.00  0.00     0.074 A 
ATOM     50  C   UNL A   1      41.761  30.989  29.517  1.00  0.00     0.029 A 
ATOM     51  N   UNL A   1      43.351  29.534  28.965  1.00  0.00    -0.354 N 
ATOM     52  N   UNL A   1      46.126  28.642  28.589  1.00  0.00    -0.248 NA
ATOM     53  C   UNL A   1      48.411  29.111  28.523  1.00  0.00     0.031 C 
ATOM     54  C   UNL A   1      43.001  31.629  29.615  1.00  0.00     0.029 A 
ATOM     55  C   UNL A   1      43.992  30.715  29.300  1.00  0.00     0.049 A 
ATOM     56  H   UNL A   1      43.802  28.706  28.682  1.00  0.00     0.167 HD
ATOM     57  C   UNL A   1      46.331  29.961  28.971  1.00  0.00     0.074 A 
ATOM     58  C   UNL A   1      47.762  30.181  28.954  1.00  0.00     0.031 C 
ATOM     59  C   UNL A   1      45.420  30.907  29.303  1.00  0.00     0.037 A 
BRANCH  46  60
ATOM     60  C   UNL A   1      39.555  29.000  28.979  1.00  0.00     0.064 A 
ATOM     61  C   UNL A   1      38.758  29.390  27.891  1.00  0.00     0.173 A 
ATOM     62  C   UNL A   1      38.935  28.865  30.231  1.00  0.00     0.173 A 
ATOM     63  F   UNL A   1      39.304  29.546  26.676  1.00  0.00    -0.203 F 
ATOM     64  C   UNL A   1      37.400  29.650  28.053  1.00  0.00     0.198 A 
ATOM     65  C   UNL A   1      37.569  29.094  30.383  1.00  0.00     0.198 A 
ATOM     66  F   UNL A   1      39.649  28.490  31.302  1.00  0.00    -0.203 F 
ATOM     67  F   UNL A   1      36.669  30.057  27.007  1.00  0.00    -0.200 F 
ATOM     68  C   UNL A   1      36.805  29.491  29.296  1.00  0.00     0.200 A 
ATOM     69  F   UNL A   1      36.993  28.926  31.581  1.00  0.00    -0.200 F 
ATOM     70  F   UNL A   1      35.494  29.723  29.446  1.00  0.00    -0.200 F 
ENDBRANCH  46  60
BRANCH  47  71
ATOM     71  C   UNL A   1      49.133  26.384  27.755  1.00  0.00     0.064 A 
ATOM     72  C   UNL A   1      49.983  26.174  28.851  1.00  0.00     0.173 A 
ATOM     73  C   UNL A   1      49.693  26.293  26.472  1.00  0.00     0.173 A 
ATOM     74  F   UNL A   1      49.499  26.267  30.099  1.00  0.00    -0.203 F 
ATOM     75  C   UNL A   1      51.342  25.932  28.674  1.00  0.00     0.198 A 
ATOM     76  C   UNL A   1      51.048  26.015  26.295  1.00  0.00     0.198 A 
ATOM     77  F   UNL A   1      48.926  26.476  25.388  1.00  0.00    -0.203 F 
ATOM     78  F   UNL A   1      52.143  25.809  29.741  1.00  0.00    -0.200 F 
ATOM     79  C   UNL A   1      51.874  25.850  27.396  1.00  0.00     0.200 A 
ATOM     80  F   UNL A   1      51.552  25.918  25.058  1.00  0.00    -0.200 F 
ATOM     81  F   UNL A   1      53.184  25.628  27.225  1.00  0.00    -0.200 F 
ENDBRANCH  47  71
BRANCH  59  82
ATOM     82  C   UNL A   1      45.943  32.248  29.733  1.00  0.00     0.064 A 
ATOM     83  C   UNL A   1      46.129  33.296  28.821  1.00  0.00     0.173 A 
ATOM     84  C   UNL A   1      46.226  32.494  31.085  1.00  0.00     0.173 A 
ATOM     85  F   UNL A   1      45.887  33.107  27.515  1.00  0.00    -0.203 F 
ATOM     86  C   UNL A   1      46.611  34.532  29.242  1.00  0.00     0.198 A 
ATOM     87  C   UNL A   1      46.673  33.743  31.507  1.00  0.00     0.198 A 
ATOM     88  F   UNL A   1      46.056  31.528  31.999  1.00  0.00    -0.203 F 
ATOM     89  F   UNL A   1      46.836  35.502  28.345  1.00  0.00    -0.200 F 
ATOM     90  C   UNL A   1      46.875  34.757  30.585  1.00  0.00     0.200 A 
ATOM     91  F   UNL A   1      46.910  33.963  32.808  1.00  0.00    -0.200 F 
ATOM     92  F   UNL A   1      47.330  35.951  30.989  1.00  0.00    -0.200 F 
ENDBRANCH  59  82
ENDBRANCH  33  34
ENDBRANCH  25  28
ENDBRANCH  23  24
ENDBRANCH  22  23
ENDBRANCH   1  22
TORSDOF 13
ENDMDL
MODEL 2
REMARK VINA RESULT:     -12.3      1.113      1.666
REMARK SMILES Cc1cc(C)cc([S@@](=O)Cc2ccc(C(=O)NCCCNC(=O)c3ccc(-c4c5nc(c(-c6c(F)c(F)c(F)c(F)c6F)c6ccc([nH]6)c(-c6c(F)c(F)c(F)c(F)c6F)c6nc(c(-c7c(F)c(F)c(F)c(F)c7F)c7ccc4[nH]7)C=C6)C=C5)cc3)o2)c1
REMARK SMILES IDX 18 1 17 2 15 3 16 4 14 6 11 7 12 8 87 9 13 10 10 11 8 12
REMARK SMILES IDX 9 13 7 14 1 15 2 16 3 17 88 18 4 19 5 20 6 21 19 22 20 23
REMARK SMILES IDX 21 24 22 25 23 27 24 28 25 29 86 30 26 31 85 32 27 33 28 34
REMARK SMILES IDX 29 35 79 36 30 37 84 38 78 39 80 40 31 41 83 42 77 43 76 44
REMARK SMILES IDX 32 46 64 47 44 48 63 49 45 50 48 51 62 52 81 53 46 54 47 55
REMARK SMILES IDX 61 57 82 58 49 59 33 60 34 61 42 62 35 63 36 64 40 65 43 66
REMARK SMILES IDX 37 67 38 68 41 69 39 70 65 71 66 72 74 73 67 74 68 75 72 76
REMARK SMILES IDX 75 77 69 78 70 79 73 80 71 81 50 82 51 83 59 84 52 85 53 86
REMARK SMILES IDX 57 87 60 88 54 89 55 90 58 91 56 92
REMARK H PARENT 17 5 21 26 80 45 48 56
REMARK Flexibility Score: inf
ROOT
ATOM      1  C   UNL A   1      36.610  20.539  24.988  1.00  0.00     0.118 C 
ENDROOT
BRANCH   1   2
ATOM      2  N   UNL A   1      36.951  21.838  25.539  1.00  0.00    -0.349 N 
ATOM      3  C   UNL A   1      36.295  23.051  25.432  1.00  0.00     0.286 C 
ATOM      4  O   UNL A   1      36.758  23.985  26.083  1.00  0.00    -0.266 OA
ATOM      5  H   UNL A   1      37.778  21.859  26.073  1.00  0.00     0.163 HD
BRANCH   3   6
ATOM      6  C   UNL A   1      35.111  23.153  24.599  1.00  0.00     0.191 A 
ATOM      7  C   UNL A   1      32.926  23.367  24.238  1.00  0.00     0.117 A 
ATOM      8  C   UNL A   1      33.510  23.004  23.048  1.00  0.00     0.047 A 
ATOM      9  O   UNL A   1      33.904  23.443  25.198  1.00  0.00    -0.455 OA
ATOM     10  C   UNL A   1      34.897  23.026  23.244  1.00  0.00     0.056 A 
BRANCH   7  11
ATOM     11  C   UNL A   1      31.563  23.800  24.655  1.00  0.00     0.185 C 
BRANCH  11  12
ATOM     12  S   UNL A   1      31.349  24.641  26.247  1.00  0.00     0.061 S 
ATOM     13  O   UNL A   1      30.025  24.247  26.836  1.00  0.00    -0.254 OA
BRANCH  12  14
ATOM     14  C   UNL A   1      31.208  26.399  25.844  1.00  0.00     0.040 A 
ATOM     15  C   UNL A   1      32.444  29.766  27.078  1.00  0.00     0.044 C 
ATOM     16  C   UNL A   1      31.720  28.736  26.259  1.00  0.00    -0.050 A 
ATOM     17  C   UNL A   1      31.281  29.063  24.971  1.00  0.00     0.007 A 
ATOM     18  C   UNL A   1      31.571  27.421  26.728  1.00  0.00     0.021 A 
ATOM     19  C   UNL A   1      30.759  28.078  24.128  1.00  0.00    -0.050 A 
ATOM     20  C   UNL A   1      30.263  28.443  22.759  1.00  0.00     0.044 C 
ATOM     21  C   UNL A   1      30.763  26.746  24.559  1.00  0.00     0.021 A 
ENDBRANCH  12  14
ENDBRANCH  11  12
ENDBRANCH   7  11
ENDBRANCH   3   6
ENDBRANCH   1   2
BRANCH   1  22
ATOM     22  C   UNL A   1      37.814  19.597  24.985  1.00  0.00     0.042 C 
BRANCH  22  23
ATOM     23  C   UNL A   1      39.007  20.174  25.736  1.00  0.00     0.118 C 
BRANCH  23  24
ATOM     24  N   UNL A   1      40.091  19.205  25.833  1.00  0.00    -0.352 N 
ATOM     25  C   UNL A   1      41.432  19.396  26.037  1.00  0.00     0.251 C 
ATOM     26  H   UNL A   1      39.816  18.265  25.738  1.00  0.00     0.163 HD
ATOM     27  O   UNL A   1      42.209  18.465  25.852  1.00  0.00    -0.269 OA
BRANCH  25  28
ATOM     28  C   UNL A   1      41.947  20.712  26.465  1.00  0.00     0.039 A 
ATOM     29  C   UNL A   1      42.329  21.633  25.485  1.00  0.00     0.014 A 
ATOM     30  C   UNL A   1      42.102  21.026  27.818  1.00  0.00     0.014 A 
ATOM     31  C   UNL A   1      42.820  22.882  25.861  1.00  0.00     0.010 A 
ATOM     32  C   UNL A   1      42.514  22.300  28.192  1.00  0.00     0.010 A 
ATOM     33  C   UNL A   1      42.887  23.238  27.218  1.00  0.00    -0.014 A 
BRANCH  33  34
ATOM     34  C   UNL A   1      43.358  24.581  27.637  1.00  0.00     0.031 A 
ATOM     35  C   UNL A   1      42.362  25.657  27.969  1.00  0.00     0.074 A 
ATOM     36  C   UNL A   1      44.679  24.842  27.666  1.00  0.00     0.049 A 
ATOM     37  N   UNL A   1      42.571  26.913  28.275  1.00  0.00    -0.248 NA
ATOM     38  C   UNL A   1      40.939  25.280  27.931  1.00  0.00     0.031 C 
ATOM     39  C   UNL A   1      45.738  23.888  27.331  1.00  0.00     0.029 A 
ATOM     40  N   UNL A   1      45.359  25.991  27.985  1.00  0.00    -0.354 N 
ATOM     41  C   UNL A   1      41.313  27.472  28.462  1.00  0.00     0.074 A 
ATOM     42  C   UNL A   1      40.343  26.439  28.173  1.00  0.00     0.031 C 
ATOM     43  C   UNL A   1      46.931  24.483  27.484  1.00  0.00     0.029 A 
ATOM     44  C   UNL A   1      46.724  25.871  27.881  1.00  0.00     0.049 A 
ATOM     45  H   UNL A   1      44.910  26.823  28.262  1.00  0.00     0.167 HD
ATOM     46  C   UNL A   1      40.998  28.724  28.867  1.00  0.00     0.037 A 
ATOM     47  C   UNL A   1      47.694  26.784  28.073  1.00  0.00     0.037 A 
ATOM     48  C   UNL A   1      41.968  29.743  29.169  1.00  0.00     0.049 A 
ATOM     49  C   UNL A   1      47.308  28.181  28.482  1.00  0.00     0.074 A 
ATOM     50  C   UNL A   1      41.752  31.037  29.610  1.00  0.00     0.029 A 
ATOM     51  N   UNL A   1      43.342  29.581  29.062  1.00  0.00    -0.354 N 
ATOM     52  N   UNL A   1      46.117  28.681  28.708  1.00  0.00    -0.248 NA
ATOM     53  C   UNL A   1      48.405  29.142  28.671  1.00  0.00     0.031 C 
ATOM     54  C   UNL A   1      42.993  31.672  29.728  1.00  0.00     0.029 A 
ATOM     55  C   UNL A   1      43.985  30.757  29.415  1.00  0.00     0.049 A 
ATOM     56  H   UNL A   1      43.793  28.754  28.776  1.00  0.00     0.167 HD
ATOM     57  C   UNL A   1      46.324  29.996  29.104  1.00  0.00     0.074 A 
ATOM     58  C   UNL A   1      47.755  30.211  29.105  1.00  0.00     0.031 C 
ATOM     59  C   UNL A   1      45.412  30.943  29.435  1.00  0.00     0.037 A 
BRANCH  46  60
ATOM     60  C   UNL A   1      39.544  29.063  29.029  1.00  0.00     0.064 A 
ATOM     61  C   UNL A   1      38.751  29.427  27.930  1.00  0.00     0.173 A 
ATOM     62  C   UNL A   1      38.920  28.957  30.282  1.00  0.00     0.173 A 
ATOM     63  F   UNL A   1      39.301  29.553  26.713  1.00  0.00    -0.203 F 
ATOM     64  C   UNL A   1      37.392  29.690  28.081  1.00  0.00     0.198 A 
ATOM     65  C   UNL A   1      37.554  29.190  30.424  1.00  0.00     0.198 A 
ATOM     66  F   UNL A   1      39.630  28.608  31.364  1.00  0.00    -0.203 F 
ATOM     67  F   UNL A   1      36.665  30.073  27.023  1.00  0.00    -0.200 F 
ATOM     68  C   UNL A   1      36.794  29.561  29.325  1.00  0.00     0.200 A 
ATOM     69  F   UNL A   1      36.973  29.052  31.623  1.00  0.00    -0.200 F 
ATOM     70  F   UNL A   1      35.482  29.797  29.466  1.00  0.00    -0.200 F 
ENDBRANCH  46  60
BRANCH  47  71
ATOM     71  C   UNL A   1      49.125  26.420  27.886  1.00  0.00     0.064 A 
ATOM     72  C   UNL A   1      49.961  26.195  28.990  1.00  0.00     0.173 A 
ATOM     73  C   UNL A   1      49.699  26.339  26.609  1.00  0.00     0.173 A 
ATOM     74  F   UNL A   1      49.464  26.277  30.233  1.00  0.00    -0.203 F 
ATOM     75  C   UNL A   1      51.322  25.949  28.825  1.00  0.00     0.198 A 
ATOM     76  C   UNL A   1      51.054  26.057  26.444  1.00  0.00     0.198 A 
ATOM     77  F   UNL A   1      48.945  26.536  25.518  1.00  0.00    -0.203 F 
ATOM     78  F   UNL A   1      52.110  25.812  29.900  1.00  0.00    -0.200 F 
ATOM     79  C   UNL A   1      51.867  25.878  27.553  1.00  0.00     0.200 A 
ATOM     80  F   UNL A   1      51.573  25.971  25.212  1.00  0.00    -0.200 F 
ATOM     81  F   UNL A   1      53.179  25.652  27.394  1.00  0.00    -0.200 F 
ENDBRANCH  47  71
BRANCH  59  82
ATOM     82  C   UNL A   1      45.936  32.277  29.883  1.00  0.00     0.064 A 
ATOM     83  C   UNL A   1      46.141  33.332  28.982  1.00  0.00     0.173 A 
ATOM     84  C   UNL A   1      46.201  32.512  31.241  1.00  0.00     0.173 A 
ATOM     85  F   UNL A   1      45.917  33.154  27.671  1.00  0.00    -0.203 F 
ATOM     86  C   UNL A   1      46.623  34.562  29.420  1.00  0.00     0.198 A 
ATOM     87  C   UNL A   1      46.648  33.755  31.680  1.00  0.00     0.198 A 
ATOM     88  F   UNL A   1      46.013  31.540  32.145  1.00  0.00    -0.203 F 
ATOM     89  F   UNL A   1      46.865  35.538  28.533  1.00  0.00    -0.200 F 
ATOM     90  C   UNL A   1      46.868  34.775  30.768  1.00  0.00     0.200 A 
ATOM     91  F   UNL A   1      46.868  33.963  32.986  1.00  0.00    -0.200 F 
ATOM     92  F   UNL A   1      47.323  35.963  31.188  1.00  0.00    -0.200 F 
ENDBRANCH  59  82
ENDBRANCH  33  34
ENDBRANCH  25  28
ENDBRANCH  23  24
ENDBRANCH  22  23
ENDBRANCH   1  22
TORSDOF 13
ENDMDL
MODEL 3
REMARK VINA RESULT:     -12.3      5.499     10.653
REMARK SMILES Cc1cc(C)cc([S@@](=O)Cc2ccc(C(=O)NCCCNC(=O)c3ccc(-c4c5nc(c(-c6c(F)c(F)c(F)c(F)c6F)c6ccc([nH]6)c(-c6c(F)c(F)c(F)c(F)c6F)c6nc(c(-c7c(F)c(F)c(F)c(F)c7F)c7ccc4[nH]7)C=C6)C=C5)cc3)o2)c1
REMARK SMILES IDX 18 1 17 2 15 3 16 4 14 6 11 7 12 8 87 9 13 10 10 11 8 12
REMARK SMILES IDX 9 13 7 14 1 15 2 16 3 17 88 18 4 19 5 20 6 21 19 22 20 23
REMARK SMILES IDX 21 24 22 25 23 27 24 28 25 29 86 30 26 31 85 32 27 33 28 34
REMARK SMILES IDX 29 35 79 36 30 37 84 38 78 39 80 40 31 41 83 42 77 43 76 44
REMARK SMILES IDX 32 46 64 47 44 48 63 49 45 50 48 51 62 52 81 53 46 54 47 55
REMARK SMILES IDX 61 57 82 58 49 59 33 60 34 61 42 62 35 63 36 64 40 65 43 66
REMARK SMILES IDX 37 67 38 68 41 69 39 70 65 71 66 72 74 73 67 74 68 75 72 76
REMARK SMILES IDX 75 77 69 78 70 79 73 80 71 81 50 82 51 83 59 84 52 85 53 86
REMARK SMILES IDX 57 87 60 88 54 89 55 90 58 91 56 92
REMARK H PARENT 17 5 21 26 80 45 48 56
REMARK Flexibility Score: inf
ROOT
ATOM      1  C   UNL A   1      31.378  30.570  26.241  1.00  0.00     0.118 C 
ENDROOT
BRANCH   1   2
ATOM      2  N   UNL A   1      32.404  30.215  25.277  1.00  0.00    -0.349 N 
ATOM      3  C   UNL A   1      32.458  29.162  24.382  1.00  0.00     0.286 C 
ATOM      4  O   UNL A   1      33.412  29.148  23.607  1.00  0.00    -0.266 OA
ATOM      5  H   UNL A   1      33.181  30.818  25.256  1.00  0.00     0.163 HD
BRANCH   3   6
ATOM      6  C   UNL A   1      31.405  28.163  24.387  1.00  0.00     0.191 A 
ATOM      7  C   UNL A   1      30.359  26.357  25.158  1.00  0.00     0.117 A 
ATOM      8  C   UNL A   1      29.813  26.663  23.935  1.00  0.00     0.047 A 
ATOM      9  O   UNL A   1      31.350  27.267  25.433  1.00  0.00    -0.455 OA
ATOM     10  C   UNL A   1      30.363  27.886  23.530  1.00  0.00     0.056 A 
BRANCH   7  11
ATOM     11  C   UNL A   1      30.037  25.391  26.245  1.00  0.00     0.185 C 
BRANCH  11  12
ATOM     12  S   UNL A   1      30.763  23.730  26.198  1.00  0.00     0.061 S 
ATOM     13  O   UNL A   1      31.228  23.359  27.577  1.00  0.00    -0.254 OA
BRANCH  12  14
ATOM     14  C   UNL A   1      32.262  23.891  25.197  1.00  0.00     0.040 A 
ATOM     15  C   UNL A   1      36.027  24.073  25.618  1.00  0.00     0.044 C 
ATOM     16  C   UNL A   1      34.673  24.057  24.967  1.00  0.00    -0.050 A 
ATOM     17  C   UNL A   1      34.566  23.755  23.605  1.00  0.00     0.007 A 
ATOM     18  C   UNL A   1      33.508  24.238  25.729  1.00  0.00     0.021 A 
ATOM     19  C   UNL A   1      33.312  23.567  23.016  1.00  0.00    -0.050 A 
ATOM     20  C   UNL A   1      33.206  23.273  21.548  1.00  0.00     0.044 C 
ATOM     21  C   UNL A   1      32.172  23.599  23.827  1.00  0.00     0.021 A 
ENDBRANCH  12  14
ENDBRANCH  11  12
ENDBRANCH   7  11
ENDBRANCH   3   6
ENDBRANCH   1   2
BRANCH   1  22
ATOM     22  C   UNL A   1      31.329  32.080  26.478  1.00  0.00     0.042 C 
BRANCH  22  23
ATOM     23  C   UNL A   1      32.598  32.608  27.133  1.00  0.00     0.118 C 
BRANCH  23  24
ATOM     24  N   UNL A   1      32.444  33.996  27.546  1.00  0.00    -0.352 N 
ATOM     25  C   UNL A   1      33.063  34.695  28.548  1.00  0.00     0.251 C 
ATOM     26  H   UNL A   1      31.791  34.515  27.022  1.00  0.00     0.163 HD
ATOM     27  O   UNL A   1      32.622  35.790  28.883  1.00  0.00    -0.269 OA
BRANCH  25  28
ATOM     28  C   UNL A   1      34.247  34.138  29.233  1.00  0.00     0.039 A 
ATOM     29  C   UNL A   1      34.050  33.265  30.307  1.00  0.00     0.014 A 
ATOM     30  C   UNL A   1      35.542  34.505  28.857  1.00  0.00     0.014 A 
ATOM     31  C   UNL A   1      35.150  32.725  30.972  1.00  0.00     0.010 A 
ATOM     32  C   UNL A   1      36.639  33.904  29.467  1.00  0.00     0.010 A 
ATOM     33  C   UNL A   1      36.454  33.016  30.537  1.00  0.00    -0.014 A 
BRANCH  33  34
ATOM     34  C   UNL A   1      37.636  32.410  31.198  1.00  0.00     0.031 A 
ATOM     35  C   UNL A   1      38.382  31.290  30.528  1.00  0.00     0.074 A 
ATOM     36  C   UNL A   1      38.003  32.837  32.422  1.00  0.00     0.049 A 
ATOM     37  N   UNL A   1      39.385  30.578  30.976  1.00  0.00    -0.248 NA
ATOM     38  C   UNL A   1      37.925  30.900  29.183  1.00  0.00     0.031 C 
ATOM     39  C   UNL A   1      37.335  33.894  33.186  1.00  0.00     0.029 A 
ATOM     40  N   UNL A   1      39.023  32.429  33.245  1.00  0.00    -0.354 N 
ATOM     41  C   UNL A   1      39.675  29.660  29.975  1.00  0.00     0.074 A 
ATOM     42  C   UNL A   1      38.704  29.860  28.922  1.00  0.00     0.031 C 
ATOM     43  C   UNL A   1      37.976  34.065  34.352  1.00  0.00     0.029 A 
ATOM     44  C   UNL A   1      39.068  33.103  34.442  1.00  0.00     0.049 A 
ATOM     45  H   UNL A   1      39.661  31.721  33.001  1.00  0.00     0.167 HD
ATOM     46  C   UNL A   1      40.680  28.755  29.927  1.00  0.00     0.037 A 
ATOM     47  C   UNL A   1      39.892  32.949  35.496  1.00  0.00     0.037 A 
ATOM     48  C   UNL A   1      41.653  28.571  30.970  1.00  0.00     0.049 A 
ATOM     49  C   UNL A   1      40.973  31.903  35.427  1.00  0.00     0.074 A 
ATOM     50  C   UNL A   1      42.725  27.697  31.008  1.00  0.00     0.029 A 
ATOM     51  N   UNL A   1      41.673  29.279  32.163  1.00  0.00    -0.354 N 
ATOM     52  N   UNL A   1      41.271  31.079  34.452  1.00  0.00    -0.248 NA
ATOM     53  C   UNL A   1      41.841  31.770  36.607  1.00  0.00     0.031 C 
ATOM     54  C   UNL A   1      43.367  27.845  32.241  1.00  0.00     0.029 A 
ATOM     55  C   UNL A   1      42.730  28.850  32.949  1.00  0.00     0.049 A 
ATOM     56  H   UNL A   1      41.030  29.981  32.415  1.00  0.00     0.167 HD
ATOM     57  C   UNL A   1      42.380  30.363  34.882  1.00  0.00     0.074 A 
ATOM     58  C   UNL A   1      42.714  30.862  36.199  1.00  0.00     0.031 C 
ATOM     59  C   UNL A   1      43.062  29.379  34.247  1.00  0.00     0.037 A 
BRANCH  46  60
ATOM     60  C   UNL A   1      40.794  27.902  28.696  1.00  0.00     0.064 A 
ATOM     61  C   UNL A   1      40.076  26.703  28.567  1.00  0.00     0.173 A 
ATOM     62  C   UNL A   1      41.576  28.318  27.606  1.00  0.00     0.173 A 
ATOM     63  F   UNL A   1      39.324  26.255  29.583  1.00  0.00    -0.203 F 
ATOM     64  C   UNL A   1      40.149  25.944  27.402  1.00  0.00     0.198 A 
ATOM     65  C   UNL A   1      41.622  27.572  26.431  1.00  0.00     0.198 A 
ATOM     66  F   UNL A   1      42.278  29.458  27.674  1.00  0.00    -0.203 F 
ATOM     67  F   UNL A   1      39.484  24.784  27.319  1.00  0.00    -0.200 F 
ATOM     68  C   UNL A   1      40.913  26.385  26.332  1.00  0.00     0.200 A 
ATOM     69  F   UNL A   1      42.348  28.006  25.392  1.00  0.00    -0.200 F 
ATOM     70  F   UNL A   1      40.968  25.662  25.205  1.00  0.00    -0.200 F 
ENDBRANCH  46  60
BRANCH  47  71
ATOM     71  C   UNL A   1      39.739  33.799  36.707  1.00  0.00     0.064 A 
ATOM     72  C   UNL A   1      38.925  33.392  37.775  1.00  0.00     0.173 A 
ATOM     73  C   UNL A   1      40.357  35.055  36.803  1.00  0.00     0.173 A 
ATOM     74  F   UNL A   1      38.298  32.207  37.724  1.00  0.00    -0.203 F 
ATOM     75  C   UNL A   1      38.700  34.225  38.868  1.00  0.00     0.198 A 
ATOM     76  C   UNL A   1      40.160  35.872  37.915  1.00  0.00     0.198 A 
ATOM     77  F   UNL A   1      41.152  35.491  35.816  1.00  0.00    -0.203 F 
ATOM     78  F   UNL A   1      37.859  33.841  39.839  1.00  0.00    -0.200 F 
ATOM     79  C   UNL A   1      39.319  35.463  38.939  1.00  0.00     0.200 A 
ATOM     80  F   UNL A   1      40.775  37.060  37.987  1.00  0.00    -0.200 F 
ATOM     81  F   UNL A   1      39.095  36.270  39.986  1.00  0.00    -0.200 F 
ENDBRANCH  47  71
BRANCH  59  82
ATOM     82  C   UNL A   1      44.270  28.818  34.941  1.00  0.00     0.064 A 
ATOM     83  C   UNL A   1      45.540  29.394  34.798  1.00  0.00     0.173 A 
ATOM     84  C   UNL A   1      44.143  27.709  35.791  1.00  0.00     0.173 A 
ATOM     85  F   UNL A   1      45.717  30.447  33.985  1.00  0.00    -0.203 F 
ATOM     86  C   UNL A   1      46.645  28.860  35.454  1.00  0.00     0.198 A 
ATOM     87  C   UNL A   1      45.244  27.200  36.475  1.00  0.00     0.198 A 
ATOM     88  F   UNL A   1      42.949  27.126  35.971  1.00  0.00    -0.203 F 
ATOM     89  F   UNL A   1      47.859  29.392  35.258  1.00  0.00    -0.200 F 
ATOM     90  C   UNL A   1      46.495  27.770  36.298  1.00  0.00     0.200 A 
ATOM     91  F   UNL A   1      45.093  26.157  37.303  1.00  0.00    -0.200 F 
ATOM     92  F   UNL A   1      47.559  27.263  36.936  1.00  0.00    -0.200 F 
ENDBRANCH  59  82
ENDBRANCH  33  34
ENDBRANCH  25  28
ENDBRANCH  23  24
ENDBRANCH  22  23
ENDBRANCH   1  22
TORSDOF 13
ENDMDL
