MODEL 1
REMARK VINA RESULT:     -14.4      0.000      0.000
REMARK SMILES Cc1ccc(-c2nn(-c3ccccc3)cc2[C@@H]2[NH2+][C@H](C(=O)NCCCNC(=O)c3ccc(-c4c5nc(c(-c6c(F)c(F)c(F)c(F)c6F)c6ccc([nH]6)c(-c6c(F)c(F)c(F)c(F)c6F)c6nc(c(-c7c(F)c(F)c(F)c(F)c7F)c7ccc4[nH]7)C=C6)C=C5)cc3)CS2)cc1
REMARK SMILES IDX 24 1 23 2 22 3 20 4 21 5 19 7 17 8 18 9 93 10 92 13 16 14
REMARK SMILES IDX 6 15 7 16 8 17 15 18 5 19 1 20 2 21 3 22 95 23 4 24 94 25
REMARK SMILES IDX 9 26 10 27 14 28 11 29 13 30 12 31 25 32 26 33 27 34 28 36
REMARK SMILES IDX 29 37 30 38 91 39 31 40 90 41 32 42 33 43 34 44 84 45 35 46
REMARK SMILES IDX 89 47 83 48 85 49 36 50 88 51 82 52 81 53 37 55 69 56 49 57
REMARK SMILES IDX 68 58 50 59 53 60 67 61 86 62 51 63 52 64 66 66 87 67 54 68
REMARK SMILES IDX 38 69 39 70 47 71 40 72 41 73 45 74 48 75 42 76 43 77 46 78
REMARK SMILES IDX 44 79 70 80 71 81 79 82 72 83 73 84 77 85 80 86 74 87 75 88
REMARK SMILES IDX 78 89 76 90 55 91 56 92 64 93 57 94 58 95 62 96 65 97 59 98
REMARK SMILES IDX 60 99 63 100 61 101
REMARK H PARENT 22 6 18 11 18 12 26 35 85 54 53 65
REMARK Flexibility Score: inf
ROOT
ATOM      1  C   UNL A   1      33.817  28.601  25.516  1.00  0.00     0.042 C 
ENDROOT
BRANCH   1   2
ATOM      2  C   UNL A   1      32.755  27.573  25.117  1.00  0.00     0.118 C 
BRANCH   2   3
ATOM      3  N   UNL A   1      33.161  26.771  23.971  1.00  0.00    -0.351 N 
ATOM      4  C   UNL A   1      34.007  25.712  23.851  1.00  0.00     0.279 C 
ATOM      5  O   UNL A   1      34.112  25.221  22.719  1.00  0.00    -0.268 OA
ATOM      6  H   UNL A   1      32.746  27.046  23.122  1.00  0.00     0.163 HD
BRANCH   4   7
ATOM      7  C   UNL A   1      34.753  25.059  25.025  1.00  0.00     0.283 C 
ATOM      8  C   UNL A   1      34.487  23.203  26.574  1.00  0.00     0.278 C 
ATOM      9  N   UNL A   1      33.859  24.407  26.006  1.00  0.00    -0.320 N 
ATOM     10  S   UNL A   1      36.200  23.142  25.996  1.00  0.00    -0.087 SA
ATOM     11  H   UNL A   1      33.656  25.064  26.760  1.00  0.00     0.348 HD
ATOM     12  H   UNL A   1      33.001  24.131  25.530  1.00  0.00     0.348 HD
ATOM     13  C   UNL A   1      35.818  24.104  24.519  1.00  0.00     0.151 C 
BRANCH   8  14
ATOM     14  C   UNL A   1      33.656  22.039  26.115  1.00  0.00     0.067 A 
ATOM     15  C   UNL A   1      32.421  22.071  25.392  1.00  0.00     0.103 A 
ATOM     16  N   UNL A   1      32.151  20.862  24.876  1.00  0.00    -0.167 NA
ATOM     17  N   UNL A   1      33.055  20.017  25.404  1.00  0.00    -0.240 N 
ATOM     18  C   UNL A   1      33.922  20.678  26.235  1.00  0.00     0.126 A 
BRANCH  15  19
ATOM     19  C   UNL A   1      31.500  23.172  25.080  1.00  0.00     0.003 A 
ATOM     20  C   UNL A   1      28.948  26.482  23.952  1.00  0.00     0.044 C 
ATOM     21  C   UNL A   1      29.825  25.327  24.337  1.00  0.00    -0.051 A 
ATOM     22  C   UNL A   1      30.093  25.063  25.684  1.00  0.00     0.004 A 
ATOM     23  C   UNL A   1      30.416  24.523  23.361  1.00  0.00     0.004 A 
ATOM     24  C   UNL A   1      30.918  23.992  26.051  1.00  0.00     0.011 A 
ATOM     25  C   UNL A   1      31.245  23.461  23.730  1.00  0.00     0.011 A 
ENDBRANCH  15  19
BRANCH  17  26
ATOM     26  C   UNL A   1      33.089  18.648  25.030  1.00  0.00     0.065 A 
ATOM     27  C   UNL A   1      32.572  17.687  25.908  1.00  0.00     0.028 A 
ATOM     28  C   UNL A   1      33.620  18.241  23.804  1.00  0.00     0.028 A 
ATOM     29  C   UNL A   1      32.584  16.335  25.572  1.00  0.00     0.002 A 
ATOM     30  C   UNL A   1      33.684  16.876  23.499  1.00  0.00     0.002 A 
ATOM     31  C   UNL A   1      33.166  15.926  24.381  1.00  0.00     0.000 A 
ENDBRANCH  17  26
ENDBRANCH   8  14
ENDBRANCH   4   7
ENDBRANCH   2   3
ENDBRANCH   1   2
BRANCH   1  32
ATOM     32  C   UNL A   1      33.466  29.397  26.766  1.00  0.00     0.118 C 
BRANCH  32  33
ATOM     33  N   UNL A   1      33.961  30.766  26.904  1.00  0.00    -0.352 N 
ATOM     34  C   UNL A   1      35.125  31.176  27.565  1.00  0.00     0.251 C 
ATOM     35  H   UNL A   1      33.417  31.474  26.488  1.00  0.00     0.163 HD
ATOM     36  O   UNL A   1      35.481  32.323  27.659  1.00  0.00    -0.269 OA
BRANCH  34  37
ATOM     37  C   UNL A   1      35.999  30.080  28.046  1.00  0.00     0.039 A 
ATOM     38  C   UNL A   1      35.909  29.717  29.400  1.00  0.00     0.014 A 
ATOM     39  C   UNL A   1      37.137  29.831  27.301  1.00  0.00     0.014 A 
ATOM     40  C   UNL A   1      37.058  29.324  30.089  1.00  0.00     0.010 A 
ATOM     41  C   UNL A   1      38.287  29.564  28.004  1.00  0.00     0.010 A 
ATOM     42  C   UNL A   1      38.265  29.332  29.402  1.00  0.00    -0.014 A 
BRANCH  42  43
ATOM     43  C   UNL A   1      39.594  29.073  29.955  1.00  0.00     0.031 A 
ATOM     44  C   UNL A   1      40.260  27.811  29.524  1.00  0.00     0.074 A 
ATOM     45  C   UNL A   1      40.348  30.088  30.439  1.00  0.00     0.049 A 
ATOM     46  N   UNL A   1      41.489  27.501  29.755  1.00  0.00    -0.248 NA
ATOM     47  C   UNL A   1      39.554  26.774  28.775  1.00  0.00     0.031 C 
ATOM     48  C   UNL A   1      41.799  30.208  30.301  1.00  0.00     0.029 A 
ATOM     49  N   UNL A   1      39.998  31.146  31.296  1.00  0.00    -0.354 N 
ATOM     50  C   UNL A   1      41.822  26.448  28.932  1.00  0.00     0.074 A 
ATOM     51  C   UNL A   1      40.562  25.976  28.420  1.00  0.00     0.031 C 
ATOM     52  C   UNL A   1      42.266  31.058  31.220  1.00  0.00     0.029 A 
ATOM     53  C   UNL A   1      41.161  31.414  32.081  1.00  0.00     0.049 A 
ATOM     54  H   UNL A   1      39.131  31.608  31.344  1.00  0.00     0.167 HD
ATOM     55  C   UNL A   1      43.146  26.195  28.715  1.00  0.00     0.037 A 
ATOM     56  C   UNL A   1      41.166  31.203  33.431  1.00  0.00     0.037 A 
ATOM     57  C   UNL A   1      43.968  26.892  29.715  1.00  0.00     0.049 A 
ATOM     58  C   UNL A   1      41.984  30.037  33.914  1.00  0.00     0.074 A 
ATOM     59  C   UNL A   1      44.813  27.987  29.735  1.00  0.00     0.029 A 
ATOM     60  N   UNL A   1      43.755  26.560  31.041  1.00  0.00    -0.354 N 
ATOM     61  N   UNL A   1      42.857  29.396  33.191  1.00  0.00    -0.248 NA
ATOM     62  C   UNL A   1      41.793  29.434  35.234  1.00  0.00     0.031 C 
ATOM     63  C   UNL A   1      45.050  28.337  31.103  1.00  0.00     0.029 A 
ATOM     64  C   UNL A   1      44.360  27.447  31.907  1.00  0.00     0.049 A 
ATOM     65  H   UNL A   1      43.231  25.781  31.334  1.00  0.00     0.167 HD
ATOM     66  C   UNL A   1      43.259  28.279  33.870  1.00  0.00     0.074 A 
ATOM     67  C   UNL A   1      42.589  28.356  35.153  1.00  0.00     0.031 C 
ATOM     68  C   UNL A   1      44.064  27.321  33.324  1.00  0.00     0.037 A 
BRANCH  55  69
ATOM     69  C   UNL A   1      43.741  25.407  27.560  1.00  0.00     0.064 A 
ATOM     70  C   UNL A   1      43.517  24.012  27.470  1.00  0.00     0.173 A 
ATOM     71  C   UNL A   1      44.599  25.911  26.561  1.00  0.00     0.173 A 
ATOM     72  F   UNL A   1      42.715  23.375  28.333  1.00  0.00    -0.203 F 
ATOM     73  C   UNL A   1      44.121  23.207  26.496  1.00  0.00     0.198 A 
ATOM     74  C   UNL A   1      45.191  25.109  25.580  1.00  0.00     0.198 A 
ATOM     75  F   UNL A   1      44.930  27.199  26.475  1.00  0.00    -0.203 F 
ATOM     76  F   UNL A   1      43.889  21.887  26.490  1.00  0.00    -0.200 F 
ATOM     77  C   UNL A   1      44.961  23.754  25.553  1.00  0.00     0.200 A 
ATOM     78  F   UNL A   1      46.002  25.670  24.670  1.00  0.00    -0.200 F 
ATOM     79  F   UNL A   1      45.548  22.985  24.627  1.00  0.00    -0.200 F 
ENDBRANCH  55  69
BRANCH  56  80
ATOM     80  C   UNL A   1      39.969  31.767  34.084  1.00  0.00     0.064 A 
ATOM     81  C   UNL A   1      40.001  33.156  34.287  1.00  0.00     0.173 A 
ATOM     82  C   UNL A   1      38.732  31.132  33.928  1.00  0.00     0.173 A 
ATOM     83  F   UNL A   1      41.173  33.783  34.480  1.00  0.00    -0.203 F 
ATOM     84  C   UNL A   1      38.858  33.913  34.104  1.00  0.00     0.198 A 
ATOM     85  C   UNL A   1      37.588  31.898  33.734  1.00  0.00     0.198 A 
ATOM     86  F   UNL A   1      38.667  29.801  33.774  1.00  0.00    -0.203 F 
ATOM     87  F   UNL A   1      38.928  35.252  34.122  1.00  0.00    -0.200 F 
ATOM     88  C   UNL A   1      37.670  33.285  33.775  1.00  0.00     0.200 A 
ATOM     89  F   UNL A   1      36.438  31.301  33.391  1.00  0.00    -0.200 F 
ATOM     90  F   UNL A   1      36.618  34.037  33.444  1.00  0.00    -0.200 F 
ENDBRANCH  56  80
BRANCH  68  91
ATOM     91  C   UNL A   1      44.570  26.160  34.129  1.00  0.00     0.064 A 
ATOM     92  C   UNL A   1      45.938  26.019  34.421  1.00  0.00     0.173 A 
ATOM     93  C   UNL A   1      43.735  25.103  34.540  1.00  0.00     0.173 A 
ATOM     94  F   UNL A   1      46.822  26.947  34.025  1.00  0.00    -0.203 F 
ATOM     95  C   UNL A   1      46.430  24.918  35.123  1.00  0.00     0.198 A 
ATOM     96  C   UNL A   1      44.237  23.977  35.192  1.00  0.00     0.198 A 
ATOM     97  F   UNL A   1      42.409  25.142  34.350  1.00  0.00    -0.203 F 
ATOM     98  F   UNL A   1      47.731  24.856  35.435  1.00  0.00    -0.200 F 
ATOM     99  C   UNL A   1      45.582  23.891  35.495  1.00  0.00     0.200 A 
ATOM    100  F   UNL A   1      43.406  22.981  35.531  1.00  0.00    -0.200 F 
ATOM    101  F   UNL A   1      46.058  22.824  36.151  1.00  0.00    -0.200 F 
ENDBRANCH  68  91
ENDBRANCH  42  43
ENDBRANCH  34  37
ENDBRANCH  32  33
ENDBRANCH   1  32
TORSDOF 13
ENDMDL
MODEL 2
REMARK VINA RESULT:     -14.3      4.143      9.285
REMARK SMILES Cc1ccc(-c2nn(-c3ccccc3)cc2[C@@H]2[NH2+][C@H](C(=O)NCCCNC(=O)c3ccc(-c4c5nc(c(-c6c(F)c(F)c(F)c(F)c6F)c6ccc([nH]6)c(-c6c(F)c(F)c(F)c(F)c6F)c6nc(c(-c7c(F)c(F)c(F)c(F)c7F)c7ccc4[nH]7)C=C6)C=C5)cc3)CS2)cc1
REMARK SMILES IDX 24 1 23 2 22 3 20 4 21 5 19 7 17 8 18 9 93 10 92 13 16 14
REMARK SMILES IDX 6 15 7 16 8 17 15 18 5 19 1 20 2 21 3 22 95 23 4 24 94 25
REMARK SMILES IDX 9 26 10 27 14 28 11 29 13 30 12 31 25 32 26 33 27 34 28 36
REMARK SMILES IDX 29 37 30 38 91 39 31 40 90 41 32 42 33 43 34 44 84 45 35 46
REMARK SMILES IDX 89 47 83 48 85 49 36 50 88 51 82 52 81 53 37 55 69 56 49 57
REMARK SMILES IDX 68 58 50 59 53 60 67 61 86 62 51 63 52 64 66 66 87 67 54 68
REMARK SMILES IDX 38 69 39 70 47 71 40 72 41 73 45 74 48 75 42 76 43 77 46 78
REMARK SMILES IDX 44 79 70 80 71 81 79 82 72 83 73 84 77 85 80 86 74 87 75 88
REMARK SMILES IDX 78 89 76 90 55 91 56 92 64 93 57 94 58 95 62 96 65 97 59 98
REMARK SMILES IDX 60 99 63 100 61 101
REMARK H PARENT 22 6 18 11 18 12 26 35 85 54 53 65
REMARK Flexibility Score: inf
ROOT
ATOM      1  C   UNL A   1      42.056  22.951  26.687  1.00  0.00     0.042 C 
ENDROOT
BRANCH   1   2
ATOM      2  C   UNL A   1      40.528  23.048  26.704  1.00  0.00     0.118 C 
BRANCH   2   3
ATOM      3  N   UNL A   1      39.888  21.822  26.247  1.00  0.00    -0.351 N 
ATOM      4  C   UNL A   1      38.713  21.592  25.600  1.00  0.00     0.279 C 
ATOM      5  O   UNL A   1      38.467  20.413  25.316  1.00  0.00    -0.268 OA
ATOM      6  H   UNL A   1      40.402  21.006  26.442  1.00  0.00     0.163 HD
BRANCH   4   7
ATOM      7  C   UNL A   1      37.742  22.692  25.144  1.00  0.00     0.283 C 
ATOM      8  C   UNL A   1      35.500  22.908  24.226  1.00  0.00     0.278 C 
ATOM      9  N   UNL A   1      36.812  22.258  24.079  1.00  0.00    -0.320 N 
ATOM     10  S   UNL A   1      35.637  24.151  25.533  1.00  0.00    -0.087 SA
ATOM     11  H   UNL A   1      37.207  22.506  23.171  1.00  0.00     0.348 HD
ATOM     12  H   UNL A   1      36.685  21.249  24.151  1.00  0.00     0.348 HD
ATOM     13  C   UNL A   1      36.999  23.277  26.330  1.00  0.00     0.151 C 
BRANCH   8  14
ATOM     14  C   UNL A   1      34.522  21.812  24.540  1.00  0.00     0.067 A 
ATOM     15  C   UNL A   1      33.092  21.874  24.510  1.00  0.00     0.103 A 
ATOM     16  N   UNL A   1      32.571  20.637  24.521  1.00  0.00    -0.167 NA
ATOM     17  N   UNL A   1      33.597  19.799  24.759  1.00  0.00    -0.240 N 
ATOM     18  C   UNL A   1      34.778  20.485  24.872  1.00  0.00     0.126 A 
BRANCH  15  19
ATOM     19  C   UNL A   1      32.166  23.008  24.396  1.00  0.00     0.003 A 
ATOM     20  C   UNL A   1      29.347  26.292  24.313  1.00  0.00     0.044 C 
ATOM     21  C   UNL A   1      30.332  25.162  24.345  1.00  0.00    -0.051 A 
ATOM     22  C   UNL A   1      30.526  24.362  23.214  1.00  0.00     0.004 A 
ATOM     23  C   UNL A   1      31.043  24.867  25.510  1.00  0.00     0.004 A 
ATOM     24  C   UNL A   1      31.438  23.299  23.239  1.00  0.00     0.011 A 
ATOM     25  C   UNL A   1      31.946  23.801  25.534  1.00  0.00     0.011 A 
ENDBRANCH  15  19
BRANCH  17  26
ATOM     26  C   UNL A   1      33.406  18.393  24.787  1.00  0.00     0.065 A 
ATOM     27  C   UNL A   1      34.049  17.597  23.831  1.00  0.00     0.028 A 
ATOM     28  C   UNL A   1      32.595  17.787  25.750  1.00  0.00     0.028 A 
ATOM     29  C   UNL A   1      33.890  16.213  23.832  1.00  0.00     0.002 A 
ATOM     30  C   UNL A   1      32.391  16.403  25.707  1.00  0.00     0.002 A 
ATOM     31  C   UNL A   1      33.037  15.618  24.751  1.00  0.00     0.000 A 
ENDBRANCH  17  26
ENDBRANCH   8  14
ENDBRANCH   4   7
ENDBRANCH   2   3
ENDBRANCH   1   2
BRANCH   1  32
ATOM     32  C   UNL A   1      42.666  23.079  25.297  1.00  0.00     0.118 C 
BRANCH  32  33
ATOM     33  N   UNL A   1      43.431  21.960  24.747  1.00  0.00    -0.352 N 
ATOM     34  C   UNL A   1      44.824  21.825  24.724  1.00  0.00     0.251 C 
ATOM     35  H   UNL A   1      42.910  21.225  24.349  1.00  0.00     0.163 HD
ATOM     36  O   UNL A   1      45.405  20.884  24.246  1.00  0.00    -0.269 OA
BRANCH  34  37
ATOM     37  C   UNL A   1      45.573  22.869  25.464  1.00  0.00     0.039 A 
ATOM     38  C   UNL A   1      45.590  22.791  26.867  1.00  0.00     0.014 A 
ATOM     39  C   UNL A   1      45.779  24.063  24.799  1.00  0.00     0.014 A 
ATOM     40  C   UNL A   1      45.566  23.963  27.625  1.00  0.00     0.010 A 
ATOM     41  C   UNL A   1      45.632  25.212  25.539  1.00  0.00     0.010 A 
ATOM     42  C   UNL A   1      45.501  25.176  26.949  1.00  0.00    -0.014 A 
BRANCH  42  43
ATOM     43  C   UNL A   1      45.350  26.505  27.540  1.00  0.00     0.031 A 
ATOM     44  C   UNL A   1      43.984  27.103  27.491  1.00  0.00     0.074 A 
ATOM     45  C   UNL A   1      46.239  26.957  28.455  1.00  0.00     0.049 A 
ATOM     46  N   UNL A   1      43.616  28.169  28.112  1.00  0.00    -0.248 NA
ATOM     47  C   UNL A   1      42.903  26.512  26.706  1.00  0.00     0.031 C 
ATOM     48  C   UNL A   1      45.912  27.769  29.626  1.00  0.00     0.029 A 
ATOM     49  N   UNL A   1      47.644  26.924  28.445  1.00  0.00    -0.354 N 
ATOM     50  C   UNL A   1      42.240  28.213  28.099  1.00  0.00     0.074 A 
ATOM     51  C   UNL A   1      41.855  27.218  27.132  1.00  0.00     0.031 C 
ATOM     52  C   UNL A   1      47.013  28.383  30.065  1.00  0.00     0.029 A 
ATOM     53  C   UNL A   1      48.068  28.111  29.116  1.00  0.00     0.049 A 
ATOM     54  H   UNL A   1      48.218  26.225  28.056  1.00  0.00     0.167 HD
ATOM     55  C   UNL A   1      41.614  29.022  29.003  1.00  0.00     0.037 A 
ATOM     56  C   UNL A   1      48.750  29.092  28.452  1.00  0.00     0.037 A 
ATOM     57  C   UNL A   1      42.570  29.978  29.580  1.00  0.00     0.049 A 
ATOM     58  C   UNL A   1      47.992  30.365  28.195  1.00  0.00     0.074 A 
ATOM     59  C   UNL A   1      43.210  30.151  30.794  1.00  0.00     0.029 A 
ATOM     60  N   UNL A   1      43.197  30.844  28.701  1.00  0.00    -0.354 N 
ATOM     61  N   UNL A   1      46.862  30.681  28.762  1.00  0.00    -0.248 NA
ATOM     62  C   UNL A   1      48.406  31.339  27.183  1.00  0.00     0.031 C 
ATOM     63  C   UNL A   1      44.270  31.095  30.605  1.00  0.00     0.029 A 
ATOM     64  C   UNL A   1      44.262  31.500  29.282  1.00  0.00     0.049 A 
ATOM     65  H   UNL A   1      42.916  30.976  27.768  1.00  0.00     0.167 HD
ATOM     66  C   UNL A   1      46.358  31.796  28.153  1.00  0.00     0.074 A 
ATOM     67  C   UNL A   1      47.368  32.189  27.189  1.00  0.00     0.031 C 
ATOM     68  C   UNL A   1      45.118  32.299  28.421  1.00  0.00     0.037 A 
BRANCH  55  69
ATOM     69  C   UNL A   1      40.168  28.920  29.462  1.00  0.00     0.064 A 
ATOM     70  C   UNL A   1      39.123  29.307  28.590  1.00  0.00     0.173 A 
ATOM     71  C   UNL A   1      39.727  28.542  30.747  1.00  0.00     0.173 A 
ATOM     72  F   UNL A   1      39.368  29.682  27.327  1.00  0.00    -0.203 F 
ATOM     73  C   UNL A   1      37.779  29.342  28.982  1.00  0.00     0.198 A 
ATOM     74  C   UNL A   1      38.383  28.563  31.134  1.00  0.00     0.198 A 
ATOM     75  F   UNL A   1      40.558  28.144  31.709  1.00  0.00    -0.203 F 
ATOM     76  F   UNL A   1      36.845  29.750  28.112  1.00  0.00    -0.200 F 
ATOM     77  C   UNL A   1      37.409  28.973  30.256  1.00  0.00     0.200 A 
ATOM     78  F   UNL A   1      38.050  28.194  32.381  1.00  0.00    -0.200 F 
ATOM     79  F   UNL A   1      36.126  29.014  30.637  1.00  0.00    -0.200 F 
ENDBRANCH  55  69
BRANCH  56  80
ATOM     80  C   UNL A   1      49.852  28.546  27.636  1.00  0.00     0.064 A 
ATOM     81  C   UNL A   1      50.974  28.118  28.363  1.00  0.00     0.173 A 
ATOM     82  C   UNL A   1      49.568  27.940  26.407  1.00  0.00     0.173 A 
ATOM     83  F   UNL A   1      51.291  28.711  29.526  1.00  0.00    -0.203 F 
ATOM     84  C   UNL A   1      51.650  26.970  27.990  1.00  0.00     0.198 A 
ATOM     85  C   UNL A   1      50.244  26.781  26.042  1.00  0.00     0.198 A 
ATOM     86  F   UNL A   1      48.527  28.356  25.671  1.00  0.00    -0.203 F 
ATOM     87  F   UNL A   1      52.606  26.464  28.783  1.00  0.00    -0.200 F 
ATOM     88  C   UNL A   1      51.246  26.278  26.862  1.00  0.00     0.200 A 
ATOM     89  F   UNL A   1      49.844  26.091  24.965  1.00  0.00    -0.200 F 
ATOM     90  F   UNL A   1      51.800  25.092  26.607  1.00  0.00    -0.200 F 
ENDBRANCH  56  80
BRANCH  68  91
ATOM     91  C   UNL A   1      44.635  33.582  27.811  1.00  0.00     0.064 A 
ATOM     92  C   UNL A   1      44.646  34.784  28.539  1.00  0.00     0.173 A 
ATOM     93  C   UNL A   1      44.049  33.638  26.531  1.00  0.00     0.173 A 
ATOM     94  F   UNL A   1      45.134  34.822  29.789  1.00  0.00    -0.203 F 
ATOM     95  C   UNL A   1      44.152  35.973  28.004  1.00  0.00     0.198 A 
ATOM     96  C   UNL A   1      43.506  34.815  26.019  1.00  0.00     0.198 A 
ATOM     97  F   UNL A   1      44.014  32.565  25.728  1.00  0.00    -0.203 F 
ATOM     98  F   UNL A   1      44.242  37.108  28.711  1.00  0.00    -0.200 F 
ATOM     99  C   UNL A   1      43.569  35.986  26.750  1.00  0.00     0.200 A 
ATOM    100  F   UNL A   1      42.927  34.808  24.809  1.00  0.00    -0.200 F 
ATOM    101  F   UNL A   1      43.075  37.124  26.244  1.00  0.00    -0.200 F 
ENDBRANCH  68  91
ENDBRANCH  42  43
ENDBRANCH  34  37
ENDBRANCH  32  33
ENDBRANCH   1  32
TORSDOF 13
ENDMDL
MODEL 3
REMARK VINA RESULT:     -14.3      1.474      3.022
REMARK SMILES Cc1ccc(-c2nn(-c3ccccc3)cc2[C@@H]2[NH2+][C@H](C(=O)NCCCNC(=O)c3ccc(-c4c5nc(c(-c6c(F)c(F)c(F)c(F)c6F)c6ccc([nH]6)c(-c6c(F)c(F)c(F)c(F)c6F)c6nc(c(-c7c(F)c(F)c(F)c(F)c7F)c7ccc4[nH]7)C=C6)C=C5)cc3)CS2)cc1
REMARK SMILES IDX 24 1 23 2 22 3 20 4 21 5 19 7 17 8 18 9 93 10 92 13 16 14
REMARK SMILES IDX 6 15 7 16 8 17 15 18 5 19 1 20 2 21 3 22 95 23 4 24 94 25
REMARK SMILES IDX 9 26 10 27 14 28 11 29 13 30 12 31 25 32 26 33 27 34 28 36
REMARK SMILES IDX 29 37 30 38 91 39 31 40 90 41 32 42 33 43 34 44 84 45 35 46
REMARK SMILES IDX 89 47 83 48 85 49 36 50 88 51 82 52 81 53 37 55 69 56 49 57
REMARK SMILES IDX 68 58 50 59 53 60 67 61 86 62 51 63 52 64 66 66 87 67 54 68
REMARK SMILES IDX 38 69 39 70 47 71 40 72 41 73 45 74 48 75 42 76 43 77 46 78
REMARK SMILES IDX 44 79 70 80 71 81 79 82 72 83 73 84 77 85 80 86 74 87 75 88
REMARK SMILES IDX 78 89 76 90 55 91 56 92 64 93 57 94 58 95 62 96 65 97 59 98
REMARK SMILES IDX 60 99 63 100 61 101
REMARK H PARENT 22 6 18 11 18 12 26 35 85 54 53 65
REMARK Flexibility Score: inf
ROOT
ATOM      1  C   UNL A   1      32.709  28.618  27.499  1.00  0.00     0.042 C 
ENDROOT
BRANCH   1   2
ATOM      2  C   UNL A   1      31.493  27.985  26.819  1.00  0.00     0.118 C 
BRANCH   2   3
ATOM      3  N   UNL A   1      31.439  26.542  27.007  1.00  0.00    -0.351 N 
ATOM      4  C   UNL A   1      32.023  25.511  26.338  1.00  0.00     0.279 C 
ATOM      5  O   UNL A   1      31.799  24.376  26.779  1.00  0.00    -0.268 OA
ATOM      6  H   UNL A   1      30.874  26.258  27.761  1.00  0.00     0.163 HD
BRANCH   4   7
ATOM      7  C   UNL A   1      32.982  25.679  25.149  1.00  0.00     0.283 C 
ATOM      8  C   UNL A   1      34.829  24.503  24.090  1.00  0.00     0.278 C 
ATOM      9  N   UNL A   1      34.299  25.038  25.355  1.00  0.00    -0.320 N 
ATOM     10  S   UNL A   1      33.742  25.052  22.753  1.00  0.00    -0.087 SA
ATOM     11  H   UNL A   1      34.952  25.729  25.724  1.00  0.00     0.348 HD
ATOM     12  H   UNL A   1      34.185  24.266  26.011  1.00  0.00     0.348 HD
ATOM     13  C   UNL A   1      32.328  25.212  23.862  1.00  0.00     0.151 C 
BRANCH   8  14
ATOM     14  C   UNL A   1      34.875  23.011  24.252  1.00  0.00     0.067 A 
ATOM     15  C   UNL A   1      35.848  22.232  24.957  1.00  0.00     0.103 A 
ATOM     16  N   UNL A   1      35.388  20.988  25.165  1.00  0.00    -0.167 NA
ATOM     17  N   UNL A   1      34.252  20.882  24.452  1.00  0.00    -0.240 N 
ATOM     18  C   UNL A   1      33.962  22.058  23.809  1.00  0.00     0.126 A 
BRANCH  15  19
ATOM     19  C   UNL A   1      37.158  22.583  25.520  1.00  0.00     0.003 A 
ATOM     20  C   UNL A   1      41.027  23.368  27.295  1.00  0.00     0.044 C 
ATOM     21  C   UNL A   1      39.692  23.093  26.670  1.00  0.00    -0.051 A 
ATOM     22  C   UNL A   1      38.702  24.081  26.657  1.00  0.00     0.004 A 
ATOM     23  C   UNL A   1      39.402  21.841  26.126  1.00  0.00     0.004 A 
ATOM     24  C   UNL A   1      37.449  23.829  26.083  1.00  0.00     0.011 A 
ATOM     25  C   UNL A   1      38.150  21.590  25.561  1.00  0.00     0.011 A 
ENDBRANCH  15  19
BRANCH  17  26
ATOM     26  C   UNL A   1      33.470  19.698  24.486  1.00  0.00     0.065 A 
ATOM     27  C   UNL A   1      33.294  19.032  25.705  1.00  0.00     0.028 A 
ATOM     28  C   UNL A   1      32.870  19.188  23.332  1.00  0.00     0.028 A 
ATOM     29  C   UNL A   1      32.528  17.869  25.777  1.00  0.00     0.002 A 
ATOM     30  C   UNL A   1      32.153  17.988  23.401  1.00  0.00     0.002 A 
ATOM     31  C   UNL A   1      31.982  17.331  24.620  1.00  0.00     0.000 A 
ENDBRANCH  17  26
ENDBRANCH   8  14
ENDBRANCH   4   7
ENDBRANCH   2   3
ENDBRANCH   1   2
BRANCH   1  32
ATOM     32  C   UNL A   1      33.630  29.367  26.543  1.00  0.00     0.118 C 
BRANCH  32  33
ATOM     33  N   UNL A   1      33.986  30.755  26.834  1.00  0.00    -0.352 N 
ATOM     34  C   UNL A   1      35.051  31.201  27.626  1.00  0.00     0.251 C 
ATOM     35  H   UNL A   1      33.415  31.449  26.431  1.00  0.00     0.163 HD
ATOM     36  O   UNL A   1      35.293  32.361  27.843  1.00  0.00    -0.269 OA
BRANCH  34  37
ATOM     37  C   UNL A   1      35.980  30.144  28.091  1.00  0.00     0.039 A 
ATOM     38  C   UNL A   1      35.824  29.668  29.404  1.00  0.00     0.014 A 
ATOM     39  C   UNL A   1      37.185  30.047  27.420  1.00  0.00     0.014 A 
ATOM     40  C   UNL A   1      36.951  29.315  30.149  1.00  0.00     0.010 A 
ATOM     41  C   UNL A   1      38.301  29.818  28.190  1.00  0.00     0.010 A 
ATOM     42  C   UNL A   1      38.199  29.474  29.560  1.00  0.00    -0.014 A 
BRANCH  42  43
ATOM     43  C   UNL A   1      39.502  29.280  30.194  1.00  0.00     0.031 A 
ATOM     44  C   UNL A   1      40.271  28.072  29.779  1.00  0.00     0.074 A 
ATOM     45  C   UNL A   1      40.160  30.324  30.752  1.00  0.00     0.049 A 
ATOM     46  N   UNL A   1      41.499  27.829  30.084  1.00  0.00    -0.248 NA
ATOM     47  C   UNL A   1      39.680  27.016  28.960  1.00  0.00     0.031 C 
ATOM     48  C   UNL A   1      41.606  30.533  30.714  1.00  0.00     0.029 A 
ATOM     49  N   UNL A   1      39.691  31.335  31.608  1.00  0.00    -0.354 N 
ATOM     50  C   UNL A   1      41.948  26.821  29.260  1.00  0.00     0.074 A 
ATOM     51  C   UNL A   1      40.755  26.289  28.654  1.00  0.00     0.031 C 
ATOM     52  C   UNL A   1      41.959  31.383  31.682  1.00  0.00     0.029 A 
ATOM     53  C   UNL A   1      40.782  31.650  32.475  1.00  0.00     0.049 A 
ATOM     54  H   UNL A   1      38.795  31.743  31.610  1.00  0.00     0.167 HD
ATOM     55  C   UNL A   1      43.297  26.654  29.126  1.00  0.00     0.037 A 
ATOM     56  C   UNL A   1      40.712  31.402  33.818  1.00  0.00     0.037 A 
ATOM     57  C   UNL A   1      44.008  27.369  30.195  1.00  0.00     0.049 A 
ATOM     58  C   UNL A   1      41.565  30.273  34.326  1.00  0.00     0.074 A 
ATOM     59  C   UNL A   1      44.781  28.512  30.297  1.00  0.00     0.029 A 
ATOM     60  N   UNL A   1      43.729  26.989  31.496  1.00  0.00    -0.354 N 
ATOM     61  N   UNL A   1      42.522  29.705  33.648  1.00  0.00    -0.248 NA
ATOM     62  C   UNL A   1      41.327  29.623  35.616  1.00  0.00     0.031 C 
ATOM     63  C   UNL A   1      44.907  28.838  31.687  1.00  0.00     0.029 A 
ATOM     64  C   UNL A   1      44.221  27.886  32.421  1.00  0.00     0.049 A 
ATOM     65  H   UNL A   1      43.236  26.172  31.734  1.00  0.00     0.167 HD
ATOM     66  C   UNL A   1      42.946  28.596  34.325  1.00  0.00     0.074 A 
ATOM     67  C   UNL A   1      42.190  28.597  35.563  1.00  0.00     0.031 C 
ATOM     68  C   UNL A   1      43.842  27.703  33.812  1.00  0.00     0.037 A 
BRANCH  55  69
ATOM     69  C   UNL A   1      44.013  25.935  27.994  1.00  0.00     0.064 A 
ATOM     70  C   UNL A   1      44.390  26.650  26.833  1.00  0.00     0.173 A 
ATOM     71  C   UNL A   1      44.288  24.553  27.926  1.00  0.00     0.173 A 
ATOM     72  F   UNL A   1      44.213  27.975  26.738  1.00  0.00    -0.203 F 
ATOM     73  C   UNL A   1      44.954  26.033  25.710  1.00  0.00     0.198 A 
ATOM     74  C   UNL A   1      44.864  23.939  26.809  1.00  0.00     0.198 A 
ATOM     75  F   UNL A   1      44.007  23.711  28.919  1.00  0.00    -0.203 F 
ATOM     76  F   UNL A   1      45.258  26.768  24.631  1.00  0.00    -0.200 F 
ATOM     77  C   UNL A   1      45.188  24.676  25.696  1.00  0.00     0.200 A 
ATOM     78  F   UNL A   1      45.085  22.615  26.826  1.00  0.00    -0.200 F 
ATOM     79  F   UNL A   1      45.718  24.081  24.620  1.00  0.00    -0.200 F 
ENDBRANCH  55  69
BRANCH  56  80
ATOM     80  C   UNL A   1      39.442  31.874  34.402  1.00  0.00     0.064 A 
ATOM     81  C   UNL A   1      39.427  33.228  34.775  1.00  0.00     0.173 A 
ATOM     82  C   UNL A   1      38.240  31.257  34.039  1.00  0.00     0.173 A 
ATOM     83  F   UNL A   1      40.560  33.833  35.166  1.00  0.00    -0.203 F 
ATOM     84  C   UNL A   1      38.295  33.996  34.564  1.00  0.00     0.198 A 
ATOM     85  C   UNL A   1      37.109  32.035  33.819  1.00  0.00     0.198 A 
ATOM     86  F   UNL A   1      38.217  29.955  33.719  1.00  0.00    -0.203 F 
ATOM     87  F   UNL A   1      38.339  35.323  34.751  1.00  0.00    -0.200 F 
ATOM     88  C   UNL A   1      37.161  33.407  34.036  1.00  0.00     0.200 A 
ATOM     89  F   UNL A   1      36.013  31.478  33.285  1.00  0.00    -0.200 F 
ATOM     90  F   UNL A   1      36.136  34.187  33.689  1.00  0.00    -0.200 F 
ENDBRANCH  56  80
BRANCH  68  91
ATOM     91  C   UNL A   1      44.365  26.552  34.620  1.00  0.00     0.064 A 
ATOM     92  C   UNL A   1      45.667  26.566  35.148  1.00  0.00     0.173 A 
ATOM     93  C   UNL A   1      43.633  25.362  34.804  1.00  0.00     0.173 A 
ATOM     94  F   UNL A   1      46.463  27.633  34.980  1.00  0.00    -0.203 F 
ATOM     95  C   UNL A   1      46.185  25.482  35.857  1.00  0.00     0.198 A 
ATOM     96  C   UNL A   1      44.173  24.260  35.465  1.00  0.00     0.198 A 
ATOM     97  F   UNL A   1      42.368  25.244  34.378  1.00  0.00    -0.203 F 
ATOM     98  F   UNL A   1      47.409  25.564  36.397  1.00  0.00    -0.200 F 
ATOM     99  C   UNL A   1      45.443  24.324  36.003  1.00  0.00     0.200 A 
ATOM    100  F   UNL A   1      43.449  23.137  35.582  1.00  0.00    -0.200 F 
ATOM    101  F   UNL A   1      45.949  23.275  36.665  1.00  0.00    -0.200 F 
ENDBRANCH  68  91
ENDBRANCH  42  43
ENDBRANCH  34  37
ENDBRANCH  32  33
ENDBRANCH   1  32
TORSDOF 13
ENDMDL
