MODEL 1
REMARK VINA RESULT:     -10.8      0.000      0.000
REMARK SMILES O=C(C[NH2+]C[C@@H]1CCCO1)NCCCNC(=O)c1ccc(-c2c3nc(c(-c4c(F)c(F)c(F)c(F)c4F)c4ccc([nH]4)c(-c4c(F)c(F)c(F)c(F)c4F)c4nc(c(-c5c(F)c(F)c(F)c(F)c5F)c5ccc2[nH]5)C=C4)C=C3)cc1
REMARK SMILES IDX 12 1 11 2 1 3 2 4 3 6 4 7 5 10 6 11 7 12 10 13 8 14 9 15
REMARK SMILES IDX 13 16 14 17 15 18 16 19 17 21 18 22 19 23 80 24 20 25 79 26
REMARK SMILES IDX 21 27 22 28 23 29 73 30 24 31 78 32 72 33 74 34 25 35 77 36
REMARK SMILES IDX 71 37 70 38 26 40 58 41 38 42 57 43 39 44 42 45 56 46 75 47
REMARK SMILES IDX 40 48 41 49 55 51 76 52 43 53 27 54 28 55 36 56 29 57 30 58
REMARK SMILES IDX 34 59 37 60 31 61 32 62 35 63 33 64 59 65 60 66 68 67 61 68
REMARK SMILES IDX 62 69 66 70 69 71 63 72 64 73 67 74 65 75 44 76 45 77 53 78
REMARK SMILES IDX 46 79 47 80 51 81 54 82 48 83 49 84 52 85 50 86
REMARK H PARENT 11 5 4 8 4 9 15 20 74 39 42 50
REMARK Flexibility Score: inf
ROOT
ATOM      1  C   UNL A   1      31.406  30.395  26.209  1.00  0.00     0.118 C 
ENDROOT
BRANCH   1   2
ATOM      2  N   UNL A   1      31.722  30.114  24.827  1.00  0.00    -0.351 N 
ATOM      3  O   UNL A   1      31.151  27.888  24.879  1.00  0.00    -0.269 OA
ATOM      4  C   UNL A   1      31.532  28.875  24.255  1.00  0.00     0.275 C 
ATOM      5  H   UNL A   1      32.088  30.839  24.270  1.00  0.00     0.163 HD
BRANCH   4   6
ATOM      6  C   UNL A   1      31.910  28.813  22.771  1.00  0.00     0.361 C 
BRANCH   6   7
ATOM      7  N   UNL A   1      31.067  29.738  21.984  1.00  0.00    -0.336 N 
ATOM      8  H   UNL A   1      31.360  29.702  21.007  1.00  0.00     0.346 HD
ATOM      9  H   UNL A   1      31.183  30.677  22.366  1.00  0.00     0.346 HD
BRANCH   7  10
ATOM     10  C   UNL A   1      29.638  29.380  22.068  1.00  0.00     0.293 C 
BRANCH  10  11
ATOM     11  C   UNL A   1      28.680  30.569  22.299  1.00  0.00     0.173 C 
ATOM     12  C   UNL A   1      28.534  31.483  21.095  1.00  0.00     0.040 C 
ATOM     13  O   UNL A   1      29.154  31.415  23.364  1.00  0.00    -0.372 OA
ATOM     14  C   UNL A   1      28.034  32.750  21.744  1.00  0.00     0.031 C 
ATOM     15  C   UNL A   1      28.815  32.775  23.044  1.00  0.00     0.161 C 
ENDBRANCH  10  11
ENDBRANCH   7  10
ENDBRANCH   6   7
ENDBRANCH   4   6
ENDBRANCH   1   2
BRANCH   1  16
ATOM     16  C   UNL A   1      31.318  31.889  26.516  1.00  0.00     0.042 C 
BRANCH  16  17
ATOM     17  C   UNL A   1      32.631  32.536  26.954  1.00  0.00     0.118 C 
BRANCH  17  18
ATOM     18  N   UNL A   1      32.452  33.854  27.547  1.00  0.00    -0.352 N 
ATOM     19  C   UNL A   1      33.134  34.497  28.547  1.00  0.00     0.251 C 
ATOM     20  H   UNL A   1      31.711  34.374  27.161  1.00  0.00     0.163 HD
ATOM     21  O   UNL A   1      32.708  35.582  28.950  1.00  0.00    -0.269 OA
BRANCH  19  22
ATOM     22  C   UNL A   1      34.349  33.924  29.174  1.00  0.00     0.039 A 
ATOM     23  C   UNL A   1      34.182  32.888  30.101  1.00  0.00     0.014 A 
ATOM     24  C   UNL A   1      35.632  34.418  28.924  1.00  0.00     0.014 A 
ATOM     25  C   UNL A   1      35.291  32.320  30.732  1.00  0.00     0.010 A 
ATOM     26  C   UNL A   1      36.747  33.810  29.508  1.00  0.00     0.010 A 
ATOM     27  C   UNL A   1      36.588  32.756  30.420  1.00  0.00    -0.014 A 
BRANCH  27  28
ATOM     28  C   UNL A   1      37.772  32.095  31.032  1.00  0.00     0.031 A 
ATOM     29  C   UNL A   1      38.226  32.452  32.420  1.00  0.00     0.074 A 
ATOM     30  C   UNL A   1      38.460  31.183  30.319  1.00  0.00     0.049 A 
ATOM     31  N   UNL A   1      39.224  31.962  33.115  1.00  0.00    -0.248 NA
ATOM     32  C   UNL A   1      37.479  33.513  33.111  1.00  0.00     0.031 C 
ATOM     33  C   UNL A   1      38.161  30.790  28.941  1.00  0.00     0.029 A 
ATOM     34  N   UNL A   1      39.551  30.419  30.653  1.00  0.00    -0.354 N 
ATOM     35  C   UNL A   1      39.230  32.660  34.315  1.00  0.00     0.074 A 
ATOM     36  C   UNL A   1      38.166  33.639  34.237  1.00  0.00     0.031 C 
ATOM     37  C   UNL A   1      39.027  29.838  28.558  1.00  0.00     0.029 A 
ATOM     38  C   UNL A   1      39.953  29.569  29.654  1.00  0.00     0.049 A 
ATOM     39  H   UNL A   1      40.001  30.477  31.527  1.00  0.00     0.167 HD
ATOM     40  C   UNL A   1      40.036  32.488  35.392  1.00  0.00     0.037 A 
ATOM     41  C   UNL A   1      40.949  28.663  29.628  1.00  0.00     0.037 A 
ATOM     42  C   UNL A   1      41.078  31.499  35.483  1.00  0.00     0.049 A 
ATOM     43  C   UNL A   1      41.799  28.461  30.851  1.00  0.00     0.074 A 
ATOM     44  C   UNL A   1      41.909  31.214  36.554  1.00  0.00     0.029 A 
ATOM     45  N   UNL A   1      41.432  30.629  34.462  1.00  0.00    -0.354 N 
ATOM     46  N   UNL A   1      41.747  29.078  32.005  1.00  0.00    -0.248 NA
ATOM     47  C   UNL A   1      42.836  27.423  30.770  1.00  0.00     0.031 C 
ATOM     48  C   UNL A   1      42.786  30.193  36.170  1.00  0.00     0.029 A 
ATOM     49  C   UNL A   1      42.475  29.814  34.874  1.00  0.00     0.049 A 
ATOM     50  H   UNL A   1      41.005  30.595  33.576  1.00  0.00     0.167 HD
ATOM     51  C   UNL A   1      42.724  28.490  32.796  1.00  0.00     0.074 A 
ATOM     52  C   UNL A   1      43.341  27.453  31.995  1.00  0.00     0.031 C 
ATOM     53  C   UNL A   1      43.078  28.783  34.070  1.00  0.00     0.037 A 
BRANCH  40  54
ATOM     54  C   UNL A   1      39.815  33.391  36.571  1.00  0.00     0.064 A 
ATOM     55  C   UNL A   1      40.520  34.594  36.715  1.00  0.00     0.173 A 
ATOM     56  C   UNL A   1      38.861  33.068  37.548  1.00  0.00     0.173 A 
ATOM     57  F   UNL A   1      41.450  34.942  35.814  1.00  0.00    -0.203 F 
ATOM     58  C   UNL A   1      40.297  35.430  37.806  1.00  0.00     0.198 A 
ATOM     59  C   UNL A   1      38.622  33.919  38.624  1.00  0.00     0.198 A 
ATOM     60  F   UNL A   1      38.154  31.931  37.455  1.00  0.00    -0.203 F 
ATOM     61  F   UNL A   1      41.014  36.555  37.944  1.00  0.00    -0.200 F 
ATOM     62  C   UNL A   1      39.344  35.095  38.756  1.00  0.00     0.200 A 
ATOM     63  F   UNL A   1      37.692  33.601  39.535  1.00  0.00    -0.200 F 
ATOM     64  F   UNL A   1      39.126  35.904  39.802  1.00  0.00    -0.200 F 
ENDBRANCH  40  54
BRANCH  41  65
ATOM     65  C   UNL A   1      41.163  27.838  28.411  1.00  0.00     0.064 A 
ATOM     66  C   UNL A   1      40.485  26.624  28.241  1.00  0.00     0.173 A 
ATOM     67  C   UNL A   1      42.043  28.245  27.399  1.00  0.00     0.173 A 
ATOM     68  F   UNL A   1      39.649  26.185  29.194  1.00  0.00    -0.203 F 
ATOM     69  C   UNL A   1      40.693  25.836  27.111  1.00  0.00     0.198 A 
ATOM     70  C   UNL A   1      42.232  27.469  26.258  1.00  0.00     0.198 A 
ATOM     71  F   UNL A   1      42.711  29.403  27.515  1.00  0.00    -0.203 F 
ATOM     72  F   UNL A   1      40.065  24.659  26.993  1.00  0.00    -0.200 F 
ATOM     73  C   UNL A   1      41.563  26.261  26.118  1.00  0.00     0.200 A 
ATOM     74  F   UNL A   1      43.065  27.887  25.295  1.00  0.00    -0.200 F 
ATOM     75  F   UNL A   1      41.762  25.505  25.031  1.00  0.00    -0.200 F 
ENDBRANCH  41  65
BRANCH  53  76
ATOM     76  C   UNL A   1      44.165  27.951  34.685  1.00  0.00     0.064 A 
ATOM     77  C   UNL A   1      45.512  28.334  34.613  1.00  0.00     0.173 A 
ATOM     78  C   UNL A   1      43.854  26.762  35.358  1.00  0.00     0.173 A 
ATOM     79  F   UNL A   1      45.862  29.456  33.966  1.00  0.00    -0.203 F 
ATOM     80  C   UNL A   1      46.512  27.540  35.167  1.00  0.00     0.198 A 
ATOM     81  C   UNL A   1      44.853  25.981  35.934  1.00  0.00     0.198 A 
ATOM     82  F   UNL A   1      42.580  26.353  35.457  1.00  0.00    -0.203 F 
ATOM     83  F   UNL A   1      47.798  27.897  35.043  1.00  0.00    -0.200 F 
ATOM     84  C   UNL A   1      46.181  26.366  35.830  1.00  0.00     0.200 A 
ATOM     85  F   UNL A   1      44.532  24.853  36.581  1.00  0.00    -0.200 F 
ATOM     86  F   UNL A   1      47.145  25.600  36.359  1.00  0.00    -0.200 F 
ENDBRANCH  53  76
ENDBRANCH  27  28
ENDBRANCH  19  22
ENDBRANCH  17  18
ENDBRANCH  16  17
ENDBRANCH   1  16
TORSDOF 13
ENDMDL
MODEL 2
REMARK VINA RESULT:     -10.7      5.736     11.400
REMARK SMILES O=C(C[NH2+]C[C@@H]1CCCO1)NCCCNC(=O)c1ccc(-c2c3nc(c(-c4c(F)c(F)c(F)c(F)c4F)c4ccc([nH]4)c(-c4c(F)c(F)c(F)c(F)c4F)c4nc(c(-c5c(F)c(F)c(F)c(F)c5F)c5ccc2[nH]5)C=C4)C=C3)cc1
REMARK SMILES IDX 12 1 11 2 1 3 2 4 3 6 4 7 5 10 6 11 7 12 10 13 8 14 9 15
REMARK SMILES IDX 13 16 14 17 15 18 16 19 17 21 18 22 19 23 80 24 20 25 79 26
REMARK SMILES IDX 21 27 22 28 23 29 73 30 24 31 78 32 72 33 74 34 25 35 77 36
REMARK SMILES IDX 71 37 70 38 26 40 58 41 38 42 57 43 39 44 42 45 56 46 75 47
REMARK SMILES IDX 40 48 41 49 55 51 76 52 43 53 27 54 28 55 36 56 29 57 30 58
REMARK SMILES IDX 34 59 37 60 31 61 32 62 35 63 33 64 59 65 60 66 68 67 61 68
REMARK SMILES IDX 62 69 66 70 69 71 63 72 64 73 67 74 65 75 44 76 45 77 53 78
REMARK SMILES IDX 46 79 47 80 51 81 54 82 48 83 49 84 52 85 50 86
REMARK H PARENT 11 5 4 8 4 9 15 20 74 39 42 50
REMARK Flexibility Score: inf
ROOT
ATOM      1  C   UNL A   1      41.903  19.784  26.108  1.00  0.00     0.118 C 
ENDROOT
BRANCH   1   2
ATOM      2  N   UNL A   1      42.924  19.697  25.089  1.00  0.00    -0.351 N 
ATOM      3  O   UNL A   1      44.193  18.089  26.131  1.00  0.00    -0.269 OA
ATOM      4  C   UNL A   1      43.982  18.818  25.165  1.00  0.00     0.275 C 
ATOM      5  H   UNL A   1      42.860  20.290  24.306  1.00  0.00     0.163 HD
BRANCH   4   6
ATOM      6  C   UNL A   1      44.928  18.879  23.960  1.00  0.00     0.361 C 
BRANCH   6   7
ATOM      7  N   UNL A   1      44.919  20.233  23.365  1.00  0.00    -0.336 N 
ATOM      8  H   UNL A   1      43.956  20.493  23.150  1.00  0.00     0.346 HD
ATOM      9  H   UNL A   1      45.489  20.212  22.519  1.00  0.00     0.346 HD
BRANCH   7  10
ATOM     10  C   UNL A   1      45.492  21.237  24.282  1.00  0.00     0.293 C 
BRANCH  10  11
ATOM     11  C   UNL A   1      44.934  22.667  24.116  1.00  0.00     0.173 C 
ATOM     12  C   UNL A   1      45.565  23.685  25.051  1.00  0.00     0.040 C 
ATOM     13  O   UNL A   1      43.523  22.708  24.407  1.00  0.00    -0.372 OA
ATOM     14  C   UNL A   1      44.515  24.770  25.059  1.00  0.00     0.031 C 
ATOM     15  C   UNL A   1      43.227  23.970  25.028  1.00  0.00     0.161 C 
ENDBRANCH  10  11
ENDBRANCH   7  10
ENDBRANCH   6   7
ENDBRANCH   4   6
ENDBRANCH   1   2
BRANCH   1  16
ATOM     16  C   UNL A   1      42.055  21.005  27.012  1.00  0.00     0.042 C 
BRANCH  16  17
ATOM     17  C   UNL A   1      40.771  21.459  27.706  1.00  0.00     0.118 C 
BRANCH  17  18
ATOM     18  N   UNL A   1      39.674  21.702  26.781  1.00  0.00    -0.352 N 
ATOM     19  C   UNL A   1      39.018  22.855  26.437  1.00  0.00     0.251 C 
ATOM     20  H   UNL A   1      39.345  20.896  26.321  1.00  0.00     0.163 HD
ATOM     21  O   UNL A   1      38.031  22.778  25.702  1.00  0.00    -0.269 OA
BRANCH  19  22
ATOM     22  C   UNL A   1      39.439  24.186  26.937  1.00  0.00     0.039 A 
ATOM     23  C   UNL A   1      39.183  24.494  28.278  1.00  0.00     0.014 A 
ATOM     24  C   UNL A   1      40.016  25.154  26.110  1.00  0.00     0.014 A 
ATOM     25  C   UNL A   1      39.547  25.738  28.799  1.00  0.00     0.010 A 
ATOM     26  C   UNL A   1      40.437  26.375  26.644  1.00  0.00     0.010 A 
ATOM     27  C   UNL A   1      40.204  26.681  27.993  1.00  0.00    -0.014 A 
BRANCH  27  28
ATOM     28  C   UNL A   1      40.663  27.974  28.571  1.00  0.00     0.031 A 
ATOM     29  C   UNL A   1      42.117  28.218  28.865  1.00  0.00     0.074 A 
ATOM     30  C   UNL A   1      39.755  28.926  28.857  1.00  0.00     0.049 A 
ATOM     31  N   UNL A   1      42.694  29.291  29.349  1.00  0.00    -0.248 NA
ATOM     32  C   UNL A   1      43.043  27.106  28.603  1.00  0.00     0.031 C 
ATOM     33  C   UNL A   1      38.309  28.795  28.677  1.00  0.00     0.029 A 
ATOM     34  N   UNL A   1      39.914  30.195  29.358  1.00  0.00    -0.354 N 
ATOM     35  C   UNL A   1      44.043  28.980  29.459  1.00  0.00     0.074 A 
ATOM     36  C   UNL A   1      44.193  27.604  29.035  1.00  0.00     0.031 C 
ATOM     37  C   UNL A   1      37.715  29.945  29.033  1.00  0.00     0.029 A 
ATOM     38  C   UNL A   1      38.735  30.887  29.485  1.00  0.00     0.049 A 
ATOM     39  H   UNL A   1      40.790  30.572  29.604  1.00  0.00     0.167 HD
ATOM     40  C   UNL A   1      45.065  29.775  29.859  1.00  0.00     0.037 A 
ATOM     41  C   UNL A   1      38.502  32.144  29.906  1.00  0.00     0.037 A 
ATOM     42  C   UNL A   1      44.924  31.151  30.257  1.00  0.00     0.049 A 
ATOM     43  C   UNL A   1      39.659  33.019  30.301  1.00  0.00     0.074 A 
ATOM     44  C   UNL A   1      45.910  32.051  30.625  1.00  0.00     0.029 A 
ATOM     45  N   UNL A   1      43.716  31.829  30.337  1.00  0.00    -0.354 N 
ATOM     46  N   UNL A   1      40.938  32.735  30.332  1.00  0.00    -0.248 NA
ATOM     47  C   UNL A   1      39.338  34.395  30.704  1.00  0.00     0.031 C 
ATOM     48  C   UNL A   1      45.296  33.265  30.957  1.00  0.00     0.029 A 
ATOM     49  C   UNL A   1      43.932  33.133  30.758  1.00  0.00     0.049 A 
ATOM     50  H   UNL A   1      42.836  31.442  30.126  1.00  0.00     0.167 HD
ATOM     51  C   UNL A   1      41.577  33.900  30.732  1.00  0.00     0.074 A 
ATOM     52  C   UNL A   1      40.546  34.900  30.915  1.00  0.00     0.031 C 
ATOM     53  C   UNL A   1      42.899  34.120  30.932  1.00  0.00     0.037 A 
BRANCH  40  54
ATOM     54  C   UNL A   1      46.441  29.174  29.877  1.00  0.00     0.064 A 
ATOM     55  C   UNL A   1      46.953  28.552  31.025  1.00  0.00     0.173 A 
ATOM     56  C   UNL A   1      47.241  29.184  28.724  1.00  0.00     0.173 A 
ATOM     57  F   UNL A   1      46.233  28.525  32.156  1.00  0.00    -0.203 F 
ATOM     58  C   UNL A   1      48.225  27.986  31.028  1.00  0.00     0.198 A 
ATOM     59  C   UNL A   1      48.502  28.593  28.722  1.00  0.00     0.198 A 
ATOM     60  F   UNL A   1      46.796  29.760  27.597  1.00  0.00    -0.203 F 
ATOM     61  F   UNL A   1      48.710  27.435  32.149  1.00  0.00    -0.200 F 
ATOM     62  C   UNL A   1      48.995  28.001  29.874  1.00  0.00     0.200 A 
ATOM     63  F   UNL A   1      49.241  28.597  27.604  1.00  0.00    -0.200 F 
ATOM     64  F   UNL A   1      50.217  27.449  29.876  1.00  0.00    -0.200 F 
ENDBRANCH  40  54
BRANCH  41  65
ATOM     65  C   UNL A   1      37.113  32.670  29.926  1.00  0.00     0.064 A 
ATOM     66  C   UNL A   1      36.575  33.312  28.803  1.00  0.00     0.173 A 
ATOM     67  C   UNL A   1      36.300  32.540  31.060  1.00  0.00     0.173 A 
ATOM     68  F   UNL A   1      37.325  33.477  27.703  1.00  0.00    -0.203 F 
ATOM     69  C   UNL A   1      35.279  33.823  28.820  1.00  0.00     0.198 A 
ATOM     70  C   UNL A   1      34.996  33.029  31.068  1.00  0.00     0.198 A 
ATOM     71  F   UNL A   1      36.770  31.928  32.157  1.00  0.00    -0.203 F 
ATOM     72  F   UNL A   1      34.803  34.470  27.748  1.00  0.00    -0.200 F 
ATOM     73  C   UNL A   1      34.489  33.677  29.950  1.00  0.00     0.200 A 
ATOM     74  F   UNL A   1      34.231  32.878  32.157  1.00  0.00    -0.200 F 
ATOM     75  F   UNL A   1      33.242  34.167  29.966  1.00  0.00    -0.200 F 
ENDBRANCH  41  65
BRANCH  53  76
ATOM     76  C   UNL A   1      43.305  35.505  31.344  1.00  0.00     0.064 A 
ATOM     77  C   UNL A   1      43.322  35.896  32.690  1.00  0.00     0.173 A 
ATOM     78  C   UNL A   1      43.689  36.448  30.379  1.00  0.00     0.173 A 
ATOM     79  F   UNL A   1      42.948  35.034  33.648  1.00  0.00    -0.203 F 
ATOM     80  C   UNL A   1      43.678  37.191  33.054  1.00  0.00     0.198 A 
ATOM     81  C   UNL A   1      44.069  37.736  30.748  1.00  0.00     0.198 A 
ATOM     82  F   UNL A   1      43.694  36.123  29.078  1.00  0.00    -0.203 F 
ATOM     83  F   UNL A   1      43.636  37.560  34.342  1.00  0.00    -0.200 F 
ATOM     84  C   UNL A   1      44.055  38.108  32.084  1.00  0.00     0.200 A 
ATOM     85  F   UNL A   1      44.441  38.618  29.812  1.00  0.00    -0.200 F 
ATOM     86  F   UNL A   1      44.393  39.357  32.436  1.00  0.00    -0.200 F 
ENDBRANCH  53  76
ENDBRANCH  27  28
ENDBRANCH  19  22
ENDBRANCH  17  18
ENDBRANCH  16  17
ENDBRANCH   1  16
TORSDOF 13
ENDMDL
MODEL 3
REMARK VINA RESULT:     -10.6      4.195      6.645
REMARK SMILES O=C(C[NH2+]C[C@@H]1CCCO1)NCCCNC(=O)c1ccc(-c2c3nc(c(-c4c(F)c(F)c(F)c(F)c4F)c4ccc([nH]4)c(-c4c(F)c(F)c(F)c(F)c4F)c4nc(c(-c5c(F)c(F)c(F)c(F)c5F)c5ccc2[nH]5)C=C4)C=C3)cc1
REMARK SMILES IDX 12 1 11 2 1 3 2 4 3 6 4 7 5 10 6 11 7 12 10 13 8 14 9 15
REMARK SMILES IDX 13 16 14 17 15 18 16 19 17 21 18 22 19 23 80 24 20 25 79 26
REMARK SMILES IDX 21 27 22 28 23 29 73 30 24 31 78 32 72 33 74 34 25 35 77 36
REMARK SMILES IDX 71 37 70 38 26 40 58 41 38 42 57 43 39 44 42 45 56 46 75 47
REMARK SMILES IDX 40 48 41 49 55 51 76 52 43 53 27 54 28 55 36 56 29 57 30 58
REMARK SMILES IDX 34 59 37 60 31 61 32 62 35 63 33 64 59 65 60 66 68 67 61 68
REMARK SMILES IDX 62 69 66 70 69 71 63 72 64 73 67 74 65 75 44 76 45 77 53 78
REMARK SMILES IDX 46 79 47 80 51 81 54 82 48 83 49 84 52 85 50 86
REMARK H PARENT 11 5 4 8 4 9 15 20 74 39 42 50
REMARK Flexibility Score: inf
ROOT
ATOM      1  C   UNL A   1      34.576  34.987  27.958  1.00  0.00     0.118 C 
ENDROOT
BRANCH   1   2
ATOM      2  N   UNL A   1      34.284  35.552  29.255  1.00  0.00    -0.351 N 
ATOM      3  O   UNL A   1      32.153  36.255  28.758  1.00  0.00    -0.269 OA
ATOM      4  C   UNL A   1      33.067  36.117  29.567  1.00  0.00     0.275 C 
ATOM      5  H   UNL A   1      34.986  35.534  29.946  1.00  0.00     0.163 HD
BRANCH   4   6
ATOM      6  C   UNL A   1      32.972  36.629  31.009  1.00  0.00     0.361 C 
BRANCH   6   7
ATOM      7  N   UNL A   1      32.488  35.558  31.907  1.00  0.00    -0.336 N 
ATOM      8  H   UNL A   1      32.233  34.746  31.344  1.00  0.00     0.346 HD
ATOM      9  H   UNL A   1      31.681  35.914  32.420  1.00  0.00     0.346 HD
BRANCH   7  10
ATOM     10  C   UNL A   1      33.517  35.159  32.885  1.00  0.00     0.293 C 
BRANCH  10  11
ATOM     11  C   UNL A   1      34.396  33.963  32.458  1.00  0.00     0.173 C 
ATOM     12  C   UNL A   1      34.967  33.173  33.623  1.00  0.00     0.040 C 
ATOM     13  O   UNL A   1      35.540  34.407  31.703  1.00  0.00    -0.372 OA
ATOM     14  C   UNL A   1      36.136  32.481  32.966  1.00  0.00     0.031 C 
ATOM     15  C   UNL A   1      36.648  33.547  32.017  1.00  0.00     0.161 C 
ENDBRANCH  10  11
ENDBRANCH   7  10
ENDBRANCH   6   7
ENDBRANCH   4   6
ENDBRANCH   1   2
BRANCH   1  16
ATOM     16  C   UNL A   1      35.228  33.608  28.032  1.00  0.00     0.042 C 
BRANCH  16  17
ATOM     17  C   UNL A   1      34.566  32.632  29.004  1.00  0.00     0.118 C 
BRANCH  17  18
ATOM     18  N   UNL A   1      33.966  31.483  28.342  1.00  0.00    -0.352 N 
ATOM     19  C   UNL A   1      34.500  30.284  27.948  1.00  0.00     0.251 C 
ATOM     20  H   UNL A   1      33.007  31.584  28.143  1.00  0.00     0.163 HD
ATOM     21  O   UNL A   1      33.798  29.509  27.296  1.00  0.00    -0.269 OA
BRANCH  19  22
ATOM     22  C   UNL A   1      35.898  29.898  28.260  1.00  0.00     0.039 A 
ATOM     23  C   UNL A   1      36.861  30.060  27.258  1.00  0.00     0.014 A 
ATOM     24  C   UNL A   1      36.268  29.325  29.480  1.00  0.00     0.014 A 
ATOM     25  C   UNL A   1      38.191  29.700  27.492  1.00  0.00     0.010 A 
ATOM     26  C   UNL A   1      37.609  29.023  29.737  1.00  0.00     0.010 A 
ATOM     27  C   UNL A   1      38.583  29.205  28.745  1.00  0.00    -0.014 A 
BRANCH  27  28
ATOM     28  C   UNL A   1      40.014  28.899  29.018  1.00  0.00     0.031 A 
ATOM     29  C   UNL A   1      40.879  29.862  29.781  1.00  0.00     0.074 A 
ATOM     30  C   UNL A   1      40.543  27.753  28.549  1.00  0.00     0.049 A 
ATOM     31  N   UNL A   1      42.139  29.747  30.126  1.00  0.00    -0.248 NA
ATOM     32  C   UNL A   1      40.259  31.129  30.194  1.00  0.00     0.031 C 
ATOM     33  C   UNL A   1      39.829  26.761  27.743  1.00  0.00     0.029 A 
ATOM     34  N   UNL A   1      41.804  27.226  28.684  1.00  0.00    -0.354 N 
ATOM     35  C   UNL A   1      42.463  30.926  30.783  1.00  0.00     0.074 A 
ATOM     36  C   UNL A   1      41.282  31.764  30.750  1.00  0.00     0.031 C 
ATOM     37  C   UNL A   1      40.653  25.733  27.480  1.00  0.00     0.029 A 
ATOM     38  C   UNL A   1      41.956  26.002  28.080  1.00  0.00     0.049 A 
ATOM     39  H   UNL A   1      42.530  27.683  29.167  1.00  0.00     0.167 HD
ATOM     40  C   UNL A   1      43.631  31.273  31.377  1.00  0.00     0.037 A 
ATOM     41  C   UNL A   1      43.022  25.181  28.028  1.00  0.00     0.037 A 
ATOM     42  C   UNL A   1      44.800  30.434  31.434  1.00  0.00     0.049 A 
ATOM     43  C   UNL A   1      44.291  25.570  28.733  1.00  0.00     0.074 A 
ATOM     44  C   UNL A   1      46.010  30.678  32.061  1.00  0.00     0.029 A 
ATOM     45  N   UNL A   1      44.902  29.183  30.843  1.00  0.00    -0.354 N 
ATOM     46  N   UNL A   1      44.560  26.658  29.412  1.00  0.00    -0.248 NA
ATOM     47  C   UNL A   1      45.399  24.606  28.676  1.00  0.00     0.031 C 
ATOM     48  C   UNL A   1      46.856  29.588  31.823  1.00  0.00     0.029 A 
ATOM     49  C   UNL A   1      46.159  28.648  31.081  1.00  0.00     0.049 A 
ATOM     50  H   UNL A   1      44.188  28.741  30.329  1.00  0.00     0.167 HD
ATOM     51  C   UNL A   1      45.855  26.501  29.884  1.00  0.00     0.074 A 
ATOM     52  C   UNL A   1      46.312  25.204  29.429  1.00  0.00     0.031 C 
ATOM     53  C   UNL A   1      46.600  27.355  30.627  1.00  0.00     0.037 A 
BRANCH  40  54
ATOM     54  C   UNL A   1      43.702  32.625  32.025  1.00  0.00     0.064 A 
ATOM     55  C   UNL A   1      44.033  33.773  31.291  1.00  0.00     0.173 A 
ATOM     56  C   UNL A   1      43.398  32.781  33.386  1.00  0.00     0.173 A 
ATOM     57  F   UNL A   1      44.343  33.675  29.990  1.00  0.00    -0.203 F 
ATOM     58  C   UNL A   1      44.083  35.025  31.900  1.00  0.00     0.198 A 
ATOM     59  C   UNL A   1      43.422  34.038  33.986  1.00  0.00     0.198 A 
ATOM     60  F   UNL A   1      43.068  31.716  34.133  1.00  0.00    -0.203 F 
ATOM     61  F   UNL A   1      44.443  36.101  31.187  1.00  0.00    -0.200 F 
ATOM     62  C   UNL A   1      43.771  35.157  33.245  1.00  0.00     0.200 A 
ATOM     63  F   UNL A   1      43.109  34.167  35.283  1.00  0.00    -0.200 F 
ATOM     64  F   UNL A   1      43.813  36.362  33.828  1.00  0.00    -0.200 F 
ENDBRANCH  40  54
BRANCH  41  65
ATOM     65  C   UNL A   1      42.916  23.880  27.319  1.00  0.00     0.064 A 
ATOM     66  C   UNL A   1      42.444  22.740  27.984  1.00  0.00     0.173 A 
ATOM     67  C   UNL A   1      43.280  23.751  25.972  1.00  0.00     0.173 A 
ATOM     68  F   UNL A   1      42.104  22.813  29.279  1.00  0.00    -0.203 F 
ATOM     69  C   UNL A   1      42.358  21.513  27.331  1.00  0.00     0.198 A 
ATOM     70  C   UNL A   1      43.170  22.529  25.314  1.00  0.00     0.198 A 
ATOM     71  F   UNL A   1      43.732  24.816  25.294  1.00  0.00    -0.203 F 
ATOM     72  F   UNL A   1      41.944  20.429  28.001  1.00  0.00    -0.200 F 
ATOM     73  C   UNL A   1      42.717  21.408  25.996  1.00  0.00     0.200 A 
ATOM     74  F   UNL A   1      43.508  22.433  24.021  1.00  0.00    -0.200 F 
ATOM     75  F   UNL A   1      42.633  20.228  25.367  1.00  0.00    -0.200 F 
ENDBRANCH  41  65
BRANCH  53  76
ATOM     76  C   UNL A   1      47.976  26.899  31.016  1.00  0.00     0.064 A 
ATOM     77  C   UNL A   1      48.193  26.105  32.151  1.00  0.00     0.173 A 
ATOM     78  C   UNL A   1      49.088  27.256  30.239  1.00  0.00     0.173 A 
ATOM     79  F   UNL A   1      47.164  25.752  32.934  1.00  0.00    -0.203 F 
ATOM     80  C   UNL A   1      49.478  25.711  32.513  1.00  0.00     0.198 A 
ATOM     81  C   UNL A   1      50.370  26.839  30.588  1.00  0.00     0.198 A 
ATOM     82  F   UNL A   1      48.933  28.011  29.142  1.00  0.00    -0.203 F 
ATOM     83  F   UNL A   1      49.670  24.997  33.630  1.00  0.00    -0.200 F 
ATOM     84  C   UNL A   1      50.564  26.075  31.729  1.00  0.00     0.200 A 
ATOM     85  F   UNL A   1      51.417  27.184  29.827  1.00  0.00    -0.200 F 
ATOM     86  F   UNL A   1      51.802  25.698  32.081  1.00  0.00    -0.200 F 
ENDBRANCH  53  76
ENDBRANCH  27  28
ENDBRANCH  19  22
ENDBRANCH  17  18
ENDBRANCH  16  17
ENDBRANCH   1  16
TORSDOF 13
ENDMDL
