MODEL 1
REMARK VINA RESULT:     -12.3      0.000      0.000
REMARK SMILES CC[C@H](C)[C@H](NC(=O)c1nc(C(C)C)n[nH]1)C(=O)NCCCNC(=O)c1ccc(-c2c3nc(c(-c4c(F)c(F)c(F)c(F)c4F)c4ccc([nH]4)c(-c4c(F)c(F)c(F)c(F)c4F)c4nc(c(-c5c(F)c(F)c(F)c(F)c5F)c5ccc2[nH]5)C=C4)C=C3)cc1
REMARK SMILES IDX 20 1 19 2 17 3 18 4 5 6 3 7 4 8 2 9 1 10 6 11 7 12 8 14 9 15
REMARK SMILES IDX 10 16 16 17 11 18 15 19 12 21 13 22 14 23 21 24 22 25 23 26
REMARK SMILES IDX 24 27 25 29 26 30 27 31 88 32 28 33 87 34 29 35 30 36 31 37
REMARK SMILES IDX 81 38 32 39 86 40 80 41 82 42 33 43 85 44 79 45 78 46 34 48
REMARK SMILES IDX 66 49 46 50 65 51 47 52 50 53 64 54 83 55 48 56 49 57 63 59
REMARK SMILES IDX 84 60 51 61 35 62 36 63 44 64 37 65 38 66 42 67 45 68 39 69
REMARK SMILES IDX 40 70 43 71 41 72 67 73 68 74 76 75 69 76 70 77 74 78 77 79
REMARK SMILES IDX 71 80 72 81 75 82 73 83 52 84 53 85 61 86 54 87 55 88 59 89
REMARK SMILES IDX 62 90 56 91 57 92 60 93 58 94
REMARK H PARENT 19 5 6 13 16 20 23 28 82 47 50 58
REMARK Flexibility Score: inf
ROOT
ATOM      1  C   UNL A   1      31.752  30.681  26.140  1.00  0.00     0.117 C 
ENDROOT
BRANCH   1   2
ATOM      2  N   UNL A   1      32.930  30.100  26.756  1.00  0.00    -0.354 N 
ATOM      3  C   UNL A   1      33.686  29.021  26.397  1.00  0.00     0.242 C 
ATOM      4  O   UNL A   1      34.841  28.993  26.840  1.00  0.00    -0.273 OA
ATOM      5  H   UNL A   1      33.234  30.560  27.572  1.00  0.00     0.163 HD
BRANCH   3   6
ATOM      6  C   UNL A   1      33.223  27.983  25.346  1.00  0.00     0.174 C 
BRANCH   6   7
ATOM      7  C   UNL A   1      33.291  26.523  25.913  1.00  0.00     0.018 C 
ATOM      8  C   UNL A   1      31.875  25.954  26.081  1.00  0.00     0.010 C 
BRANCH   7   9
ATOM      9  C   UNL A   1      34.199  25.572  25.097  1.00  0.00     0.002 C 
ATOM     10  C   UNL A   1      33.515  24.368  24.465  1.00  0.00     0.004 C 
ENDBRANCH   7   9
ENDBRANCH   6   7
BRANCH   6  11
ATOM     11  N   UNL A   1      33.888  28.087  24.045  1.00  0.00    -0.337 N 
ATOM     12  C   UNL A   1      33.357  28.279  22.796  1.00  0.00     0.289 C 
ATOM     13  H   UNL A   1      34.869  28.005  24.071  1.00  0.00     0.164 HD
ATOM     14  O   UNL A   1      34.149  28.226  21.851  1.00  0.00    -0.266 OA
BRANCH  12  15
ATOM     15  C   UNL A   1      31.953  28.528  22.579  1.00  0.00     0.214 A 
ATOM     16  N   UNL A   1      30.902  27.817  22.940  1.00  0.00    -0.207 NA
ATOM     17  N   UNL A   1      31.516  29.659  21.948  1.00  0.00    -0.255 N 
ATOM     18  C   UNL A   1      29.835  28.578  22.505  1.00  0.00     0.153 A 
ATOM     19  N   UNL A   1      30.180  29.710  21.878  1.00  0.00    -0.158 NA
ATOM     20  H   UNL A   1      32.113  30.353  21.588  1.00  0.00     0.192 HD
BRANCH  18  21
ATOM     21  C   UNL A   1      28.407  28.181  22.720  1.00  0.00     0.053 C 
ATOM     22  C   UNL A   1      28.267  27.101  23.799  1.00  0.00     0.016 C 
ATOM     23  C   UNL A   1      27.539  29.390  23.078  1.00  0.00     0.016 C 
ENDBRANCH  18  21
ENDBRANCH  12  15
ENDBRANCH   6  11
ENDBRANCH   3   6
ENDBRANCH   1   2
BRANCH   1  24
ATOM     24  C   UNL A   1      31.481  32.113  26.556  1.00  0.00     0.042 C 
BRANCH  24  25
ATOM     25  C   UNL A   1      32.623  32.758  27.326  1.00  0.00     0.118 C 
BRANCH  25  26
ATOM     26  N   UNL A   1      32.371  34.153  27.674  1.00  0.00    -0.352 N 
ATOM     27  C   UNL A   1      32.959  34.991  28.594  1.00  0.00     0.251 C 
ATOM     28  H   UNL A   1      31.648  34.571  27.155  1.00  0.00     0.163 HD
ATOM     29  O   UNL A   1      32.455  36.085  28.817  1.00  0.00    -0.269 OA
BRANCH  27  30
ATOM     30  C   UNL A   1      34.160  34.574  29.351  1.00  0.00     0.039 A 
ATOM     31  C   UNL A   1      34.003  34.088  30.654  1.00  0.00     0.014 A 
ATOM     32  C   UNL A   1      35.437  34.661  28.802  1.00  0.00     0.014 A 
ATOM     33  C   UNL A   1      35.109  33.591  31.351  1.00  0.00     0.010 A 
ATOM     34  C   UNL A   1      36.514  34.059  29.443  1.00  0.00     0.010 A 
ATOM     35  C   UNL A   1      36.362  33.509  30.724  1.00  0.00    -0.014 A 
BRANCH  35  36
ATOM     36  C   UNL A   1      37.521  32.839  31.372  1.00  0.00     0.031 A 
ATOM     37  C   UNL A   1      38.197  31.674  30.700  1.00  0.00     0.074 A 
ATOM     38  C   UNL A   1      37.898  33.215  32.611  1.00  0.00     0.049 A 
ATOM     39  N   UNL A   1      39.133  30.882  31.160  1.00  0.00    -0.248 NA
ATOM     40  C   UNL A   1      37.734  31.326  29.346  1.00  0.00     0.031 C 
ATOM     41  C   UNL A   1      37.281  34.284  33.398  1.00  0.00     0.029 A 
ATOM     42  N   UNL A   1      38.883  32.727  33.435  1.00  0.00    -0.354 N 
ATOM     43  C   UNL A   1      39.344  29.931  30.170  1.00  0.00     0.074 A 
ATOM     44  C   UNL A   1      38.409  30.212  29.104  1.00  0.00     0.031 C 
ATOM     45  C   UNL A   1      37.915  34.389  34.577  1.00  0.00     0.029 A 
ATOM     46  C   UNL A   1      38.952  33.366  34.650  1.00  0.00     0.049 A 
ATOM     47  H   UNL A   1      39.483  31.990  33.180  1.00  0.00     0.167 HD
ATOM     48  C   UNL A   1      40.255  28.929  30.143  1.00  0.00     0.037 A 
ATOM     49  C   UNL A   1      39.752  33.144  35.711  1.00  0.00     0.037 A 
ATOM     50  C   UNL A   1      41.222  28.686  31.179  1.00  0.00     0.049 A 
ATOM     51  C   UNL A   1      40.771  32.039  35.639  1.00  0.00     0.074 A 
ATOM     52  C   UNL A   1      42.248  27.757  31.200  1.00  0.00     0.029 A 
ATOM     53  N   UNL A   1      41.286  29.380  32.377  1.00  0.00    -0.354 N 
ATOM     54  N   UNL A   1      41.014  31.200  34.662  1.00  0.00    -0.248 NA
ATOM     55  C   UNL A   1      41.628  31.852  36.818  1.00  0.00     0.031 C 
ATOM     56  C   UNL A   1      42.908  27.862  32.429  1.00  0.00     0.029 A 
ATOM     57  C   UNL A   1      42.320  28.885  33.155  1.00  0.00     0.049 A 
ATOM     58  H   UNL A   1      40.686  30.117  32.636  1.00  0.00     0.167 HD
ATOM     59  C   UNL A   1      42.065  30.404  35.097  1.00  0.00     0.074 A 
ATOM     60  C   UNL A   1      42.427  30.873  36.418  1.00  0.00     0.031 C 
ATOM     61  C   UNL A   1      42.672  29.373  34.462  1.00  0.00     0.037 A 
BRANCH  48  62
ATOM     62  C   UNL A   1      40.269  28.026  28.943  1.00  0.00     0.064 A 
ATOM     63  C   UNL A   1      41.013  28.339  27.797  1.00  0.00     0.173 A 
ATOM     64  C   UNL A   1      39.584  26.801  28.969  1.00  0.00     0.173 A 
ATOM     65  F   UNL A   1      41.677  29.502  27.718  1.00  0.00    -0.203 F 
ATOM     66  C   UNL A   1      41.055  27.468  26.711  1.00  0.00     0.198 A 
ATOM     67  C   UNL A   1      39.651  25.921  27.892  1.00  0.00     0.198 A 
ATOM     68  F   UNL A   1      38.861  26.451  30.044  1.00  0.00    -0.203 F 
ATOM     69  F   UNL A   1      41.742  27.805  25.611  1.00  0.00    -0.200 F 
ATOM     70  C   UNL A   1      40.382  26.256  26.763  1.00  0.00     0.200 A 
ATOM     71  F   UNL A   1      39.012  24.744  27.949  1.00  0.00    -0.200 F 
ATOM     72  F   UNL A   1      40.438  25.412  25.724  1.00  0.00    -0.200 F 
ENDBRANCH  48  62
BRANCH  49  73
ATOM     73  C   UNL A   1      39.637  33.989  36.928  1.00  0.00     0.064 A 
ATOM     74  C   UNL A   1      38.849  33.581  38.014  1.00  0.00     0.173 A 
ATOM     75  C   UNL A   1      40.285  35.228  37.022  1.00  0.00     0.173 A 
ATOM     76  F   UNL A   1      38.192  32.412  37.962  1.00  0.00    -0.203 F 
ATOM     77  C   UNL A   1      38.691  34.392  39.135  1.00  0.00     0.198 A 
ATOM     78  C   UNL A   1      40.150  36.027  38.157  1.00  0.00     0.198 A 
ATOM     79  F   UNL A   1      41.054  35.664  36.014  1.00  0.00    -0.203 F 
ATOM     80  F   UNL A   1      37.889  34.002  40.135  1.00  0.00    -0.200 F 
ATOM     81  C   UNL A   1      39.346  35.613  39.208  1.00  0.00     0.200 A 
ATOM     82  F   UNL A   1      40.795  37.199  38.230  1.00  0.00    -0.200 F 
ATOM     83  F   UNL A   1      39.192  36.395  40.285  1.00  0.00    -0.200 F 
ENDBRANCH  49  73
BRANCH  61  84
ATOM     84  C   UNL A   1      43.807  28.701  35.176  1.00  0.00     0.064 A 
ATOM     85  C   UNL A   1      45.130  29.143  35.028  1.00  0.00     0.173 A 
ATOM     86  C   UNL A   1      43.563  27.629  36.047  1.00  0.00     0.173 A 
ATOM     87  F   UNL A   1      45.415  30.153  34.194  1.00  0.00    -0.203 F 
ATOM     88  C   UNL A   1      46.172  28.518  35.708  1.00  0.00     0.198 A 
ATOM     89  C   UNL A   1      44.603  27.026  36.748  1.00  0.00     0.198 A 
ATOM     90  F   UNL A   1      42.314  27.174  36.227  1.00  0.00    -0.203 F 
ATOM     91  F   UNL A   1      47.433  28.925  35.517  1.00  0.00    -0.200 F 
ATOM     92  C   UNL A   1      45.906  27.465  36.573  1.00  0.00     0.200 A 
ATOM     93  F   UNL A   1      44.344  26.017  37.593  1.00  0.00    -0.200 F 
ATOM     94  F   UNL A   1      46.909  26.870  37.232  1.00  0.00    -0.200 F 
ENDBRANCH  61  84
ENDBRANCH  35  36
ENDBRANCH  27  30
ENDBRANCH  25  26
ENDBRANCH  24  25
ENDBRANCH   1  24
TORSDOF 15
ENDMDL
MODEL 2
REMARK VINA RESULT:     -12.2      6.237     11.588
REMARK SMILES CC[C@H](C)[C@H](NC(=O)c1nc(C(C)C)n[nH]1)C(=O)NCCCNC(=O)c1ccc(-c2c3nc(c(-c4c(F)c(F)c(F)c(F)c4F)c4ccc([nH]4)c(-c4c(F)c(F)c(F)c(F)c4F)c4nc(c(-c5c(F)c(F)c(F)c(F)c5F)c5ccc2[nH]5)C=C4)C=C3)cc1
REMARK SMILES IDX 20 1 19 2 17 3 18 4 5 6 3 7 4 8 2 9 1 10 6 11 7 12 8 14 9 15
REMARK SMILES IDX 10 16 16 17 11 18 15 19 12 21 13 22 14 23 21 24 22 25 23 26
REMARK SMILES IDX 24 27 25 29 26 30 27 31 88 32 28 33 87 34 29 35 30 36 31 37
REMARK SMILES IDX 81 38 32 39 86 40 80 41 82 42 33 43 85 44 79 45 78 46 34 48
REMARK SMILES IDX 66 49 46 50 65 51 47 52 50 53 64 54 83 55 48 56 49 57 63 59
REMARK SMILES IDX 84 60 51 61 35 62 36 63 44 64 37 65 38 66 42 67 45 68 39 69
REMARK SMILES IDX 40 70 43 71 41 72 67 73 68 74 76 75 69 76 70 77 74 78 77 79
REMARK SMILES IDX 71 80 72 81 75 82 73 83 52 84 53 85 61 86 54 87 55 88 59 89
REMARK SMILES IDX 62 90 56 91 57 92 60 93 58 94
REMARK H PARENT 19 5 6 13 16 20 23 28 82 47 50 58
REMARK Flexibility Score: inf
ROOT
ATOM      1  C   UNL A   1      37.128  20.961  24.519  1.00  0.00     0.117 C 
ENDROOT
BRANCH   1   2
ATOM      2  N   UNL A   1      37.583  22.251  25.002  1.00  0.00    -0.354 N 
ATOM      3  C   UNL A   1      36.894  23.290  25.560  1.00  0.00     0.242 C 
ATOM      4  O   UNL A   1      37.556  24.078  26.247  1.00  0.00    -0.273 OA
ATOM      5  H   UNL A   1      38.552  22.403  24.913  1.00  0.00     0.163 HD
BRANCH   3   6
ATOM      6  C   UNL A   1      35.350  23.393  25.516  1.00  0.00     0.174 C 
BRANCH   6   7
ATOM      7  C   UNL A   1      34.884  24.726  24.833  1.00  0.00     0.018 C 
ATOM      8  C   UNL A   1      34.174  24.421  23.507  1.00  0.00     0.010 C 
BRANCH   7   9
ATOM      9  C   UNL A   1      34.028  25.635  25.748  1.00  0.00     0.002 C 
ATOM     10  C   UNL A   1      33.645  26.993  25.177  1.00  0.00     0.004 C 
ENDBRANCH   7   9
ENDBRANCH   6   7
BRANCH   6  11
ATOM     11  N   UNL A   1      34.683  23.185  26.803  1.00  0.00    -0.337 N 
ATOM     12  C   UNL A   1      33.724  22.273  27.161  1.00  0.00     0.289 C 
ATOM     13  H   UNL A   1      34.966  23.795  27.522  1.00  0.00     0.164 HD
ATOM     14  O   UNL A   1      33.260  22.387  28.300  1.00  0.00    -0.266 OA
BRANCH  12  15
ATOM     15  C   UNL A   1      33.270  21.233  26.271  1.00  0.00     0.214 A 
ATOM     16  N   UNL A   1      33.895  20.152  25.845  1.00  0.00    -0.207 NA
ATOM     17  N   UNL A   1      32.006  21.236  25.754  1.00  0.00    -0.255 N 
ATOM     18  C   UNL A   1      32.947  19.519  25.067  1.00  0.00     0.153 A 
ATOM     19  N   UNL A   1      31.778  20.168  24.980  1.00  0.00    -0.158 NA
ATOM     20  H   UNL A   1      31.341  21.940  25.929  1.00  0.00     0.192 HD
BRANCH  18  21
ATOM     21  C   UNL A   1      33.193  18.210  24.382  1.00  0.00     0.053 C 
ATOM     22  C   UNL A   1      32.527  18.150  23.002  1.00  0.00     0.016 C 
ATOM     23  C   UNL A   1      34.690  17.921  24.250  1.00  0.00     0.016 C 
ENDBRANCH  18  21
ENDBRANCH  12  15
ENDBRANCH   6  11
ENDBRANCH   3   6
ENDBRANCH   1   2
BRANCH   1  24
ATOM     24  C   UNL A   1      37.964  19.792  25.001  1.00  0.00     0.042 C 
BRANCH  24  25
ATOM     25  C   UNL A   1      39.187  20.199  25.808  1.00  0.00     0.118 C 
BRANCH  25  26
ATOM     26  N   UNL A   1      40.204  19.156  25.884  1.00  0.00    -0.352 N 
ATOM     27  C   UNL A   1      41.566  19.212  26.078  1.00  0.00     0.251 C 
ATOM     28  H   UNL A   1      39.852  18.244  25.777  1.00  0.00     0.163 HD
ATOM     29  O   UNL A   1      42.235  18.196  25.937  1.00  0.00    -0.269 OA
BRANCH  27  30
ATOM     30  C   UNL A   1      42.240  20.488  26.408  1.00  0.00     0.039 A 
ATOM     31  C   UNL A   1      42.819  21.233  25.376  1.00  0.00     0.014 A 
ATOM     32  C   UNL A   1      42.316  20.956  27.718  1.00  0.00     0.014 A 
ATOM     33  C   UNL A   1      43.369  22.491  25.647  1.00  0.00     0.010 A 
ATOM     34  C   UNL A   1      42.752  22.253  27.969  1.00  0.00     0.010 A 
ATOM     35  C   UNL A   1      43.278  23.040  26.935  1.00  0.00    -0.014 A 
BRANCH  35  36
ATOM     36  C   UNL A   1      43.703  24.435  27.225  1.00  0.00     0.031 A 
ATOM     37  C   UNL A   1      42.703  25.446  27.721  1.00  0.00     0.074 A 
ATOM     38  C   UNL A   1      44.965  24.817  26.943  1.00  0.00     0.049 A 
ATOM     39  N   UNL A   1      42.850  26.734  27.907  1.00  0.00    -0.248 NA
ATOM     40  C   UNL A   1      41.347  24.952  28.012  1.00  0.00     0.031 C 
ATOM     41  C   UNL A   1      46.011  23.952  26.394  1.00  0.00     0.029 A 
ATOM     42  N   UNL A   1      45.580  26.039  27.063  1.00  0.00    -0.354 N 
ATOM     43  C   UNL A   1      41.605  27.204  28.302  1.00  0.00     0.074 A 
ATOM     44  C   UNL A   1      40.700  26.076  28.286  1.00  0.00     0.031 C 
ATOM     45  C   UNL A   1      47.142  24.661  26.249  1.00  0.00     0.029 A 
ATOM     46  C   UNL A   1      46.890  26.041  26.649  1.00  0.00     0.049 A 
ATOM     47  H   UNL A   1      45.125  26.840  27.412  1.00  0.00     0.167 HD
ATOM     48  C   UNL A   1      41.254  28.459  28.670  1.00  0.00     0.037 A 
ATOM     49  C   UNL A   1      47.787  27.044  26.586  1.00  0.00     0.037 A 
ATOM     50  C   UNL A   1      42.169  29.567  28.741  1.00  0.00     0.049 A 
ATOM     51  C   UNL A   1      47.373  28.422  27.027  1.00  0.00     0.074 A 
ATOM     52  C   UNL A   1      41.931  30.853  29.194  1.00  0.00     0.029 A 
ATOM     53  N   UNL A   1      43.498  29.519  28.351  1.00  0.00    -0.354 N 
ATOM     54  N   UNL A   1      46.213  28.834  27.477  1.00  0.00    -0.248 NA
ATOM     55  C   UNL A   1      48.396  29.475  26.953  1.00  0.00     0.031 C 
ATOM     56  C   UNL A   1      43.107  31.594  29.040  1.00  0.00     0.029 A 
ATOM     57  C   UNL A   1      44.088  30.759  28.532  1.00  0.00     0.049 A 
ATOM     58  H   UNL A   1      43.955  28.721  27.999  1.00  0.00     0.167 HD
ATOM     59  C   UNL A   1      46.373  30.183  27.761  1.00  0.00     0.074 A 
ATOM     60  C   UNL A   1      47.747  30.517  27.453  1.00  0.00     0.031 C 
ATOM     61  C   UNL A   1      45.460  31.069  28.230  1.00  0.00     0.037 A 
BRANCH  48  62
ATOM     62  C   UNL A   1      39.822  28.705  29.049  1.00  0.00     0.064 A 
ATOM     63  C   UNL A   1      39.375  28.553  30.370  1.00  0.00     0.173 A 
ATOM     64  C   UNL A   1      38.903  29.163  28.093  1.00  0.00     0.173 A 
ATOM     65  F   UNL A   1      40.211  28.107  31.319  1.00  0.00    -0.203 F 
ATOM     66  C   UNL A   1      38.056  28.832  30.715  1.00  0.00     0.198 A 
ATOM     67  C   UNL A   1      37.592  29.468  28.448  1.00  0.00     0.198 A 
ATOM     68  F   UNL A   1      39.281  29.331  26.816  1.00  0.00    -0.203 F 
ATOM     69  F   UNL A   1      37.641  28.643  31.976  1.00  0.00    -0.200 F 
ATOM     70  C   UNL A   1      37.168  29.298  29.756  1.00  0.00     0.200 A 
ATOM     71  F   UNL A   1      36.739  29.930  27.523  1.00  0.00    -0.200 F 
ATOM     72  F   UNL A   1      35.903  29.581  30.095  1.00  0.00    -0.200 F 
ENDBRANCH  48  62
BRANCH  49  73
ATOM     73  C   UNL A   1      49.168  26.787  26.101  1.00  0.00     0.064 A 
ATOM     74  C   UNL A   1      49.508  26.994  24.756  1.00  0.00     0.173 A 
ATOM     75  C   UNL A   1      50.168  26.307  26.959  1.00  0.00     0.173 A 
ATOM     76  F   UNL A   1      48.580  27.433  23.892  1.00  0.00    -0.203 F 
ATOM     77  C   UNL A   1      50.784  26.703  24.282  1.00  0.00     0.198 A 
ATOM     78  C   UNL A   1      51.454  26.044  26.490  1.00  0.00     0.198 A 
ATOM     79  F   UNL A   1      49.898  26.097  28.256  1.00  0.00    -0.203 F 
ATOM     80  F   UNL A   1      51.065  26.858  22.981  1.00  0.00    -0.200 F 
ATOM     81  C   UNL A   1      51.758  26.233  25.150  1.00  0.00     0.200 A 
ATOM     82  F   UNL A   1      52.396  25.603  27.334  1.00  0.00    -0.200 F 
ATOM     83  F   UNL A   1      52.986  25.950  24.694  1.00  0.00    -0.200 F 
ENDBRANCH  49  73
BRANCH  61  84
ATOM     84  C   UNL A   1      45.927  32.474  28.464  1.00  0.00     0.064 A 
ATOM     85  C   UNL A   1      46.496  32.864  29.685  1.00  0.00     0.173 A 
ATOM     86  C   UNL A   1      45.840  33.431  27.442  1.00  0.00     0.173 A 
ATOM     87  F   UNL A   1      46.586  31.989  30.698  1.00  0.00    -0.203 F 
ATOM     88  C   UNL A   1      46.938  34.170  29.883  1.00  0.00     0.198 A 
ATOM     89  C   UNL A   1      46.309  34.727  27.633  1.00  0.00     0.198 A 
ATOM     90  F   UNL A   1      45.309  33.105  26.254  1.00  0.00    -0.203 F 
ATOM     91  F   UNL A   1      47.435  34.533  31.072  1.00  0.00    -0.200 F 
ATOM     92  C   UNL A   1      46.850  35.097  28.855  1.00  0.00     0.200 A 
ATOM     93  F   UNL A   1      46.236  35.619  26.635  1.00  0.00    -0.200 F 
ATOM     94  F   UNL A   1      47.282  36.351  29.045  1.00  0.00    -0.200 F 
ENDBRANCH  61  84
ENDBRANCH  35  36
ENDBRANCH  27  30
ENDBRANCH  25  26
ENDBRANCH  24  25
ENDBRANCH   1  24
TORSDOF 15
ENDMDL
MODEL 3
REMARK VINA RESULT:     -12.2      0.251      1.621
REMARK SMILES CC[C@H](C)[C@H](NC(=O)c1nc(C(C)C)n[nH]1)C(=O)NCCCNC(=O)c1ccc(-c2c3nc(c(-c4c(F)c(F)c(F)c(F)c4F)c4ccc([nH]4)c(-c4c(F)c(F)c(F)c(F)c4F)c4nc(c(-c5c(F)c(F)c(F)c(F)c5F)c5ccc2[nH]5)C=C4)C=C3)cc1
REMARK SMILES IDX 20 1 19 2 17 3 18 4 5 6 3 7 4 8 2 9 1 10 6 11 7 12 8 14 9 15
REMARK SMILES IDX 10 16 16 17 11 18 15 19 12 21 13 22 14 23 21 24 22 25 23 26
REMARK SMILES IDX 24 27 25 29 26 30 27 31 88 32 28 33 87 34 29 35 30 36 31 37
REMARK SMILES IDX 81 38 32 39 86 40 80 41 82 42 33 43 85 44 79 45 78 46 34 48
REMARK SMILES IDX 66 49 46 50 65 51 47 52 50 53 64 54 83 55 48 56 49 57 63 59
REMARK SMILES IDX 84 60 51 61 35 62 36 63 44 64 37 65 38 66 42 67 45 68 39 69
REMARK SMILES IDX 40 70 43 71 41 72 67 73 68 74 76 75 69 76 70 77 74 78 77 79
REMARK SMILES IDX 71 80 72 81 75 82 73 83 52 84 53 85 61 86 54 87 55 88 59 89
REMARK SMILES IDX 62 90 56 91 57 92 60 93 58 94
REMARK H PARENT 19 5 6 13 16 20 23 28 82 47 50 58
REMARK Flexibility Score: inf
ROOT
ATOM      1  C   UNL A   1      31.781  30.614  26.303  1.00  0.00     0.117 C 
ENDROOT
BRANCH   1   2
ATOM      2  N   UNL A   1      33.028  30.056  26.792  1.00  0.00    -0.354 N 
ATOM      3  C   UNL A   1      33.783  29.015  26.333  1.00  0.00     0.242 C 
ATOM      4  O   UNL A   1      34.974  29.015  26.669  1.00  0.00    -0.273 OA
ATOM      5  H   UNL A   1      33.391  30.504  27.591  1.00  0.00     0.163 HD
BRANCH   3   6
ATOM      6  C   UNL A   1      33.260  27.992  25.295  1.00  0.00     0.174 C 
BRANCH   6   7
ATOM      7  C   UNL A   1      33.298  26.531  25.863  1.00  0.00     0.018 C 
ATOM      8  C   UNL A   1      31.993  26.219  26.608  1.00  0.00     0.010 C 
BRANCH   7   9
ATOM      9  C   UNL A   1      33.625  25.452  24.802  1.00  0.00     0.002 C 
ATOM     10  C   UNL A   1      33.894  24.050  25.329  1.00  0.00     0.004 C 
ENDBRANCH   7   9
ENDBRANCH   6   7
BRANCH   6  11
ATOM     11  N   UNL A   1      33.892  28.075  23.977  1.00  0.00    -0.337 N 
ATOM     12  C   UNL A   1      33.331  28.264  22.741  1.00  0.00     0.289 C 
ATOM     13  H   UNL A   1      34.872  27.979  23.979  1.00  0.00     0.164 HD
ATOM     14  O   UNL A   1      34.097  28.192  21.776  1.00  0.00    -0.266 OA
BRANCH  12  15
ATOM     15  C   UNL A   1      31.925  28.533  22.558  1.00  0.00     0.214 A 
ATOM     16  N   UNL A   1      30.875  27.825  22.927  1.00  0.00    -0.207 NA
ATOM     17  N   UNL A   1      31.488  29.679  21.958  1.00  0.00    -0.255 N 
ATOM     18  C   UNL A   1      29.807  28.605  22.530  1.00  0.00     0.153 A 
ATOM     19  N   UNL A   1      30.152  29.745  21.917  1.00  0.00    -0.158 NA
ATOM     20  H   UNL A   1      32.085  30.373  21.598  1.00  0.00     0.192 HD
BRANCH  18  21
ATOM     21  C   UNL A   1      28.380  28.219  22.767  1.00  0.00     0.053 C 
ATOM     22  C   UNL A   1      28.248  27.144  23.852  1.00  0.00     0.016 C 
ATOM     23  C   UNL A   1      27.526  29.435  23.135  1.00  0.00     0.016 C 
ENDBRANCH  18  21
ENDBRANCH  12  15
ENDBRANCH   6  11
ENDBRANCH   3   6
ENDBRANCH   1   2
BRANCH   1  24
ATOM     24  C   UNL A   1      31.505  32.024  26.785  1.00  0.00     0.042 C 
BRANCH  24  25
ATOM     25  C   UNL A   1      32.744  32.771  27.252  1.00  0.00     0.118 C 
BRANCH  25  26
ATOM     26  N   UNL A   1      32.479  34.155  27.628  1.00  0.00    -0.352 N 
ATOM     27  C   UNL A   1      33.039  34.972  28.584  1.00  0.00     0.251 C 
ATOM     28  H   UNL A   1      31.769  34.585  27.099  1.00  0.00     0.163 HD
ATOM     29  O   UNL A   1      32.526  36.059  28.820  1.00  0.00    -0.269 OA
BRANCH  27  30
ATOM     30  C   UNL A   1      34.221  34.539  29.363  1.00  0.00     0.039 A 
ATOM     31  C   UNL A   1      34.027  33.983  30.632  1.00  0.00     0.014 A 
ATOM     32  C   UNL A   1      35.515  34.680  28.867  1.00  0.00     0.014 A 
ATOM     33  C   UNL A   1      35.117  33.471  31.343  1.00  0.00     0.010 A 
ATOM     34  C   UNL A   1      36.580  34.065  29.516  1.00  0.00     0.010 A 
ATOM     35  C   UNL A   1      36.393  33.447  30.761  1.00  0.00    -0.014 A 
BRANCH  35  36
ATOM     36  C   UNL A   1      37.542  32.766  31.415  1.00  0.00     0.031 A 
ATOM     37  C   UNL A   1      38.244  31.628  30.725  1.00  0.00     0.074 A 
ATOM     38  C   UNL A   1      37.885  33.106  32.675  1.00  0.00     0.049 A 
ATOM     39  N   UNL A   1      39.176  30.830  31.182  1.00  0.00    -0.248 NA
ATOM     40  C   UNL A   1      37.819  31.320  29.349  1.00  0.00     0.031 C 
ATOM     41  C   UNL A   1      37.238  34.144  33.479  1.00  0.00     0.029 A 
ATOM     42  N   UNL A   1      38.853  32.600  33.507  1.00  0.00    -0.354 N 
ATOM     43  C   UNL A   1      39.421  29.912  30.169  1.00  0.00     0.074 A 
ATOM     44  C   UNL A   1      38.510  30.220  29.088  1.00  0.00     0.031 C 
ATOM     45  C   UNL A   1      37.842  34.217  34.677  1.00  0.00     0.029 A 
ATOM     46  C   UNL A   1      38.886  33.200  34.743  1.00  0.00     0.049 A 
ATOM     47  H   UNL A   1      39.466  31.876  33.245  1.00  0.00     0.167 HD
ATOM     48  C   UNL A   1      40.341  28.920  30.133  1.00  0.00     0.037 A 
ATOM     49  C   UNL A   1      39.661  32.951  35.816  1.00  0.00     0.037 A 
ATOM     50  C   UNL A   1      41.285  28.652  31.185  1.00  0.00     0.049 A 
ATOM     51  C   UNL A   1      40.692  31.858  35.735  1.00  0.00     0.074 A 
ATOM     52  C   UNL A   1      42.318  27.732  31.202  1.00  0.00     0.029 A 
ATOM     53  N   UNL A   1      41.312  29.308  32.405  1.00  0.00    -0.354 N 
ATOM     54  N   UNL A   1      40.967  31.052  34.739  1.00  0.00    -0.248 NA
ATOM     55  C   UNL A   1      41.521  31.641  36.929  1.00  0.00     0.031 C 
ATOM     56  C   UNL A   1      42.946  27.803  32.450  1.00  0.00     0.029 A 
ATOM     57  C   UNL A   1      42.331  28.798  33.193  1.00  0.00     0.049 A 
ATOM     58  H   UNL A   1      40.699  30.031  32.672  1.00  0.00     0.167 HD
ATOM     59  C   UNL A   1      42.014  30.252  35.175  1.00  0.00     0.074 A 
ATOM     60  C   UNL A   1      42.339  30.681  36.518  1.00  0.00     0.031 C 
ATOM     61  C   UNL A   1      42.646  29.246  34.523  1.00  0.00     0.037 A 
BRANCH  48  62
ATOM     62  C   UNL A   1      40.393  28.055  28.906  1.00  0.00     0.064 A 
ATOM     63  C   UNL A   1      39.649  26.870  28.812  1.00  0.00     0.173 A 
ATOM     64  C   UNL A   1      41.141  28.452  27.788  1.00  0.00     0.173 A 
ATOM     65  F   UNL A   1      38.925  26.441  29.857  1.00  0.00    -0.203 F 
ATOM     66  C   UNL A   1      39.668  26.103  27.650  1.00  0.00     0.198 A 
ATOM     67  C   UNL A   1      41.136  27.697  26.618  1.00  0.00     0.198 A 
ATOM     68  F   UNL A   1      41.866  29.581  27.824  1.00  0.00    -0.203 F 
ATOM     69  F   UNL A   1      38.980  24.954  27.596  1.00  0.00    -0.200 F 
ATOM     70  C   UNL A   1      40.404  26.522  26.551  1.00  0.00     0.200 A 
ATOM     71  F   UNL A   1      41.837  28.110  25.552  1.00  0.00    -0.200 F 
ATOM     72  F   UNL A   1      40.409  25.791  25.428  1.00  0.00    -0.200 F 
ENDBRANCH  48  62
BRANCH  49  73
ATOM     73  C   UNL A   1      39.508  33.757  37.056  1.00  0.00     0.064 A 
ATOM     74  C   UNL A   1      38.722  33.293  38.122  1.00  0.00     0.173 A 
ATOM     75  C   UNL A   1      40.118  35.011  37.194  1.00  0.00     0.173 A 
ATOM     76  F   UNL A   1      38.101  32.108  38.028  1.00  0.00    -0.203 F 
ATOM     77  C   UNL A   1      38.528  34.066  39.264  1.00  0.00     0.198 A 
ATOM     78  C   UNL A   1      39.947  35.772  38.350  1.00  0.00     0.198 A 
ATOM     79  F   UNL A   1      40.884  35.500  36.208  1.00  0.00    -0.203 F 
ATOM     80  F   UNL A   1      37.728  33.623  40.243  1.00  0.00    -0.200 F 
ATOM     81  C   UNL A   1      39.145  35.303  39.379  1.00  0.00     0.200 A 
ATOM     82  F   UNL A   1      40.555  36.960  38.464  1.00  0.00    -0.200 F 
ATOM     83  F   UNL A   1      38.956  36.048  40.477  1.00  0.00    -0.200 F 
ENDBRANCH  49  73
BRANCH  61  84
ATOM     84  C   UNL A   1      43.769  28.562  35.244  1.00  0.00     0.064 A 
ATOM     85  C   UNL A   1      43.544  27.444  36.059  1.00  0.00     0.173 A 
ATOM     86  C   UNL A   1      45.090  29.008  35.085  1.00  0.00     0.173 A 
ATOM     87  F   UNL A   1      42.296  26.991  36.254  1.00  0.00    -0.203 F 
ATOM     88  C   UNL A   1      44.599  26.811  36.711  1.00  0.00     0.198 A 
ATOM     89  C   UNL A   1      46.145  28.355  35.715  1.00  0.00     0.198 A 
ATOM     90  F   UNL A   1      45.358  30.070  34.311  1.00  0.00    -0.203 F 
ATOM     91  F   UNL A   1      44.356  25.773  37.522  1.00  0.00    -0.200 F 
ATOM     92  C   UNL A   1      45.899  27.262  36.533  1.00  0.00     0.200 A 
ATOM     93  F   UNL A   1      47.402  28.784  35.532  1.00  0.00    -0.200 F 
ATOM     94  F   UNL A   1      46.913  26.648  37.155  1.00  0.00    -0.200 F 
ENDBRANCH  61  84
ENDBRANCH  35  36
ENDBRANCH  27  30
ENDBRANCH  25  26
ENDBRANCH  24  25
ENDBRANCH   1  24
TORSDOF 15
ENDMDL
