MODEL 1
REMARK VINA RESULT:     -15.1      0.000      0.000
REMARK SMILES C[C@@](NC(=O)CCOC1CC[NH2+]CC1)(C(=O)NCCCNC(=O)c1ccc(-c2c3nc(c(-c4c(F)c(F)c(F)c(F)c4F)c4ccc([nH]4)c(-c4c(F)c(F)c(F)c(F)c4F)c4nc(c(-c5c(F)c(F)c(F)c(F)c5F)c5ccc2[nH]5)C=C4)C=C3)cc1)C(F)(F)F
REMARK SMILES IDX 15 1 16 2 17 3 2 5 1 6 3 7 4 8 5 10 6 11 7 12 8 13 9 14
REMARK SMILES IDX 10 15 14 16 11 17 13 18 12 19 87 22 88 23 89 24 90 25 18 26
REMARK SMILES IDX 19 27 20 28 21 29 22 30 23 32 24 33 25 34 86 35 26 36 85 37
REMARK SMILES IDX 27 38 28 39 29 40 79 41 30 42 84 43 78 44 80 45 31 46 83 47
REMARK SMILES IDX 77 48 76 49 32 51 64 52 44 53 63 54 45 55 48 56 62 57 81 58
REMARK SMILES IDX 46 59 47 60 61 62 82 63 49 64 33 65 34 66 42 67 35 68 36 69
REMARK SMILES IDX 40 70 43 71 37 72 38 73 41 74 39 75 65 76 66 77 74 78 67 79
REMARK SMILES IDX 68 80 72 81 75 82 69 83 70 84 73 85 71 86 50 87 51 88 59 89
REMARK SMILES IDX 52 90 53 91 57 92 60 93 54 94 55 95 58 96 56 97
REMARK H PARENT 17 4 3 9 12 20 12 21 21 31 80 50 48 61
REMARK Flexibility Score: inf
ROOT
ATOM      1  C   UNL A   1      33.931  23.612  24.074  1.00  0.00     0.254 C 
ATOM      2  O   UNL A   1      33.568  24.798  24.240  1.00  0.00    -0.272 OA
ATOM      3  N   UNL A   1      35.161  23.653  23.373  1.00  0.00    -0.354 N 
ATOM      4  H   UNL A   1      35.116  23.972  22.442  1.00  0.00     0.163 HD
ENDROOT
BRANCH   1   5
ATOM      5  C   UNL A   1      32.822  22.052  24.612  1.00  0.00     0.212 C 
ATOM      6  C   UNL A   1      33.059  20.337  25.533  1.00  0.00     0.056 C 
BRANCH   5   7
ATOM      7  N   UNL A   1      31.359  21.924  25.991  1.00  0.00    -0.334 N 
ATOM      8  C   UNL A   1      30.709  23.167  26.815  1.00  0.00     0.223 C 
ATOM      9  H   UNL A   1      31.004  21.026  26.185  1.00  0.00     0.164 HD
ATOM     10  O   UNL A   1      29.810  22.955  27.626  1.00  0.00    -0.275 OA
BRANCH   8  11
ATOM     11  C   UNL A   1      31.247  24.897  26.379  1.00  0.00     0.128 C 
BRANCH  11  12
ATOM     12  C   UNL A   1      30.352  26.171  25.372  1.00  0.00     0.170 C 
BRANCH  12  13
ATOM     13  O   UNL A   1      30.942  27.676  24.875  1.00  0.00    -0.377 OA
BRANCH  13  14
ATOM     14  C   UNL A   1      32.482  28.064  24.930  1.00  0.00     0.129 C 
ATOM     15  C   UNL A   1      34.065  27.765  26.179  1.00  0.00     0.093 C 
ATOM     16  C   UNL A   1      31.803  29.517  25.049  1.00  0.00     0.093 C 
ATOM     17  C   UNL A   1      34.814  29.348  27.232  1.00  0.00     0.263 C 
ATOM     18  C   UNL A   1      31.750  30.590  26.882  1.00  0.00     0.263 C 
ATOM     19  N   UNL A   1      33.620  30.874  27.467  1.00  0.00    -0.346 N 
ATOM     20  H   UNL A   1      34.002  31.656  26.935  1.00  0.00     0.346 HD
ATOM     21  H   UNL A   1      33.578  31.044  28.472  1.00  0.00     0.346 HD
ENDBRANCH  13  14
ENDBRANCH  12  13
ENDBRANCH  11  12
ENDBRANCH   8  11
ENDBRANCH   5   7
BRANCH   5  22
ATOM     22  C   UNL A   1      32.616  22.640  22.671  1.00  0.00     0.420 C 
ATOM     23  F   UNL A   1      33.737  22.868  21.927  1.00  0.00    -0.168 F 
ATOM     24  F   UNL A   1      31.902  21.717  21.938  1.00  0.00    -0.168 F 
ATOM     25  F   UNL A   1      31.912  23.803  22.358  1.00  0.00    -0.168 F 
ENDBRANCH   5  22
ENDBRANCH   1   5
BRANCH   3  26
ATOM     26  C   UNL A   1      36.513  23.274  23.868  1.00  0.00     0.117 C 
BRANCH  26  27
ATOM     27  C   UNL A   1      36.705  21.828  24.251  1.00  0.00     0.042 C 
BRANCH  27  28
ATOM     28  C   UNL A   1      37.284  21.653  25.649  1.00  0.00     0.118 C 
BRANCH  28  29
ATOM     29  N   UNL A   1      38.496  20.819  25.739  1.00  0.00    -0.352 N 
ATOM     30  C   UNL A   1      39.759  21.050  26.245  1.00  0.00     0.251 C 
ATOM     31  H   UNL A   1      38.381  19.917  25.361  1.00  0.00     0.163 HD
ATOM     32  O   UNL A   1      40.640  20.204  26.133  1.00  0.00    -0.269 OA
BRANCH  30  33
ATOM     33  C   UNL A   1      40.069  22.347  26.875  1.00  0.00     0.039 A 
ATOM     34  C   UNL A   1      41.021  22.434  27.892  1.00  0.00     0.014 A 
ATOM     35  C   UNL A   1      39.483  23.498  26.372  1.00  0.00     0.014 A 
ATOM     36  C   UNL A   1      41.486  23.691  28.284  1.00  0.00     0.010 A 
ATOM     37  C   UNL A   1      40.104  24.711  26.589  1.00  0.00     0.010 A 
ATOM     38  C   UNL A   1      41.090  24.838  27.573  1.00  0.00    -0.014 A 
BRANCH  38  39
ATOM     39  C   UNL A   1      41.657  26.182  27.847  1.00  0.00     0.031 A 
ATOM     40  C   UNL A   1      43.032  26.533  27.334  1.00  0.00     0.074 A 
ATOM     41  C   UNL A   1      40.981  27.045  28.633  1.00  0.00     0.049 A 
ATOM     42  N   UNL A   1      43.737  27.619  27.526  1.00  0.00    -0.248 NA
ATOM     43  C   UNL A   1      43.746  25.500  26.561  1.00  0.00     0.031 C 
ATOM     44  C   UNL A   1      39.699  26.776  29.291  1.00  0.00     0.029 A 
ATOM     45  N   UNL A   1      41.274  28.332  29.004  1.00  0.00    -0.354 N 
ATOM     46  C   UNL A   1      44.971  27.373  26.935  1.00  0.00     0.074 A 
ATOM     47  C   UNL A   1      44.966  26.003  26.487  1.00  0.00     0.031 C 
ATOM     48  C   UNL A   1      39.284  27.886  29.921  1.00  0.00     0.029 A 
ATOM     49  C   UNL A   1      40.283  28.932  29.743  1.00  0.00     0.049 A 
ATOM     50  H   UNL A   1      42.117  28.784  28.765  1.00  0.00     0.167 HD
ATOM     51  C   UNL A   1      45.996  28.230  26.722  1.00  0.00     0.037 A 
ATOM     52  C   UNL A   1      40.189  30.195  30.200  1.00  0.00     0.037 A 
ATOM     53  C   UNL A   1      45.958  29.615  27.103  1.00  0.00     0.049 A 
ATOM     54  C   UNL A   1      41.302  31.156  29.879  1.00  0.00     0.074 A 
ATOM     55  C   UNL A   1      46.893  30.604  26.870  1.00  0.00     0.029 A 
ATOM     56  N   UNL A   1      44.905  30.205  27.786  1.00  0.00    -0.354 N 
ATOM     57  N   UNL A   1      42.423  30.940  29.234  1.00  0.00    -0.248 NA
ATOM     58  C   UNL A   1      41.125  32.542  30.331  1.00  0.00     0.031 C 
ATOM     59  C   UNL A   1      46.423  31.788  27.447  1.00  0.00     0.029 A 
ATOM     60  C   UNL A   1      45.171  31.547  27.993  1.00  0.00     0.049 A 
ATOM     61  H   UNL A   1      44.089  29.739  28.081  1.00  0.00     0.167 HD
ATOM     62  C   UNL A   1      43.073  32.165  29.178  1.00  0.00     0.074 A 
ATOM     63  C   UNL A   1      42.204  33.124  29.831  1.00  0.00     0.031 C 
ATOM     64  C   UNL A   1      44.280  32.474  28.643  1.00  0.00     0.037 A 
BRANCH  51  65
ATOM     65  C   UNL A   1      47.211  27.697  26.016  1.00  0.00     0.064 A 
ATOM     66  C   UNL A   1      48.308  27.176  26.724  1.00  0.00     0.173 A 
ATOM     67  C   UNL A   1      47.289  27.713  24.616  1.00  0.00     0.173 A 
ATOM     68  F   UNL A   1      48.297  27.152  28.066  1.00  0.00    -0.203 F 
ATOM     69  C   UNL A   1      49.450  26.735  26.061  1.00  0.00     0.198 A 
ATOM     70  C   UNL A   1      48.418  27.236  23.954  1.00  0.00     0.198 A 
ATOM     71  F   UNL A   1      46.273  28.200  23.887  1.00  0.00    -0.203 F 
ATOM     72  F   UNL A   1      50.511  26.313  26.764  1.00  0.00    -0.200 F 
ATOM     73  C   UNL A   1      49.501  26.759  24.676  1.00  0.00     0.200 A 
ATOM     74  F   UNL A   1      48.462  27.248  22.615  1.00  0.00    -0.200 F 
ATOM     75  F   UNL A   1      50.600  26.332  24.038  1.00  0.00    -0.200 F 
ENDBRANCH  51  65
BRANCH  52  76
ATOM     76  C   UNL A   1      38.970  30.641  30.930  1.00  0.00     0.064 A 
ATOM     77  C   UNL A   1      37.840  31.092  30.231  1.00  0.00     0.173 A 
ATOM     78  C   UNL A   1      38.904  30.627  32.329  1.00  0.00     0.173 A 
ATOM     79  F   UNL A   1      37.855  31.137  28.891  1.00  0.00    -0.203 F 
ATOM     80  C   UNL A   1      36.705  31.543  30.904  1.00  0.00     0.198 A 
ATOM     81  C   UNL A   1      37.757  31.049  33.001  1.00  0.00     0.198 A 
ATOM     82  F   UNL A   1      39.950  30.192  33.047  1.00  0.00    -0.203 F 
ATOM     83  F   UNL A   1      35.661  32.018  30.211  1.00  0.00    -0.200 F 
ATOM     84  C   UNL A   1      36.663  31.516  32.289  1.00  0.00     0.200 A 
ATOM     85  F   UNL A   1      37.713  31.004  34.340  1.00  0.00    -0.200 F 
ATOM     86  F   UNL A   1      35.571  31.945  32.937  1.00  0.00    -0.200 F 
ENDBRANCH  52  76
BRANCH  64  87
ATOM     87  C   UNL A   1      44.706  33.911  28.715  1.00  0.00     0.064 A 
ATOM     88  C   UNL A   1      45.483  34.396  29.777  1.00  0.00     0.173 A 
ATOM     89  C   UNL A   1      44.345  34.807  27.697  1.00  0.00     0.173 A 
ATOM     90  F   UNL A   1      45.843  33.580  30.778  1.00  0.00    -0.203 F 
ATOM     91  C   UNL A   1      45.843  35.739  29.840  1.00  0.00     0.198 A 
ATOM     92  C   UNL A   1      44.741  36.139  27.745  1.00  0.00     0.198 A 
ATOM     93  F   UNL A   1      43.614  34.388  26.653  1.00  0.00    -0.203 F 
ATOM     94  F   UNL A   1      46.527  36.195  30.898  1.00  0.00    -0.200 F 
ATOM     95  C   UNL A   1      45.476  36.607  28.823  1.00  0.00     0.200 A 
ATOM     96  F   UNL A   1      44.401  36.973  26.754  1.00  0.00    -0.200 F 
ATOM     97  F   UNL A   1      45.826  37.899  28.887  1.00  0.00    -0.200 F 
ENDBRANCH  64  87
ENDBRANCH  38  39
ENDBRANCH  30  33
ENDBRANCH  28  29
ENDBRANCH  27  28
ENDBRANCH  26  27
ENDBRANCH   3  26
TORSDOF 16
ENDMDL
MODEL 2
REMARK VINA RESULT:     -15.1      0.738      1.823
REMARK SMILES C[C@@](NC(=O)CCOC1CC[NH2+]CC1)(C(=O)NCCCNC(=O)c1ccc(-c2c3nc(c(-c4c(F)c(F)c(F)c(F)c4F)c4ccc([nH]4)c(-c4c(F)c(F)c(F)c(F)c4F)c4nc(c(-c5c(F)c(F)c(F)c(F)c5F)c5ccc2[nH]5)C=C4)C=C3)cc1)C(F)(F)F
REMARK SMILES IDX 15 1 16 2 17 3 2 5 1 6 3 7 4 8 5 10 6 11 7 12 8 13 9 14
REMARK SMILES IDX 10 15 14 16 11 17 13 18 12 19 87 22 88 23 89 24 90 25 18 26
REMARK SMILES IDX 19 27 20 28 21 29 22 30 23 32 24 33 25 34 86 35 26 36 85 37
REMARK SMILES IDX 27 38 28 39 29 40 79 41 30 42 84 43 78 44 80 45 31 46 83 47
REMARK SMILES IDX 77 48 76 49 32 51 64 52 44 53 63 54 45 55 48 56 62 57 81 58
REMARK SMILES IDX 46 59 47 60 61 62 82 63 49 64 33 65 34 66 42 67 35 68 36 69
REMARK SMILES IDX 40 70 43 71 37 72 38 73 41 74 39 75 65 76 66 77 74 78 67 79
REMARK SMILES IDX 68 80 72 81 75 82 69 83 70 84 73 85 71 86 50 87 51 88 59 89
REMARK SMILES IDX 52 90 53 91 57 92 60 93 54 94 55 95 58 96 56 97
REMARK H PARENT 17 4 3 9 12 20 12 21 21 31 80 50 48 61
REMARK Flexibility Score: inf
ROOT
ATOM      1  C   UNL A   1      34.188  23.760  24.362  1.00  0.00     0.254 C 
ATOM      2  O   UNL A   1      33.964  24.947  24.688  1.00  0.00    -0.272 OA
ATOM      3  N   UNL A   1      35.317  23.776  23.507  1.00  0.00    -0.354 N 
ATOM      4  H   UNL A   1      35.186  24.195  22.626  1.00  0.00     0.163 HD
ENDROOT
BRANCH   1   5
ATOM      5  C   UNL A   1      33.012  22.247  24.893  1.00  0.00     0.212 C 
ATOM      6  C   UNL A   1      33.179  20.510  25.788  1.00  0.00     0.056 C 
BRANCH   5   7
ATOM      7  N   UNL A   1      31.562  22.170  26.290  1.00  0.00    -0.334 N 
ATOM      8  C   UNL A   1      30.552  23.380  26.688  1.00  0.00     0.223 C 
ATOM      9  H   UNL A   1      31.455  21.320  26.777  1.00  0.00     0.164 HD
ATOM     10  O   UNL A   1      29.699  23.200  27.555  1.00  0.00    -0.275 OA
BRANCH   8  11
ATOM     11  C   UNL A   1      30.621  24.956  25.696  1.00  0.00     0.128 C 
BRANCH  11  12
ATOM     12  C   UNL A   1      29.646  25.422  24.189  1.00  0.00     0.170 C 
BRANCH  12  13
ATOM     13  O   UNL A   1      29.514  26.959  23.496  1.00  0.00    -0.377 OA
BRANCH  13  14
ATOM     14  C   UNL A   1      30.682  27.632  22.653  1.00  0.00     0.129 C 
ATOM     15  C   UNL A   1      32.664  27.312  22.307  1.00  0.00     0.093 C 
ATOM     16  C   UNL A   1      30.369  28.798  23.715  1.00  0.00     0.093 C 
ATOM     17  C   UNL A   1      34.033  28.619  23.078  1.00  0.00     0.263 C 
ATOM     18  C   UNL A   1      31.671  29.222  25.340  1.00  0.00     0.263 C 
ATOM     19  N   UNL A   1      33.437  29.707  24.585  1.00  0.00    -0.346 N 
ATOM     20  H   UNL A   1      33.390  30.677  24.274  1.00  0.00     0.346 HD
ATOM     21  H   UNL A   1      34.114  29.548  25.331  1.00  0.00     0.346 HD
ENDBRANCH  13  14
ENDBRANCH  12  13
ENDBRANCH  11  12
ENDBRANCH   8  11
ENDBRANCH   5   7
BRANCH   5  22
ATOM     22  C   UNL A   1      32.810  22.872  22.964  1.00  0.00     0.420 C 
ATOM     23  F   UNL A   1      33.915  22.916  22.164  1.00  0.00    -0.168 F 
ATOM     24  F   UNL A   1      31.918  22.083  22.269  1.00  0.00    -0.168 F 
ATOM     25  F   UNL A   1      32.293  24.137  22.683  1.00  0.00    -0.168 F 
ENDBRANCH   5  22
ENDBRANCH   1   5
BRANCH   3  26
ATOM     26  C   UNL A   1      36.679  23.236  23.775  1.00  0.00     0.117 C 
BRANCH  26  27
ATOM     27  C   UNL A   1      36.749  21.819  24.287  1.00  0.00     0.042 C 
BRANCH  27  28
ATOM     28  C   UNL A   1      37.369  21.716  25.675  1.00  0.00     0.118 C 
BRANCH  28  29
ATOM     29  N   UNL A   1      38.581  20.882  25.773  1.00  0.00    -0.352 N 
ATOM     30  C   UNL A   1      39.838  21.112  26.291  1.00  0.00     0.251 C 
ATOM     31  H   UNL A   1      38.470  19.982  25.391  1.00  0.00     0.163 HD
ATOM     32  O   UNL A   1      40.721  20.268  26.185  1.00  0.00    -0.269 OA
BRANCH  30  33
ATOM     33  C   UNL A   1      40.141  22.407  26.930  1.00  0.00     0.039 A 
ATOM     34  C   UNL A   1      41.084  22.491  27.955  1.00  0.00     0.014 A 
ATOM     35  C   UNL A   1      39.559  23.560  26.426  1.00  0.00     0.014 A 
ATOM     36  C   UNL A   1      41.544  23.747  28.357  1.00  0.00     0.010 A 
ATOM     37  C   UNL A   1      40.176  24.772  26.654  1.00  0.00     0.010 A 
ATOM     38  C   UNL A   1      41.153  24.896  27.647  1.00  0.00    -0.014 A 
BRANCH  38  39
ATOM     39  C   UNL A   1      41.716  26.240  27.932  1.00  0.00     0.031 A 
ATOM     40  C   UNL A   1      43.094  26.595  27.428  1.00  0.00     0.074 A 
ATOM     41  C   UNL A   1      41.035  27.097  28.718  1.00  0.00     0.049 A 
ATOM     42  N   UNL A   1      43.796  27.682  27.630  1.00  0.00    -0.248 NA
ATOM     43  C   UNL A   1      43.814  25.568  26.654  1.00  0.00     0.031 C 
ATOM     44  C   UNL A   1      39.750  26.823  29.368  1.00  0.00     0.029 A 
ATOM     45  N   UNL A   1      41.324  28.382  29.099  1.00  0.00    -0.354 N 
ATOM     46  C   UNL A   1      45.034  27.442  27.045  1.00  0.00     0.074 A 
ATOM     47  C   UNL A   1      45.034  26.074  26.589  1.00  0.00     0.031 C 
ATOM     48  C   UNL A   1      39.329  27.928  30.002  1.00  0.00     0.029 A 
ATOM     49  C   UNL A   1      40.328  28.976  29.835  1.00  0.00     0.049 A 
ATOM     50  H   UNL A   1      42.167  28.837  28.867  1.00  0.00     0.167 HD
ATOM     51  C   UNL A   1      46.059  28.301  26.842  1.00  0.00     0.037 A 
ATOM     52  C   UNL A   1      40.228  30.237  30.298  1.00  0.00     0.037 A 
ATOM     53  C   UNL A   1      46.016  29.684  27.230  1.00  0.00     0.049 A 
ATOM     54  C   UNL A   1      41.341  31.202  29.989  1.00  0.00     0.074 A 
ATOM     55  C   UNL A   1      46.951  30.676  27.008  1.00  0.00     0.029 A 
ATOM     56  N   UNL A   1      44.958  30.269  27.911  1.00  0.00    -0.354 N 
ATOM     57  N   UNL A   1      42.467  30.992  29.349  1.00  0.00    -0.248 NA
ATOM     58  C   UNL A   1      41.160  32.585  30.447  1.00  0.00     0.031 C 
ATOM     59  C   UNL A   1      46.476  31.856  27.590  1.00  0.00     0.029 A 
ATOM     60  C   UNL A   1      45.221  31.610  28.127  1.00  0.00     0.049 A 
ATOM     61  H   UNL A   1      44.142  29.800  28.198  1.00  0.00     0.167 HD
ATOM     62  C   UNL A   1      43.115  32.218  29.304  1.00  0.00     0.074 A 
ATOM     63  C   UNL A   1      42.240  33.172  29.957  1.00  0.00     0.031 C 
ATOM     64  C   UNL A   1      44.325  32.531  28.776  1.00  0.00     0.037 A 
BRANCH  51  65
ATOM     65  C   UNL A   1      47.278  27.774  26.140  1.00  0.00     0.064 A 
ATOM     66  C   UNL A   1      47.387  27.784  24.739  1.00  0.00     0.173 A 
ATOM     67  C   UNL A   1      48.350  27.243  26.872  1.00  0.00     0.173 A 
ATOM     68  F   UNL A   1      46.384  28.264  23.986  1.00  0.00    -0.203 F 
ATOM     69  C   UNL A   1      48.498  27.244  24.098  1.00  0.00     0.198 A 
ATOM     70  C   UNL A   1      49.478  26.737  26.228  1.00  0.00     0.198 A 
ATOM     71  F   UNL A   1      48.302  27.205  28.212  1.00  0.00    -0.203 F 
ATOM     72  F   UNL A   1      48.542  27.198  22.759  1.00  0.00    -0.200 F 
ATOM     73  C   UNL A   1      49.546  26.726  24.844  1.00  0.00     0.200 A 
ATOM     74  F   UNL A   1      50.496  26.248  26.950  1.00  0.00    -0.200 F 
ATOM     75  F   UNL A   1      50.617  26.208  24.226  1.00  0.00    -0.200 F 
ENDBRANCH  51  65
BRANCH  52  76
ATOM     76  C   UNL A   1      39.005  30.677  31.023  1.00  0.00     0.064 A 
ATOM     77  C   UNL A   1      38.925  30.578  32.421  1.00  0.00     0.173 A 
ATOM     78  C   UNL A   1      37.896  31.201  30.346  1.00  0.00     0.173 A 
ATOM     79  F   UNL A   1      39.954  30.072  33.117  1.00  0.00    -0.203 F 
ATOM     80  C   UNL A   1      37.773  30.956  33.108  1.00  0.00     0.198 A 
ATOM     81  C   UNL A   1      36.755  31.608  31.038  1.00  0.00     0.198 A 
ATOM     82  F   UNL A   1      37.923  31.331  29.012  1.00  0.00    -0.203 F 
ATOM     83  F   UNL A   1      37.706  30.801  34.438  1.00  0.00    -0.200 F 
ATOM     84  C   UNL A   1      36.690  31.476  32.416  1.00  0.00     0.200 A 
ATOM     85  F   UNL A   1      35.718  32.128  30.366  1.00  0.00    -0.200 F 
ATOM     86  F   UNL A   1      35.583  31.843  33.076  1.00  0.00    -0.200 F 
ENDBRANCH  52  76
BRANCH  64  87
ATOM     87  C   UNL A   1      44.747  33.969  28.859  1.00  0.00     0.064 A 
ATOM     88  C   UNL A   1      45.514  34.451  29.930  1.00  0.00     0.173 A 
ATOM     89  C   UNL A   1      44.394  34.869  27.842  1.00  0.00     0.173 A 
ATOM     90  F   UNL A   1      45.866  33.630  30.931  1.00  0.00    -0.203 F 
ATOM     91  C   UNL A   1      45.872  35.793  30.003  1.00  0.00     0.198 A 
ATOM     92  C   UNL A   1      44.787  36.202  27.900  1.00  0.00     0.198 A 
ATOM     93  F   UNL A   1      43.674  34.453  26.789  1.00  0.00    -0.203 F 
ATOM     94  F   UNL A   1      46.545  36.246  31.069  1.00  0.00    -0.200 F 
ATOM     95  C   UNL A   1      45.513  36.666  28.987  1.00  0.00     0.200 A 
ATOM     96  F   UNL A   1      44.455  37.040  26.909  1.00  0.00    -0.200 F 
ATOM     97  F   UNL A   1      45.859  37.958  29.059  1.00  0.00    -0.200 F 
ENDBRANCH  64  87
ENDBRANCH  38  39
ENDBRANCH  30  33
ENDBRANCH  28  29
ENDBRANCH  27  28
ENDBRANCH  26  27
ENDBRANCH   3  26
TORSDOF 16
ENDMDL
MODEL 3
REMARK VINA RESULT:     -15.0      0.200      1.596
REMARK SMILES C[C@@](NC(=O)CCOC1CC[NH2+]CC1)(C(=O)NCCCNC(=O)c1ccc(-c2c3nc(c(-c4c(F)c(F)c(F)c(F)c4F)c4ccc([nH]4)c(-c4c(F)c(F)c(F)c(F)c4F)c4nc(c(-c5c(F)c(F)c(F)c(F)c5F)c5ccc2[nH]5)C=C4)C=C3)cc1)C(F)(F)F
REMARK SMILES IDX 15 1 16 2 17 3 2 5 1 6 3 7 4 8 5 10 6 11 7 12 8 13 9 14
REMARK SMILES IDX 10 15 14 16 11 17 13 18 12 19 87 22 88 23 89 24 90 25 18 26
REMARK SMILES IDX 19 27 20 28 21 29 22 30 23 32 24 33 25 34 86 35 26 36 85 37
REMARK SMILES IDX 27 38 28 39 29 40 79 41 30 42 84 43 78 44 80 45 31 46 83 47
REMARK SMILES IDX 77 48 76 49 32 51 64 52 44 53 63 54 45 55 48 56 62 57 81 58
REMARK SMILES IDX 46 59 47 60 61 62 82 63 49 64 33 65 34 66 42 67 35 68 36 69
REMARK SMILES IDX 40 70 43 71 37 72 38 73 41 74 39 75 65 76 66 77 74 78 67 79
REMARK SMILES IDX 68 80 72 81 75 82 69 83 70 84 73 85 71 86 50 87 51 88 59 89
REMARK SMILES IDX 52 90 53 91 57 92 60 93 54 94 55 95 58 96 56 97
REMARK H PARENT 17 4 3 9 12 20 12 21 21 31 80 50 48 61
REMARK Flexibility Score: inf
ROOT
ATOM      1  C   UNL A   1      33.853  23.412  23.958  1.00  0.00     0.254 C 
ATOM      2  O   UNL A   1      33.542  24.611  24.131  1.00  0.00    -0.272 OA
ATOM      3  N   UNL A   1      35.064  23.404  23.224  1.00  0.00    -0.354 N 
ATOM      4  H   UNL A   1      35.006  23.723  22.294  1.00  0.00     0.163 HD
ENDROOT
BRANCH   1   5
ATOM      5  C   UNL A   1      32.699  21.898  24.531  1.00  0.00     0.212 C 
ATOM      6  C   UNL A   1      32.897  20.172  25.442  1.00  0.00     0.056 C 
BRANCH   5   7
ATOM      7  N   UNL A   1      31.280  21.826  25.959  1.00  0.00    -0.334 N 
ATOM      8  C   UNL A   1      30.716  23.091  26.811  1.00  0.00     0.223 C 
ATOM      9  H   UNL A   1      30.890  20.943  26.159  1.00  0.00     0.164 HD
ATOM     10  O   UNL A   1      29.836  22.914  27.651  1.00  0.00    -0.275 OA
BRANCH   8  11
ATOM     11  C   UNL A   1      31.317  24.798  26.368  1.00  0.00     0.128 C 
BRANCH  11  12
ATOM     12  C   UNL A   1      30.396  26.172  25.531  1.00  0.00     0.170 C 
BRANCH  12  13
ATOM     13  O   UNL A   1      31.052  27.576  24.855  1.00  0.00    -0.377 OA
BRANCH  13  14
ATOM     14  C   UNL A   1      32.589  27.960  24.978  1.00  0.00     0.129 C 
ATOM     15  C   UNL A   1      34.119  27.641  26.286  1.00  0.00     0.093 C 
ATOM     16  C   UNL A   1      31.908  29.413  25.089  1.00  0.00     0.093 C 
ATOM     17  C   UNL A   1      34.828  29.208  27.390  1.00  0.00     0.263 C 
ATOM     18  C   UNL A   1      31.782  30.462  26.932  1.00  0.00     0.263 C 
ATOM     19  N   UNL A   1      33.628  30.734  27.597  1.00  0.00    -0.346 N 
ATOM     20  H   UNL A   1      34.031  31.522  27.092  1.00  0.00     0.346 HD
ATOM     21  H   UNL A   1      33.544  30.890  28.602  1.00  0.00     0.346 HD
ENDBRANCH  13  14
ENDBRANCH  12  13
ENDBRANCH  11  12
ENDBRANCH   8  11
ENDBRANCH   5   7
BRANCH   5  22
ATOM     22  C   UNL A   1      32.453  22.499  22.599  1.00  0.00     0.420 C 
ATOM     23  F   UNL A   1      33.554  22.642  21.806  1.00  0.00    -0.168 F 
ATOM     24  F   UNL A   1      31.641  21.632  21.901  1.00  0.00    -0.168 F 
ATOM     25  F   UNL A   1      31.825  23.712  22.314  1.00  0.00    -0.168 F 
ENDBRANCH   5  22
ENDBRANCH   1   5
BRANCH   3  26
ATOM     26  C   UNL A   1      36.413  22.973  23.681  1.00  0.00     0.117 C 
BRANCH  26  27
ATOM     27  C   UNL A   1      36.500  21.612  24.325  1.00  0.00     0.042 C 
BRANCH  27  28
ATOM     28  C   UNL A   1      37.235  21.627  25.659  1.00  0.00     0.118 C 
BRANCH  28  29
ATOM     29  N   UNL A   1      38.466  20.820  25.718  1.00  0.00    -0.352 N 
ATOM     30  C   UNL A   1      39.731  21.072  26.211  1.00  0.00     0.251 C 
ATOM     31  H   UNL A   1      38.367  19.921  25.328  1.00  0.00     0.163 HD
ATOM     32  O   UNL A   1      40.629  20.248  26.074  1.00  0.00    -0.269 OA
BRANCH  30  33
ATOM     33  C   UNL A   1      40.020  22.365  26.858  1.00  0.00     0.039 A 
ATOM     34  C   UNL A   1      40.943  22.448  27.901  1.00  0.00     0.014 A 
ATOM     35  C   UNL A   1      39.447  23.519  26.345  1.00  0.00     0.014 A 
ATOM     36  C   UNL A   1      41.393  23.704  28.314  1.00  0.00     0.010 A 
ATOM     37  C   UNL A   1      40.058  24.732  26.587  1.00  0.00     0.010 A 
ATOM     38  C   UNL A   1      41.015  24.854  27.599  1.00  0.00    -0.014 A 
BRANCH  38  39
ATOM     39  C   UNL A   1      41.571  26.198  27.898  1.00  0.00     0.031 A 
ATOM     40  C   UNL A   1      42.953  26.560  27.410  1.00  0.00     0.074 A 
ATOM     41  C   UNL A   1      40.879  27.049  28.682  1.00  0.00     0.049 A 
ATOM     42  N   UNL A   1      43.649  27.648  27.626  1.00  0.00    -0.248 NA
ATOM     43  C   UNL A   1      43.684  25.540  26.638  1.00  0.00     0.031 C 
ATOM     44  C   UNL A   1      39.588  26.767  29.317  1.00  0.00     0.029 A 
ATOM     45  N   UNL A   1      41.160  28.332  29.073  1.00  0.00    -0.354 N 
ATOM     46  C   UNL A   1      44.894  27.414  27.052  1.00  0.00     0.074 A 
ATOM     47  C   UNL A   1      44.903  26.050  26.588  1.00  0.00     0.031 C 
ATOM     48  C   UNL A   1      39.158  27.867  29.953  1.00  0.00     0.029 A 
ATOM     49  C   UNL A   1      40.155  28.919  29.803  1.00  0.00     0.049 A 
ATOM     50  H   UNL A   1      42.004  28.791  28.852  1.00  0.00     0.167 HD
ATOM     51  C   UNL A   1      45.918  28.279  26.864  1.00  0.00     0.037 A 
ATOM     52  C   UNL A   1      40.047  30.177  30.271  1.00  0.00     0.037 A 
ATOM     53  C   UNL A   1      45.867  29.658  27.260  1.00  0.00     0.049 A 
ATOM     54  C   UNL A   1      41.160  31.146  29.980  1.00  0.00     0.074 A 
ATOM     55  C   UNL A   1      46.802  30.654  27.054  1.00  0.00     0.029 A 
ATOM     56  N   UNL A   1      44.800  30.236  27.933  1.00  0.00    -0.354 N 
ATOM     57  N   UNL A   1      42.293  30.943  29.350  1.00  0.00    -0.248 NA
ATOM     58  C   UNL A   1      40.970  32.526  30.444  1.00  0.00     0.031 C 
ATOM     59  C   UNL A   1      46.317  31.830  27.637  1.00  0.00     0.029 A 
ATOM     60  C   UNL A   1      45.057  31.577  28.160  1.00  0.00     0.049 A 
ATOM     61  H   UNL A   1      43.983  29.763  28.210  1.00  0.00     0.167 HD
ATOM     62  C   UNL A   1      42.938  32.172  29.318  1.00  0.00     0.074 A 
ATOM     63  C   UNL A   1      42.054  33.119  29.968  1.00  0.00     0.031 C 
ATOM     64  C   UNL A   1      44.152  32.492  28.805  1.00  0.00     0.037 A 
BRANCH  51  65
ATOM     65  C   UNL A   1      47.147  27.759  26.172  1.00  0.00     0.064 A 
ATOM     66  C   UNL A   1      47.245  27.720  24.770  1.00  0.00     0.173 A 
ATOM     67  C   UNL A   1      48.238  27.285  26.914  1.00  0.00     0.173 A 
ATOM     68  F   UNL A   1      46.223  28.143  24.009  1.00  0.00    -0.203 F 
ATOM     69  C   UNL A   1      48.365  27.186  24.140  1.00  0.00     0.198 A 
ATOM     70  C   UNL A   1      49.375  26.786  26.280  1.00  0.00     0.198 A 
ATOM     71  F   UNL A   1      48.202  27.296  28.254  1.00  0.00    -0.203 F 
ATOM     72  F   UNL A   1      48.400  27.091  22.803  1.00  0.00    -0.200 F 
ATOM     73  C   UNL A   1      49.432  26.726  24.896  1.00  0.00     0.200 A 
ATOM     74  F   UNL A   1      50.411  26.352  27.010  1.00  0.00    -0.200 F 
ATOM     75  F   UNL A   1      50.512  26.214  24.289  1.00  0.00    -0.200 F 
ENDBRANCH  51  65
BRANCH  52  76
ATOM     76  C   UNL A   1      38.815  30.609  30.987  1.00  0.00     0.064 A 
ATOM     77  C   UNL A   1      37.677  31.017  30.274  1.00  0.00     0.173 A 
ATOM     78  C   UNL A   1      38.744  30.625  32.386  1.00  0.00     0.173 A 
ATOM     79  F   UNL A   1      37.696  31.031  28.933  1.00  0.00    -0.203 F 
ATOM     80  C   UNL A   1      36.529  31.454  30.933  1.00  0.00     0.198 A 
ATOM     81  C   UNL A   1      37.584  31.033  33.045  1.00  0.00     0.198 A 
ATOM     82  F   UNL A   1      39.797  30.232  33.117  1.00  0.00    -0.203 F 
ATOM     83  F   UNL A   1      35.476  31.887  30.226  1.00  0.00    -0.200 F 
ATOM     84  C   UNL A   1      36.481  31.457  32.318  1.00  0.00     0.200 A 
ATOM     85  F   UNL A   1      37.535  31.017  34.384  1.00  0.00    -0.200 F 
ATOM     86  F   UNL A   1      35.377  31.874  32.952  1.00  0.00    -0.200 F 
ENDBRANCH  52  76
BRANCH  64  87
ATOM     87  C   UNL A   1      44.569  33.930  28.901  1.00  0.00     0.064 A 
ATOM     88  C   UNL A   1      44.228  34.863  27.911  1.00  0.00     0.173 A 
ATOM     89  C   UNL A   1      45.306  34.380  30.007  1.00  0.00     0.173 A 
ATOM     90  F   UNL A   1      43.534  34.477  26.829  1.00  0.00    -0.203 F 
ATOM     91  C   UNL A   1      44.649  36.186  28.003  1.00  0.00     0.198 A 
ATOM     92  C   UNL A   1      45.691  35.713  30.114  1.00  0.00     0.198 A 
ATOM     93  F   UNL A   1      45.645  33.530  30.987  1.00  0.00    -0.203 F 
ATOM     94  F   UNL A   1      44.370  37.044  27.013  1.00  0.00    -0.200 F 
ATOM     95  C   UNL A   1      45.375  36.610  29.105  1.00  0.00     0.200 A 
ATOM     96  F   UNL A   1      46.377  36.125  31.187  1.00  0.00    -0.200 F 
ATOM     97  F   UNL A   1      45.779  37.885  29.192  1.00  0.00    -0.200 F 
ENDBRANCH  64  87
ENDBRANCH  38  39
ENDBRANCH  30  33
ENDBRANCH  28  29
ENDBRANCH  27  28
ENDBRANCH  26  27
ENDBRANCH   3  26
TORSDOF 16
ENDMDL
