MODEL 1
REMARK VINA RESULT:     -12.8      0.000      0.000
REMARK SMILES Cc1ccc(C(=O)NCCCNC(=O)c2ccc(-c3c4nc(c(-c5c(F)c(F)c(F)c(F)c5F)c5ccc([nH]5)c(-c5c(F)c(F)c(F)c(F)c5F)c5nc(c(-c6c(F)c(F)c(F)c(F)c6F)c6ccc3[nH]6)C=C5)C=C4)cc2)cc1S(=O)(=O)N(CC1CC1)C(C)C
REMARK SMILES IDX 9 1 8 2 6 3 7 4 5 6 1 7 2 8 3 9 79 10 4 11 78 12 80 13 81 14
REMARK SMILES IDX 82 15 83 16 84 17 85 18 86 19 87 20 88 21 89 22 90 23 10 24
REMARK SMILES IDX 11 25 12 26 13 27 14 29 15 30 16 31 77 32 17 33 76 34 18 35
REMARK SMILES IDX 19 36 20 37 70 38 21 39 75 40 69 41 71 42 22 43 74 44 68 45
REMARK SMILES IDX 67 46 23 48 55 49 35 50 54 51 36 52 39 53 53 54 72 55 37 56
REMARK SMILES IDX 38 57 52 59 73 60 40 61 24 62 25 63 33 64 26 65 27 66 31 67
REMARK SMILES IDX 34 68 28 69 29 70 32 71 30 72 56 73 57 74 65 75 58 76 59 77
REMARK SMILES IDX 63 78 66 79 60 80 61 81 64 82 62 83 41 84 42 85 50 86 43 87
REMARK SMILES IDX 44 88 48 89 51 90 45 91 46 92 49 93 47 94
REMARK H PARENT 8 5 12 28 71 47 39 58
REMARK Flexibility Score: inf
ROOT
ATOM      1  C   UNL A   1      31.587  29.615  25.611  1.00  0.00     0.118 C 
ENDROOT
BRANCH   1   2
ATOM      2  N   UNL A   1      31.171  29.908  24.241  1.00  0.00    -0.352 N 
ATOM      3  C   UNL A   1      30.761  29.124  23.183  1.00  0.00     0.251 C 
ATOM      4  O   UNL A   1      30.379  29.718  22.172  1.00  0.00    -0.269 OA
ATOM      5  H   UNL A   1      31.187  30.869  24.028  1.00  0.00     0.163 HD
BRANCH   3   6
ATOM      6  C   UNL A   1      30.727  27.628  23.190  1.00  0.00     0.041 A 
ATOM      7  C   UNL A   1      30.562  23.330  23.829  1.00  0.00     0.046 C 
ATOM      8  C   UNL A   1      30.660  24.782  23.473  1.00  0.00    -0.031 A 
ATOM      9  C   UNL A   1      29.544  25.588  23.787  1.00  0.00     0.005 A 
ATOM     10  C   UNL A   1      31.766  25.411  22.898  1.00  0.00     0.086 A 
ATOM     11  C   UNL A   1      29.580  26.985  23.659  1.00  0.00     0.014 A 
ATOM     12  C   UNL A   1      31.771  26.816  22.769  1.00  0.00     0.035 A 
BRANCH  10  13
ATOM     13  S   UNL A   1      33.373  24.705  22.529  1.00  0.00     0.243 S 
ATOM     14  O   UNL A   1      33.160  23.670  21.548  1.00  0.00    -0.207 OA
ATOM     15  O   UNL A   1      34.152  25.880  22.163  1.00  0.00    -0.207 OA
BRANCH  13  16
ATOM     16  N   UNL A   1      34.064  23.980  23.887  1.00  0.00    -0.195 NA
BRANCH  16  17
ATOM     17  C   UNL A   1      34.492  22.558  23.873  1.00  0.00     0.106 C 
BRANCH  17  18
ATOM     18  C   UNL A   1      33.662  21.527  24.578  1.00  0.00     0.004 C 
ATOM     19  C   UNL A   1      32.903  20.364  23.980  1.00  0.00     0.005 C 
ATOM     20  C   UNL A   1      34.226  20.117  24.628  1.00  0.00     0.005 C 
ENDBRANCH  17  18
ENDBRANCH  16  17
BRANCH  16  21
ATOM     21  C   UNL A   1      34.902  24.833  24.821  1.00  0.00     0.067 C 
ATOM     22  C   UNL A   1      34.060  25.700  25.751  1.00  0.00     0.025 C 
ATOM     23  C   UNL A   1      35.924  24.060  25.652  1.00  0.00     0.025 C 
ENDBRANCH  16  21
ENDBRANCH  13  16
ENDBRANCH  10  13
ENDBRANCH   3   6
ENDBRANCH   1   2
BRANCH   1  24
ATOM     24  C   UNL A   1      32.865  30.363  26.004  1.00  0.00     0.042 C 
BRANCH  24  25
ATOM     25  C   UNL A   1      33.265  30.167  27.452  1.00  0.00     0.118 C 
BRANCH  25  26
ATOM     26  N   UNL A   1      33.838  31.350  28.087  1.00  0.00    -0.352 N 
ATOM     27  C   UNL A   1      35.069  31.467  28.708  1.00  0.00     0.251 C 
ATOM     28  H   UNL A   1      33.282  32.163  28.070  1.00  0.00     0.163 HD
ATOM     29  O   UNL A   1      35.422  32.511  29.242  1.00  0.00    -0.269 OA
BRANCH  27  30
ATOM     30  C   UNL A   1      36.002  30.325  28.602  1.00  0.00     0.039 A 
ATOM     31  C   UNL A   1      36.385  29.690  29.786  1.00  0.00     0.014 A 
ATOM     32  C   UNL A   1      36.710  30.124  27.419  1.00  0.00     0.014 A 
ATOM     33  C   UNL A   1      37.627  29.068  29.845  1.00  0.00     0.010 A 
ATOM     34  C   UNL A   1      37.983  29.594  27.501  1.00  0.00     0.010 A 
ATOM     35  C   UNL A   1      38.467  29.131  28.730  1.00  0.00    -0.014 A 
BRANCH  35  36
ATOM     36  C   UNL A   1      39.887  28.808  28.800  1.00  0.00     0.031 A 
ATOM     37  C   UNL A   1      40.353  27.466  28.401  1.00  0.00     0.074 A 
ATOM     38  C   UNL A   1      40.791  29.717  29.231  1.00  0.00     0.049 A 
ATOM     39  N   UNL A   1      41.346  26.853  28.956  1.00  0.00    -0.248 NA
ATOM     40  C   UNL A   1      39.700  26.687  27.358  1.00  0.00     0.031 C 
ATOM     41  C   UNL A   1      42.246  29.598  29.164  1.00  0.00     0.029 A 
ATOM     42  N   UNL A   1      40.570  30.882  29.984  1.00  0.00    -0.354 N 
ATOM     43  C   UNL A   1      41.627  25.742  28.196  1.00  0.00     0.074 A 
ATOM     44  C   UNL A   1      40.534  25.648  27.252  1.00  0.00     0.031 C 
ATOM     45  C   UNL A   1      42.793  30.440  30.054  1.00  0.00     0.029 A 
ATOM     46  C   UNL A   1      41.711  31.045  30.806  1.00  0.00     0.049 A 
ATOM     47  H   UNL A   1      39.780  31.468  29.946  1.00  0.00     0.167 HD
ATOM     48  C   UNL A   1      42.820  25.099  28.355  1.00  0.00     0.037 A 
ATOM     49  C   UNL A   1      41.628  31.096  32.167  1.00  0.00     0.037 A 
ATOM     50  C   UNL A   1      43.645  25.753  29.368  1.00  0.00     0.049 A 
ATOM     51  C   UNL A   1      42.399  30.010  32.871  1.00  0.00     0.074 A 
ATOM     52  C   UNL A   1      44.666  26.685  29.263  1.00  0.00     0.029 A 
ATOM     53  N   UNL A   1      43.273  25.723  30.707  1.00  0.00    -0.354 N 
ATOM     54  N   UNL A   1      42.859  28.948  32.271  1.00  0.00    -0.248 NA
ATOM     55  C   UNL A   1      42.646  29.991  34.311  1.00  0.00     0.031 C 
ATOM     56  C   UNL A   1      44.889  27.240  30.543  1.00  0.00     0.029 A 
ATOM     57  C   UNL A   1      44.011  26.643  31.431  1.00  0.00     0.049 A 
ATOM     58  H   UNL A   1      42.583  25.133  31.087  1.00  0.00     0.167 HD
ATOM     59  C   UNL A   1      43.368  28.085  33.204  1.00  0.00     0.074 A 
ATOM     60  C   UNL A   1      43.254  28.801  34.460  1.00  0.00     0.031 C 
ATOM     61  C   UNL A   1      43.799  26.837  32.858  1.00  0.00     0.037 A 
BRANCH  48  62
ATOM     62  C   UNL A   1      43.363  24.088  27.367  1.00  0.00     0.064 A 
ATOM     63  C   UNL A   1      44.179  24.490  26.287  1.00  0.00     0.173 A 
ATOM     64  C   UNL A   1      43.072  22.713  27.401  1.00  0.00     0.173 A 
ATOM     65  F   UNL A   1      44.654  25.738  26.191  1.00  0.00    -0.203 F 
ATOM     66  C   UNL A   1      44.543  23.621  25.255  1.00  0.00     0.198 A 
ATOM     67  C   UNL A   1      43.385  21.854  26.342  1.00  0.00     0.198 A 
ATOM     68  F   UNL A   1      42.521  22.148  28.485  1.00  0.00    -0.203 F 
ATOM     69  F   UNL A   1      45.308  24.067  24.249  1.00  0.00    -0.200 F 
ATOM     70  C   UNL A   1      44.108  22.313  25.260  1.00  0.00     0.200 A 
ATOM     71  F   UNL A   1      42.981  20.576  26.380  1.00  0.00    -0.200 F 
ATOM     72  F   UNL A   1      44.408  21.493  24.244  1.00  0.00    -0.200 F 
ENDBRANCH  48  62
BRANCH  49  73
ATOM     73  C   UNL A   1      40.335  31.654  32.638  1.00  0.00     0.064 A 
ATOM     74  C   UNL A   1      40.075  33.008  32.357  1.00  0.00     0.173 A 
ATOM     75  C   UNL A   1      39.246  30.815  32.896  1.00  0.00     0.173 A 
ATOM     76  F   UNL A   1      41.093  33.852  32.124  1.00  0.00    -0.203 F 
ATOM     77  C   UNL A   1      38.775  33.457  32.154  1.00  0.00     0.198 A 
ATOM     78  C   UNL A   1      37.944  31.277  32.716  1.00  0.00     0.198 A 
ATOM     79  F   UNL A   1      39.439  29.520  33.184  1.00  0.00    -0.203 F 
ATOM     80  F   UNL A   1      38.561  34.710  31.726  1.00  0.00    -0.200 F 
ATOM     81  C   UNL A   1      37.713  32.579  32.291  1.00  0.00     0.200 A 
ATOM     82  F   UNL A   1      36.914  30.431  32.853  1.00  0.00    -0.200 F 
ATOM     83  F   UNL A   1      36.475  32.974  31.963  1.00  0.00    -0.200 F 
ENDBRANCH  49  73
BRANCH  61  84
ATOM     84  C   UNL A   1      44.159  25.739  33.824  1.00  0.00     0.064 A 
ATOM     85  C   UNL A   1      45.454  25.209  33.962  1.00  0.00     0.173 A 
ATOM     86  C   UNL A   1      43.203  25.258  34.750  1.00  0.00     0.173 A 
ATOM     87  F   UNL A   1      46.480  25.682  33.242  1.00  0.00    -0.203 F 
ATOM     88  C   UNL A   1      45.747  24.207  34.890  1.00  0.00     0.198 A 
ATOM     89  C   UNL A   1      43.514  24.301  35.715  1.00  0.00     0.198 A 
ATOM     90  F   UNL A   1      41.944  25.721  34.758  1.00  0.00    -0.203 F 
ATOM     91  F   UNL A   1      46.985  23.695  34.942  1.00  0.00    -0.200 F 
ATOM     92  C   UNL A   1      44.781  23.758  35.769  1.00  0.00     0.200 A 
ATOM     93  F   UNL A   1      42.583  23.920  36.600  1.00  0.00    -0.200 F 
ATOM     94  F   UNL A   1      45.076  22.820  36.680  1.00  0.00    -0.200 F 
ENDBRANCH  61  84
ENDBRANCH  35  36
ENDBRANCH  27  30
ENDBRANCH  25  26
ENDBRANCH  24  25
ENDBRANCH   1  24
TORSDOF 15
ENDMDL
MODEL 2
REMARK VINA RESULT:     -12.7      1.773      2.894
REMARK SMILES Cc1ccc(C(=O)NCCCNC(=O)c2ccc(-c3c4nc(c(-c5c(F)c(F)c(F)c(F)c5F)c5ccc([nH]5)c(-c5c(F)c(F)c(F)c(F)c5F)c5nc(c(-c6c(F)c(F)c(F)c(F)c6F)c6ccc3[nH]6)C=C5)C=C4)cc2)cc1S(=O)(=O)N(CC1CC1)C(C)C
REMARK SMILES IDX 9 1 8 2 6 3 7 4 5 6 1 7 2 8 3 9 79 10 4 11 78 12 80 13 81 14
REMARK SMILES IDX 82 15 83 16 84 17 85 18 86 19 87 20 88 21 89 22 90 23 10 24
REMARK SMILES IDX 11 25 12 26 13 27 14 29 15 30 16 31 77 32 17 33 76 34 18 35
REMARK SMILES IDX 19 36 20 37 70 38 21 39 75 40 69 41 71 42 22 43 74 44 68 45
REMARK SMILES IDX 67 46 23 48 55 49 35 50 54 51 36 52 39 53 53 54 72 55 37 56
REMARK SMILES IDX 38 57 52 59 73 60 40 61 24 62 25 63 33 64 26 65 27 66 31 67
REMARK SMILES IDX 34 68 28 69 29 70 32 71 30 72 56 73 57 74 65 75 58 76 59 77
REMARK SMILES IDX 63 78 66 79 60 80 61 81 64 82 62 83 41 84 42 85 50 86 43 87
REMARK SMILES IDX 44 88 48 89 51 90 45 91 46 92 49 93 47 94
REMARK H PARENT 8 5 12 28 71 47 39 58
REMARK Flexibility Score: inf
ROOT
ATOM      1  C   UNL A   1      33.576  30.379  26.908  1.00  0.00     0.118 C 
ENDROOT
BRANCH   1   2
ATOM      2  N   UNL A   1      32.633  29.451  27.531  1.00  0.00    -0.352 N 
ATOM      3  C   UNL A   1      31.966  28.330  27.085  1.00  0.00     0.251 C 
ATOM      4  O   UNL A   1      31.306  27.711  27.922  1.00  0.00    -0.269 OA
ATOM      5  H   UNL A   1      32.432  29.675  28.469  1.00  0.00     0.163 HD
BRANCH   3   6
ATOM      6  C   UNL A   1      32.010  27.811  25.682  1.00  0.00     0.041 A 
ATOM      7  C   UNL A   1      31.537  26.151  21.691  1.00  0.00     0.046 C 
ATOM      8  C   UNL A   1      31.843  26.726  23.040  1.00  0.00    -0.031 A 
ATOM      9  C   UNL A   1      31.101  27.864  23.426  1.00  0.00     0.005 A 
ATOM     10  C   UNL A   1      32.762  26.216  23.959  1.00  0.00     0.086 A 
ATOM     11  C   UNL A   1      31.174  28.390  24.725  1.00  0.00     0.014 A 
ATOM     12  C   UNL A   1      32.824  26.771  25.254  1.00  0.00     0.035 A 
BRANCH  10  13
ATOM     13  S   UNL A   1      33.733  24.713  23.834  1.00  0.00     0.243 S 
ATOM     14  O   UNL A   1      34.258  24.664  22.492  1.00  0.00    -0.207 OA
ATOM     15  O   UNL A   1      34.658  24.846  24.951  1.00  0.00    -0.207 OA
BRANCH  13  16
ATOM     16  N   UNL A   1      32.785  23.335  24.057  1.00  0.00    -0.195 NA
BRANCH  16  17
ATOM     17  C   UNL A   1      31.310  23.425  24.210  1.00  0.00     0.106 C 
BRANCH  17  18
ATOM     18  C   UNL A   1      30.693  23.232  25.563  1.00  0.00     0.004 C 
ATOM     19  C   UNL A   1      31.293  23.529  26.919  1.00  0.00     0.005 C 
ATOM     20  C   UNL A   1      30.316  24.491  26.325  1.00  0.00     0.005 C 
ENDBRANCH  17  18
ENDBRANCH  16  17
BRANCH  16  21
ATOM     21  C   UNL A   1      33.227  22.035  23.412  1.00  0.00     0.067 C 
ATOM     22  C   UNL A   1      33.735  21.012  24.422  1.00  0.00     0.025 C 
ATOM     23  C   UNL A   1      32.180  21.374  22.517  1.00  0.00     0.025 C 
ENDBRANCH  16  21
ENDBRANCH  13  16
ENDBRANCH  10  13
ENDBRANCH   3   6
ENDBRANCH   1   2
BRANCH   1  24
ATOM     24  C   UNL A   1      33.824  31.622  27.769  1.00  0.00     0.042 C 
BRANCH  24  25
ATOM     25  C   UNL A   1      35.287  31.870  28.073  1.00  0.00     0.118 C 
BRANCH  25  26
ATOM     26  N   UNL A   1      35.584  32.073  29.489  1.00  0.00    -0.352 N 
ATOM     27  C   UNL A   1      36.291  31.237  30.336  1.00  0.00     0.251 C 
ATOM     28  H   UNL A   1      35.240  32.905  29.889  1.00  0.00     0.163 HD
ATOM     29  O   UNL A   1      36.439  31.502  31.522  1.00  0.00    -0.269 OA
BRANCH  27  30
ATOM     30  C   UNL A   1      36.970  30.069  29.736  1.00  0.00     0.039 A 
ATOM     31  C   UNL A   1      37.314  29.014  30.585  1.00  0.00     0.014 A 
ATOM     32  C   UNL A   1      37.530  30.177  28.465  1.00  0.00     0.014 A 
ATOM     33  C   UNL A   1      38.411  28.222  30.265  1.00  0.00     0.010 A 
ATOM     34  C   UNL A   1      38.677  29.458  28.191  1.00  0.00     0.010 A 
ATOM     35  C   UNL A   1      39.156  28.531  29.124  1.00  0.00    -0.014 A 
BRANCH  35  36
ATOM     36  C   UNL A   1      40.486  27.983  28.885  1.00  0.00     0.031 A 
ATOM     37  C   UNL A   1      40.640  26.557  28.540  1.00  0.00     0.074 A 
ATOM     38  C   UNL A   1      41.589  28.760  28.980  1.00  0.00     0.049 A 
ATOM     39  N   UNL A   1      41.645  25.831  28.904  1.00  0.00    -0.248 NA
ATOM     40  C   UNL A   1      39.638  25.822  27.780  1.00  0.00     0.031 C 
ATOM     41  C   UNL A   1      42.947  28.398  28.578  1.00  0.00     0.029 A 
ATOM     42  N   UNL A   1      41.735  29.998  29.627  1.00  0.00    -0.354 N 
ATOM     43  C   UNL A   1      41.562  24.636  28.229  1.00  0.00     0.074 A 
ATOM     44  C   UNL A   1      40.262  24.655  27.593  1.00  0.00     0.031 C 
ATOM     45  C   UNL A   1      43.817  29.201  29.208  1.00  0.00     0.029 A 
ATOM     46  C   UNL A   1      43.061  30.030  30.126  1.00  0.00     0.049 A 
ATOM     47  H   UNL A   1      41.053  30.702  29.715  1.00  0.00     0.167 HD
ATOM     48  C   UNL A   1      42.652  23.819  28.167  1.00  0.00     0.037 A 
ATOM     49  C   UNL A   1      43.336  30.195  31.452  1.00  0.00     0.037 A 
ATOM     50  C   UNL A   1      43.794  24.400  28.870  1.00  0.00     0.049 A 
ATOM     51  C   UNL A   1      44.100  29.051  32.067  1.00  0.00     0.074 A 
ATOM     52  C   UNL A   1      44.874  25.140  28.418  1.00  0.00     0.029 A 
ATOM     53  N   UNL A   1      43.777  24.531  30.255  1.00  0.00    -0.354 N 
ATOM     54  N   UNL A   1      44.236  27.887  31.498  1.00  0.00    -0.248 NA
ATOM     55  C   UNL A   1      44.702  29.098  33.398  1.00  0.00     0.031 C 
ATOM     56  C   UNL A   1      45.494  25.744  29.536  1.00  0.00     0.029 A 
ATOM     57  C   UNL A   1      44.797  25.367  30.671  1.00  0.00     0.049 A 
ATOM     58  H   UNL A   1      43.130  24.093  30.854  1.00  0.00     0.167 HD
ATOM     59  C   UNL A   1      44.840  27.023  32.372  1.00  0.00     0.074 A 
ATOM     60  C   UNL A   1      45.153  27.839  33.529  1.00  0.00     0.031 C 
ATOM     61  C   UNL A   1      44.987  25.699  32.075  1.00  0.00     0.037 A 
BRANCH  48  62
ATOM     62  C   UNL A   1      42.776  22.662  27.199  1.00  0.00     0.064 A 
ATOM     63  C   UNL A   1      42.046  21.468  27.392  1.00  0.00     0.173 A 
ATOM     64  C   UNL A   1      43.638  22.647  26.087  1.00  0.00     0.173 A 
ATOM     65  F   UNL A   1      41.089  21.372  28.323  1.00  0.00    -0.203 F 
ATOM     66  C   UNL A   1      42.272  20.317  26.633  1.00  0.00     0.198 A 
ATOM     67  C   UNL A   1      43.907  21.482  25.363  1.00  0.00     0.198 A 
ATOM     68  F   UNL A   1      44.205  23.775  25.636  1.00  0.00    -0.203 F 
ATOM     69  F   UNL A   1      41.557  19.209  26.876  1.00  0.00    -0.200 F 
ATOM     70  C   UNL A   1      43.235  20.311  25.646  1.00  0.00     0.200 A 
ATOM     71  F   UNL A   1      44.825  21.503  24.385  1.00  0.00    -0.200 F 
ATOM     72  F   UNL A   1      43.493  19.192  24.955  1.00  0.00    -0.200 F 
ENDBRANCH  48  62
BRANCH  49  73
ATOM     73  C   UNL A   1      42.300  30.992  32.155  1.00  0.00     0.064 A 
ATOM     74  C   UNL A   1      42.310  32.384  31.955  1.00  0.00     0.173 A 
ATOM     75  C   UNL A   1      41.107  30.397  32.579  1.00  0.00     0.173 A 
ATOM     76  F   UNL A   1      43.440  32.998  31.568  1.00  0.00    -0.203 F 
ATOM     77  C   UNL A   1      41.130  33.119  31.994  1.00  0.00     0.198 A 
ATOM     78  C   UNL A   1      39.931  31.144  32.641  1.00  0.00     0.198 A 
ATOM     79  F   UNL A   1      41.046  29.076  32.799  1.00  0.00    -0.203 F 
ATOM     80  F   UNL A   1      41.138  34.413  31.639  1.00  0.00    -0.200 F 
ATOM     81  C   UNL A   1      39.934  32.489  32.294  1.00  0.00     0.200 A 
ATOM     82  F   UNL A   1      38.773  30.537  32.936  1.00  0.00    -0.200 F 
ATOM     83  F   UNL A   1      38.781  33.164  32.197  1.00  0.00    -0.200 F 
ENDBRANCH  49  73
BRANCH  61  84
ATOM     84  C   UNL A   1      45.423  24.631  33.044  1.00  0.00     0.064 A 
ATOM     85  C   UNL A   1      44.618  23.544  33.428  1.00  0.00     0.173 A 
ATOM     86  C   UNL A   1      46.750  24.610  33.538  1.00  0.00     0.173 A 
ATOM     87  F   UNL A   1      43.392  23.372  32.917  1.00  0.00    -0.203 F 
ATOM     88  C   UNL A   1      45.074  22.563  34.311  1.00  0.00     0.198 A 
ATOM     89  C   UNL A   1      47.219  23.597  34.372  1.00  0.00     0.198 A 
ATOM     90  F   UNL A   1      47.634  25.562  33.205  1.00  0.00    -0.203 F 
ATOM     91  F   UNL A   1      44.246  21.578  34.690  1.00  0.00    -0.200 F 
ATOM     92  C   UNL A   1      46.374  22.585  34.778  1.00  0.00     0.200 A 
ATOM     93  F   UNL A   1      48.499  23.600  34.768  1.00  0.00    -0.200 F 
ATOM     94  F   UNL A   1      46.816  21.624  35.600  1.00  0.00    -0.200 F 
ENDBRANCH  61  84
ENDBRANCH  35  36
ENDBRANCH  27  30
ENDBRANCH  25  26
ENDBRANCH  24  25
ENDBRANCH   1  24
TORSDOF 15
ENDMDL
MODEL 3
REMARK VINA RESULT:     -12.5      1.070      1.960
REMARK SMILES Cc1ccc(C(=O)NCCCNC(=O)c2ccc(-c3c4nc(c(-c5c(F)c(F)c(F)c(F)c5F)c5ccc([nH]5)c(-c5c(F)c(F)c(F)c(F)c5F)c5nc(c(-c6c(F)c(F)c(F)c(F)c6F)c6ccc3[nH]6)C=C5)C=C4)cc2)cc1S(=O)(=O)N(CC1CC1)C(C)C
REMARK SMILES IDX 9 1 8 2 6 3 7 4 5 6 1 7 2 8 3 9 79 10 4 11 78 12 80 13 81 14
REMARK SMILES IDX 82 15 83 16 84 17 85 18 86 19 87 20 88 21 89 22 90 23 10 24
REMARK SMILES IDX 11 25 12 26 13 27 14 29 15 30 16 31 77 32 17 33 76 34 18 35
REMARK SMILES IDX 19 36 20 37 70 38 21 39 75 40 69 41 71 42 22 43 74 44 68 45
REMARK SMILES IDX 67 46 23 48 55 49 35 50 54 51 36 52 39 53 53 54 72 55 37 56
REMARK SMILES IDX 38 57 52 59 73 60 40 61 24 62 25 63 33 64 26 65 27 66 31 67
REMARK SMILES IDX 34 68 28 69 29 70 32 71 30 72 56 73 57 74 65 75 58 76 59 77
REMARK SMILES IDX 63 78 66 79 60 80 61 81 64 82 62 83 41 84 42 85 50 86 43 87
REMARK SMILES IDX 44 88 48 89 51 90 45 91 46 92 49 93 47 94
REMARK H PARENT 8 5 12 28 71 47 39 58
REMARK Flexibility Score: inf
ROOT
ATOM      1  C   UNL A   1      31.857  29.652  25.706  1.00  0.00     0.118 C 
ENDROOT
BRANCH   1   2
ATOM      2  N   UNL A   1      32.810  29.709  24.598  1.00  0.00    -0.352 N 
ATOM      3  C   UNL A   1      33.145  28.835  23.586  1.00  0.00     0.251 C 
ATOM      4  O   UNL A   1      33.941  29.249  22.739  1.00  0.00    -0.269 OA
ATOM      5  H   UNL A   1      33.320  30.551  24.569  1.00  0.00     0.163 HD
BRANCH   3   6
ATOM      6  C   UNL A   1      32.598  27.450  23.435  1.00  0.00     0.041 A 
ATOM      7  C   UNL A   1      30.706  23.536  23.534  1.00  0.00     0.046 C 
ATOM      8  C   UNL A   1      31.440  24.834  23.392  1.00  0.00    -0.031 A 
ATOM      9  C   UNL A   1      30.650  26.000  23.281  1.00  0.00     0.005 A 
ATOM     10  C   UNL A   1      32.827  24.996  23.400  1.00  0.00     0.086 A 
ATOM     11  C   UNL A   1      31.217  27.284  23.314  1.00  0.00     0.014 A 
ATOM     12  C   UNL A   1      33.370  26.297  23.419  1.00  0.00     0.035 A 
BRANCH  10  13
ATOM     13  S   UNL A   1      34.084  23.747  23.678  1.00  0.00     0.243 S 
ATOM     14  O   UNL A   1      34.310  23.091  22.414  1.00  0.00    -0.207 OA
ATOM     15  O   UNL A   1      35.163  24.520  24.277  1.00  0.00    -0.207 OA
BRANCH  13  16
ATOM     16  N   UNL A   1      33.567  22.571  24.772  1.00  0.00    -0.195 NA
BRANCH  16  17
ATOM     17  C   UNL A   1      33.772  21.124  24.509  1.00  0.00     0.106 C 
BRANCH  17  18
ATOM     18  C   UNL A   1      32.587  20.204  24.466  1.00  0.00     0.004 C 
ATOM     19  C   UNL A   1      32.493  18.824  23.855  1.00  0.00     0.005 C 
ATOM     20  C   UNL A   1      32.662  18.958  25.333  1.00  0.00     0.005 C 
ENDBRANCH  17  18
ENDBRANCH  16  17
BRANCH  16  21
ATOM     21  C   UNL A   1      33.572  22.902  26.253  1.00  0.00     0.067 C 
ATOM     22  C   UNL A   1      32.171  23.004  26.845  1.00  0.00     0.025 C 
ATOM     23  C   UNL A   1      34.411  21.962  27.117  1.00  0.00     0.025 C 
ENDBRANCH  16  21
ENDBRANCH  13  16
ENDBRANCH  10  13
ENDBRANCH   3   6
ENDBRANCH   1   2
BRANCH   1  24
ATOM     24  C   UNL A   1      32.262  30.564  26.868  1.00  0.00     0.042 C 
BRANCH  24  25
ATOM     25  C   UNL A   1      33.645  30.277  27.415  1.00  0.00     0.118 C 
BRANCH  25  26
ATOM     26  N   UNL A   1      34.120  31.248  28.397  1.00  0.00    -0.352 N 
ATOM     27  C   UNL A   1      35.288  31.203  29.138  1.00  0.00     0.251 C 
ATOM     28  H   UNL A   1      33.540  32.030  28.549  1.00  0.00     0.163 HD
ATOM     29  O   UNL A   1      35.556  32.065  29.965  1.00  0.00    -0.269 OA
BRANCH  27  30
ATOM     30  C   UNL A   1      36.265  30.141  28.814  1.00  0.00     0.039 A 
ATOM     31  C   UNL A   1      36.675  29.301  29.852  1.00  0.00     0.014 A 
ATOM     32  C   UNL A   1      36.978  30.207  27.619  1.00  0.00     0.014 A 
ATOM     33  C   UNL A   1      37.941  28.729  29.794  1.00  0.00     0.010 A 
ATOM     34  C   UNL A   1      38.272  29.722  27.602  1.00  0.00     0.010 A 
ATOM     35  C   UNL A   1      38.776  29.044  28.719  1.00  0.00    -0.014 A 
BRANCH  35  36
ATOM     36  C   UNL A   1      40.207  28.770  28.732  1.00  0.00     0.031 A 
ATOM     37  C   UNL A   1      40.707  27.462  28.264  1.00  0.00     0.074 A 
ATOM     38  C   UNL A   1      41.093  29.692  29.172  1.00  0.00     0.049 A 
ATOM     39  N   UNL A   1      41.737  26.864  28.762  1.00  0.00    -0.248 NA
ATOM     40  C   UNL A   1      40.048  26.703  27.210  1.00  0.00     0.031 C 
ATOM     41  C   UNL A   1      42.548  29.629  29.056  1.00  0.00     0.029 A 
ATOM     42  N   UNL A   1      40.856  30.818  29.978  1.00  0.00    -0.354 N 
ATOM     43  C   UNL A   1      42.032  25.795  27.949  1.00  0.00     0.074 A 
ATOM     44  C   UNL A   1      40.914  25.700  27.036  1.00  0.00     0.031 C 
ATOM     45  C   UNL A   1      43.094  30.453  29.962  1.00  0.00     0.029 A 
ATOM     46  C   UNL A   1      42.017  30.989  30.771  1.00  0.00     0.049 A 
ATOM     47  H   UNL A   1      40.045  31.376  29.989  1.00  0.00     0.167 HD
ATOM     48  C   UNL A   1      43.251  25.190  28.045  1.00  0.00     0.037 A 
ATOM     49  C   UNL A   1      41.975  30.982  32.135  1.00  0.00     0.037 A 
ATOM     50  C   UNL A   1      44.086  25.831  29.058  1.00  0.00     0.049 A 
ATOM     51  C   UNL A   1      42.806  29.897  32.770  1.00  0.00     0.074 A 
ATOM     52  C   UNL A   1      45.070  26.803  28.960  1.00  0.00     0.029 A 
ATOM     53  N   UNL A   1      43.758  25.735  30.406  1.00  0.00    -0.354 N 
ATOM     54  N   UNL A   1      43.282  28.878  32.113  1.00  0.00    -0.248 NA
ATOM     55  C   UNL A   1      43.099  29.830  34.200  1.00  0.00     0.031 C 
ATOM     56  C   UNL A   1      45.314  27.314  30.255  1.00  0.00     0.029 A 
ATOM     57  C   UNL A   1      44.486  26.651  31.144  1.00  0.00     0.049 A 
ATOM     58  H   UNL A   1      43.101  25.106  30.782  1.00  0.00     0.167 HD
ATOM     59  C   UNL A   1      43.851  27.997  32.994  1.00  0.00     0.074 A 
ATOM     60  C   UNL A   1      43.752  28.657  34.281  1.00  0.00     0.031 C 
ATOM     61  C   UNL A   1      44.314  26.780  32.583  1.00  0.00     0.037 A 
BRANCH  48  62
ATOM     62  C   UNL A   1      43.797  24.239  27.000  1.00  0.00     0.064 A 
ATOM     63  C   UNL A   1      43.369  22.894  26.944  1.00  0.00     0.173 A 
ATOM     64  C   UNL A   1      44.785  24.579  26.059  1.00  0.00     0.173 A 
ATOM     65  F   UNL A   1      42.342  22.452  27.681  1.00  0.00    -0.203 F 
ATOM     66  C   UNL A   1      43.980  21.944  26.123  1.00  0.00     0.198 A 
ATOM     67  C   UNL A   1      45.438  23.620  25.278  1.00  0.00     0.198 A 
ATOM     68  F   UNL A   1      45.111  25.859  25.828  1.00  0.00    -0.203 F 
ATOM     69  F   UNL A   1      43.538  20.679  26.125  1.00  0.00    -0.200 F 
ATOM     70  C   UNL A   1      45.046  22.297  25.322  1.00  0.00     0.200 A 
ATOM     71  F   UNL A   1      46.451  23.988  24.481  1.00  0.00    -0.200 F 
ATOM     72  F   UNL A   1      45.671  21.376  24.577  1.00  0.00    -0.200 F 
ENDBRANCH  48  62
BRANCH  49  73
ATOM     73  C   UNL A   1      40.680  31.474  32.668  1.00  0.00     0.064 A 
ATOM     74  C   UNL A   1      40.474  32.866  32.683  1.00  0.00     0.173 A 
ATOM     75  C   UNL A   1      39.555  30.643  32.692  1.00  0.00     0.173 A 
ATOM     76  F   UNL A   1      41.527  33.699  32.682  1.00  0.00    -0.203 F 
ATOM     77  C   UNL A   1      39.199  33.400  32.536  1.00  0.00     0.198 A 
ATOM     78  C   UNL A   1      38.277  31.185  32.569  1.00  0.00     0.198 A 
ATOM     79  F   UNL A   1      39.695  29.309  32.694  1.00  0.00    -0.203 F 
ATOM     80  F   UNL A   1      39.043  34.724  32.387  1.00  0.00    -0.200 F 
ATOM     81  C   UNL A   1      38.105  32.557  32.434  1.00  0.00     0.200 A 
ATOM     82  F   UNL A   1      37.216  30.371  32.476  1.00  0.00    -0.200 F 
ATOM     83  F   UNL A   1      36.897  33.062  32.154  1.00  0.00    -0.200 F 
ENDBRANCH  49  73
BRANCH  61  84
ATOM     84  C   UNL A   1      44.742  25.658  33.493  1.00  0.00     0.064 A 
ATOM     85  C   UNL A   1      43.868  24.963  34.346  1.00  0.00     0.173 A 
ATOM     86  C   UNL A   1      46.066  25.159  33.440  1.00  0.00     0.173 A 
ATOM     87  F   UNL A   1      42.559  25.246  34.380  1.00  0.00    -0.203 F 
ATOM     88  C   UNL A   1      44.305  23.911  35.155  1.00  0.00     0.198 A 
ATOM     89  C   UNL A   1      46.483  24.071  34.205  1.00  0.00     0.198 A 
ATOM     90  F   UNL A   1      46.985  25.701  32.628  1.00  0.00    -0.203 F 
ATOM     91  F   UNL A   1      43.442  23.319  35.994  1.00  0.00    -0.200 F 
ATOM     92  C   UNL A   1      45.609  23.462  35.080  1.00  0.00     0.200 A 
ATOM     93  F   UNL A   1      47.735  23.608  34.077  1.00  0.00    -0.200 F 
ATOM     94  F   UNL A   1      46.015  22.431  35.834  1.00  0.00    -0.200 F 
ENDBRANCH  61  84
ENDBRANCH  35  36
ENDBRANCH  27  30
ENDBRANCH  25  26
ENDBRANCH  24  25
ENDBRANCH   1  24
TORSDOF 15
ENDMDL
