MODEL 1
REMARK VINA RESULT:     -12.2      0.000      0.000
REMARK SMILES COC(=O)C[C@H](c1ccc(C(=O)NCCCNC(=O)c2ccc(-c3c4nc(c(-c5c(F)c(F)c(F)c(F)c5F)c5ccc([nH]5)c(-c5c(F)c(F)c(F)c(F)c5F)c5nc(c(-c6c(F)c(F)c(F)c(F)c6F)c6ccc3[nH]6)C=C5)C=C4)cc2)cc1)c1c(O)n[nH]c1C
REMARK SMILES IDX 14 1 13 2 11 3 12 4 10 6 7 7 8 8 84 9 9 10 83 11 6 12 5 13
REMARK SMILES IDX 3 14 4 15 2 16 1 17 85 18 86 19 90 20 88 21 89 22 91 23
REMARK SMILES IDX 87 25 15 27 16 28 17 29 18 30 19 32 20 33 21 34 82 35 22 36
REMARK SMILES IDX 81 37 23 38 24 39 25 40 75 41 26 42 80 43 74 44 76 45 27 46
REMARK SMILES IDX 79 47 73 48 72 49 28 51 60 52 40 53 59 54 41 55 44 56 58 57
REMARK SMILES IDX 77 58 42 59 43 60 57 62 78 63 45 64 29 65 30 66 38 67 31 68
REMARK SMILES IDX 32 69 36 70 39 71 33 72 34 73 37 74 35 75 61 76 62 77 70 78
REMARK SMILES IDX 63 79 64 80 68 81 71 82 65 83 66 84 69 85 67 86 46 87 47 88
REMARK SMILES IDX 55 89 48 90 49 91 53 92 56 93 50 94 51 95 54 96 52 97
REMARK H PARENT 13 5 89 24 87 26 17 31 76 50 44 61
REMARK Flexibility Score: inf
ROOT
ATOM      1  C   UNL A   1      36.576  20.728  24.729  1.00  0.00     0.118 C 
ENDROOT
BRANCH   1   2
ATOM      2  N   UNL A   1      35.334  20.120  25.151  1.00  0.00    -0.352 N 
ATOM      3  C   UNL A   1      34.141  20.688  25.494  1.00  0.00     0.251 C 
ATOM      4  O   UNL A   1      33.244  19.962  25.918  1.00  0.00    -0.269 OA
ATOM      5  H   UNL A   1      35.351  19.136  25.200  1.00  0.00     0.163 HD
BRANCH   3   6
ATOM      6  C   UNL A   1      33.877  22.127  25.276  1.00  0.00     0.039 A 
ATOM      7  C   UNL A   1      33.579  24.937  25.020  1.00  0.00    -0.040 A 
ATOM      8  C   UNL A   1      34.260  24.359  26.102  1.00  0.00     0.005 A 
ATOM      9  C   UNL A   1      32.950  24.053  24.129  1.00  0.00     0.005 A 
ATOM     10  C   UNL A   1      34.422  22.983  26.225  1.00  0.00     0.014 A 
ATOM     11  C   UNL A   1      33.145  22.667  24.220  1.00  0.00     0.014 A 
BRANCH   7  12
ATOM     12  C   UNL A   1      33.470  26.452  24.802  1.00  0.00     0.068 C 
BRANCH  12  13
ATOM     13  C   UNL A   1      32.762  26.846  23.481  1.00  0.00     0.136 C 
BRANCH  13  14
ATOM     14  C   UNL A   1      33.610  27.287  22.295  1.00  0.00     0.306 C 
ATOM     15  O   UNL A   1      34.245  28.338  22.299  1.00  0.00    -0.252 OA
BRANCH  14  16
ATOM     16  O   UNL A   1      33.649  26.371  21.298  1.00  0.00    -0.469 OA
ATOM     17  C   UNL A   1      32.455  25.653  20.974  1.00  0.00     0.282 C 
ENDBRANCH  14  16
ENDBRANCH  13  14
ENDBRANCH  12  13
BRANCH  12  18
ATOM     18  C   UNL A   1      32.926  27.125  26.063  1.00  0.00     0.044 A 
ATOM     19  C   UNL A   1      31.644  26.899  26.624  1.00  0.00     0.234 A 
ATOM     20  C   UNL A   1      33.412  28.127  26.912  1.00  0.00     0.040 A 
ATOM     21  N   UNL A   1      31.370  27.558  27.734  1.00  0.00    -0.137 NA
ATOM     22  N   UNL A   1      32.482  28.274  27.915  1.00  0.00    -0.279 N 
ATOM     23  C   UNL A   1      34.622  28.983  26.948  1.00  0.00     0.066 C 
ATOM     24  H   UNL A   1      32.625  28.855  28.696  1.00  0.00     0.190 HD
BRANCH  19  25
ATOM     25  O   UNL A   1      30.657  26.105  26.219  1.00  0.00    -0.492 OA
ATOM     26  H   UNL A   1      30.560  25.907  25.309  1.00  0.00     0.295 HD
ENDBRANCH  19  25
ENDBRANCH  12  18
ENDBRANCH   7  12
ENDBRANCH   3   6
ENDBRANCH   1   2
BRANCH   1  27
ATOM     27  C   UNL A   1      37.727  19.756  24.966  1.00  0.00     0.042 C 
BRANCH  27  28
ATOM     28  C   UNL A   1      38.868  20.391  25.751  1.00  0.00     0.118 C 
BRANCH  28  29
ATOM     29  N   UNL A   1      39.945  19.440  25.975  1.00  0.00    -0.352 N 
ATOM     30  C   UNL A   1      41.282  19.665  26.126  1.00  0.00     0.251 C 
ATOM     31  H   UNL A   1      39.670  18.496  26.025  1.00  0.00     0.163 HD
ATOM     32  O   UNL A   1      42.076  18.733  25.982  1.00  0.00    -0.269 OA
BRANCH  30  33
ATOM     33  C   UNL A   1      41.782  21.009  26.473  1.00  0.00     0.039 A 
ATOM     34  C   UNL A   1      41.891  21.355  27.821  1.00  0.00     0.014 A 
ATOM     35  C   UNL A   1      42.068  21.952  25.480  1.00  0.00     0.014 A 
ATOM     36  C   UNL A   1      42.296  22.642  28.171  1.00  0.00     0.010 A 
ATOM     37  C   UNL A   1      42.557  23.205  25.830  1.00  0.00     0.010 A 
ATOM     38  C   UNL A   1      42.642  23.573  27.179  1.00  0.00    -0.014 A 
BRANCH  38  39
ATOM     39  C   UNL A   1      43.050  24.949  27.551  1.00  0.00     0.031 A 
ATOM     40  C   UNL A   1      44.474  25.396  27.349  1.00  0.00     0.074 A 
ATOM     41  C   UNL A   1      42.141  25.784  28.089  1.00  0.00     0.049 A 
ATOM     42  N   UNL A   1      45.018  26.560  27.602  1.00  0.00    -0.248 NA
ATOM     43  C   UNL A   1      45.420  24.399  26.819  1.00  0.00     0.031 C 
ATOM     44  C   UNL A   1      40.751  25.436  28.389  1.00  0.00     0.029 A 
ATOM     45  N   UNL A   1      42.248  27.094  28.480  1.00  0.00    -0.354 N 
ATOM     46  C   UNL A   1      46.363  26.427  27.281  1.00  0.00     0.074 A 
ATOM     47  C   UNL A   1      46.568  25.058  26.865  1.00  0.00     0.031 C 
ATOM     48  C   UNL A   1      40.127  26.514  28.892  1.00  0.00     0.029 A 
ATOM     49  C   UNL A   1      41.081  27.615  28.980  1.00  0.00     0.049 A 
ATOM     50  H   UNL A   1      43.083  27.611  28.408  1.00  0.00     0.167 HD
ATOM     51  C   UNL A   1      47.332  27.371  27.310  1.00  0.00     0.037 A 
ATOM     52  C   UNL A   1      40.814  28.844  29.460  1.00  0.00     0.037 A 
ATOM     53  C   UNL A   1      47.107  28.743  27.684  1.00  0.00     0.049 A 
ATOM     54  C   UNL A   1      41.906  29.881  29.446  1.00  0.00     0.074 A 
ATOM     55  C   UNL A   1      47.999  29.800  27.655  1.00  0.00     0.029 A 
ATOM     56  N   UNL A   1      45.904  29.243  28.157  1.00  0.00    -0.354 N 
ATOM     57  N   UNL A   1      43.148  29.772  29.041  1.00  0.00    -0.248 NA
ATOM     58  C   UNL A   1      41.554  31.217  29.944  1.00  0.00     0.031 C 
ATOM     59  C   UNL A   1      47.353  30.928  28.169  1.00  0.00     0.029 A 
ATOM     60  C   UNL A   1      46.041  30.588  28.459  1.00  0.00     0.049 A 
ATOM     61  H   UNL A   1      45.077  28.720  28.265  1.00  0.00     0.167 HD
ATOM     62  C   UNL A   1      43.718  31.025  29.213  1.00  0.00     0.074 A 
ATOM     63  C   UNL A   1      42.676  31.888  29.730  1.00  0.00     0.031 C 
ATOM     64  C   UNL A   1      44.989  31.429  28.972  1.00  0.00     0.037 A 
BRANCH  51  65
ATOM     65  C   UNL A   1      48.726  26.968  26.923  1.00  0.00     0.064 A 
ATOM     66  C   UNL A   1      49.641  26.469  27.863  1.00  0.00     0.173 A 
ATOM     67  C   UNL A   1      49.127  27.014  25.579  1.00  0.00     0.173 A 
ATOM     68  F   UNL A   1      49.312  26.415  29.163  1.00  0.00    -0.203 F 
ATOM     69  C   UNL A   1      50.909  26.044  27.474  1.00  0.00     0.198 A 
ATOM     70  C   UNL A   1      50.385  26.560  25.189  1.00  0.00     0.198 A 
ATOM     71  F   UNL A   1      48.291  27.479  24.639  1.00  0.00    -0.203 F 
ATOM     72  F   UNL A   1      51.778  25.604  28.393  1.00  0.00    -0.200 F 
ATOM     73  C   UNL A   1      51.276  26.080  26.137  1.00  0.00     0.200 A 
ATOM     74  F   UNL A   1      50.731  26.581  23.894  1.00  0.00    -0.200 F 
ATOM     75  F   UNL A   1      52.489  25.651  25.762  1.00  0.00    -0.200 F 
ENDBRANCH  51  65
BRANCH  52  76
ATOM     76  C   UNL A   1      39.460  29.168  29.983  1.00  0.00     0.064 A 
ATOM     77  C   UNL A   1      38.496  29.785  29.174  1.00  0.00     0.173 A 
ATOM     78  C   UNL A   1      39.113  28.895  31.315  1.00  0.00     0.173 A 
ATOM     79  F   UNL A   1      38.781  30.081  27.898  1.00  0.00    -0.203 F 
ATOM     80  C   UNL A   1      37.253  30.153  29.688  1.00  0.00     0.198 A 
ATOM     81  C   UNL A   1      37.859  29.231  31.817  1.00  0.00     0.198 A 
ATOM     82  F   UNL A   1      39.994  28.296  32.129  1.00  0.00    -0.203 F 
ATOM     83  F   UNL A   1      36.375  30.803  28.910  1.00  0.00    -0.200 F 
ATOM     84  C   UNL A   1      36.934  29.874  31.007  1.00  0.00     0.200 A 
ATOM     85  F   UNL A   1      37.548  28.941  33.088  1.00  0.00    -0.200 F 
ATOM     86  F   UNL A   1      35.742  30.231  31.501  1.00  0.00    -0.200 F 
ENDBRANCH  52  76
BRANCH  64  87
ATOM     87  C   UNL A   1      45.313  32.870  29.242  1.00  0.00     0.064 A 
ATOM     88  C   UNL A   1      45.909  33.278  30.445  1.00  0.00     0.173 A 
ATOM     89  C   UNL A   1      45.048  33.852  28.275  1.00  0.00     0.173 A 
ATOM     90  F   UNL A   1      46.170  32.380  31.407  1.00  0.00    -0.203 F 
ATOM     91  C   UNL A   1      46.191  34.619  30.684  1.00  0.00     0.198 A 
ATOM     92  C   UNL A   1      45.367  35.186  28.502  1.00  0.00     0.198 A 
ATOM     93  F   UNL A   1      44.489  33.514  27.102  1.00  0.00    -0.203 F 
ATOM     94  F   UNL A   1      46.702  34.993  31.865  1.00  0.00    -0.200 F 
ATOM     95  C   UNL A   1      45.928  35.571  29.711  1.00  0.00     0.200 A 
ATOM     96  F   UNL A   1      45.128  36.102  27.554  1.00  0.00    -0.200 F 
ATOM     97  F   UNL A   1      46.205  36.861  29.941  1.00  0.00    -0.200 F 
ENDBRANCH  64  87
ENDBRANCH  38  39
ENDBRANCH  30  33
ENDBRANCH  28  29
ENDBRANCH  27  28
ENDBRANCH   1  27
TORSDOF 16
ENDMDL
MODEL 2
REMARK VINA RESULT:     -12.1      1.716      7.622
REMARK SMILES COC(=O)C[C@H](c1ccc(C(=O)NCCCNC(=O)c2ccc(-c3c4nc(c(-c5c(F)c(F)c(F)c(F)c5F)c5ccc([nH]5)c(-c5c(F)c(F)c(F)c(F)c5F)c5nc(c(-c6c(F)c(F)c(F)c(F)c6F)c6ccc3[nH]6)C=C5)C=C4)cc2)cc1)c1c(O)n[nH]c1C
REMARK SMILES IDX 14 1 13 2 11 3 12 4 10 6 7 7 8 8 84 9 9 10 83 11 6 12 5 13
REMARK SMILES IDX 3 14 4 15 2 16 1 17 85 18 86 19 90 20 88 21 89 22 91 23
REMARK SMILES IDX 87 25 15 27 16 28 17 29 18 30 19 32 20 33 21 34 82 35 22 36
REMARK SMILES IDX 81 37 23 38 24 39 25 40 75 41 26 42 80 43 74 44 76 45 27 46
REMARK SMILES IDX 79 47 73 48 72 49 28 51 60 52 40 53 59 54 41 55 44 56 58 57
REMARK SMILES IDX 77 58 42 59 43 60 57 62 78 63 45 64 29 65 30 66 38 67 31 68
REMARK SMILES IDX 32 69 36 70 39 71 33 72 34 73 37 74 35 75 61 76 62 77 70 78
REMARK SMILES IDX 63 79 64 80 68 81 71 82 65 83 66 84 69 85 67 86 46 87 47 88
REMARK SMILES IDX 55 89 48 90 49 91 53 92 56 93 50 94 51 95 54 96 52 97
REMARK H PARENT 13 5 89 24 87 26 17 31 76 50 44 61
REMARK Flexibility Score: inf
ROOT
ATOM      1  C   UNL A   1      37.760  20.784  24.656  1.00  0.00     0.118 C 
ENDROOT
BRANCH   1   2
ATOM      2  N   UNL A   1      38.309  21.958  25.295  1.00  0.00    -0.352 N 
ATOM      3  C   UNL A   1      37.783  23.208  25.454  1.00  0.00     0.251 C 
ATOM      4  O   UNL A   1      38.487  24.084  25.954  1.00  0.00    -0.269 OA
ATOM      5  H   UNL A   1      39.209  21.838  25.676  1.00  0.00     0.163 HD
BRANCH   3   6
ATOM      6  C   UNL A   1      36.369  23.500  25.132  1.00  0.00     0.039 A 
ATOM      7  C   UNL A   1      33.639  24.175  24.755  1.00  0.00    -0.040 A 
ATOM      8  C   UNL A   1      34.211  24.087  26.033  1.00  0.00     0.005 A 
ATOM      9  C   UNL A   1      34.453  23.799  23.675  1.00  0.00     0.005 A 
ATOM     10  C   UNL A   1      35.554  23.770  26.223  1.00  0.00     0.014 A 
ATOM     11  C   UNL A   1      35.816  23.523  23.852  1.00  0.00     0.014 A 
BRANCH   7  12
ATOM     12  C   UNL A   1      32.191  24.619  24.507  1.00  0.00     0.068 C 
BRANCH  12  13
ATOM     13  C   UNL A   1      31.780  24.610  23.013  1.00  0.00     0.136 C 
BRANCH  13  14
ATOM     14  C   UNL A   1      31.962  25.881  22.193  1.00  0.00     0.306 C 
ATOM     15  O   UNL A   1      31.730  25.921  20.988  1.00  0.00    -0.252 OA
BRANCH  14  16
ATOM     16  O   UNL A   1      32.316  26.952  22.943  1.00  0.00    -0.469 OA
ATOM     17  C   UNL A   1      33.559  27.604  22.671  1.00  0.00     0.282 C 
ENDBRANCH  14  16
ENDBRANCH  13  14
ENDBRANCH  12  13
BRANCH  12  18
ATOM     18  C   UNL A   1      31.246  23.874  25.451  1.00  0.00     0.044 A 
ATOM     19  C   UNL A   1      30.373  24.484  26.387  1.00  0.00     0.234 A 
ATOM     20  C   UNL A   1      31.029  22.520  25.733  1.00  0.00     0.040 A 
ATOM     21  N   UNL A   1      29.615  23.667  27.094  1.00  0.00    -0.137 NA
ATOM     22  N   UNL A   1      30.004  22.470  26.649  1.00  0.00    -0.279 N 
ATOM     23  C   UNL A   1      31.627  21.239  25.281  1.00  0.00     0.066 C 
ATOM     24  H   UNL A   1      29.594  21.627  26.948  1.00  0.00     0.190 HD
BRANCH  19  25
ATOM     25  O   UNL A   1      30.176  25.769  26.665  1.00  0.00    -0.492 OA
ATOM     26  H   UNL A   1      29.338  26.060  26.965  1.00  0.00     0.295 HD
ENDBRANCH  19  25
ENDBRANCH  12  18
ENDBRANCH   7  12
ENDBRANCH   3   6
ENDBRANCH   1   2
BRANCH   1  27
ATOM     27  C   UNL A   1      38.566  19.555  25.066  1.00  0.00     0.042 C 
BRANCH  27  28
ATOM     28  C   UNL A   1      39.554  19.859  26.185  1.00  0.00     0.118 C 
BRANCH  28  29
ATOM     29  N   UNL A   1      40.689  18.951  26.145  1.00  0.00    -0.352 N 
ATOM     30  C   UNL A   1      42.016  19.229  25.997  1.00  0.00     0.251 C 
ATOM     31  H   UNL A   1      40.468  17.996  26.240  1.00  0.00     0.163 HD
ATOM     32  O   UNL A   1      42.792  18.331  25.663  1.00  0.00    -0.269 OA
BRANCH  30  33
ATOM     33  C   UNL A   1      42.530  20.589  26.247  1.00  0.00     0.039 A 
ATOM     34  C   UNL A   1      42.548  21.067  27.558  1.00  0.00     0.014 A 
ATOM     35  C   UNL A   1      42.921  21.419  25.191  1.00  0.00     0.014 A 
ATOM     36  C   UNL A   1      42.966  22.372  27.810  1.00  0.00     0.010 A 
ATOM     37  C   UNL A   1      43.421  22.689  25.451  1.00  0.00     0.010 A 
ATOM     38  C   UNL A   1      43.415  23.190  26.760  1.00  0.00    -0.014 A 
BRANCH  38  39
ATOM     39  C   UNL A   1      43.837  24.586  27.024  1.00  0.00     0.031 A 
ATOM     40  C   UNL A   1      42.835  25.601  27.507  1.00  0.00     0.074 A 
ATOM     41  C   UNL A   1      45.118  24.940  26.807  1.00  0.00     0.049 A 
ATOM     42  N   UNL A   1      43.015  26.864  27.802  1.00  0.00    -0.248 NA
ATOM     43  C   UNL A   1      41.441  25.149  27.653  1.00  0.00     0.031 C 
ATOM     44  C   UNL A   1      46.159  24.056  26.279  1.00  0.00     0.029 A 
ATOM     45  N   UNL A   1      45.764  26.134  27.002  1.00  0.00    -0.354 N 
ATOM     46  C   UNL A   1      41.762  27.354  28.147  1.00  0.00     0.074 A 
ATOM     47  C   UNL A   1      40.819  26.273  27.976  1.00  0.00     0.031 C 
ATOM     48  C   UNL A   1      47.319  24.730  26.218  1.00  0.00     0.029 A 
ATOM     49  C   UNL A   1      47.095  26.100  26.670  1.00  0.00     0.049 A 
ATOM     50  H   UNL A   1      45.314  26.939  27.349  1.00  0.00     0.167 HD
ATOM     51  C   UNL A   1      41.435  28.591  28.590  1.00  0.00     0.037 A 
ATOM     52  C   UNL A   1      48.028  27.069  26.721  1.00  0.00     0.037 A 
ATOM     53  C   UNL A   1      42.389  29.648  28.799  1.00  0.00     0.049 A 
ATOM     54  C   UNL A   1      47.639  28.424  27.249  1.00  0.00     0.074 A 
ATOM     55  C   UNL A   1      42.176  30.906  29.334  1.00  0.00     0.029 A 
ATOM     56  N   UNL A   1      43.736  29.569  28.478  1.00  0.00    -0.354 N 
ATOM     57  N   UNL A   1      46.471  28.845  27.672  1.00  0.00    -0.248 NA
ATOM     58  C   UNL A   1      48.701  29.435  27.321  1.00  0.00     0.031 C 
ATOM     59  C   UNL A   1      43.383  31.611  29.280  1.00  0.00     0.029 A 
ATOM     60  C   UNL A   1      44.360  30.770  28.771  1.00  0.00     0.049 A 
ATOM     61  H   UNL A   1      44.182  28.778  28.098  1.00  0.00     0.167 HD
ATOM     62  C   UNL A   1      46.663  30.157  28.080  1.00  0.00     0.074 A 
ATOM     63  C   UNL A   1      48.066  30.453  27.883  1.00  0.00     0.031 C 
ATOM     64  C   UNL A   1      45.760  31.043  28.568  1.00  0.00     0.037 A 
BRANCH  51  65
ATOM     65  C   UNL A   1      39.992  28.878  28.886  1.00  0.00     0.064 A 
ATOM     66  C   UNL A   1      39.093  29.274  27.884  1.00  0.00     0.173 A 
ATOM     67  C   UNL A   1      39.485  28.686  30.181  1.00  0.00     0.173 A 
ATOM     68  F   UNL A   1      39.528  29.484  26.632  1.00  0.00    -0.203 F 
ATOM     69  C   UNL A   1      37.745  29.478  28.168  1.00  0.00     0.198 A 
ATOM     70  C   UNL A   1      38.131  28.861  30.456  1.00  0.00     0.198 A 
ATOM     71  F   UNL A   1      40.300  28.305  31.176  1.00  0.00    -0.203 F 
ATOM     72  F   UNL A   1      36.912  29.888  27.202  1.00  0.00    -0.200 F 
ATOM     73  C   UNL A   1      37.263  29.261  29.451  1.00  0.00     0.200 A 
ATOM     74  F   UNL A   1      37.665  28.636  31.692  1.00  0.00    -0.200 F 
ATOM     75  F   UNL A   1      35.962  29.438  29.718  1.00  0.00    -0.200 F 
ENDBRANCH  51  65
BRANCH  52  76
ATOM     76  C   UNL A   1      49.419  26.795  26.269  1.00  0.00     0.064 A 
ATOM     77  C   UNL A   1      49.813  27.031  24.945  1.00  0.00     0.173 A 
ATOM     78  C   UNL A   1      50.374  26.261  27.147  1.00  0.00     0.173 A 
ATOM     79  F   UNL A   1      48.934  27.527  24.062  1.00  0.00    -0.203 F 
ATOM     80  C   UNL A   1      51.096  26.705  24.506  1.00  0.00     0.198 A 
ATOM     81  C   UNL A   1      51.666  25.969  26.717  1.00  0.00     0.198 A 
ATOM     82  F   UNL A   1      50.053  26.026  28.428  1.00  0.00    -0.203 F 
ATOM     83  F   UNL A   1      51.425  26.879  23.219  1.00  0.00    -0.200 F 
ATOM     84  C   UNL A   1      52.022  26.178  25.393  1.00  0.00     0.200 A 
ATOM     85  F   UNL A   1      52.563  25.478  27.582  1.00  0.00    -0.200 F 
ATOM     86  F   UNL A   1      53.252  25.861  24.970  1.00  0.00    -0.200 F 
ENDBRANCH  52  76
BRANCH  64  87
ATOM     87  C   UNL A   1      46.271  32.404  28.945  1.00  0.00     0.064 A 
ATOM     88  C   UNL A   1      46.291  33.463  28.025  1.00  0.00     0.173 A 
ATOM     89  C   UNL A   1      46.722  32.658  30.249  1.00  0.00     0.173 A 
ATOM     90  F   UNL A   1      45.883  33.268  26.762  1.00  0.00    -0.203 F 
ATOM     91  C   UNL A   1      46.779  34.715  28.386  1.00  0.00     0.198 A 
ATOM     92  C   UNL A   1      47.174  33.921  30.618  1.00  0.00     0.198 A 
ATOM     93  F   UNL A   1      46.714  31.683  31.171  1.00  0.00    -0.203 F 
ATOM     94  F   UNL A   1      46.846  35.694  27.474  1.00  0.00    -0.200 F 
ATOM     95  C   UNL A   1      47.212  34.946  29.683  1.00  0.00     0.200 A 
ATOM     96  F   UNL A   1      47.575  34.147  31.875  1.00  0.00    -0.200 F 
ATOM     97  F   UNL A   1      47.677  36.153  30.031  1.00  0.00    -0.200 F 
ENDBRANCH  64  87
ENDBRANCH  38  39
ENDBRANCH  30  33
ENDBRANCH  28  29
ENDBRANCH  27  28
ENDBRANCH   1  27
TORSDOF 16
ENDMDL
MODEL 3
REMARK VINA RESULT:     -12.1      1.059      7.439
REMARK SMILES COC(=O)C[C@H](c1ccc(C(=O)NCCCNC(=O)c2ccc(-c3c4nc(c(-c5c(F)c(F)c(F)c(F)c5F)c5ccc([nH]5)c(-c5c(F)c(F)c(F)c(F)c5F)c5nc(c(-c6c(F)c(F)c(F)c(F)c6F)c6ccc3[nH]6)C=C5)C=C4)cc2)cc1)c1c(O)n[nH]c1C
REMARK SMILES IDX 14 1 13 2 11 3 12 4 10 6 7 7 8 8 84 9 9 10 83 11 6 12 5 13
REMARK SMILES IDX 3 14 4 15 2 16 1 17 85 18 86 19 90 20 88 21 89 22 91 23
REMARK SMILES IDX 87 25 15 27 16 28 17 29 18 30 19 32 20 33 21 34 82 35 22 36
REMARK SMILES IDX 81 37 23 38 24 39 25 40 75 41 26 42 80 43 74 44 76 45 27 46
REMARK SMILES IDX 79 47 73 48 72 49 28 51 60 52 40 53 59 54 41 55 44 56 58 57
REMARK SMILES IDX 77 58 42 59 43 60 57 62 78 63 45 64 29 65 30 66 38 67 31 68
REMARK SMILES IDX 32 69 36 70 39 71 33 72 34 73 37 74 35 75 61 76 62 77 70 78
REMARK SMILES IDX 63 79 64 80 68 81 71 82 65 83 66 84 69 85 67 86 46 87 47 88
REMARK SMILES IDX 55 89 48 90 49 91 53 92 56 93 50 94 51 95 54 96 52 97
REMARK H PARENT 13 5 89 24 87 26 17 31 76 50 44 61
REMARK Flexibility Score: inf
ROOT
ATOM      1  C   UNL A   1      37.095  20.627  24.695  1.00  0.00     0.118 C 
ENDROOT
BRANCH   1   2
ATOM      2  N   UNL A   1      35.786  20.096  25.003  1.00  0.00    -0.352 N 
ATOM      3  C   UNL A   1      34.624  20.736  25.327  1.00  0.00     0.251 C 
ATOM      4  O   UNL A   1      33.648  20.059  25.646  1.00  0.00    -0.269 OA
ATOM      5  H   UNL A   1      35.722  19.113  24.978  1.00  0.00     0.163 HD
BRANCH   3   6
ATOM      6  C   UNL A   1      34.489  22.204  25.206  1.00  0.00     0.039 A 
ATOM      7  C   UNL A   1      34.020  24.975  24.814  1.00  0.00    -0.040 A 
ATOM      8  C   UNL A   1      33.540  24.008  23.918  1.00  0.00     0.005 A 
ATOM      9  C   UNL A   1      34.844  24.514  25.854  1.00  0.00     0.005 A 
ATOM     10  C   UNL A   1      33.755  22.647  24.114  1.00  0.00     0.014 A 
ATOM     11  C   UNL A   1      35.029  23.143  26.083  1.00  0.00     0.014 A 
BRANCH   7  12
ATOM     12  C   UNL A   1      33.716  26.473  24.683  1.00  0.00     0.068 C 
BRANCH  12  13
ATOM     13  C   UNL A   1      33.315  26.908  23.251  1.00  0.00     0.136 C 
BRANCH  13  14
ATOM     14  C   UNL A   1      32.952  28.367  23.000  1.00  0.00     0.306 C 
ATOM     15  O   UNL A   1      33.804  29.234  22.833  1.00  0.00    -0.252 OA
BRANCH  14  16
ATOM     16  O   UNL A   1      31.616  28.573  22.902  1.00  0.00    -0.469 OA
ATOM     17  C   UNL A   1      30.786  27.508  22.432  1.00  0.00     0.282 C 
ENDBRANCH  14  16
ENDBRANCH  13  14
ENDBRANCH  12  13
BRANCH  12  18
ATOM     18  C   UNL A   1      32.759  26.913  25.793  1.00  0.00     0.044 A 
ATOM     19  C   UNL A   1      33.055  27.864  26.801  1.00  0.00     0.234 A 
ATOM     20  C   UNL A   1      31.479  26.503  26.186  1.00  0.00     0.040 A 
ATOM     21  N   UNL A   1      32.085  28.128  27.656  1.00  0.00    -0.137 NA
ATOM     22  N   UNL A   1      31.115  27.313  27.236  1.00  0.00    -0.279 N 
ATOM     23  C   UNL A   1      30.519  25.467  25.735  1.00  0.00     0.066 C 
ATOM     24  H   UNL A   1      30.218  27.294  27.640  1.00  0.00     0.190 HD
BRANCH  19  25
ATOM     25  O   UNL A   1      34.166  28.560  27.025  1.00  0.00    -0.492 OA
ATOM     26  H   UNL A   1      34.917  28.430  26.481  1.00  0.00     0.295 HD
ENDBRANCH  19  25
ENDBRANCH  12  18
ENDBRANCH   7  12
ENDBRANCH   3   6
ENDBRANCH   1   2
BRANCH   1  27
ATOM     27  C   UNL A   1      38.156  19.568  24.982  1.00  0.00     0.042 C 
BRANCH  27  28
ATOM     28  C   UNL A   1      39.221  20.067  25.951  1.00  0.00     0.118 C 
BRANCH  28  29
ATOM     29  N   UNL A   1      40.319  19.119  26.058  1.00  0.00    -0.352 N 
ATOM     30  C   UNL A   1      41.664  19.346  26.048  1.00  0.00     0.251 C 
ATOM     31  H   UNL A   1      40.053  18.176  26.152  1.00  0.00     0.163 HD
ATOM     32  O   UNL A   1      42.437  18.412  25.823  1.00  0.00    -0.269 OA
BRANCH  30  33
ATOM     33  C   UNL A   1      42.199  20.694  26.317  1.00  0.00     0.039 A 
ATOM     34  C   UNL A   1      42.314  21.115  27.643  1.00  0.00     0.014 A 
ATOM     35  C   UNL A   1      42.513  21.568  25.272  1.00  0.00     0.014 A 
ATOM     36  C   UNL A   1      42.753  22.409  27.918  1.00  0.00     0.010 A 
ATOM     37  C   UNL A   1      43.035  22.827  25.549  1.00  0.00     0.010 A 
ATOM     38  C   UNL A   1      43.127  23.271  26.875  1.00  0.00    -0.014 A 
BRANCH  38  39
ATOM     39  C   UNL A   1      43.571  24.654  27.166  1.00  0.00     0.031 A 
ATOM     40  C   UNL A   1      42.584  25.678  27.660  1.00  0.00     0.074 A 
ATOM     41  C   UNL A   1      44.860  24.989  26.965  1.00  0.00     0.049 A 
ATOM     42  N   UNL A   1      42.784  26.932  27.978  1.00  0.00    -0.248 NA
ATOM     43  C   UNL A   1      41.181  25.248  27.787  1.00  0.00     0.031 C 
ATOM     44  C   UNL A   1      45.889  24.096  26.429  1.00  0.00     0.029 A 
ATOM     45  N   UNL A   1      45.525  26.168  27.186  1.00  0.00    -0.354 N 
ATOM     46  C   UNL A   1      41.537  27.438  28.323  1.00  0.00     0.074 A 
ATOM     47  C   UNL A   1      40.576  26.377  28.126  1.00  0.00     0.031 C 
ATOM     48  C   UNL A   1      47.061  24.751  26.388  1.00  0.00     0.029 A 
ATOM     49  C   UNL A   1      46.858  26.116  26.863  1.00  0.00     0.049 A 
ATOM     50  H   UNL A   1      45.087  26.975  27.543  1.00  0.00     0.167 HD
ATOM     51  C   UNL A   1      41.228  28.673  28.784  1.00  0.00     0.037 A 
ATOM     52  C   UNL A   1      47.808  27.067  26.938  1.00  0.00     0.037 A 
ATOM     53  C   UNL A   1      42.199  29.709  29.019  1.00  0.00     0.049 A 
ATOM     54  C   UNL A   1      47.438  28.419  27.487  1.00  0.00     0.074 A 
ATOM     55  C   UNL A   1      42.004  30.962  29.575  1.00  0.00     0.029 A 
ATOM     56  N   UNL A   1      43.546  29.612  28.708  1.00  0.00    -0.354 N 
ATOM     57  N   UNL A   1      46.275  28.853  27.909  1.00  0.00    -0.248 NA
ATOM     58  C   UNL A   1      48.518  29.410  27.585  1.00  0.00     0.031 C 
ATOM     59  C   UNL A   1      43.224  31.645  29.543  1.00  0.00     0.029 A 
ATOM     60  C   UNL A   1      44.190  30.797  29.026  1.00  0.00     0.049 A 
ATOM     61  H   UNL A   1      43.981  28.820  28.316  1.00  0.00     0.167 HD
ATOM     62  C   UNL A   1      46.486  30.155  28.341  1.00  0.00     0.074 A 
ATOM     63  C   UNL A   1      47.896  30.429  28.160  1.00  0.00     0.031 C 
ATOM     64  C   UNL A   1      45.595  31.048  28.838  1.00  0.00     0.037 A 
BRANCH  51  65
ATOM     65  C   UNL A   1      39.788  28.981  29.076  1.00  0.00     0.064 A 
ATOM     66  C   UNL A   1      38.908  29.423  28.076  1.00  0.00     0.173 A 
ATOM     67  C   UNL A   1      39.264  28.760  30.359  1.00  0.00     0.173 A 
ATOM     68  F   UNL A   1      39.359  29.662  26.836  1.00  0.00    -0.203 F 
ATOM     69  C   UNL A   1      37.561  29.646  28.354  1.00  0.00     0.198 A 
ATOM     70  C   UNL A   1      37.911  28.955  30.626  1.00  0.00     0.198 A 
ATOM     71  F   UNL A   1      40.061  28.335  31.350  1.00  0.00    -0.203 F 
ATOM     72  F   UNL A   1      36.747  30.101  27.392  1.00  0.00    -0.200 F 
ATOM     73  C   UNL A   1      37.062  29.402  29.625  1.00  0.00     0.200 A 
ATOM     74  F   UNL A   1      37.428  28.704  31.850  1.00  0.00    -0.200 F 
ATOM     75  F   UNL A   1      35.762  29.597  29.884  1.00  0.00    -0.200 F 
ENDBRANCH  51  65
BRANCH  52  76
ATOM     76  C   UNL A   1      49.197  26.777  26.492  1.00  0.00     0.064 A 
ATOM     77  C   UNL A   1      49.588  26.969  25.160  1.00  0.00     0.173 A 
ATOM     78  C   UNL A   1      50.153  26.269  27.384  1.00  0.00     0.173 A 
ATOM     79  F   UNL A   1      48.708  27.438  24.264  1.00  0.00    -0.203 F 
ATOM     80  C   UNL A   1      50.869  26.627  24.729  1.00  0.00     0.198 A 
ATOM     81  C   UNL A   1      51.443  25.962  26.960  1.00  0.00     0.198 A 
ATOM     82  F   UNL A   1      49.835  26.076  28.672  1.00  0.00    -0.203 F 
ATOM     83  F   UNL A   1      51.195  26.759  23.435  1.00  0.00    -0.200 F 
ATOM     84  C   UNL A   1      51.796  26.127  25.629  1.00  0.00     0.200 A 
ATOM     85  F   UNL A   1      52.343  25.497  27.838  1.00  0.00    -0.200 F 
ATOM     86  F   UNL A   1      53.025  25.794  25.213  1.00  0.00    -0.200 F 
ENDBRANCH  52  76
BRANCH  64  87
ATOM     87  C   UNL A   1      46.127  32.393  29.242  1.00  0.00     0.064 A 
ATOM     88  C   UNL A   1      46.150  33.474  28.349  1.00  0.00     0.173 A 
ATOM     89  C   UNL A   1      46.596  32.609  30.547  1.00  0.00     0.173 A 
ATOM     90  F   UNL A   1      45.725  33.315  27.087  1.00  0.00    -0.203 F 
ATOM     91  C   UNL A   1      46.657  34.711  28.736  1.00  0.00     0.198 A 
ATOM     92  C   UNL A   1      47.068  33.857  30.942  1.00  0.00     0.198 A 
ATOM     93  F   UNL A   1      46.587  31.611  31.445  1.00  0.00    -0.203 F 
ATOM     94  F   UNL A   1      46.726  35.711  27.848  1.00  0.00    -0.200 F 
ATOM     95  C   UNL A   1      47.108  34.904  30.033  1.00  0.00     0.200 A 
ATOM     96  F   UNL A   1      47.486  34.046  32.200  1.00  0.00    -0.200 F 
ATOM     97  F   UNL A   1      47.592  36.096  30.406  1.00  0.00    -0.200 F 
ENDBRANCH  64  87
ENDBRANCH  38  39
ENDBRANCH  30  33
ENDBRANCH  28  29
ENDBRANCH  27  28
ENDBRANCH   1  27
TORSDOF 16
ENDMDL
