MODEL 1
REMARK VINA RESULT:     -12.4      0.000      0.000
REMARK SMILES CC[C@@H]1C=CC[C@@H]2C(=O)N(CCCC(=O)NCCCNC(=O)c3ccc(-c4c5nc(c(-c6c(F)c(F)c(F)c(F)c6F)c6ccc([nH]6)c(-c6c(F)c(F)c(F)c(F)c6F)c6nc(c(-c7c(F)c(F)c(F)c(F)c7F)c7ccc4[nH]7)C=C6)C=C5)cc3)C(=O)[C@@H]21
REMARK SMILES IDX 17 1 16 2 14 3 15 4 13 6 12 7 11 8 10 9 3 10 4 11 88 12 5 13
REMARK SMILES IDX 7 14 86 15 6 16 8 17 87 18 9 19 2 20 1 21 18 22 19 23 20 24
REMARK SMILES IDX 21 25 22 27 23 28 24 29 85 30 25 31 84 32 26 33 27 34 28 35
REMARK SMILES IDX 78 36 29 37 83 38 77 39 79 40 30 41 82 42 76 43 75 44 31 46
REMARK SMILES IDX 63 47 43 48 62 49 44 50 47 51 61 52 80 53 45 54 46 55 60 57
REMARK SMILES IDX 81 58 48 59 32 60 33 61 41 62 34 63 35 64 39 65 42 66 36 67
REMARK SMILES IDX 37 68 40 69 38 70 64 71 65 72 73 73 66 74 67 75 71 76 74 77
REMARK SMILES IDX 68 78 69 79 72 80 70 81 49 82 50 83 58 84 51 85 52 86 56 87
REMARK SMILES IDX 59 88 53 89 54 90 57 91 55 92
REMARK H PARENT 16 5 20 26 79 45 47 56
REMARK Flexibility Score: inf
ROOT
ATOM      1  C   UNL A   1      31.593  30.811  25.999  1.00  0.00     0.117 C 
ENDROOT
BRANCH   1   2
ATOM      2  N   UNL A   1      31.717  29.808  27.034  1.00  0.00    -0.356 N 
ATOM      3  C   UNL A   1      31.564  28.459  27.004  1.00  0.00     0.220 C 
ATOM      4  O   UNL A   1      31.725  27.862  28.074  1.00  0.00    -0.275 OA
ATOM      5  H   UNL A   1      31.955  30.168  27.918  1.00  0.00     0.163 HD
BRANCH   3   6
ATOM      6  C   UNL A   1      31.290  27.676  25.732  1.00  0.00     0.102 C 
BRANCH   6   7
ATOM      7  C   UNL A   1      30.735  26.256  25.821  1.00  0.00     0.032 C 
BRANCH   7   8
ATOM      8  C   UNL A   1      31.418  25.089  25.112  1.00  0.00     0.129 C 
BRANCH   8   9
ATOM      9  N   UNL A   1      32.486  24.343  25.769  1.00  0.00    -0.282 N 
ATOM     10  C   UNL A   1      34.878  22.450  24.897  1.00  0.00     0.024 C 
ATOM     11  C   UNL A   1      33.817  21.370  24.902  1.00  0.00    -0.027 C 
ATOM     12  C   UNL A   1      34.659  23.537  25.980  1.00  0.00     0.099 C 
ATOM     13  C   UNL A   1      33.340  20.901  26.065  1.00  0.00    -0.030 C 
ATOM     14  C   UNL A   1      33.847  23.051  27.186  1.00  0.00     0.096 C 
ATOM     15  C   UNL A   1      33.788  24.666  25.518  1.00  0.00     0.233 C 
ATOM     16  C   UNL A   1      33.758  21.537  27.361  1.00  0.00     0.041 C 
ATOM     17  C   UNL A   1      32.456  23.560  26.880  1.00  0.00     0.233 C 
ATOM     18  O   UNL A   1      34.201  25.720  25.054  1.00  0.00    -0.274 OA
ATOM     19  O   UNL A   1      31.518  23.325  27.627  1.00  0.00    -0.274 OA
BRANCH  10  20
ATOM     20  C   UNL A   1      35.236  22.943  23.477  1.00  0.00     0.005 C 
ATOM     21  C   UNL A   1      36.706  22.948  23.072  1.00  0.00     0.004 C 
ENDBRANCH  10  20
ENDBRANCH   8   9
ENDBRANCH   7   8
ENDBRANCH   6   7
ENDBRANCH   3   6
ENDBRANCH   1   2
BRANCH   1  22
ATOM     22  C   UNL A   1      31.361  32.194  26.593  1.00  0.00     0.042 C 
BRANCH  22  23
ATOM     23  C   UNL A   1      32.598  32.788  27.230  1.00  0.00     0.118 C 
BRANCH  23  24
ATOM     24  N   UNL A   1      32.400  34.175  27.622  1.00  0.00    -0.352 N 
ATOM     25  C   UNL A   1      33.005  34.903  28.618  1.00  0.00     0.251 C 
ATOM     26  H   UNL A   1      31.731  34.667  27.094  1.00  0.00     0.163 HD
ATOM     27  O   UNL A   1      32.563  36.010  28.914  1.00  0.00    -0.269 OA
BRANCH  25  28
ATOM     28  C   UNL A   1      34.167  34.351  29.353  1.00  0.00     0.039 A 
ATOM     29  C   UNL A   1      33.947  33.626  30.527  1.00  0.00     0.014 A 
ATOM     30  C   UNL A   1      35.472  34.549  28.898  1.00  0.00     0.014 A 
ATOM     31  C   UNL A   1      35.027  33.054  31.204  1.00  0.00     0.010 A 
ATOM     32  C   UNL A   1      36.527  33.873  29.495  1.00  0.00     0.010 A 
ATOM     33  C   UNL A   1      36.323  33.141  30.672  1.00  0.00    -0.014 A 
BRANCH  33  34
ATOM     34  C   UNL A   1      37.490  32.522  31.350  1.00  0.00     0.031 A 
ATOM     35  C   UNL A   1      38.233  31.397  30.681  1.00  0.00     0.074 A 
ATOM     36  C   UNL A   1      37.835  32.920  32.590  1.00  0.00     0.049 A 
ATOM     37  N   UNL A   1      39.219  30.665  31.135  1.00  0.00    -0.248 NA
ATOM     38  C   UNL A   1      37.782  31.013  29.332  1.00  0.00     0.031 C 
ATOM     39  C   UNL A   1      37.154  33.956  33.368  1.00  0.00     0.029 A 
ATOM     40  N   UNL A   1      38.844  32.495  33.418  1.00  0.00    -0.354 N 
ATOM     41  C   UNL A   1      39.482  29.728  30.144  1.00  0.00     0.074 A 
ATOM     42  C   UNL A   1      38.509  29.934  29.095  1.00  0.00     0.031 C 
ATOM     43  C   UNL A   1      37.782  34.109  34.544  1.00  0.00     0.029 A 
ATOM     44  C   UNL A   1      38.883  33.156  34.622  1.00  0.00     0.049 A 
ATOM     45  H   UNL A   1      39.477  31.784  33.172  1.00  0.00     0.167 HD
ATOM     46  C   UNL A   1      40.467  28.800  30.096  1.00  0.00     0.037 A 
ATOM     47  C   UNL A   1      39.715  33.004  35.670  1.00  0.00     0.037 A 
ATOM     48  C   UNL A   1      41.458  28.630  31.125  1.00  0.00     0.049 A 
ATOM     49  C   UNL A   1      40.814  31.978  35.585  1.00  0.00     0.074 A 
ATOM     50  C   UNL A   1      42.540  27.770  31.146  1.00  0.00     0.029 A 
ATOM     51  N   UNL A   1      41.486  29.342  32.316  1.00  0.00    -0.354 N 
ATOM     52  N   UNL A   1      41.097  31.147  34.611  1.00  0.00    -0.248 NA
ATOM     53  C   UNL A   1      41.713  31.876  36.742  1.00  0.00     0.031 C 
ATOM     54  C   UNL A   1      43.197  27.927  32.371  1.00  0.00     0.029 A 
ATOM     55  C   UNL A   1      42.557  28.926  33.088  1.00  0.00     0.049 A 
ATOM     56  H   UNL A   1      40.841  30.040  32.572  1.00  0.00     0.167 HD
ATOM     57  C   UNL A   1      42.222  30.445  35.024  1.00  0.00     0.074 A 
ATOM     58  C   UNL A   1      42.579  30.962  36.329  1.00  0.00     0.031 C 
ATOM     59  C   UNL A   1      42.899  29.461  34.382  1.00  0.00     0.037 A 
BRANCH  46  60
ATOM     60  C   UNL A   1      40.526  27.909  28.888  1.00  0.00     0.064 A 
ATOM     61  C   UNL A   1      41.317  28.229  27.772  1.00  0.00     0.173 A 
ATOM     62  C   UNL A   1      39.806  26.706  28.856  1.00  0.00     0.173 A 
ATOM     63  F   UNL A   1      42.015  29.374  27.746  1.00  0.00    -0.203 F 
ATOM     64  C   UNL A   1      41.356  27.396  26.658  1.00  0.00     0.198 A 
ATOM     65  C   UNL A   1      39.877  25.857  27.752  1.00  0.00     0.198 A 
ATOM     66  F   UNL A   1      39.039  26.346  29.895  1.00  0.00    -0.203 F 
ATOM     67  F   UNL A   1      42.072  27.753  25.582  1.00  0.00    -0.200 F 
ATOM     68  C   UNL A   1      40.643  26.207  26.651  1.00  0.00     0.200 A 
ATOM     69  F   UNL A   1      39.197  24.702  27.753  1.00  0.00    -0.200 F 
ATOM     70  F   UNL A   1      40.688  25.402  25.581  1.00  0.00    -0.200 F 
ENDBRANCH  46  60
BRANCH  47  71
ATOM     71  C   UNL A   1      39.563  33.865  36.872  1.00  0.00     0.064 A 
ATOM     72  C   UNL A   1      38.808  33.437  37.974  1.00  0.00     0.173 A 
ATOM     73  C   UNL A   1      40.160  35.131  36.946  1.00  0.00     0.173 A 
ATOM     74  F   UNL A   1      38.200  32.242  37.944  1.00  0.00    -0.203 F 
ATOM     75  C   UNL A   1      38.638  34.249  39.092  1.00  0.00     0.198 A 
ATOM     76  C   UNL A   1      40.016  35.931  38.078  1.00  0.00     0.198 A 
ATOM     77  F   UNL A   1      40.898  35.587  35.923  1.00  0.00    -0.203 F 
ATOM     78  F   UNL A   1      37.872  33.834  40.110  1.00  0.00    -0.200 F 
ATOM     79  C   UNL A   1      39.248  35.494  39.146  1.00  0.00     0.200 A 
ATOM     80  F   UNL A   1      40.619  37.127  38.133  1.00  0.00    -0.200 F 
ATOM     81  F   UNL A   1      39.088  36.274  40.224  1.00  0.00    -0.200 F 
ENDBRANCH  47  71
BRANCH  59  82
ATOM     82  C   UNL A   1      44.116  28.906  35.064  1.00  0.00     0.064 A 
ATOM     83  C   UNL A   1      45.383  29.483  34.898  1.00  0.00     0.173 A 
ATOM     84  C   UNL A   1      44.001  27.806  35.928  1.00  0.00     0.173 A 
ATOM     85  F   UNL A   1      45.546  30.527  34.072  1.00  0.00    -0.203 F 
ATOM     86  C   UNL A   1      46.497  28.961  35.549  1.00  0.00     0.198 A 
ATOM     87  C   UNL A   1      45.111  27.308  36.604  1.00  0.00     0.198 A 
ATOM     88  F   UNL A   1      42.810  27.224  36.129  1.00  0.00    -0.203 F 
ATOM     89  F   UNL A   1      47.707  29.495  35.335  1.00  0.00    -0.200 F 
ATOM     90  C   UNL A   1      46.359  27.880  36.408  1.00  0.00     0.200 A 
ATOM     91  F   UNL A   1      44.972  26.274  37.445  1.00  0.00    -0.200 F 
ATOM     92  F   UNL A   1      47.431  27.383  37.039  1.00  0.00    -0.200 F 
ENDBRANCH  59  82
ENDBRANCH  33  34
ENDBRANCH  25  28
ENDBRANCH  23  24
ENDBRANCH  22  23
ENDBRANCH   1  22
TORSDOF 14
ENDMDL
MODEL 2
REMARK VINA RESULT:     -12.3      1.349      2.330
REMARK SMILES CC[C@@H]1C=CC[C@@H]2C(=O)N(CCCC(=O)NCCCNC(=O)c3ccc(-c4c5nc(c(-c6c(F)c(F)c(F)c(F)c6F)c6ccc([nH]6)c(-c6c(F)c(F)c(F)c(F)c6F)c6nc(c(-c7c(F)c(F)c(F)c(F)c7F)c7ccc4[nH]7)C=C6)C=C5)cc3)C(=O)[C@@H]21
REMARK SMILES IDX 17 1 16 2 14 3 15 4 13 6 12 7 11 8 10 9 3 10 4 11 88 12 5 13
REMARK SMILES IDX 7 14 86 15 6 16 8 17 87 18 9 19 2 20 1 21 18 22 19 23 20 24
REMARK SMILES IDX 21 25 22 27 23 28 24 29 85 30 25 31 84 32 26 33 27 34 28 35
REMARK SMILES IDX 78 36 29 37 83 38 77 39 79 40 30 41 82 42 76 43 75 44 31 46
REMARK SMILES IDX 63 47 43 48 62 49 44 50 47 51 61 52 80 53 45 54 46 55 60 57
REMARK SMILES IDX 81 58 48 59 32 60 33 61 41 62 34 63 35 64 39 65 42 66 36 67
REMARK SMILES IDX 37 68 40 69 38 70 64 71 65 72 73 73 66 74 67 75 71 76 74 77
REMARK SMILES IDX 68 78 69 79 72 80 70 81 49 82 50 83 58 84 51 85 52 86 56 87
REMARK SMILES IDX 59 88 53 89 54 90 57 91 55 92
REMARK H PARENT 16 5 20 26 79 45 47 56
REMARK Flexibility Score: inf
ROOT
ATOM      1  C   UNL A   1      31.169  30.618  25.374  1.00  0.00     0.117 C 
ENDROOT
BRANCH   1   2
ATOM      2  N   UNL A   1      30.315  30.650  24.208  1.00  0.00    -0.356 N 
ATOM      3  C   UNL A   1      30.004  29.697  23.292  1.00  0.00     0.220 C 
ATOM      4  O   UNL A   1      29.240  30.034  22.382  1.00  0.00    -0.275 OA
ATOM      5  H   UNL A   1      29.878  31.518  24.051  1.00  0.00     0.163 HD
BRANCH   3   6
ATOM      6  C   UNL A   1      30.483  28.259  23.386  1.00  0.00     0.102 C 
BRANCH   6   7
ATOM      7  C   UNL A   1      29.469  27.133  23.577  1.00  0.00     0.032 C 
BRANCH   7   8
ATOM      8  C   UNL A   1      29.532  26.204  24.787  1.00  0.00     0.129 C 
BRANCH   8   9
ATOM      9  N   UNL A   1      30.805  25.650  25.234  1.00  0.00    -0.282 N 
ATOM     10  C   UNL A   1      33.827  26.603  25.405  1.00  0.00     0.024 C 
ATOM     11  C   UNL A   1      33.885  26.156  23.959  1.00  0.00    -0.027 C 
ATOM     12  C   UNL A   1      32.882  25.742  26.281  1.00  0.00     0.099 C 
ATOM     13  C   UNL A   1      33.895  24.848  23.660  1.00  0.00    -0.030 C 
ATOM     14  C   UNL A   1      32.674  24.319  25.749  1.00  0.00     0.096 C 
ATOM     15  C   UNL A   1      31.464  26.229  26.279  1.00  0.00     0.233 C 
ATOM     16  C   UNL A   1      33.715  23.825  24.745  1.00  0.00     0.041 C 
ATOM     17  C   UNL A   1      31.351  24.422  25.025  1.00  0.00     0.233 C 
ATOM     18  O   UNL A   1      30.982  26.973  27.122  1.00  0.00    -0.274 OA
ATOM     19  O   UNL A   1      30.877  23.462  24.435  1.00  0.00    -0.274 OA
BRANCH  10  20
ATOM     20  C   UNL A   1      33.718  28.136  25.562  1.00  0.00     0.005 C 
ATOM     21  C   UNL A   1      34.114  28.746  26.902  1.00  0.00     0.004 C 
ENDBRANCH  10  20
ENDBRANCH   8   9
ENDBRANCH   7   8
ENDBRANCH   6   7
ENDBRANCH   3   6
ENDBRANCH   1   2
BRANCH   1  22
ATOM     22  C   UNL A   1      30.980  31.862  26.234  1.00  0.00     0.042 C 
BRANCH  22  23
ATOM     23  C   UNL A   1      32.258  32.336  26.890  1.00  0.00     0.118 C 
BRANCH  23  24
ATOM     24  N   UNL A   1      32.182  33.734  27.288  1.00  0.00    -0.352 N 
ATOM     25  C   UNL A   1      32.928  34.428  28.210  1.00  0.00     0.251 C 
ATOM     26  H   UNL A   1      31.491  34.263  26.827  1.00  0.00     0.163 HD
ATOM     27  O   UNL A   1      32.583  35.560  28.541  1.00  0.00    -0.269 OA
BRANCH  25  28
ATOM     28  C   UNL A   1      34.126  33.812  28.825  1.00  0.00     0.039 A 
ATOM     29  C   UNL A   1      35.379  34.390  28.603  1.00  0.00     0.014 A 
ATOM     30  C   UNL A   1      34.025  32.665  29.615  1.00  0.00     0.014 A 
ATOM     31  C   UNL A   1      36.512  33.853  29.219  1.00  0.00     0.010 A 
ATOM     32  C   UNL A   1      35.126  32.212  30.329  1.00  0.00     0.010 A 
ATOM     33  C   UNL A   1      36.389  32.781  30.118  1.00  0.00    -0.014 A 
BRANCH  33  34
ATOM     34  C   UNL A   1      37.568  32.203  30.811  1.00  0.00     0.031 A 
ATOM     35  C   UNL A   1      38.390  31.143  30.128  1.00  0.00     0.074 A 
ATOM     36  C   UNL A   1      37.856  32.577  32.073  1.00  0.00     0.049 A 
ATOM     37  N   UNL A   1      39.402  30.451  30.588  1.00  0.00    -0.248 NA
ATOM     38  C   UNL A   1      37.999  30.782  28.755  1.00  0.00     0.031 C 
ATOM     39  C   UNL A   1      37.097  33.548  32.863  1.00  0.00     0.029 A 
ATOM     40  N   UNL A   1      38.862  32.179  32.917  1.00  0.00    -0.354 N 
ATOM     41  C   UNL A   1      39.744  29.563  29.576  1.00  0.00     0.074 A 
ATOM     42  C   UNL A   1      38.791  29.751  28.505  1.00  0.00     0.031 C 
ATOM     43  C   UNL A   1      37.683  33.694  34.062  1.00  0.00     0.029 A 
ATOM     44  C   UNL A   1      38.832  32.800  34.142  1.00  0.00     0.049 A 
ATOM     45  H   UNL A   1      39.541  31.512  32.667  1.00  0.00     0.167 HD
ATOM     46  C   UNL A   1      40.779  28.691  29.527  1.00  0.00     0.037 A 
ATOM     47  C   UNL A   1      39.641  32.657  35.209  1.00  0.00     0.037 A 
ATOM     48  C   UNL A   1      41.748  28.541  30.579  1.00  0.00     0.049 A 
ATOM     49  C   UNL A   1      40.797  31.696  35.124  1.00  0.00     0.074 A 
ATOM     50  C   UNL A   1      42.875  27.740  30.605  1.00  0.00     0.029 A 
ATOM     51  N   UNL A   1      41.704  29.212  31.793  1.00  0.00    -0.354 N 
ATOM     52  N   UNL A   1      41.152  30.914  34.132  1.00  0.00    -0.248 NA
ATOM     53  C   UNL A   1      41.667  31.604  36.303  1.00  0.00     0.031 C 
ATOM     54  C   UNL A   1      43.487  27.890  31.854  1.00  0.00     0.029 A 
ATOM     55  C   UNL A   1      42.774  28.828  32.583  1.00  0.00     0.049 A 
ATOM     56  H   UNL A   1      41.014  29.865  32.052  1.00  0.00     0.167 HD
ATOM     57  C   UNL A   1      42.302  30.261  34.556  1.00  0.00     0.074 A 
ATOM     58  C   UNL A   1      42.593  30.752  35.887  1.00  0.00     0.031 C 
ATOM     59  C   UNL A   1      43.049  29.337  33.903  1.00  0.00     0.037 A 
BRANCH  46  60
ATOM     60  C   UNL A   1      40.921  27.846  28.293  1.00  0.00     0.064 A 
ATOM     61  C   UNL A   1      41.675  28.273  27.188  1.00  0.00     0.173 A 
ATOM     62  C   UNL A   1      40.319  26.581  28.224  1.00  0.00     0.173 A 
ATOM     63  F   UNL A   1      42.261  29.480  27.196  1.00  0.00    -0.203 F 
ATOM     64  C   UNL A   1      41.792  27.481  26.050  1.00  0.00     0.198 A 
ATOM     65  C   UNL A   1      40.468  25.776  27.096  1.00  0.00     0.198 A 
ATOM     66  F   UNL A   1      39.591  26.119  29.252  1.00  0.00    -0.203 F 
ATOM     67  F   UNL A   1      42.469  27.936  24.986  1.00  0.00    -0.200 F 
ATOM     68  C   UNL A   1      41.195  26.230  26.007  1.00  0.00     0.200 A 
ATOM     69  F   UNL A   1      39.902  24.562  27.062  1.00  0.00    -0.200 F 
ATOM     70  F   UNL A   1      41.315  25.466  24.914  1.00  0.00    -0.200 F 
ENDBRANCH  46  60
BRANCH  47  71
ATOM     71  C   UNL A   1      39.407  33.468  36.433  1.00  0.00     0.064 A 
ATOM     72  C   UNL A   1      39.931  34.764  36.549  1.00  0.00     0.173 A 
ATOM     73  C   UNL A   1      38.664  32.969  37.511  1.00  0.00     0.173 A 
ATOM     74  F   UNL A   1      40.666  35.280  35.553  1.00  0.00    -0.203 F 
ATOM     75  C   UNL A   1      39.739  35.519  37.704  1.00  0.00     0.198 A 
ATOM     76  C   UNL A   1      38.446  33.736  38.654  1.00  0.00     0.198 A 
ATOM     77  F   UNL A   1      38.135  31.737  37.450  1.00  0.00    -0.203 F 
ATOM     78  F   UNL A   1      40.291  36.736  37.806  1.00  0.00    -0.200 F 
ATOM     79  C   UNL A   1      38.991  35.007  38.753  1.00  0.00     0.200 A 
ATOM     80  F   UNL A   1      37.709  33.244  39.660  1.00  0.00    -0.200 F 
ATOM     81  F   UNL A   1      38.803  35.735  39.862  1.00  0.00    -0.200 F 
ENDBRANCH  47  71
BRANCH  59  82
ATOM     82  C   UNL A   1      44.275  28.826  34.603  1.00  0.00     0.064 A 
ATOM     83  C   UNL A   1      45.510  29.481  34.503  1.00  0.00     0.173 A 
ATOM     84  C   UNL A   1      44.199  27.685  35.418  1.00  0.00     0.173 A 
ATOM     85  F   UNL A   1      45.636  30.567  33.726  1.00  0.00    -0.203 F 
ATOM     86  C   UNL A   1      46.632  28.998  35.170  1.00  0.00     0.198 A 
ATOM     87  C   UNL A   1      45.314  27.225  36.110  1.00  0.00     0.198 A 
ATOM     88  F   UNL A   1      43.038  27.026  35.555  1.00  0.00    -0.203 F 
ATOM     89  F   UNL A   1      47.814  29.610  35.018  1.00  0.00    -0.200 F 
ATOM     90  C   UNL A   1      46.531  27.875  35.979  1.00  0.00     0.200 A 
ATOM     91  F   UNL A   1      45.211  26.150  36.904  1.00  0.00    -0.200 F 
ATOM     92  F   UNL A   1      47.611  27.416  36.627  1.00  0.00    -0.200 F 
ENDBRANCH  59  82
ENDBRANCH  33  34
ENDBRANCH  25  28
ENDBRANCH  23  24
ENDBRANCH  22  23
ENDBRANCH   1  22
TORSDOF 14
ENDMDL
MODEL 3
REMARK VINA RESULT:     -12.3      1.243      2.522
REMARK SMILES CC[C@@H]1C=CC[C@@H]2C(=O)N(CCCC(=O)NCCCNC(=O)c3ccc(-c4c5nc(c(-c6c(F)c(F)c(F)c(F)c6F)c6ccc([nH]6)c(-c6c(F)c(F)c(F)c(F)c6F)c6nc(c(-c7c(F)c(F)c(F)c(F)c7F)c7ccc4[nH]7)C=C6)C=C5)cc3)C(=O)[C@@H]21
REMARK SMILES IDX 17 1 16 2 14 3 15 4 13 6 12 7 11 8 10 9 3 10 4 11 88 12 5 13
REMARK SMILES IDX 7 14 86 15 6 16 8 17 87 18 9 19 2 20 1 21 18 22 19 23 20 24
REMARK SMILES IDX 21 25 22 27 23 28 24 29 85 30 25 31 84 32 26 33 27 34 28 35
REMARK SMILES IDX 78 36 29 37 83 38 77 39 79 40 30 41 82 42 76 43 75 44 31 46
REMARK SMILES IDX 63 47 43 48 62 49 44 50 47 51 61 52 80 53 45 54 46 55 60 57
REMARK SMILES IDX 81 58 48 59 32 60 33 61 41 62 34 63 35 64 39 65 42 66 36 67
REMARK SMILES IDX 37 68 40 69 38 70 64 71 65 72 73 73 66 74 67 75 71 76 74 77
REMARK SMILES IDX 68 78 69 79 72 80 70 81 49 82 50 83 58 84 51 85 52 86 56 87
REMARK SMILES IDX 59 88 53 89 54 90 57 91 55 92
REMARK H PARENT 16 5 20 26 79 45 47 56
REMARK Flexibility Score: inf
ROOT
ATOM      1  C   UNL A   1      31.525  30.698  26.571  1.00  0.00     0.117 C 
ENDROOT
BRANCH   1   2
ATOM      2  N   UNL A   1      32.364  30.316  25.457  1.00  0.00    -0.356 N 
ATOM      3  C   UNL A   1      32.352  29.220  24.655  1.00  0.00     0.220 C 
ATOM      4  O   UNL A   1      33.222  29.169  23.779  1.00  0.00    -0.275 OA
ATOM      5  H   UNL A   1      33.070  30.967  25.241  1.00  0.00     0.163 HD
BRANCH   3   6
ATOM      6  C   UNL A   1      31.298  28.131  24.741  1.00  0.00     0.102 C 
BRANCH   6   7
ATOM      7  C   UNL A   1      30.505  27.743  23.495  1.00  0.00     0.032 C 
BRANCH   7   8
ATOM      8  C   UNL A   1      31.062  26.754  22.474  1.00  0.00     0.129 C 
BRANCH   8   9
ATOM      9  N   UNL A   1      31.883  25.627  22.903  1.00  0.00    -0.282 N 
ATOM     10  C   UNL A   1      32.459  24.060  25.601  1.00  0.00     0.024 C 
ATOM     11  C   UNL A   1      33.459  25.170  25.848  1.00  0.00    -0.027 C 
ATOM     12  C   UNL A   1      32.313  23.680  24.105  1.00  0.00     0.099 C 
ATOM     13  C   UNL A   1      34.607  25.207  25.155  1.00  0.00    -0.030 C 
ATOM     14  C   UNL A   1      33.550  24.008  23.262  1.00  0.00     0.096 C 
ATOM     15  C   UNL A   1      31.284  24.499  23.385  1.00  0.00     0.233 C 
ATOM     16  C   UNL A   1      34.846  24.228  24.040  1.00  0.00     0.041 C 
ATOM     17  C   UNL A   1      33.176  25.322  22.614  1.00  0.00     0.233 C 
ATOM     18  O   UNL A   1      30.120  24.162  23.214  1.00  0.00    -0.274 OA
ATOM     19  O   UNL A   1      33.958  25.910  21.881  1.00  0.00    -0.274 OA
BRANCH  10  20
ATOM     20  C   UNL A   1      31.152  24.229  26.408  1.00  0.00     0.005 C 
ATOM     21  C   UNL A   1      30.329  22.980  26.704  1.00  0.00     0.004 C 
ENDBRANCH  10  20
ENDBRANCH   8   9
ENDBRANCH   7   8
ENDBRANCH   6   7
ENDBRANCH   3   6
ENDBRANCH   1   2
BRANCH   1  22
ATOM     22  C   UNL A   1      31.402  32.213  26.678  1.00  0.00     0.042 C 
BRANCH  22  23
ATOM     23  C   UNL A   1      32.671  32.885  27.151  1.00  0.00     0.118 C 
BRANCH  23  24
ATOM     24  N   UNL A   1      32.435  34.252  27.594  1.00  0.00    -0.352 N 
ATOM     25  C   UNL A   1      33.003  34.951  28.631  1.00  0.00     0.251 C 
ATOM     26  H   UNL A   1      31.765  34.749  27.071  1.00  0.00     0.163 HD
ATOM     27  O   UNL A   1      32.530  36.035  28.961  1.00  0.00    -0.269 OA
BRANCH  25  28
ATOM     28  C   UNL A   1      34.161  34.395  29.368  1.00  0.00     0.039 A 
ATOM     29  C   UNL A   1      33.939  33.695  30.557  1.00  0.00     0.014 A 
ATOM     30  C   UNL A   1      35.465  34.564  28.900  1.00  0.00     0.014 A 
ATOM     31  C   UNL A   1      35.014  33.119  31.236  1.00  0.00     0.010 A 
ATOM     32  C   UNL A   1      36.515  33.883  29.502  1.00  0.00     0.010 A 
ATOM     33  C   UNL A   1      36.308  33.176  30.694  1.00  0.00    -0.014 A 
BRANCH  33  34
ATOM     34  C   UNL A   1      37.470  32.552  31.376  1.00  0.00     0.031 A 
ATOM     35  C   UNL A   1      38.201  31.414  30.714  1.00  0.00     0.074 A 
ATOM     36  C   UNL A   1      37.821  32.958  32.611  1.00  0.00     0.049 A 
ATOM     37  N   UNL A   1      39.181  30.677  31.173  1.00  0.00    -0.248 NA
ATOM     38  C   UNL A   1      37.744  31.023  29.370  1.00  0.00     0.031 C 
ATOM     39  C   UNL A   1      37.152  34.007  33.381  1.00  0.00     0.029 A 
ATOM     40  N   UNL A   1      38.828  32.530  33.441  1.00  0.00    -0.354 N 
ATOM     41  C   UNL A   1      39.433  29.728  30.190  1.00  0.00     0.074 A 
ATOM     42  C   UNL A   1      38.460  29.934  29.141  1.00  0.00     0.031 C 
ATOM     43  C   UNL A   1      37.784  34.164  34.555  1.00  0.00     0.029 A 
ATOM     44  C   UNL A   1      38.876  33.201  34.639  1.00  0.00     0.049 A 
ATOM     45  H   UNL A   1      39.454  31.810  33.200  1.00  0.00     0.167 HD
ATOM     46  C   UNL A   1      40.408  28.790  30.149  1.00  0.00     0.037 A 
ATOM     47  C   UNL A   1      39.708  33.050  35.686  1.00  0.00     0.037 A 
ATOM     48  C   UNL A   1      41.399  28.620  31.177  1.00  0.00     0.049 A 
ATOM     49  C   UNL A   1      40.797  32.013  35.609  1.00  0.00     0.074 A 
ATOM     50  C   UNL A   1      42.474  27.749  31.204  1.00  0.00     0.029 A 
ATOM     51  N   UNL A   1      41.437  29.342  32.361  1.00  0.00    -0.354 N 
ATOM     52  N   UNL A   1      41.070  31.170  34.642  1.00  0.00    -0.248 NA
ATOM     53  C   UNL A   1      41.698  31.913  36.765  1.00  0.00     0.031 C 
ATOM     54  C   UNL A   1      43.134  27.911  32.426  1.00  0.00     0.029 A 
ATOM     55  C   UNL A   1      42.506  28.922  33.136  1.00  0.00     0.049 A 
ATOM     56  H   UNL A   1      40.799  30.048  32.613  1.00  0.00     0.167 HD
ATOM     57  C   UNL A   1      42.189  30.462  35.058  1.00  0.00     0.074 A 
ATOM     58  C   UNL A   1      42.554  30.987  36.358  1.00  0.00     0.031 C 
ATOM     59  C   UNL A   1      42.855  29.466  34.424  1.00  0.00     0.037 A 
BRANCH  46  60
ATOM     60  C   UNL A   1      40.457  27.888  28.948  1.00  0.00     0.064 A 
ATOM     61  C   UNL A   1      41.248  28.191  27.828  1.00  0.00     0.173 A 
ATOM     62  C   UNL A   1      39.725  26.692  28.928  1.00  0.00     0.173 A 
ATOM     63  F   UNL A   1      41.957  29.328  27.790  1.00  0.00    -0.203 F 
ATOM     64  C   UNL A   1      41.277  27.347  26.721  1.00  0.00     0.198 A 
ATOM     65  C   UNL A   1      39.785  25.833  27.832  1.00  0.00     0.198 A 
ATOM     66  F   UNL A   1      38.956  26.349  29.972  1.00  0.00    -0.203 F 
ATOM     67  F   UNL A   1      41.994  27.688  25.641  1.00  0.00    -0.200 F 
ATOM     68  C   UNL A   1      40.552  26.166  26.726  1.00  0.00     0.200 A 
ATOM     69  F   UNL A   1      39.094  24.684  27.844  1.00  0.00    -0.200 F 
ATOM     70  F   UNL A   1      40.587  25.351  25.664  1.00  0.00    -0.200 F 
ENDBRANCH  46  60
BRANCH  47  71
ATOM     71  C   UNL A   1      39.567  33.923  36.881  1.00  0.00     0.064 A 
ATOM     72  C   UNL A   1      40.194  35.176  36.936  1.00  0.00     0.173 A 
ATOM     73  C   UNL A   1      38.808  33.527  37.992  1.00  0.00     0.173 A 
ATOM     74  F   UNL A   1      40.947  35.593  35.907  1.00  0.00    -0.203 F 
ATOM     75  C   UNL A   1      40.088  35.989  38.063  1.00  0.00     0.198 A 
ATOM     76  C   UNL A   1      38.677  34.353  39.107  1.00  0.00     0.198 A 
ATOM     77  F   UNL A   1      38.182  32.341  37.990  1.00  0.00    -0.203 F 
ATOM     78  F   UNL A   1      40.737  37.160  38.107  1.00  0.00    -0.200 F 
ATOM     79  C   UNL A   1      39.324  35.579  39.145  1.00  0.00     0.200 A 
ATOM     80  F   UNL A   1      37.925  33.961  40.145  1.00  0.00    -0.200 F 
ATOM     81  F   UNL A   1      39.218  36.361  40.228  1.00  0.00    -0.200 F 
ENDBRANCH  47  71
BRANCH  59  82
ATOM     82  C   UNL A   1      44.068  28.905  35.108  1.00  0.00     0.064 A 
ATOM     83  C   UNL A   1      43.984  27.807  35.976  1.00  0.00     0.173 A 
ATOM     84  C   UNL A   1      45.337  29.450  34.857  1.00  0.00     0.173 A 
ATOM     85  F   UNL A   1      42.792  27.259  36.258  1.00  0.00    -0.203 F 
ATOM     86  C   UNL A   1      45.122  27.293  36.592  1.00  0.00     0.198 A 
ATOM     87  C   UNL A   1      46.476  28.913  35.447  1.00  0.00     0.198 A 
ATOM     88  F   UNL A   1      45.473  30.495  34.027  1.00  0.00    -0.203 F 
ATOM     89  F   UNL A   1      45.012  26.277  37.458  1.00  0.00    -0.200 F 
ATOM     90  C   UNL A   1      46.368  27.841  36.320  1.00  0.00     0.200 A 
ATOM     91  F   UNL A   1      47.680  29.433  35.172  1.00  0.00    -0.200 F 
ATOM     92  F   UNL A   1      47.463  27.341  36.908  1.00  0.00    -0.200 F 
ENDBRANCH  59  82
ENDBRANCH  33  34
ENDBRANCH  25  28
ENDBRANCH  23  24
ENDBRANCH  22  23
ENDBRANCH   1  22
TORSDOF 14
ENDMDL
