MODEL 1
REMARK VINA RESULT:     -11.7      0.000      0.000
REMARK SMILES COC[C@@H](C)CC(=O)Nc1cccc(/C=C/C(=O)NCCCNC(=O)c2ccc(-c3c4nc(c(-c5c(F)c(F)c(F)c(F)c5F)c5ccc([nH]5)c(-c5c(F)c(F)c(F)c(F)c5F)c5nc(c(-c6c(F)c(F)c(F)c(F)c6F)c6ccc3[nH]6)C=C5)C=C4)cc2)c1
REMARK SMILES IDX 17 1 18 2 19 3 16 5 15 6 14 7 10 8 11 9 89 10 12 11 13 12
REMARK SMILES IDX 9 13 7 14 8 15 6 17 4 18 5 19 3 20 2 21 1 22 20 23 21 24
REMARK SMILES IDX 22 25 23 26 24 27 25 29 26 30 27 31 88 32 28 33 87 34 29 35
REMARK SMILES IDX 30 36 31 37 81 38 32 39 86 40 80 41 82 42 33 43 85 44 79 45
REMARK SMILES IDX 78 46 34 48 66 49 46 50 65 51 47 52 50 53 64 54 83 55 48 56
REMARK SMILES IDX 49 57 63 59 84 60 51 61 35 62 36 63 44 64 37 65 38 66 42 67
REMARK SMILES IDX 45 68 39 69 40 70 43 71 41 72 67 73 68 74 76 75 69 76 70 77
REMARK SMILES IDX 74 78 77 79 71 80 72 81 75 82 73 83 52 84 53 85 61 86 54 87
REMARK SMILES IDX 55 88 59 89 62 90 56 91 57 92 60 93 58 94
REMARK H PARENT 19 4 9 16 23 28 82 47 50 58
REMARK Flexibility Score: inf
ROOT
ATOM      1  C   UNL A   1      37.572  23.525  25.703  1.00  0.00     0.244 C 
ATOM      2  O   UNL A   1      38.314  24.324  26.269  1.00  0.00    -0.270 OA
ATOM      3  N   UNL A   1      38.095  22.413  25.118  1.00  0.00    -0.352 N 
ATOM      4  H   UNL A   1      39.074  22.419  25.005  1.00  0.00     0.163 HD
ENDROOT
BRANCH   1   5
ATOM      5  C   UNL A   1      36.107  23.715  25.774  1.00  0.00     0.072 C 
ATOM      6  C   UNL A   1      35.314  23.951  24.715  1.00  0.00     0.014 C 
BRANCH   6   7
ATOM      7  C   UNL A   1      33.846  24.004  24.838  1.00  0.00    -0.023 A 
ATOM      8  C   UNL A   1      31.905  25.091  25.831  1.00  0.00     0.041 A 
ATOM      9  C   UNL A   1      31.062  24.383  24.981  1.00  0.00     0.026 A 
ATOM     10  C   UNL A   1      33.277  24.825  25.824  1.00  0.00     0.034 A 
ATOM     11  C   UNL A   1      31.606  23.493  24.053  1.00  0.00     0.003 A 
ATOM     12  C   UNL A   1      32.992  23.319  23.968  1.00  0.00     0.008 A 
BRANCH   8  13
ATOM     13  N   UNL A   1      31.363  25.978  26.765  1.00  0.00    -0.326 N 
ATOM     14  C   UNL A   1      31.414  27.347  26.796  1.00  0.00     0.224 C 
ATOM     15  O   UNL A   1      31.119  27.922  27.848  1.00  0.00    -0.275 OA
ATOM     16  H   UNL A   1      30.873  25.558  27.509  1.00  0.00     0.169 HD
BRANCH  14  17
ATOM     17  C   UNL A   1      31.687  28.156  25.531  1.00  0.00     0.106 C 
BRANCH  17  18
ATOM     18  C   UNL A   1      33.154  28.212  25.068  1.00  0.00     0.021 C 
ATOM     19  C   UNL A   1      34.058  28.768  26.176  1.00  0.00     0.010 C 
BRANCH  18  20
ATOM     20  C   UNL A   1      33.276  29.034  23.781  1.00  0.00     0.163 C 
BRANCH  20  21
ATOM     21  O   UNL A   1      33.860  28.314  22.699  1.00  0.00    -0.384 OA
ATOM     22  C   UNL A   1      33.379  26.973  22.639  1.00  0.00     0.194 C 
ENDBRANCH  20  21
ENDBRANCH  18  20
ENDBRANCH  17  18
ENDBRANCH  14  17
ENDBRANCH   8  13
ENDBRANCH   6   7
ENDBRANCH   1   5
BRANCH   3  23
ATOM     23  C   UNL A   1      37.425  21.218  24.632  1.00  0.00     0.118 C 
BRANCH  23  24
ATOM     24  C   UNL A   1      38.179  19.942  24.960  1.00  0.00     0.042 C 
BRANCH  24  25
ATOM     25  C   UNL A   1      39.318  20.157  25.947  1.00  0.00     0.118 C 
BRANCH  25  26
ATOM     26  N   UNL A   1      40.322  19.098  25.915  1.00  0.00    -0.352 N 
ATOM     27  C   UNL A   1      41.690  19.149  26.054  1.00  0.00     0.251 C 
ATOM     28  H   UNL A   1      39.959  18.194  25.770  1.00  0.00     0.163 HD
ATOM     29  O   UNL A   1      42.362  18.135  25.874  1.00  0.00    -0.269 OA
BRANCH  27  30
ATOM     30  C   UNL A   1      42.370  20.423  26.375  1.00  0.00     0.039 A 
ATOM     31  C   UNL A   1      42.924  21.180  25.339  1.00  0.00     0.014 A 
ATOM     32  C   UNL A   1      42.446  20.888  27.687  1.00  0.00     0.014 A 
ATOM     33  C   UNL A   1      43.456  22.444  25.609  1.00  0.00     0.010 A 
ATOM     34  C   UNL A   1      42.858  22.192  27.935  1.00  0.00     0.010 A 
ATOM     35  C   UNL A   1      43.370  22.988  26.901  1.00  0.00    -0.014 A 
BRANCH  35  36
ATOM     36  C   UNL A   1      43.807  24.379  27.200  1.00  0.00     0.031 A 
ATOM     37  C   UNL A   1      42.809  25.391  27.699  1.00  0.00     0.074 A 
ATOM     38  C   UNL A   1      45.074  24.755  26.937  1.00  0.00     0.049 A 
ATOM     39  N   UNL A   1      42.964  26.673  27.913  1.00  0.00    -0.248 NA
ATOM     40  C   UNL A   1      41.443  24.905  27.956  1.00  0.00     0.031 C 
ATOM     41  C   UNL A   1      46.124  23.888  26.398  1.00  0.00     0.029 A 
ATOM     42  N   UNL A   1      45.696  25.973  27.077  1.00  0.00    -0.354 N 
ATOM     43  C   UNL A   1      41.715  27.147  28.296  1.00  0.00     0.074 A 
ATOM     44  C   UNL A   1      40.799  26.030  28.228  1.00  0.00     0.031 C 
ATOM     45  C   UNL A   1      47.264  24.588  26.289  1.00  0.00     0.029 A 
ATOM     46  C   UNL A   1      47.017  25.967  26.700  1.00  0.00     0.049 A 
ATOM     47  H   UNL A   1      45.236  26.776  27.417  1.00  0.00     0.167 HD
ATOM     48  C   UNL A   1      41.368  28.393  28.695  1.00  0.00     0.037 A 
ATOM     49  C   UNL A   1      47.925  26.961  26.680  1.00  0.00     0.037 A 
ATOM     50  C   UNL A   1      42.292  29.490  28.805  1.00  0.00     0.049 A 
ATOM     51  C   UNL A   1      47.511  28.337  27.130  1.00  0.00     0.074 A 
ATOM     52  C   UNL A   1      42.060  30.769  29.280  1.00  0.00     0.029 A 
ATOM     53  N   UNL A   1      43.627  29.438  28.432  1.00  0.00    -0.354 N 
ATOM     54  N   UNL A   1      46.348  28.752  27.568  1.00  0.00    -0.248 NA
ATOM     55  C   UNL A   1      48.541  29.386  27.084  1.00  0.00     0.031 C 
ATOM     56  C   UNL A   1      43.237  31.507  29.139  1.00  0.00     0.029 A 
ATOM     57  C   UNL A   1      44.222  30.672  28.638  1.00  0.00     0.049 A 
ATOM     58  H   UNL A   1      44.084  28.642  28.075  1.00  0.00     0.167 HD
ATOM     59  C   UNL A   1      46.513  30.094  27.884  1.00  0.00     0.074 A 
ATOM     60  C   UNL A   1      47.895  30.421  27.600  1.00  0.00     0.031 C 
ATOM     61  C   UNL A   1      45.604  30.977  28.363  1.00  0.00     0.037 A 
BRANCH  48  62
ATOM     62  C   UNL A   1      39.929  28.640  29.048  1.00  0.00     0.064 A 
ATOM     63  C   UNL A   1      39.437  28.425  30.345  1.00  0.00     0.173 A 
ATOM     64  C   UNL A   1      39.038  29.141  28.087  1.00  0.00     0.173 A 
ATOM     65  F   UNL A   1      40.242  27.936  31.301  1.00  0.00    -0.203 F 
ATOM     66  C   UNL A   1      38.103  28.671  30.658  1.00  0.00     0.198 A 
ATOM     67  C   UNL A   1      37.713  29.421  28.412  1.00  0.00     0.198 A 
ATOM     68  F   UNL A   1      39.455  29.372  26.833  1.00  0.00    -0.203 F 
ATOM     69  F   UNL A   1      37.644  28.406  31.889  1.00  0.00    -0.200 F 
ATOM     70  C   UNL A   1      37.244  29.177  29.694  1.00  0.00     0.200 A 
ATOM     71  F   UNL A   1      36.889  29.925  27.483  1.00  0.00    -0.200 F 
ATOM     72  F   UNL A   1      35.963  29.426  29.999  1.00  0.00    -0.200 F 
ENDBRANCH  48  62
BRANCH  49  73
ATOM     73  C   UNL A   1      49.323  26.695  26.246  1.00  0.00     0.064 A 
ATOM     74  C   UNL A   1      49.717  26.918  24.919  1.00  0.00     0.173 A 
ATOM     75  C   UNL A   1      50.286  26.193  27.134  1.00  0.00     0.173 A 
ATOM     76  F   UNL A   1      48.829  27.376  24.025  1.00  0.00    -0.203 F 
ATOM     77  C   UNL A   1      51.010  26.622  24.490  1.00  0.00     0.198 A 
ATOM     78  C   UNL A   1      51.588  25.929  26.712  1.00  0.00     0.198 A 
ATOM     79  F   UNL A   1      49.965  25.965  28.416  1.00  0.00    -0.203 F 
ATOM     80  F   UNL A   1      51.341  26.790  23.202  1.00  0.00    -0.200 F 
ATOM     81  C   UNL A   1      51.945  26.132  25.388  1.00  0.00     0.200 A 
ATOM     82  F   UNL A   1      52.494  25.469  27.587  1.00  0.00    -0.200 F 
ATOM     83  F   UNL A   1      53.188  25.845  24.976  1.00  0.00    -0.200 F 
ENDBRANCH  49  73
BRANCH  61  84
ATOM     84  C   UNL A   1      46.081  32.370  28.658  1.00  0.00     0.064 A 
ATOM     85  C   UNL A   1      46.011  33.393  27.702  1.00  0.00     0.173 A 
ATOM     86  C   UNL A   1      46.575  32.694  29.932  1.00  0.00     0.173 A 
ATOM     87  F   UNL A   1      45.560  33.133  26.466  1.00  0.00    -0.203 F 
ATOM     88  C   UNL A   1      46.444  34.682  28.001  1.00  0.00     0.198 A 
ATOM     89  C   UNL A   1      46.973  33.991  30.238  1.00  0.00     0.198 A 
ATOM     90  F   UNL A   1      46.655  31.754  30.885  1.00  0.00    -0.203 F 
ATOM     91  F   UNL A   1      46.416  35.632  27.056  1.00  0.00    -0.200 F 
ATOM     92  C   UNL A   1      46.916  34.983  29.270  1.00  0.00     0.200 A 
ATOM     93  F   UNL A   1      47.411  34.284  31.471  1.00  0.00    -0.200 F 
ATOM     94  F   UNL A   1      47.321  36.227  29.559  1.00  0.00    -0.200 F 
ENDBRANCH  61  84
ENDBRANCH  35  36
ENDBRANCH  27  30
ENDBRANCH  25  26
ENDBRANCH  24  25
ENDBRANCH  23  24
ENDBRANCH   3  23
TORSDOF 16
ENDMDL
MODEL 2
REMARK VINA RESULT:     -11.6      1.018      7.557
REMARK SMILES COC[C@@H](C)CC(=O)Nc1cccc(/C=C/C(=O)NCCCNC(=O)c2ccc(-c3c4nc(c(-c5c(F)c(F)c(F)c(F)c5F)c5ccc([nH]5)c(-c5c(F)c(F)c(F)c(F)c5F)c5nc(c(-c6c(F)c(F)c(F)c(F)c6F)c6ccc3[nH]6)C=C5)C=C4)cc2)c1
REMARK SMILES IDX 17 1 18 2 19 3 16 5 15 6 14 7 10 8 11 9 89 10 12 11 13 12
REMARK SMILES IDX 9 13 7 14 8 15 6 17 4 18 5 19 3 20 2 21 1 22 20 23 21 24
REMARK SMILES IDX 22 25 23 26 24 27 25 29 26 30 27 31 88 32 28 33 87 34 29 35
REMARK SMILES IDX 30 36 31 37 81 38 32 39 86 40 80 41 82 42 33 43 85 44 79 45
REMARK SMILES IDX 78 46 34 48 66 49 46 50 65 51 47 52 50 53 64 54 83 55 48 56
REMARK SMILES IDX 49 57 63 59 84 60 51 61 35 62 36 63 44 64 37 65 38 66 42 67
REMARK SMILES IDX 45 68 39 69 40 70 43 71 41 72 67 73 68 74 76 75 69 76 70 77
REMARK SMILES IDX 74 78 77 79 71 80 72 81 75 82 73 83 52 84 53 85 61 86 54 87
REMARK SMILES IDX 55 88 59 89 62 90 56 91 57 92 60 93 58 94
REMARK H PARENT 19 4 9 16 23 28 82 47 50 58
REMARK Flexibility Score: inf
ROOT
ATOM      1  C   UNL A   1      37.601  23.446  25.612  1.00  0.00     0.244 C 
ATOM      2  O   UNL A   1      38.346  24.285  26.113  1.00  0.00    -0.270 OA
ATOM      3  N   UNL A   1      38.121  22.286  25.124  1.00  0.00    -0.352 N 
ATOM      4  H   UNL A   1      39.100  22.277  25.017  1.00  0.00     0.163 HD
ENDROOT
BRANCH   1   5
ATOM      5  C   UNL A   1      36.137  23.650  25.659  1.00  0.00     0.072 C 
ATOM      6  C   UNL A   1      35.367  23.912  24.589  1.00  0.00     0.014 C 
BRANCH   6   7
ATOM      7  C   UNL A   1      33.898  23.978  24.686  1.00  0.00    -0.023 A 
ATOM      8  C   UNL A   1      31.951  25.019  25.715  1.00  0.00     0.041 A 
ATOM      9  C   UNL A   1      31.116  24.389  24.799  1.00  0.00     0.026 A 
ATOM     10  C   UNL A   1      33.319  24.734  25.717  1.00  0.00     0.034 A 
ATOM     11  C   UNL A   1      31.669  23.560  23.819  1.00  0.00     0.003 A 
ATOM     12  C   UNL A   1      33.054  23.372  23.750  1.00  0.00     0.008 A 
BRANCH   8  13
ATOM     13  N   UNL A   1      31.401  25.844  26.701  1.00  0.00    -0.326 N 
ATOM     14  C   UNL A   1      31.422  27.210  26.803  1.00  0.00     0.224 C 
ATOM     15  O   UNL A   1      31.127  27.723  27.886  1.00  0.00    -0.275 OA
ATOM     16  H   UNL A   1      30.930  25.375  27.428  1.00  0.00     0.169 HD
BRANCH  14  17
ATOM     17  C   UNL A   1      31.660  28.090  25.578  1.00  0.00     0.106 C 
BRANCH  17  18
ATOM     18  C   UNL A   1      32.924  28.969  25.615  1.00  0.00     0.021 C 
ATOM     19  C   UNL A   1      34.055  28.272  26.381  1.00  0.00     0.010 C 
BRANCH  18  20
ATOM     20  C   UNL A   1      32.601  30.341  26.217  1.00  0.00     0.163 C 
BRANCH  20  21
ATOM     21  O   UNL A   1      33.053  30.492  27.560  1.00  0.00    -0.384 OA
ATOM     22  C   UNL A   1      33.898  31.630  27.708  1.00  0.00     0.194 C 
ENDBRANCH  20  21
ENDBRANCH  18  20
ENDBRANCH  17  18
ENDBRANCH  14  17
ENDBRANCH   8  13
ENDBRANCH   6   7
ENDBRANCH   1   5
BRANCH   3  23
ATOM     23  C   UNL A   1      37.445  21.059  24.737  1.00  0.00     0.118 C 
BRANCH  23  24
ATOM     24  C   UNL A   1      38.304  19.823  24.933  1.00  0.00     0.042 C 
BRANCH  24  25
ATOM     25  C   UNL A   1      39.368  19.999  26.009  1.00  0.00     0.118 C 
BRANCH  25  26
ATOM     26  N   UNL A   1      40.452  19.025  25.918  1.00  0.00    -0.352 N 
ATOM     27  C   UNL A   1      41.815  19.179  26.035  1.00  0.00     0.251 C 
ATOM     28  H   UNL A   1      40.159  18.101  25.744  1.00  0.00     0.163 HD
ATOM     29  O   UNL A   1      42.561  18.230  25.804  1.00  0.00    -0.269 OA
BRANCH  27  30
ATOM     30  C   UNL A   1      42.397  20.491  26.394  1.00  0.00     0.039 A 
ATOM     31  C   UNL A   1      42.939  21.294  25.387  1.00  0.00     0.014 A 
ATOM     32  C   UNL A   1      42.395  20.943  27.712  1.00  0.00     0.014 A 
ATOM     33  C   UNL A   1      43.377  22.587  25.689  1.00  0.00     0.010 A 
ATOM     34  C   UNL A   1      42.711  22.268  27.989  1.00  0.00     0.010 A 
ATOM     35  C   UNL A   1      43.208  23.109  26.982  1.00  0.00    -0.014 A 
BRANCH  35  36
ATOM     36  C   UNL A   1      43.543  24.521  27.311  1.00  0.00     0.031 A 
ATOM     37  C   UNL A   1      44.980  24.971  27.323  1.00  0.00     0.074 A 
ATOM     38  C   UNL A   1      42.568  25.372  27.685  1.00  0.00     0.049 A 
ATOM     39  N   UNL A   1      45.487  26.122  27.687  1.00  0.00    -0.248 NA
ATOM     40  C   UNL A   1      45.989  23.981  26.907  1.00  0.00     0.031 C 
ATOM     41  C   UNL A   1      41.142  25.047  27.771  1.00  0.00     0.029 A 
ATOM     42  N   UNL A   1      42.627  26.688  28.078  1.00  0.00    -0.354 N 
ATOM     43  C   UNL A   1      46.865  25.982  27.574  1.00  0.00     0.074 A 
ATOM     44  C   UNL A   1      47.120  24.619  27.166  1.00  0.00     0.031 C 
ATOM     45  C   UNL A   1      40.461  26.139  28.151  1.00  0.00     0.029 A 
ATOM     46  C   UNL A   1      41.402  27.229  28.387  1.00  0.00     0.049 A 
ATOM     47  H   UNL A   1      43.470  27.196  28.132  1.00  0.00     0.167 HD
ATOM     48  C   UNL A   1      47.828  26.913  27.766  1.00  0.00     0.037 A 
ATOM     49  C   UNL A   1      41.077  28.462  28.821  1.00  0.00     0.037 A 
ATOM     50  C   UNL A   1      47.567  28.281  28.127  1.00  0.00     0.049 A 
ATOM     51  C   UNL A   1      42.169  29.478  29.025  1.00  0.00     0.074 A 
ATOM     52  C   UNL A   1      48.465  29.324  28.262  1.00  0.00     0.029 A 
ATOM     53  N   UNL A   1      46.311  28.795  28.412  1.00  0.00    -0.354 N 
ATOM     54  N   UNL A   1      43.460  29.357  28.835  1.00  0.00    -0.248 NA
ATOM     55  C   UNL A   1      41.757  30.806  29.502  1.00  0.00     0.031 C 
ATOM     56  C   UNL A   1      47.762  30.454  28.686  1.00  0.00     0.029 A 
ATOM     57  C   UNL A   1      46.416  30.134  28.753  1.00  0.00     0.049 A 
ATOM     58  H   UNL A   1      45.469  28.285  28.378  1.00  0.00     0.167 HD
ATOM     59  C   UNL A   1      44.009  30.597  29.133  1.00  0.00     0.074 A 
ATOM     60  C   UNL A   1      42.908  31.461  29.503  1.00  0.00     0.031 C 
ATOM     61  C   UNL A   1      45.307  30.985  29.105  1.00  0.00     0.037 A 
BRANCH  48  62
ATOM     62  C   UNL A   1      49.258  26.489  27.585  1.00  0.00     0.064 A 
ATOM     63  C   UNL A   1      49.820  26.304  26.312  1.00  0.00     0.173 A 
ATOM     64  C   UNL A   1      50.091  26.308  28.699  1.00  0.00     0.173 A 
ATOM     65  F   UNL A   1      49.067  26.453  25.212  1.00  0.00    -0.203 F 
ATOM     66  C   UNL A   1      51.151  25.923  26.163  1.00  0.00     0.198 A 
ATOM     67  C   UNL A   1      51.432  25.961  28.546  1.00  0.00     0.198 A 
ATOM     68  F   UNL A   1      49.609  26.478  29.940  1.00  0.00    -0.203 F 
ATOM     69  F   UNL A   1      51.650  25.699  24.940  1.00  0.00    -0.200 F 
ATOM     70  C   UNL A   1      51.958  25.760  27.279  1.00  0.00     0.200 A 
ATOM     71  F   UNL A   1      52.213  25.820  29.626  1.00  0.00    -0.200 F 
ATOM     72  F   UNL A   1      53.242  25.405  27.135  1.00  0.00    -0.200 F 
ENDBRANCH  48  62
BRANCH  49  73
ATOM     73  C   UNL A   1      39.653  28.821  29.067  1.00  0.00     0.064 A 
ATOM     74  C   UNL A   1      39.078  28.647  30.334  1.00  0.00     0.173 A 
ATOM     75  C   UNL A   1      38.833  29.320  28.045  1.00  0.00     0.173 A 
ATOM     76  F   UNL A   1      39.813  28.152  31.341  1.00  0.00    -0.203 F 
ATOM     77  C   UNL A   1      37.733  28.931  30.562  1.00  0.00     0.198 A 
ATOM     78  C   UNL A   1      37.496  29.635  28.281  1.00  0.00     0.198 A 
ATOM     79  F   UNL A   1      39.333  29.510  26.814  1.00  0.00    -0.203 F 
ATOM     80  F   UNL A   1      37.196  28.698  31.768  1.00  0.00    -0.200 F 
ATOM     81  C   UNL A   1      36.944  29.428  29.536  1.00  0.00     0.200 A 
ATOM     82  F   UNL A   1      36.741  30.130  27.291  1.00  0.00    -0.200 F 
ATOM     83  F   UNL A   1      35.650  29.699  29.753  1.00  0.00    -0.200 F 
ENDBRANCH  49  73
BRANCH  61  84
ATOM     84  C   UNL A   1      45.608  32.418  29.438  1.00  0.00     0.064 A 
ATOM     85  C   UNL A   1      45.931  32.822  30.742  1.00  0.00     0.173 A 
ATOM     86  C   UNL A   1      45.615  33.393  28.428  1.00  0.00     0.173 A 
ATOM     87  F   UNL A   1      45.924  31.933  31.746  1.00  0.00    -0.203 F 
ATOM     88  C   UNL A   1      46.222  34.154  31.026  1.00  0.00     0.198 A 
ATOM     89  C   UNL A   1      45.942  34.715  28.709  1.00  0.00     0.198 A 
ATOM     90  F   UNL A   1      45.322  33.057  27.162  1.00  0.00    -0.203 F 
ATOM     91  F   UNL A   1      46.477  34.527  32.288  1.00  0.00    -0.200 F 
ATOM     92  C   UNL A   1      46.237  35.097  30.009  1.00  0.00     0.200 A 
ATOM     93  F   UNL A   1      45.973  35.621  27.722  1.00  0.00    -0.200 F 
ATOM     94  F   UNL A   1      46.529  36.376  30.282  1.00  0.00    -0.200 F 
ENDBRANCH  61  84
ENDBRANCH  35  36
ENDBRANCH  27  30
ENDBRANCH  25  26
ENDBRANCH  24  25
ENDBRANCH  23  24
ENDBRANCH   3  23
TORSDOF 16
ENDMDL
MODEL 3
REMARK VINA RESULT:     -11.6      0.716      2.156
REMARK SMILES COC[C@@H](C)CC(=O)Nc1cccc(/C=C/C(=O)NCCCNC(=O)c2ccc(-c3c4nc(c(-c5c(F)c(F)c(F)c(F)c5F)c5ccc([nH]5)c(-c5c(F)c(F)c(F)c(F)c5F)c5nc(c(-c6c(F)c(F)c(F)c(F)c6F)c6ccc3[nH]6)C=C5)C=C4)cc2)c1
REMARK SMILES IDX 17 1 18 2 19 3 16 5 15 6 14 7 10 8 11 9 89 10 12 11 13 12
REMARK SMILES IDX 9 13 7 14 8 15 6 17 4 18 5 19 3 20 2 21 1 22 20 23 21 24
REMARK SMILES IDX 22 25 23 26 24 27 25 29 26 30 27 31 88 32 28 33 87 34 29 35
REMARK SMILES IDX 30 36 31 37 81 38 32 39 86 40 80 41 82 42 33 43 85 44 79 45
REMARK SMILES IDX 78 46 34 48 66 49 46 50 65 51 47 52 50 53 64 54 83 55 48 56
REMARK SMILES IDX 49 57 63 59 84 60 51 61 35 62 36 63 44 64 37 65 38 66 42 67
REMARK SMILES IDX 45 68 39 69 40 70 43 71 41 72 67 73 68 74 76 75 69 76 70 77
REMARK SMILES IDX 74 78 77 79 71 80 72 81 75 82 73 83 52 84 53 85 61 86 54 87
REMARK SMILES IDX 55 88 59 89 62 90 56 91 57 92 60 93 58 94
REMARK H PARENT 19 4 9 16 23 28 82 47 50 58
REMARK Flexibility Score: inf
ROOT
ATOM      1  C   UNL A   1      37.334  23.576  25.718  1.00  0.00     0.244 C 
ATOM      2  O   UNL A   1      37.960  24.354  26.434  1.00  0.00    -0.270 OA
ATOM      3  N   UNL A   1      37.965  22.497  25.178  1.00  0.00    -0.352 N 
ATOM      4  H   UNL A   1      38.948  22.518  25.229  1.00  0.00     0.163 HD
ENDROOT
BRANCH   1   5
ATOM      5  C   UNL A   1      35.874  23.749  25.556  1.00  0.00     0.072 C 
ATOM      6  C   UNL A   1      34.944  23.172  26.336  1.00  0.00     0.014 C 
BRANCH   6   7
ATOM      7  C   UNL A   1      33.511  23.487  26.200  1.00  0.00    -0.023 A 
ATOM      8  C   UNL A   1      31.792  25.204  26.017  1.00  0.00     0.041 A 
ATOM      9  C   UNL A   1      30.845  24.236  25.698  1.00  0.00     0.026 A 
ATOM     10  C   UNL A   1      33.090  24.816  26.363  1.00  0.00     0.034 A 
ATOM     11  C   UNL A   1      31.229  22.896  25.620  1.00  0.00     0.003 A 
ATOM     12  C   UNL A   1      32.559  22.525  25.850  1.00  0.00     0.008 A 
BRANCH   8  13
ATOM     13  N   UNL A   1      31.410  26.546  26.103  1.00  0.00    -0.326 N 
ATOM     14  C   UNL A   1      31.583  27.558  25.195  1.00  0.00     0.224 C 
ATOM     15  O   UNL A   1      31.429  28.722  25.577  1.00  0.00    -0.275 OA
ATOM     16  H   UNL A   1      30.951  26.801  26.936  1.00  0.00     0.169 HD
BRANCH  14  17
ATOM     17  C   UNL A   1      31.815  27.262  23.716  1.00  0.00     0.106 C 
BRANCH  17  18
ATOM     18  C   UNL A   1      33.282  27.080  23.286  1.00  0.00     0.021 C 
ATOM     19  C   UNL A   1      33.952  28.437  23.035  1.00  0.00     0.010 C 
BRANCH  18  20
ATOM     20  C   UNL A   1      33.367  26.177  22.051  1.00  0.00     0.163 C 
BRANCH  20  21
ATOM     21  O   UNL A   1      34.095  24.973  22.277  1.00  0.00    -0.384 OA
ATOM     22  C   UNL A   1      33.225  23.859  22.468  1.00  0.00     0.194 C 
ENDBRANCH  20  21
ENDBRANCH  18  20
ENDBRANCH  17  18
ENDBRANCH  14  17
ENDBRANCH   8  13
ENDBRANCH   6   7
ENDBRANCH   1   5
BRANCH   3  23
ATOM     23  C   UNL A   1      37.403  21.320  24.536  1.00  0.00     0.118 C 
BRANCH  23  24
ATOM     24  C   UNL A   1      38.087  20.033  24.959  1.00  0.00     0.042 C 
BRANCH  24  25
ATOM     25  C   UNL A   1      39.236  20.257  25.933  1.00  0.00     0.118 C 
BRANCH  25  26
ATOM     26  N   UNL A   1      40.223  19.183  25.924  1.00  0.00    -0.352 N 
ATOM     27  C   UNL A   1      41.590  19.213  26.083  1.00  0.00     0.251 C 
ATOM     28  H   UNL A   1      39.848  18.283  25.781  1.00  0.00     0.163 HD
ATOM     29  O   UNL A   1      42.249  18.187  25.921  1.00  0.00    -0.269 OA
BRANCH  27  30
ATOM     30  C   UNL A   1      42.284  20.479  26.405  1.00  0.00     0.039 A 
ATOM     31  C   UNL A   1      42.881  21.210  25.374  1.00  0.00     0.014 A 
ATOM     32  C   UNL A   1      42.335  20.961  27.712  1.00  0.00     0.014 A 
ATOM     33  C   UNL A   1      43.429  22.469  25.640  1.00  0.00     0.010 A 
ATOM     34  C   UNL A   1      42.764  22.260  27.953  1.00  0.00     0.010 A 
ATOM     35  C   UNL A   1      43.318  23.033  26.922  1.00  0.00    -0.014 A 
BRANCH  35  36
ATOM     36  C   UNL A   1      43.773  24.419  27.213  1.00  0.00     0.031 A 
ATOM     37  C   UNL A   1      42.789  25.446  27.708  1.00  0.00     0.074 A 
ATOM     38  C   UNL A   1      45.045  24.777  26.948  1.00  0.00     0.049 A 
ATOM     39  N   UNL A   1      42.960  26.728  27.914  1.00  0.00    -0.248 NA
ATOM     40  C   UNL A   1      41.417  24.979  27.969  1.00  0.00     0.031 C 
ATOM     41  C   UNL A   1      46.083  23.894  26.412  1.00  0.00     0.029 A 
ATOM     42  N   UNL A   1      45.682  25.988  27.081  1.00  0.00    -0.354 N 
ATOM     43  C   UNL A   1      41.717  27.219  28.297  1.00  0.00     0.074 A 
ATOM     44  C   UNL A   1      40.788  26.113  28.235  1.00  0.00     0.031 C 
ATOM     45  C   UNL A   1      47.232  24.579  26.299  1.00  0.00     0.029 A 
ATOM     46  C   UNL A   1      47.003  25.963  26.703  1.00  0.00     0.049 A 
ATOM     47  H   UNL A   1      45.233  26.798  27.417  1.00  0.00     0.167 HD
ATOM     48  C   UNL A   1      41.387  28.471  28.689  1.00  0.00     0.037 A 
ATOM     49  C   UNL A   1      47.923  26.946  26.677  1.00  0.00     0.037 A 
ATOM     50  C   UNL A   1      42.325  29.557  28.793  1.00  0.00     0.049 A 
ATOM     51  C   UNL A   1      47.528  28.329  27.120  1.00  0.00     0.074 A 
ATOM     52  C   UNL A   1      42.109  30.841  29.261  1.00  0.00     0.029 A 
ATOM     53  N   UNL A   1      43.659  29.486  28.419  1.00  0.00    -0.354 N 
ATOM     54  N   UNL A   1      46.370  28.761  27.557  1.00  0.00    -0.248 NA
ATOM     55  C   UNL A   1      48.571  29.364  27.068  1.00  0.00     0.031 C 
ATOM     56  C   UNL A   1      43.296  31.564  29.116  1.00  0.00     0.029 A 
ATOM     57  C   UNL A   1      44.270  30.714  28.618  1.00  0.00     0.049 A 
ATOM     58  H   UNL A   1      44.105  28.683  28.065  1.00  0.00     0.167 HD
ATOM     59  C   UNL A   1      46.553  30.103  27.865  1.00  0.00     0.074 A 
ATOM     60  C   UNL A   1      47.938  30.410  27.579  1.00  0.00     0.031 C 
ATOM     61  C   UNL A   1      45.655  30.999  28.341  1.00  0.00     0.037 A 
BRANCH  48  62
ATOM     62  C   UNL A   1      39.951  28.738  29.042  1.00  0.00     0.064 A 
ATOM     63  C   UNL A   1      39.020  29.168  28.084  1.00  0.00     0.173 A 
ATOM     64  C   UNL A   1      39.489  28.519  30.348  1.00  0.00     0.173 A 
ATOM     65  F   UNL A   1      39.410  29.404  26.821  1.00  0.00    -0.203 F 
ATOM     66  C   UNL A   1      37.690  29.398  28.426  1.00  0.00     0.198 A 
ATOM     67  C   UNL A   1      38.151  28.715  30.680  1.00  0.00     0.198 A 
ATOM     68  F   UNL A   1      40.333  28.101  31.304  1.00  0.00    -0.203 F 
ATOM     69  F   UNL A   1      36.833  29.860  27.506  1.00  0.00    -0.200 F 
ATOM     70  C   UNL A   1      37.255  29.163  29.721  1.00  0.00     0.200 A 
ATOM     71  F   UNL A   1      37.729  28.472  31.929  1.00  0.00    -0.200 F 
ATOM     72  F   UNL A   1      35.972  29.373  30.048  1.00  0.00    -0.200 F 
ENDBRANCH  48  62
BRANCH  49  73
ATOM     73  C   UNL A   1      49.318  26.659  26.243  1.00  0.00     0.064 A 
ATOM     74  C   UNL A   1      50.277  26.210  27.162  1.00  0.00     0.173 A 
ATOM     75  C   UNL A   1      49.729  26.849  24.916  1.00  0.00     0.173 A 
ATOM     76  F   UNL A   1      49.941  26.033  28.448  1.00  0.00    -0.203 F 
ATOM     77  C   UNL A   1      51.598  25.989  26.777  1.00  0.00     0.198 A 
ATOM     78  C   UNL A   1      51.043  26.596  24.524  1.00  0.00     0.198 A 
ATOM     79  F   UNL A   1      48.852  27.274  23.994  1.00  0.00    -0.203 F 
ATOM     80  F   UNL A   1      52.506  25.617  27.690  1.00  0.00    -0.200 F 
ATOM     81  C   UNL A   1      51.979  26.178  25.458  1.00  0.00     0.200 A 
ATOM     82  F   UNL A   1      51.403  26.765  23.245  1.00  0.00    -0.200 F 
ATOM     83  F   UNL A   1      53.250  25.968  25.087  1.00  0.00    -0.200 F 
ENDBRANCH  49  73
BRANCH  61  84
ATOM     84  C   UNL A   1      46.150  32.388  28.628  1.00  0.00     0.064 A 
ATOM     85  C   UNL A   1      46.705  32.732  29.870  1.00  0.00     0.173 A 
ATOM     86  C   UNL A   1      46.108  33.375  27.631  1.00  0.00     0.173 A 
ATOM     87  F   UNL A   1      46.755  31.830  30.861  1.00  0.00    -0.203 F 
ATOM     88  C   UNL A   1      47.173  34.021  30.110  1.00  0.00     0.198 A 
ATOM     89  C   UNL A   1      46.610  34.651  27.864  1.00  0.00     0.198 A 
ATOM     90  F   UNL A   1      45.595  33.095  26.424  1.00  0.00    -0.203 F 
ATOM     91  F   UNL A   1      47.652  34.343  31.320  1.00  0.00    -0.200 F 
ATOM     92  C   UNL A   1      47.134  34.977  29.106  1.00  0.00     0.200 A 
ATOM     93  F   UNL A   1      46.588  35.568  26.885  1.00  0.00    -0.200 F 
ATOM     94  F   UNL A   1      47.596  36.213  29.335  1.00  0.00    -0.200 F 
ENDBRANCH  61  84
ENDBRANCH  35  36
ENDBRANCH  27  30
ENDBRANCH  25  26
ENDBRANCH  24  25
ENDBRANCH  23  24
ENDBRANCH   3  23
TORSDOF 16
ENDMDL
