MODEL 1
REMARK VINA RESULT:     -12.8      0.000      0.000
REMARK SMILES C[C@@]1(CN2C(=O)c3ccc(C(=O)NCCCNC(=O)c4ccc(-c5c6nc(c(-c7c(F)c(F)c(F)c(F)c7F)c7ccc([nH]7)c(-c7c(F)c(F)c(F)c(F)c7F)c7nc(c(-c8c(F)c(F)c(F)c(F)c8F)c8ccc5[nH]8)C=C7)C=C6)cc4)cc3C2=O)CCCO1
REMARK SMILES IDX 15 1 14 2 13 3 11 4 12 5 10 7 4 8 5 9 85 10 6 11 7 12 84 13
REMARK SMILES IDX 86 14 8 15 83 16 9 17 3 18 2 19 1 20 87 21 90 22 88 23 89 24
REMARK SMILES IDX 16 25 17 26 18 27 19 29 20 30 21 31 82 32 22 33 81 34 23 35
REMARK SMILES IDX 24 36 25 37 75 38 26 39 80 40 74 41 76 42 27 43 79 44 73 45
REMARK SMILES IDX 72 46 28 48 60 49 40 50 59 51 41 52 44 53 58 54 77 55 42 56
REMARK SMILES IDX 43 57 57 59 78 60 45 61 29 62 30 63 38 64 31 65 32 66 36 67
REMARK SMILES IDX 39 68 33 69 34 70 37 71 35 72 61 73 62 74 70 75 63 76 64 77
REMARK SMILES IDX 68 78 71 79 65 80 66 81 69 82 67 83 46 84 47 85 55 86 48 87
REMARK SMILES IDX 49 88 53 89 56 90 50 91 51 92 54 93 52 94
REMARK H PARENT 13 6 17 28 76 47 44 58
REMARK Flexibility Score: inf
ROOT
ATOM      1  C   UNL A   1      38.275  19.656  24.984  1.00  0.00     0.042 C 
ENDROOT
BRANCH   1   2
ATOM      2  C   UNL A   1      37.432  20.885  24.641  1.00  0.00     0.118 C 
BRANCH   2   3
ATOM      3  N   UNL A   1      38.005  22.096  25.197  1.00  0.00    -0.352 N 
ATOM      4  C   UNL A   1      37.443  23.249  25.681  1.00  0.00     0.251 C 
ATOM      5  O   UNL A   1      38.197  24.080  26.184  1.00  0.00    -0.269 OA
ATOM      6  H   UNL A   1      38.990  22.090  25.233  1.00  0.00     0.163 HD
BRANCH   4   7
ATOM      7  C   UNL A   1      35.980  23.543  25.642  1.00  0.00     0.040 A 
ATOM      8  N   UNL A   1      32.049  25.077  23.787  1.00  0.00    -0.271 N 
ATOM      9  C   UNL A   1      31.917  24.311  24.908  1.00  0.00     0.261 C 
ATOM     10  C   UNL A   1      33.366  25.228  23.429  1.00  0.00     0.261 C 
ATOM     11  O   UNL A   1      30.911  23.883  25.446  1.00  0.00    -0.269 OA
ATOM     12  C   UNL A   1      33.263  24.000  25.361  1.00  0.00     0.053 A 
ATOM     13  C   UNL A   1      34.155  24.540  24.457  1.00  0.00     0.054 A 
ATOM     14  O   UNL A   1      33.846  25.749  22.444  1.00  0.00    -0.269 OA
ATOM     15  C   UNL A   1      33.673  23.235  26.429  1.00  0.00     0.015 A 
ATOM     16  C   UNL A   1      35.517  24.329  24.566  1.00  0.00     0.028 A 
ATOM     17  C   UNL A   1      35.045  22.996  26.551  1.00  0.00     0.015 A 
BRANCH   8  18
ATOM     18  C   UNL A   1      30.927  25.541  22.990  1.00  0.00     0.164 C 
BRANCH  18  19
ATOM     19  C   UNL A   1      30.258  26.844  23.507  1.00  0.00     0.084 C 
ATOM     20  C   UNL A   1      28.786  26.658  23.877  1.00  0.00     0.044 C 
ATOM     21  C   UNL A   1      30.411  27.964  22.469  1.00  0.00     0.039 C 
ATOM     22  O   UNL A   1      30.963  27.305  24.681  1.00  0.00    -0.373 OA
ATOM     23  C   UNL A   1      31.740  28.578  22.834  1.00  0.00     0.031 C 
ATOM     24  C   UNL A   1      31.741  28.461  24.342  1.00  0.00     0.161 C 
ENDBRANCH  18  19
ENDBRANCH   8  18
ENDBRANCH   4   7
ENDBRANCH   2   3
ENDBRANCH   1   2
BRANCH   1  25
ATOM     25  C   UNL A   1      39.257  19.883  26.128  1.00  0.00     0.118 C 
BRANCH  25  26
ATOM     26  N   UNL A   1      40.380  18.962  26.071  1.00  0.00    -0.352 N 
ATOM     27  C   UNL A   1      41.727  19.214  26.025  1.00  0.00     0.251 C 
ATOM     28  H   UNL A   1      40.136  18.008  26.064  1.00  0.00     0.163 HD
ATOM     29  O   UNL A   1      42.500  18.298  25.753  1.00  0.00    -0.269 OA
BRANCH  27  30
ATOM     30  C   UNL A   1      42.265  20.566  26.298  1.00  0.00     0.039 A 
ATOM     31  C   UNL A   1      42.336  21.002  27.625  1.00  0.00     0.014 A 
ATOM     32  C   UNL A   1      42.619  21.437  25.262  1.00  0.00     0.014 A 
ATOM     33  C   UNL A   1      42.785  22.292  27.916  1.00  0.00     0.010 A 
ATOM     34  C   UNL A   1      43.133  22.697  25.555  1.00  0.00     0.010 A 
ATOM     35  C   UNL A   1      43.199  23.147  26.883  1.00  0.00    -0.014 A 
BRANCH  35  36
ATOM     36  C   UNL A   1      43.653  24.532  27.165  1.00  0.00     0.031 A 
ATOM     37  C   UNL A   1      42.669  25.552  27.673  1.00  0.00     0.074 A 
ATOM     38  C   UNL A   1      44.928  24.885  26.920  1.00  0.00     0.049 A 
ATOM     39  N   UNL A   1      42.840  26.830  27.900  1.00  0.00    -0.248 NA
ATOM     40  C   UNL A   1      41.301  25.076  27.934  1.00  0.00     0.031 C 
ATOM     41  C   UNL A   1      45.965  23.994  26.397  1.00  0.00     0.029 A 
ATOM     42  N   UNL A   1      45.568  26.089  27.069  1.00  0.00    -0.354 N 
ATOM     43  C   UNL A   1      41.603  27.310  28.308  1.00  0.00     0.074 A 
ATOM     44  C   UNL A   1      40.677  26.201  28.250  1.00  0.00     0.031 C 
ATOM     45  C   UNL A   1      47.115  24.679  26.284  1.00  0.00     0.029 A 
ATOM     46  C   UNL A   1      46.888  26.062  26.694  1.00  0.00     0.049 A 
ATOM     47  H   UNL A   1      45.122  26.897  27.411  1.00  0.00     0.167 HD
ATOM     48  C   UNL A   1      41.273  28.559  28.715  1.00  0.00     0.037 A 
ATOM     49  C   UNL A   1      47.808  27.045  26.676  1.00  0.00     0.037 A 
ATOM     50  C   UNL A   1      42.206  29.652  28.804  1.00  0.00     0.049 A 
ATOM     51  C   UNL A   1      47.417  28.422  27.143  1.00  0.00     0.074 A 
ATOM     52  C   UNL A   1      41.985  30.944  29.249  1.00  0.00     0.029 A 
ATOM     53  N   UNL A   1      43.544  29.576  28.447  1.00  0.00    -0.354 N 
ATOM     54  N   UNL A   1      46.257  28.853  27.573  1.00  0.00    -0.248 NA
ATOM     55  C   UNL A   1      48.470  29.448  27.130  1.00  0.00     0.031 C 
ATOM     56  C   UNL A   1      43.181  31.659  29.127  1.00  0.00     0.029 A 
ATOM     57  C   UNL A   1      44.158  30.801  28.651  1.00  0.00     0.049 A 
ATOM     58  H   UNL A   1      43.990  28.770  28.098  1.00  0.00     0.167 HD
ATOM     59  C   UNL A   1      46.446  30.184  27.914  1.00  0.00     0.074 A 
ATOM     60  C   UNL A   1      47.836  30.490  27.651  1.00  0.00     0.031 C 
ATOM     61  C   UNL A   1      45.550  31.077  28.402  1.00  0.00     0.037 A 
BRANCH  48  62
ATOM     62  C   UNL A   1      39.844  28.810  29.103  1.00  0.00     0.064 A 
ATOM     63  C   UNL A   1      39.392  28.605  30.415  1.00  0.00     0.173 A 
ATOM     64  C   UNL A   1      38.924  29.294  28.161  1.00  0.00     0.173 A 
ATOM     65  F   UNL A   1      40.228  28.131  31.350  1.00  0.00    -0.203 F 
ATOM     66  C   UNL A   1      38.065  28.847  30.762  1.00  0.00     0.198 A 
ATOM     67  C   UNL A   1      37.605  29.564  28.519  1.00  0.00     0.198 A 
ATOM     68  F   UNL A   1      39.305  29.515  26.894  1.00  0.00    -0.203 F 
ATOM     69  F   UNL A   1      37.644  28.595  32.010  1.00  0.00    -0.200 F 
ATOM     70  C   UNL A   1      37.175  29.332  29.817  1.00  0.00     0.200 A 
ATOM     71  F   UNL A   1      36.749  30.046  27.607  1.00  0.00    -0.200 F 
ATOM     72  F   UNL A   1      35.900  29.571  30.154  1.00  0.00    -0.200 F 
ENDBRANCH  48  62
BRANCH  49  73
ATOM     73  C   UNL A   1      49.196  26.758  26.230  1.00  0.00     0.064 A 
ATOM     74  C   UNL A   1      49.574  26.945  24.893  1.00  0.00     0.173 A 
ATOM     75  C   UNL A   1      50.167  26.282  27.122  1.00  0.00     0.173 A 
ATOM     76  F   UNL A   1      48.674  27.378  23.998  1.00  0.00    -0.203 F 
ATOM     77  C   UNL A   1      50.865  26.645  24.461  1.00  0.00     0.198 A 
ATOM     78  C   UNL A   1      51.465  26.010  26.695  1.00  0.00     0.198 A 
ATOM     79  F   UNL A   1      49.858  26.093  28.414  1.00  0.00    -0.203 F 
ATOM     80  F   UNL A   1      51.185  26.788  23.168  1.00  0.00    -0.200 F 
ATOM     81  C   UNL A   1      51.810  26.183  25.363  1.00  0.00     0.200 A 
ATOM     82  F   UNL A   1      52.381  25.577  27.573  1.00  0.00    -0.200 F 
ATOM     83  F   UNL A   1      53.051  25.896  24.948  1.00  0.00    -0.200 F 
ENDBRANCH  49  73
BRANCH  61  84
ATOM     84  C   UNL A   1      46.055  32.450  28.732  1.00  0.00     0.064 A 
ATOM     85  C   UNL A   1      46.593  32.755  29.990  1.00  0.00     0.173 A 
ATOM     86  C   UNL A   1      46.037  33.462  27.760  1.00  0.00     0.173 A 
ATOM     87  F   UNL A   1      46.619  31.825  30.957  1.00  0.00    -0.203 F 
ATOM     88  C   UNL A   1      47.072  34.031  30.271  1.00  0.00     0.198 A 
ATOM     89  C   UNL A   1      46.542  34.728  28.036  1.00  0.00     0.198 A 
ATOM     90  F   UNL A   1      45.538  33.218  26.539  1.00  0.00    -0.203 F 
ATOM     91  F   UNL A   1      47.539  34.316  31.495  1.00  0.00    -0.200 F 
ATOM     92  C   UNL A   1      47.053  35.015  29.293  1.00  0.00     0.200 A 
ATOM     93  F   UNL A   1      46.535  35.674  27.084  1.00  0.00    -0.200 F 
ATOM     94  F   UNL A   1      47.521  36.241  29.564  1.00  0.00    -0.200 F 
ENDBRANCH  61  84
ENDBRANCH  35  36
ENDBRANCH  27  30
ENDBRANCH  25  26
ENDBRANCH   1  25
TORSDOF 12
ENDMDL
MODEL 2
REMARK VINA RESULT:     -12.8      5.580     10.984
REMARK SMILES C[C@@]1(CN2C(=O)c3ccc(C(=O)NCCCNC(=O)c4ccc(-c5c6nc(c(-c7c(F)c(F)c(F)c(F)c7F)c7ccc([nH]7)c(-c7c(F)c(F)c(F)c(F)c7F)c7nc(c(-c8c(F)c(F)c(F)c(F)c8F)c8ccc5[nH]8)C=C7)C=C6)cc4)cc3C2=O)CCCO1
REMARK SMILES IDX 15 1 14 2 13 3 11 4 12 5 10 7 4 8 5 9 85 10 6 11 7 12 84 13
REMARK SMILES IDX 86 14 8 15 83 16 9 17 3 18 2 19 1 20 87 21 90 22 88 23 89 24
REMARK SMILES IDX 16 25 17 26 18 27 19 29 20 30 21 31 82 32 22 33 81 34 23 35
REMARK SMILES IDX 24 36 25 37 75 38 26 39 80 40 74 41 76 42 27 43 79 44 73 45
REMARK SMILES IDX 72 46 28 48 60 49 40 50 59 51 41 52 44 53 58 54 77 55 42 56
REMARK SMILES IDX 43 57 57 59 78 60 45 61 29 62 30 63 38 64 31 65 32 66 36 67
REMARK SMILES IDX 39 68 33 69 34 70 37 71 35 72 61 73 62 74 70 75 63 76 64 77
REMARK SMILES IDX 68 78 71 79 65 80 66 81 69 82 67 83 46 84 47 85 55 86 48 87
REMARK SMILES IDX 49 88 53 89 56 90 50 91 51 92 54 93 52 94
REMARK H PARENT 13 6 17 28 76 47 44 58
REMARK Flexibility Score: inf
ROOT
ATOM      1  C   UNL A   1      31.503  32.136  26.861  1.00  0.00     0.042 C 
ENDROOT
BRANCH   1   2
ATOM      2  C   UNL A   1      31.739  30.625  26.859  1.00  0.00     0.118 C 
BRANCH   2   3
ATOM      3  N   UNL A   1      33.061  30.291  27.355  1.00  0.00    -0.352 N 
ATOM      4  C   UNL A   1      33.966  29.325  26.999  1.00  0.00     0.251 C 
ATOM      5  O   UNL A   1      35.067  29.349  27.549  1.00  0.00    -0.269 OA
ATOM      6  H   UNL A   1      33.368  30.872  28.089  1.00  0.00     0.163 HD
BRANCH   4   7
ATOM      7  C   UNL A   1      33.697  28.263  25.987  1.00  0.00     0.040 A 
ATOM      8  N   UNL A   1      32.048  24.243  24.447  1.00  0.00    -0.271 N 
ATOM      9  C   UNL A   1      32.439  25.131  23.487  1.00  0.00     0.261 C 
ATOM     10  C   UNL A   1      32.225  24.752  25.710  1.00  0.00     0.261 C 
ATOM     11  O   UNL A   1      32.329  25.068  22.275  1.00  0.00    -0.269 OA
ATOM     12  C   UNL A   1      32.985  26.284  24.184  1.00  0.00     0.053 A 
ATOM     13  C   UNL A   1      32.844  26.071  25.540  1.00  0.00     0.054 A 
ATOM     14  O   UNL A   1      31.896  24.292  26.783  1.00  0.00    -0.269 OA
ATOM     15  C   UNL A   1      33.486  27.460  23.674  1.00  0.00     0.015 A 
ATOM     16  C   UNL A   1      33.187  27.039  26.467  1.00  0.00     0.028 A 
ATOM     17  C   UNL A   1      33.826  28.458  24.592  1.00  0.00     0.015 A 
BRANCH   8  18
ATOM     18  C   UNL A   1      31.386  22.983  24.158  1.00  0.00     0.164 C 
BRANCH  18  19
ATOM     19  C   UNL A   1      32.341  21.823  23.766  1.00  0.00     0.084 C 
ATOM     20  C   UNL A   1      32.114  21.311  22.343  1.00  0.00     0.044 C 
ATOM     21  C   UNL A   1      32.216  20.672  24.774  1.00  0.00     0.039 C 
ATOM     22  O   UNL A   1      33.708  22.279  23.868  1.00  0.00    -0.373 OA
ATOM     23  C   UNL A   1      33.216  21.050  25.838  1.00  0.00     0.031 C 
ATOM     24  C   UNL A   1      34.318  21.691  25.025  1.00  0.00     0.161 C 
ENDBRANCH  18  19
ENDBRANCH   8  18
ENDBRANCH   4   7
ENDBRANCH   2   3
ENDBRANCH   1   2
BRANCH   1  25
ATOM     25  C   UNL A   1      32.777  32.958  27.023  1.00  0.00     0.118 C 
BRANCH  25  26
ATOM     26  N   UNL A   1      32.508  34.276  27.573  1.00  0.00    -0.352 N 
ATOM     27  C   UNL A   1      33.004  34.882  28.698  1.00  0.00     0.251 C 
ATOM     28  H   UNL A   1      31.868  34.819  27.057  1.00  0.00     0.163 HD
ATOM     29  O   UNL A   1      32.476  35.913  29.107  1.00  0.00    -0.269 OA
BRANCH  27  30
ATOM     30  C   UNL A   1      34.163  34.317  29.426  1.00  0.00     0.039 A 
ATOM     31  C   UNL A   1      35.450  34.601  28.957  1.00  0.00     0.014 A 
ATOM     32  C   UNL A   1      33.995  33.448  30.509  1.00  0.00     0.014 A 
ATOM     33  C   UNL A   1      36.564  34.039  29.585  1.00  0.00     0.010 A 
ATOM     34  C   UNL A   1      35.108  32.945  31.179  1.00  0.00     0.010 A 
ATOM     35  C   UNL A   1      36.402  33.216  30.709  1.00  0.00    -0.014 A 
BRANCH  35  36
ATOM     36  C   UNL A   1      37.570  32.585  31.375  1.00  0.00     0.031 A 
ATOM     37  C   UNL A   1      38.294  31.452  30.699  1.00  0.00     0.074 A 
ATOM     38  C   UNL A   1      37.946  32.994  32.601  1.00  0.00     0.049 A 
ATOM     39  N   UNL A   1      39.278  30.712  31.145  1.00  0.00    -0.248 NA
ATOM     40  C   UNL A   1      37.831  31.083  29.352  1.00  0.00     0.031 C 
ATOM     41  C   UNL A   1      37.302  34.059  33.371  1.00  0.00     0.029 A 
ATOM     42  N   UNL A   1      38.955  32.555  33.421  1.00  0.00    -0.354 N 
ATOM     43  C   UNL A   1      39.534  29.783  30.145  1.00  0.00     0.074 A 
ATOM     44  C   UNL A   1      38.572  30.017  29.091  1.00  0.00     0.031 C 
ATOM     45  C   UNL A   1      37.942  34.201  34.543  1.00  0.00     0.029 A 
ATOM     46  C   UNL A   1      39.018  33.217  34.621  1.00  0.00     0.049 A 
ATOM     47  H   UNL A   1      39.575  31.832  33.171  1.00  0.00     0.167 HD
ATOM     48  C   UNL A   1      40.500  28.834  30.100  1.00  0.00     0.037 A 
ATOM     49  C   UNL A   1      39.846  33.043  35.669  1.00  0.00     0.037 A 
ATOM     50  C   UNL A   1      41.477  28.627  31.136  1.00  0.00     0.049 A 
ATOM     51  C   UNL A   1      40.916  31.988  35.589  1.00  0.00     0.074 A 
ATOM     52  C   UNL A   1      42.526  27.724  31.168  1.00  0.00     0.029 A 
ATOM     53  N   UNL A   1      41.529  29.341  32.324  1.00  0.00    -0.354 N 
ATOM     54  N   UNL A   1      41.181  31.147  34.618  1.00  0.00    -0.248 NA
ATOM     55  C   UNL A   1      41.810  31.862  36.749  1.00  0.00     0.031 C 
ATOM     56  C   UNL A   1      43.191  27.869  32.390  1.00  0.00     0.029 A 
ATOM     57  C   UNL A   1      42.586  28.893  33.100  1.00  0.00     0.049 A 
ATOM     58  H   UNL A   1      40.906  30.061  32.577  1.00  0.00     0.167 HD
ATOM     59  C   UNL A   1      42.288  30.421  35.032  1.00  0.00     0.074 A 
ATOM     60  C   UNL A   1      42.653  30.925  36.339  1.00  0.00     0.031 C 
ATOM     61  C   UNL A   1      42.944  29.424  34.390  1.00  0.00     0.037 A 
BRANCH  48  62
ATOM     62  C   UNL A   1      40.551  27.950  28.887  1.00  0.00     0.064 A 
ATOM     63  C   UNL A   1      41.355  28.265  27.781  1.00  0.00     0.173 A 
ATOM     64  C   UNL A   1      39.814  26.756  28.842  1.00  0.00     0.173 A 
ATOM     65  F   UNL A   1      42.068  29.401  27.768  1.00  0.00    -0.203 F 
ATOM     66  C   UNL A   1      41.397  27.434  26.664  1.00  0.00     0.198 A 
ATOM     67  C   UNL A   1      39.883  25.913  27.736  1.00  0.00     0.198 A 
ATOM     68  F   UNL A   1      39.034  26.403  29.875  1.00  0.00    -0.203 F 
ATOM     69  F   UNL A   1      42.133  27.782  25.600  1.00  0.00    -0.200 F 
ATOM     70  C   UNL A   1      40.667  26.256  26.645  1.00  0.00     0.200 A 
ATOM     71  F   UNL A   1      39.187  24.766  27.725  1.00  0.00    -0.200 F 
ATOM     72  F   UNL A   1      40.714  25.454  25.573  1.00  0.00    -0.200 F 
ENDBRANCH  48  62
BRANCH  49  73
ATOM     73  C   UNL A   1      39.718  33.908  36.870  1.00  0.00     0.064 A 
ATOM     74  C   UNL A   1      38.929  33.512  37.959  1.00  0.00     0.173 A 
ATOM     75  C   UNL A   1      40.369  35.147  36.952  1.00  0.00     0.173 A 
ATOM     76  F   UNL A   1      38.270  32.344  37.918  1.00  0.00    -0.203 F 
ATOM     77  C   UNL A   1      38.777  34.333  39.075  1.00  0.00     0.198 A 
ATOM     78  C   UNL A   1      40.239  35.954  38.080  1.00  0.00     0.198 A 
ATOM     79  F   UNL A   1      41.141  35.569  35.940  1.00  0.00    -0.203 F 
ATOM     80  F   UNL A   1      37.979  33.951  40.080  1.00  0.00    -0.200 F 
ATOM     81  C   UNL A   1      39.437  35.551  39.136  1.00  0.00     0.200 A 
ATOM     82  F   UNL A   1      40.890  37.125  38.142  1.00  0.00    -0.200 F 
ATOM     83  F   UNL A   1      39.291  36.340  40.210  1.00  0.00    -0.200 F 
ENDBRANCH  49  73
BRANCH  61  84
ATOM     84  C   UNL A   1      44.154  28.850  35.065  1.00  0.00     0.064 A 
ATOM     85  C   UNL A   1      44.064  27.748  35.928  1.00  0.00     0.173 A 
ATOM     86  C   UNL A   1      45.426  29.385  34.812  1.00  0.00     0.173 A 
ATOM     87  F   UNL A   1      42.869  27.210  36.213  1.00  0.00    -0.203 F 
ATOM     88  C   UNL A   1      45.201  27.219  36.532  1.00  0.00     0.198 A 
ATOM     89  C   UNL A   1      46.563  28.837  35.395  1.00  0.00     0.198 A 
ATOM     90  F   UNL A   1      45.566  30.435  33.988  1.00  0.00    -0.203 F 
ATOM     91  F   UNL A   1      45.088  26.196  37.390  1.00  0.00    -0.200 F 
ATOM     92  C   UNL A   1      46.450  27.758  36.260  1.00  0.00     0.200 A 
ATOM     93  F   UNL A   1      47.771  29.351  35.120  1.00  0.00    -0.200 F 
ATOM     94  F   UNL A   1      47.544  27.244  36.838  1.00  0.00    -0.200 F 
ENDBRANCH  61  84
ENDBRANCH  35  36
ENDBRANCH  27  30
ENDBRANCH  25  26
ENDBRANCH   1  25
TORSDOF 12
ENDMDL
MODEL 3
REMARK VINA RESULT:     -12.8      5.700     11.117
REMARK SMILES C[C@@]1(CN2C(=O)c3ccc(C(=O)NCCCNC(=O)c4ccc(-c5c6nc(c(-c7c(F)c(F)c(F)c(F)c7F)c7ccc([nH]7)c(-c7c(F)c(F)c(F)c(F)c7F)c7nc(c(-c8c(F)c(F)c(F)c(F)c8F)c8ccc5[nH]8)C=C7)C=C6)cc4)cc3C2=O)CCCO1
REMARK SMILES IDX 15 1 14 2 13 3 11 4 12 5 10 7 4 8 5 9 85 10 6 11 7 12 84 13
REMARK SMILES IDX 86 14 8 15 83 16 9 17 3 18 2 19 1 20 87 21 90 22 88 23 89 24
REMARK SMILES IDX 16 25 17 26 18 27 19 29 20 30 21 31 82 32 22 33 81 34 23 35
REMARK SMILES IDX 24 36 25 37 75 38 26 39 80 40 74 41 76 42 27 43 79 44 73 45
REMARK SMILES IDX 72 46 28 48 60 49 40 50 59 51 41 52 44 53 58 54 77 55 42 56
REMARK SMILES IDX 43 57 57 59 78 60 45 61 29 62 30 63 38 64 31 65 32 66 36 67
REMARK SMILES IDX 39 68 33 69 34 70 37 71 35 72 61 73 62 74 70 75 63 76 64 77
REMARK SMILES IDX 68 78 71 79 65 80 66 81 69 82 67 83 46 84 47 85 55 86 48 87
REMARK SMILES IDX 49 88 53 89 56 90 50 91 51 92 54 93 52 94
REMARK H PARENT 13 6 17 28 76 47 44 58
REMARK Flexibility Score: inf
ROOT
ATOM      1  C   UNL A   1      31.556  32.180  26.896  1.00  0.00     0.042 C 
ENDROOT
BRANCH   1   2
ATOM      2  C   UNL A   1      31.777  30.668  26.861  1.00  0.00     0.118 C 
BRANCH   2   3
ATOM      3  N   UNL A   1      33.095  30.309  27.352  1.00  0.00    -0.352 N 
ATOM      4  C   UNL A   1      33.977  29.321  26.999  1.00  0.00     0.251 C 
ATOM      5  O   UNL A   1      35.081  29.326  27.541  1.00  0.00    -0.269 OA
ATOM      6  H   UNL A   1      33.419  30.889  28.079  1.00  0.00     0.163 HD
BRANCH   4   7
ATOM      7  C   UNL A   1      33.678  28.257  25.997  1.00  0.00     0.040 A 
ATOM      8  N   UNL A   1      32.060  24.196  24.534  1.00  0.00    -0.271 N 
ATOM      9  C   UNL A   1      32.364  25.100  23.558  1.00  0.00     0.261 C 
ATOM     10  C   UNL A   1      32.299  24.704  25.787  1.00  0.00     0.261 C 
ATOM     11  O   UNL A   1      32.182  25.039  22.355  1.00  0.00    -0.269 OA
ATOM     12  C   UNL A   1      32.918  26.266  24.228  1.00  0.00     0.053 A 
ATOM     13  C   UNL A   1      32.866  26.042  25.589  1.00  0.00     0.054 A 
ATOM     14  O   UNL A   1      32.050  24.229  26.875  1.00  0.00    -0.269 OA
ATOM     15  C   UNL A   1      33.350  27.459  23.696  1.00  0.00     0.015 A 
ATOM     16  C   UNL A   1      33.236  27.015  26.499  1.00  0.00     0.028 A 
ATOM     17  C   UNL A   1      33.715  28.462  24.598  1.00  0.00     0.015 A 
BRANCH   8  18
ATOM     18  C   UNL A   1      31.420  22.917  24.277  1.00  0.00     0.164 C 
BRANCH  18  19
ATOM     19  C   UNL A   1      32.384  21.788  23.823  1.00  0.00     0.084 C 
ATOM     20  C   UNL A   1      32.154  21.346  22.377  1.00  0.00     0.044 C 
ATOM     21  C   UNL A   1      32.276  20.588  24.773  1.00  0.00     0.039 C 
ATOM     22  O   UNL A   1      33.747  22.253  23.940  1.00  0.00    -0.373 OA
ATOM     23  C   UNL A   1      33.278  20.922  25.849  1.00  0.00     0.031 C 
ATOM     24  C   UNL A   1      34.370  21.614  25.063  1.00  0.00     0.161 C 
ENDBRANCH  18  19
ENDBRANCH   8  18
ENDBRANCH   4   7
ENDBRANCH   2   3
ENDBRANCH   1   2
BRANCH   1  25
ATOM     25  C   UNL A   1      32.838  32.985  27.087  1.00  0.00     0.118 C 
BRANCH  25  26
ATOM     26  N   UNL A   1      32.572  34.309  27.626  1.00  0.00    -0.352 N 
ATOM     27  C   UNL A   1      33.052  34.914  28.758  1.00  0.00     0.251 C 
ATOM     28  H   UNL A   1      31.951  34.857  27.094  1.00  0.00     0.163 HD
ATOM     29  O   UNL A   1      32.528  35.953  29.151  1.00  0.00    -0.269 OA
BRANCH  27  30
ATOM     30  C   UNL A   1      34.188  34.338  29.514  1.00  0.00     0.039 A 
ATOM     31  C   UNL A   1      35.487  34.577  29.052  1.00  0.00     0.014 A 
ATOM     32  C   UNL A   1      33.986  33.501  30.616  1.00  0.00     0.014 A 
ATOM     33  C   UNL A   1      36.579  34.002  29.707  1.00  0.00     0.010 A 
ATOM     34  C   UNL A   1      35.078  32.987  31.311  1.00  0.00     0.010 A 
ATOM     35  C   UNL A   1      36.384  33.212  30.850  1.00  0.00    -0.014 A 
BRANCH  35  36
ATOM     36  C   UNL A   1      37.527  32.569  31.545  1.00  0.00     0.031 A 
ATOM     37  C   UNL A   1      38.248  31.420  30.892  1.00  0.00     0.074 A 
ATOM     38  C   UNL A   1      37.884  32.981  32.775  1.00  0.00     0.049 A 
ATOM     39  N   UNL A   1      39.211  30.669  31.364  1.00  0.00    -0.248 NA
ATOM     40  C   UNL A   1      37.807  31.048  29.538  1.00  0.00     0.031 C 
ATOM     41  C   UNL A   1      37.241  34.062  33.524  1.00  0.00     0.029 A 
ATOM     42  N   UNL A   1      38.869  32.533  33.619  1.00  0.00    -0.354 N 
ATOM     43  C   UNL A   1      39.474  29.728  30.377  1.00  0.00     0.074 A 
ATOM     44  C   UNL A   1      38.537  29.969  29.301  1.00  0.00     0.031 C 
ATOM     45  C   UNL A   1      37.858  34.204  34.708  1.00  0.00     0.029 A 
ATOM     46  C   UNL A   1      38.917  33.203  34.815  1.00  0.00     0.049 A 
ATOM     47  H   UNL A   1      39.483  31.799  33.387  1.00  0.00     0.167 HD
ATOM     48  C   UNL A   1      40.425  28.764  30.359  1.00  0.00     0.037 A 
ATOM     49  C   UNL A   1      39.720  33.025  35.882  1.00  0.00     0.037 A 
ATOM     50  C   UNL A   1      41.377  28.550  31.417  1.00  0.00     0.049 A 
ATOM     51  C   UNL A   1      40.775  31.953  35.832  1.00  0.00     0.074 A 
ATOM     52  C   UNL A   1      42.411  27.631  31.477  1.00  0.00     0.029 A 
ATOM     53  N   UNL A   1      41.415  29.273  32.600  1.00  0.00    -0.354 N 
ATOM     54  N   UNL A   1      41.047  31.101  34.873  1.00  0.00    -0.248 NA
ATOM     55  C   UNL A   1      41.642  31.822  37.012  1.00  0.00     0.031 C 
ATOM     56  C   UNL A   1      43.052  27.775  32.712  1.00  0.00     0.029 A 
ATOM     57  C   UNL A   1      42.448  28.814  33.401  1.00  0.00     0.049 A 
ATOM     58  H   UNL A   1      40.798  30.003  32.835  1.00  0.00     0.167 HD
ATOM     59  C   UNL A   1      42.134  30.361  35.316  1.00  0.00     0.074 A 
ATOM     60  C   UNL A   1      42.479  30.869  36.627  1.00  0.00     0.031 C 
ATOM     61  C   UNL A   1      42.788  29.349  34.694  1.00  0.00     0.037 A 
BRANCH  48  62
ATOM     62  C   UNL A   1      40.488  27.870  29.153  1.00  0.00     0.064 A 
ATOM     63  C   UNL A   1      39.703  26.712  29.055  1.00  0.00     0.173 A 
ATOM     64  C   UNL A   1      41.318  28.194  28.069  1.00  0.00     0.173 A 
ATOM     65  F   UNL A   1      38.903  26.351  30.070  1.00  0.00    -0.203 F 
ATOM     66  C   UNL A   1      39.768  25.895  27.929  1.00  0.00     0.198 A 
ATOM     67  C   UNL A   1      41.357  27.390  26.932  1.00  0.00     0.198 A 
ATOM     68  F   UNL A   1      42.084  29.294  28.107  1.00  0.00    -0.203 F 
ATOM     69  F   UNL A   1      39.046  24.766  27.880  1.00  0.00    -0.200 F 
ATOM     70  C   UNL A   1      40.588  26.238  26.866  1.00  0.00     0.200 A 
ATOM     71  F   UNL A   1      42.141  27.730  25.898  1.00  0.00    -0.200 F 
ATOM     72  F   UNL A   1      40.644  25.454  25.780  1.00  0.00    -0.200 F 
ENDBRANCH  48  62
BRANCH  49  73
ATOM     73  C   UNL A   1      39.580  33.901  37.074  1.00  0.00     0.064 A 
ATOM     74  C   UNL A   1      38.810  33.498  38.174  1.00  0.00     0.173 A 
ATOM     75  C   UNL A   1      40.200  35.157  37.135  1.00  0.00     0.173 A 
ATOM     76  F   UNL A   1      38.181  32.314  38.153  1.00  0.00    -0.203 F 
ATOM     77  C   UNL A   1      38.647  34.329  39.282  1.00  0.00     0.198 A 
ATOM     78  C   UNL A   1      40.060  35.974  38.255  1.00  0.00     0.198 A 
ATOM     79  F   UNL A   1      40.953  35.586  36.111  1.00  0.00    -0.203 F 
ATOM     80  F   UNL A   1      37.867  33.939  40.298  1.00  0.00    -0.200 F 
ATOM     81  C   UNL A   1      39.277  35.563  39.322  1.00  0.00     0.200 A 
ATOM     82  F   UNL A   1      40.681  37.161  38.298  1.00  0.00    -0.200 F 
ATOM     83  F   UNL A   1      39.120  36.362  40.388  1.00  0.00    -0.200 F 
ENDBRANCH  49  73
BRANCH  61  84
ATOM     84  C   UNL A   1      43.974  28.762  35.399  1.00  0.00     0.064 A 
ATOM     85  C   UNL A   1      45.275  29.235  35.174  1.00  0.00     0.173 A 
ATOM     86  C   UNL A   1      43.801  27.737  36.342  1.00  0.00     0.173 A 
ATOM     87  F   UNL A   1      45.494  30.203  34.272  1.00  0.00    -0.203 F 
ATOM     88  C   UNL A   1      46.361  28.687  35.851  1.00  0.00     0.198 A 
ATOM     89  C   UNL A   1      44.885  27.212  37.037  1.00  0.00     0.198 A 
ATOM     90  F   UNL A   1      42.575  27.254  36.598  1.00  0.00    -0.203 F 
ATOM     91  F   UNL A   1      47.601  29.123  35.587  1.00  0.00    -0.200 F 
ATOM     92  C   UNL A   1      46.165  27.682  36.786  1.00  0.00     0.200 A 
ATOM     93  F   UNL A   1      44.692  26.248  37.950  1.00  0.00    -0.200 F 
ATOM     94  F   UNL A   1      47.212  27.160  37.441  1.00  0.00    -0.200 F 
ENDBRANCH  61  84
ENDBRANCH  35  36
ENDBRANCH  27  30
ENDBRANCH  25  26
ENDBRANCH   1  25
TORSDOF 12
ENDMDL
