MODEL 1
REMARK VINA RESULT:     -12.1      0.000      0.000
REMARK SMILES CCCc1nnsc1C(=O)NC[C@@H]1CC[C@@H](C(=O)NCCCNC(=O)c2ccc(-c3c4nc(c(-c5c(F)c(F)c(F)c(F)c5F)c5ccc([nH]5)c(-c5c(F)c(F)c(F)c(F)c5F)c5nc(c(-c6c(F)c(F)c(F)c(F)c6F)c6ccc3[nH]6)C=C5)C=C4)cc2)O1
REMARK SMILES IDX 17 1 18 2 19 3 16 5 13 6 14 7 89 8 15 9 12 10 11 11 9 12
REMARK SMILES IDX 10 13 8 15 4 16 5 17 6 18 7 19 3 20 2 21 1 22 20 23 21 24
REMARK SMILES IDX 22 25 23 26 24 27 25 29 26 30 27 31 88 32 28 33 87 34 29 35
REMARK SMILES IDX 30 36 31 37 81 38 32 39 86 40 80 41 82 42 33 43 85 44 79 45
REMARK SMILES IDX 78 46 34 48 66 49 46 50 65 51 47 52 50 53 64 54 83 55 48 56
REMARK SMILES IDX 49 57 63 59 84 60 51 61 35 62 36 63 44 64 37 65 38 66 42 67
REMARK SMILES IDX 45 68 39 69 40 70 43 71 41 72 67 73 68 74 76 75 69 76 70 77
REMARK SMILES IDX 74 78 77 79 71 80 72 81 75 82 73 83 52 84 53 85 61 86 54 87
REMARK SMILES IDX 55 88 59 89 62 90 56 91 57 92 60 93 58 94
REMARK H PARENT 19 4 11 14 23 28 82 47 50 58
REMARK Flexibility Score: inf
ROOT
ATOM      1  C   UNL A   1      31.065  29.331  24.209  1.00  0.00     0.249 C 
ATOM      2  O   UNL A   1      30.612  29.340  23.065  1.00  0.00    -0.272 OA
ATOM      3  N   UNL A   1      31.019  30.480  24.950  1.00  0.00    -0.354 N 
ATOM      4  H   UNL A   1      30.477  31.218  24.591  1.00  0.00     0.163 HD
ENDROOT
BRANCH   1   5
ATOM      5  C   UNL A   1      31.681  28.091  24.871  1.00  0.00     0.207 C 
ATOM      6  C   UNL A   1      31.251  26.095  23.799  1.00  0.00     0.138 C 
ATOM      7  C   UNL A   1      32.743  26.130  24.069  1.00  0.00     0.037 C 
ATOM      8  O   UNL A   1      30.724  27.014  24.762  1.00  0.00    -0.363 OA
ATOM      9  C   UNL A   1      32.977  27.612  24.226  1.00  0.00     0.045 C 
BRANCH   6  10
ATOM     10  C   UNL A   1      30.679  24.705  23.999  1.00  0.00     0.148 C 
BRANCH  10  11
ATOM     11  N   UNL A   1      30.567  24.282  25.372  1.00  0.00    -0.349 N 
ATOM     12  C   UNL A   1      31.389  23.554  26.189  1.00  0.00     0.265 C 
ATOM     13  O   UNL A   1      31.105  23.639  27.390  1.00  0.00    -0.268 OA
ATOM     14  H   UNL A   1      29.734  24.575  25.808  1.00  0.00     0.163 HD
BRANCH  12  15
ATOM     15  C   UNL A   1      32.446  22.686  25.706  1.00  0.00     0.136 A 
ATOM     16  C   UNL A   1      33.840  22.630  25.625  1.00  0.00     0.088 A 
ATOM     17  N   UNL A   1      34.331  21.493  24.969  1.00  0.00    -0.142 NA
ATOM     18  N   UNL A   1      33.383  20.663  24.596  1.00  0.00    -0.090 NA
ATOM     19  S   UNL A   1      31.870  21.193  25.013  1.00  0.00    -0.006 S 
BRANCH  16  20
ATOM     20  C   UNL A   1      34.934  23.553  26.075  1.00  0.00     0.060 C 
BRANCH  20  21
ATOM     21  C   UNL A   1      35.994  23.913  25.039  1.00  0.00     0.003 C 
ATOM     22  C   UNL A   1      37.413  23.830  25.565  1.00  0.00     0.004 C 
ENDBRANCH  20  21
ENDBRANCH  16  20
ENDBRANCH  12  15
ENDBRANCH  10  11
ENDBRANCH   6  10
ENDBRANCH   1   5
BRANCH   3  23
ATOM     23  C   UNL A   1      31.691  30.721  26.213  1.00  0.00     0.117 C 
BRANCH  23  24
ATOM     24  C   UNL A   1      31.439  32.147  26.694  1.00  0.00     0.042 C 
BRANCH  24  25
ATOM     25  C   UNL A   1      32.682  32.801  27.282  1.00  0.00     0.118 C 
BRANCH  25  26
ATOM     26  N   UNL A   1      32.451  34.194  27.633  1.00  0.00    -0.352 N 
ATOM     27  C   UNL A   1      33.007  34.947  28.635  1.00  0.00     0.251 C 
ATOM     28  H   UNL A   1      31.798  34.667  27.068  1.00  0.00     0.163 HD
ATOM     29  O   UNL A   1      32.528  36.035  28.925  1.00  0.00    -0.269 OA
BRANCH  27  30
ATOM     30  C   UNL A   1      34.175  34.428  29.373  1.00  0.00     0.039 A 
ATOM     31  C   UNL A   1      33.968  33.795  30.599  1.00  0.00     0.014 A 
ATOM     32  C   UNL A   1      35.468  34.574  28.861  1.00  0.00     0.014 A 
ATOM     33  C   UNL A   1      35.053  33.252  31.284  1.00  0.00     0.010 A 
ATOM     34  C   UNL A   1      36.537  33.960  29.503  1.00  0.00     0.010 A 
ATOM     35  C   UNL A   1      36.340  33.295  30.722  1.00  0.00    -0.014 A 
BRANCH  35  36
ATOM     36  C   UNL A   1      37.489  32.639  31.392  1.00  0.00     0.031 A 
ATOM     37  C   UNL A   1      38.188  31.481  30.739  1.00  0.00     0.074 A 
ATOM     38  C   UNL A   1      37.859  33.053  32.620  1.00  0.00     0.049 A 
ATOM     39  N   UNL A   1      39.171  30.745  31.192  1.00  0.00    -0.248 NA
ATOM     40  C   UNL A   1      37.704  31.078  29.408  1.00  0.00     0.031 C 
ATOM     41  C   UNL A   1      37.223  34.134  33.375  1.00  0.00     0.029 A 
ATOM     42  N   UNL A   1      38.855  32.609  33.453  1.00  0.00    -0.354 N 
ATOM     43  C   UNL A   1      39.413  29.792  30.213  1.00  0.00     0.074 A 
ATOM     44  C   UNL A   1      38.441  30.004  29.164  1.00  0.00     0.031 C 
ATOM     45  C   UNL A   1      37.857  34.285  34.548  1.00  0.00     0.029 A 
ATOM     46  C   UNL A   1      38.915  33.284  34.648  1.00  0.00     0.049 A 
ATOM     47  H   UNL A   1      39.469  31.876  33.217  1.00  0.00     0.167 HD
ATOM     48  C   UNL A   1      40.377  28.841  30.183  1.00  0.00     0.037 A 
ATOM     49  C   UNL A   1      39.723  33.106  35.709  1.00  0.00     0.037 A 
ATOM     50  C   UNL A   1      41.354  28.649  31.222  1.00  0.00     0.049 A 
ATOM     51  C   UNL A   1      40.773  32.030  35.655  1.00  0.00     0.074 A 
ATOM     52  C   UNL A   1      42.409  27.754  31.259  1.00  0.00     0.029 A 
ATOM     53  N   UNL A   1      41.390  29.359  32.413  1.00  0.00    -0.354 N 
ATOM     54  N   UNL A   1      41.044  31.185  34.689  1.00  0.00    -0.248 NA
ATOM     55  C   UNL A   1      41.636  31.887  36.834  1.00  0.00     0.031 C 
ATOM     56  C   UNL A   1      43.046  27.880  32.497  1.00  0.00     0.029 A 
ATOM     57  C   UNL A   1      42.432  28.900  33.206  1.00  0.00     0.049 A 
ATOM     58  H   UNL A   1      40.769  30.081  32.661  1.00  0.00     0.167 HD
ATOM     59  C   UNL A   1      42.123  30.432  35.132  1.00  0.00     0.074 A 
ATOM     60  C   UNL A   1      42.471  30.934  36.444  1.00  0.00     0.031 C 
ATOM     61  C   UNL A   1      42.769  29.416  34.508  1.00  0.00     0.037 A 
BRANCH  48  62
ATOM     62  C   UNL A   1      40.426  27.931  28.988  1.00  0.00     0.064 A 
ATOM     63  C   UNL A   1      41.175  28.252  27.846  1.00  0.00     0.173 A 
ATOM     64  C   UNL A   1      39.759  26.696  29.008  1.00  0.00     0.173 A 
ATOM     65  F   UNL A   1      41.823  29.425  27.771  1.00  0.00    -0.203 F 
ATOM     66  C   UNL A   1      41.236  27.382  26.760  1.00  0.00     0.198 A 
ATOM     67  C   UNL A   1      39.849  25.815  27.934  1.00  0.00     0.198 A 
ATOM     68  F   UNL A   1      39.032  26.337  30.077  1.00  0.00    -0.203 F 
ATOM     69  F   UNL A   1      41.922  27.730  25.663  1.00  0.00    -0.200 F 
ATOM     70  C   UNL A   1      40.581  26.161  26.809  1.00  0.00     0.200 A 
ATOM     71  F   UNL A   1      39.229  24.628  27.990  1.00  0.00    -0.200 F 
ATOM     72  F   UNL A   1      40.653  25.319  25.769  1.00  0.00    -0.200 F 
ENDBRANCH  48  62
BRANCH  49  73
ATOM     73  C   UNL A   1      39.578  33.971  36.912  1.00  0.00     0.064 A 
ATOM     74  C   UNL A   1      38.806  33.560  38.008  1.00  0.00     0.173 A 
ATOM     75  C   UNL A   1      40.189  35.230  36.982  1.00  0.00     0.173 A 
ATOM     76  F   UNL A   1      38.186  32.371  37.983  1.00  0.00    -0.203 F 
ATOM     77  C   UNL A   1      38.628  34.388  39.114  1.00  0.00     0.198 A 
ATOM     78  C   UNL A   1      40.038  36.044  38.102  1.00  0.00     0.198 A 
ATOM     79  F   UNL A   1      40.945  35.669  35.963  1.00  0.00    -0.203 F 
ATOM     80  F   UNL A   1      37.838  33.995  40.122  1.00  0.00    -0.200 F 
ATOM     81  C   UNL A   1      39.248  35.628  39.162  1.00  0.00     0.200 A 
ATOM     82  F   UNL A   1      40.656  37.232  38.152  1.00  0.00    -0.200 F 
ATOM     83  F   UNL A   1      39.077  36.425  40.226  1.00  0.00    -0.200 F 
ENDBRANCH  49  73
BRANCH  61  84
ATOM     84  C   UNL A   1      43.941  28.804  35.221  1.00  0.00     0.064 A 
ATOM     85  C   UNL A   1      43.787  27.724  36.103  1.00  0.00     0.173 A 
ATOM     86  C   UNL A   1      45.240  29.283  34.989  1.00  0.00     0.173 A 
ATOM     87  F   UNL A   1      42.566  27.238  36.371  1.00  0.00    -0.203 F 
ATOM     88  C   UNL A   1      44.888  27.167  36.751  1.00  0.00     0.198 A 
ATOM     89  C   UNL A   1      46.340  28.699  35.609  1.00  0.00     0.198 A 
ATOM     90  F   UNL A   1      45.442  30.308  34.149  1.00  0.00    -0.203 F 
ATOM     91  F   UNL A   1      44.711  26.173  37.631  1.00  0.00    -0.200 F 
ATOM     92  C   UNL A   1      46.163  27.649  36.496  1.00  0.00     0.200 A 
ATOM     93  F   UNL A   1      47.573  29.156  35.349  1.00  0.00    -0.200 F 
ATOM     94  F   UNL A   1      47.221  27.106  37.113  1.00  0.00    -0.200 F 
ENDBRANCH  61  84
ENDBRANCH  35  36
ENDBRANCH  27  30
ENDBRANCH  25  26
ENDBRANCH  24  25
ENDBRANCH  23  24
ENDBRANCH   3  23
TORSDOF 15
ENDMDL
MODEL 2
REMARK VINA RESULT:     -12.0      5.569     11.214
REMARK SMILES CCCc1nnsc1C(=O)NC[C@@H]1CC[C@@H](C(=O)NCCCNC(=O)c2ccc(-c3c4nc(c(-c5c(F)c(F)c(F)c(F)c5F)c5ccc([nH]5)c(-c5c(F)c(F)c(F)c(F)c5F)c5nc(c(-c6c(F)c(F)c(F)c(F)c6F)c6ccc3[nH]6)C=C5)C=C4)cc2)O1
REMARK SMILES IDX 17 1 18 2 19 3 16 5 13 6 14 7 89 8 15 9 12 10 11 11 9 12
REMARK SMILES IDX 10 13 8 15 4 16 5 17 6 18 7 19 3 20 2 21 1 22 20 23 21 24
REMARK SMILES IDX 22 25 23 26 24 27 25 29 26 30 27 31 88 32 28 33 87 34 29 35
REMARK SMILES IDX 30 36 31 37 81 38 32 39 86 40 80 41 82 42 33 43 85 44 79 45
REMARK SMILES IDX 78 46 34 48 66 49 46 50 65 51 47 52 50 53 64 54 83 55 48 56
REMARK SMILES IDX 49 57 63 59 84 60 51 61 35 62 36 63 44 64 37 65 38 66 42 67
REMARK SMILES IDX 45 68 39 69 40 70 43 71 41 72 67 73 68 74 76 75 69 76 70 77
REMARK SMILES IDX 74 78 77 79 71 80 72 81 75 82 73 83 52 84 53 85 61 86 54 87
REMARK SMILES IDX 55 88 59 89 62 90 56 91 57 92 60 93 58 94
REMARK H PARENT 19 4 11 14 23 28 82 47 50 58
REMARK Flexibility Score: inf
ROOT
ATOM      1  C   UNL A   1      34.446  20.893  25.406  1.00  0.00     0.249 C 
ATOM      2  O   UNL A   1      33.473  20.329  25.903  1.00  0.00    -0.272 OA
ATOM      3  N   UNL A   1      35.596  20.177  25.202  1.00  0.00    -0.354 N 
ATOM      4  H   UNL A   1      35.535  19.202  25.312  1.00  0.00     0.163 HD
ENDROOT
BRANCH   1   5
ATOM      5  C   UNL A   1      34.454  22.369  24.987  1.00  0.00     0.207 C 
ATOM      6  C   UNL A   1      32.377  23.275  24.563  1.00  0.00     0.138 C 
ATOM      7  C   UNL A   1      33.094  24.246  25.480  1.00  0.00     0.037 C 
ATOM      8  O   UNL A   1      33.448  22.540  23.963  1.00  0.00    -0.363 OA
ATOM      9  C   UNL A   1      34.125  23.344  26.112  1.00  0.00     0.045 C 
BRANCH   6  10
ATOM     10  C   UNL A   1      31.555  24.000  23.513  1.00  0.00     0.148 C 
BRANCH  10  11
ATOM     11  N   UNL A   1      32.321  24.639  22.474  1.00  0.00    -0.349 N 
ATOM     12  C   UNL A   1      32.778  25.919  22.311  1.00  0.00     0.265 C 
ATOM     13  O   UNL A   1      33.651  26.034  21.442  1.00  0.00    -0.268 OA
ATOM     14  H   UNL A   1      32.563  24.036  21.734  1.00  0.00     0.163 HD
BRANCH  12  15
ATOM     15  C   UNL A   1      32.239  27.065  23.018  1.00  0.00     0.136 A 
ATOM     16  C   UNL A   1      32.585  27.966  24.029  1.00  0.00     0.088 A 
ATOM     17  N   UNL A   1      31.581  28.894  24.339  1.00  0.00    -0.142 NA
ATOM     18  N   UNL A   1      30.515  28.772  23.580  1.00  0.00    -0.090 NA
ATOM     19  S   UNL A   1      30.661  27.558  22.463  1.00  0.00    -0.006 S 
BRANCH  16  20
ATOM     20  C   UNL A   1      33.809  28.136  24.880  1.00  0.00     0.060 C 
BRANCH  20  21
ATOM     21  C   UNL A   1      33.661  27.810  26.363  1.00  0.00     0.003 C 
ATOM     22  C   UNL A   1      33.591  29.035  27.252  1.00  0.00     0.004 C 
ENDBRANCH  20  21
ENDBRANCH  16  20
ENDBRANCH  12  15
ENDBRANCH  10  11
ENDBRANCH   6  10
ENDBRANCH   1   5
BRANCH   3  23
ATOM     23  C   UNL A   1      36.894  20.713  24.840  1.00  0.00     0.117 C 
BRANCH  23  24
ATOM     24  C   UNL A   1      37.978  19.651  25.001  1.00  0.00     0.042 C 
BRANCH  24  25
ATOM     25  C   UNL A   1      39.183  20.151  25.786  1.00  0.00     0.118 C 
BRANCH  25  26
ATOM     26  N   UNL A   1      40.200  19.122  25.940  1.00  0.00    -0.352 N 
ATOM     27  C   UNL A   1      41.555  19.248  26.104  1.00  0.00     0.251 C 
ATOM     28  H   UNL A   1      39.865  18.195  25.924  1.00  0.00     0.163 HD
ATOM     29  O   UNL A   1      42.283  18.271  25.990  1.00  0.00    -0.269 OA
BRANCH  27  30
ATOM     30  C   UNL A   1      42.132  20.574  26.402  1.00  0.00     0.039 A 
ATOM     31  C   UNL A   1      42.555  21.376  25.341  1.00  0.00     0.014 A 
ATOM     32  C   UNL A   1      42.262  21.018  27.721  1.00  0.00     0.014 A 
ATOM     33  C   UNL A   1      43.052  22.651  25.600  1.00  0.00     0.010 A 
ATOM     34  C   UNL A   1      42.679  22.320  27.972  1.00  0.00     0.010 A 
ATOM     35  C   UNL A   1      43.081  23.148  26.914  1.00  0.00    -0.014 A 
BRANCH  35  36
ATOM     36  C   UNL A   1      43.517  24.537  27.195  1.00  0.00     0.031 A 
ATOM     37  C   UNL A   1      42.539  25.548  27.723  1.00  0.00     0.074 A 
ATOM     38  C   UNL A   1      44.785  24.898  26.916  1.00  0.00     0.049 A 
ATOM     39  N   UNL A   1      42.718  26.819  27.975  1.00  0.00    -0.248 NA
ATOM     40  C   UNL A   1      41.168  25.075  27.978  1.00  0.00     0.031 C 
ATOM     41  C   UNL A   1      45.810  24.017  26.355  1.00  0.00     0.029 A 
ATOM     42  N   UNL A   1      45.426  26.103  27.058  1.00  0.00    -0.354 N 
ATOM     43  C   UNL A   1      41.488  27.297  28.406  1.00  0.00     0.074 A 
ATOM     44  C   UNL A   1      40.555  26.196  28.328  1.00  0.00     0.031 C 
ATOM     45  C   UNL A   1      46.956  24.703  26.222  1.00  0.00     0.029 A 
ATOM     46  C   UNL A   1      46.736  26.082  26.646  1.00  0.00     0.049 A 
ATOM     47  H   UNL A   1      44.988  26.907  27.421  1.00  0.00     0.167 HD
ATOM     48  C   UNL A   1      41.174  28.538  28.848  1.00  0.00     0.037 A 
ATOM     49  C   UNL A   1      47.651  27.068  26.602  1.00  0.00     0.037 A 
ATOM     50  C   UNL A   1      42.114  29.624  28.941  1.00  0.00     0.049 A 
ATOM     51  C   UNL A   1      47.269  28.441  27.084  1.00  0.00     0.074 A 
ATOM     52  C   UNL A   1      41.910  30.901  29.433  1.00  0.00     0.029 A 
ATOM     53  N   UNL A   1      43.436  29.562  28.524  1.00  0.00    -0.354 N 
ATOM     54  N   UNL A   1      46.122  28.861  27.563  1.00  0.00    -0.248 NA
ATOM     55  C   UNL A   1      48.309  29.476  27.026  1.00  0.00     0.031 C 
ATOM     56  C   UNL A   1      43.090  31.630  29.258  1.00  0.00     0.029 A 
ATOM     57  C   UNL A   1      44.051  30.790  28.719  1.00  0.00     0.049 A 
ATOM     58  H   UNL A   1      43.873  28.766  28.145  1.00  0.00     0.167 HD
ATOM     59  C   UNL A   1      46.312  30.198  27.890  1.00  0.00     0.074 A 
ATOM     60  C   UNL A   1      47.689  30.512  27.574  1.00  0.00     0.031 C 
ATOM     61  C   UNL A   1      45.426  31.085  28.405  1.00  0.00     0.037 A 
BRANCH  48  62
ATOM     62  C   UNL A   1      39.754  28.793  29.267  1.00  0.00     0.064 A 
ATOM     63  C   UNL A   1      39.317  28.551  30.579  1.00  0.00     0.173 A 
ATOM     64  C   UNL A   1      38.832  29.339  28.360  1.00  0.00     0.173 A 
ATOM     65  F   UNL A   1      40.153  28.020  31.483  1.00  0.00    -0.203 F 
ATOM     66  C   UNL A   1      38.005  28.824  30.959  1.00  0.00     0.198 A 
ATOM     67  C   UNL A   1      37.532  29.641  28.753  1.00  0.00     0.198 A 
ATOM     68  F   UNL A   1      39.199  29.594  27.095  1.00  0.00    -0.203 F 
ATOM     69  F   UNL A   1      37.598  28.542  32.205  1.00  0.00    -0.200 F 
ATOM     70  C   UNL A   1      37.117  29.377  30.049  1.00  0.00     0.200 A 
ATOM     71  F   UNL A   1      36.680  30.191  27.877  1.00  0.00    -0.200 F 
ATOM     72  F   UNL A   1      35.859  29.653  30.422  1.00  0.00    -0.200 F 
ENDBRANCH  48  62
BRANCH  49  73
ATOM     73  C   UNL A   1      49.021  26.792  26.091  1.00  0.00     0.064 A 
ATOM     74  C   UNL A   1      49.347  27.007  24.744  1.00  0.00     0.173 A 
ATOM     75  C   UNL A   1      50.026  26.292  26.931  1.00  0.00     0.173 A 
ATOM     76  F   UNL A   1      48.416  27.469  23.896  1.00  0.00    -0.203 F 
ATOM     77  C   UNL A   1      50.614  26.703  24.252  1.00  0.00     0.198 A 
ATOM     78  C   UNL A   1      51.303  26.020  26.446  1.00  0.00     0.198 A 
ATOM     79  F   UNL A   1      49.770  26.075  28.231  1.00  0.00    -0.203 F 
ATOM     80  F   UNL A   1      50.880  26.863  22.949  1.00  0.00    -0.200 F 
ATOM     81  C   UNL A   1      51.593  26.214  25.105  1.00  0.00     0.200 A 
ATOM     82  F   UNL A   1      52.250  25.567  27.278  1.00  0.00    -0.200 F 
ATOM     83  F   UNL A   1      52.812  25.922  24.631  1.00  0.00    -0.200 F 
ENDBRANCH  49  73
BRANCH  61  84
ATOM     84  C   UNL A   1      45.928  32.471  28.694  1.00  0.00     0.064 A 
ATOM     85  C   UNL A   1      46.523  32.800  29.921  1.00  0.00     0.173 A 
ATOM     86  C   UNL A   1      45.844  33.473  27.714  1.00  0.00     0.173 A 
ATOM     87  F   UNL A   1      46.613  31.883  30.896  1.00  0.00    -0.203 F 
ATOM     88  C   UNL A   1      46.987  34.090  30.168  1.00  0.00     0.198 A 
ATOM     89  C   UNL A   1      46.343  34.750  27.952  1.00  0.00     0.198 A 
ATOM     90  F   UNL A   1      45.292  33.208  26.521  1.00  0.00    -0.203 F 
ATOM     91  F   UNL A   1      47.500  34.396  31.366  1.00  0.00    -0.200 F 
ATOM     92  C   UNL A   1      46.904  35.061  29.180  1.00  0.00     0.200 A 
ATOM     93  F   UNL A   1      46.278  35.682  26.990  1.00  0.00    -0.200 F 
ATOM     94  F   UNL A   1      47.360  36.299  29.416  1.00  0.00    -0.200 F 
ENDBRANCH  61  84
ENDBRANCH  35  36
ENDBRANCH  27  30
ENDBRANCH  25  26
ENDBRANCH  24  25
ENDBRANCH  23  24
ENDBRANCH   3  23
TORSDOF 15
ENDMDL
MODEL 3
REMARK VINA RESULT:     -11.9      5.553     11.118
REMARK SMILES CCCc1nnsc1C(=O)NC[C@@H]1CC[C@@H](C(=O)NCCCNC(=O)c2ccc(-c3c4nc(c(-c5c(F)c(F)c(F)c(F)c5F)c5ccc([nH]5)c(-c5c(F)c(F)c(F)c(F)c5F)c5nc(c(-c6c(F)c(F)c(F)c(F)c6F)c6ccc3[nH]6)C=C5)C=C4)cc2)O1
REMARK SMILES IDX 17 1 18 2 19 3 16 5 13 6 14 7 89 8 15 9 12 10 11 11 9 12
REMARK SMILES IDX 10 13 8 15 4 16 5 17 6 18 7 19 3 20 2 21 1 22 20 23 21 24
REMARK SMILES IDX 22 25 23 26 24 27 25 29 26 30 27 31 88 32 28 33 87 34 29 35
REMARK SMILES IDX 30 36 31 37 81 38 32 39 86 40 80 41 82 42 33 43 85 44 79 45
REMARK SMILES IDX 78 46 34 48 66 49 46 50 65 51 47 52 50 53 64 54 83 55 48 56
REMARK SMILES IDX 49 57 63 59 84 60 51 61 35 62 36 63 44 64 37 65 38 66 42 67
REMARK SMILES IDX 45 68 39 69 40 70 43 71 41 72 67 73 68 74 76 75 69 76 70 77
REMARK SMILES IDX 74 78 77 79 71 80 72 81 75 82 73 83 52 84 53 85 61 86 54 87
REMARK SMILES IDX 55 88 59 89 62 90 56 91 57 92 60 93 58 94
REMARK H PARENT 19 4 11 14 23 28 82 47 50 58
REMARK Flexibility Score: inf
ROOT
ATOM      1  C   UNL A   1      34.214  20.314  25.350  1.00  0.00     0.249 C 
ATOM      2  O   UNL A   1      33.288  19.509  25.272  1.00  0.00    -0.272 OA
ATOM      3  N   UNL A   1      35.469  19.923  24.966  1.00  0.00    -0.354 N 
ATOM      4  H   UNL A   1      35.538  19.065  24.491  1.00  0.00     0.163 HD
ENDROOT
BRANCH   1   5
ATOM      5  C   UNL A   1      34.051  21.755  25.853  1.00  0.00     0.207 C 
ATOM      6  C   UNL A   1      31.873  22.496  26.002  1.00  0.00     0.138 C 
ATOM      7  C   UNL A   1      32.540  22.845  27.318  1.00  0.00     0.037 C 
ATOM      8  O   UNL A   1      32.977  22.363  25.101  1.00  0.00    -0.363 OA
ATOM      9  C   UNL A   1      33.690  21.868  27.330  1.00  0.00     0.045 C 
BRANCH   6  10
ATOM     10  C   UNL A   1      30.925  23.591  25.549  1.00  0.00     0.148 C 
BRANCH  10  11
ATOM     11  N   UNL A   1      30.985  24.807  26.320  1.00  0.00    -0.349 N 
ATOM     12  C   UNL A   1      30.863  26.128  25.981  1.00  0.00     0.265 C 
ATOM     13  O   UNL A   1      30.674  26.878  26.945  1.00  0.00    -0.268 OA
ATOM     14  H   UNL A   1      31.145  24.658  27.280  1.00  0.00     0.163 HD
BRANCH  12  15
ATOM     15  C   UNL A   1      31.026  26.633  24.631  1.00  0.00     0.136 A 
ATOM     16  C   UNL A   1      32.033  26.945  23.713  1.00  0.00     0.088 A 
ATOM     17  N   UNL A   1      31.561  27.473  22.502  1.00  0.00    -0.142 NA
ATOM     18  N   UNL A   1      30.250  27.528  22.440  1.00  0.00    -0.090 NA
ATOM     19  S   UNL A   1      29.520  26.950  23.810  1.00  0.00    -0.006 S 
BRANCH  16  20
ATOM     20  C   UNL A   1      33.530  26.857  23.759  1.00  0.00     0.060 C 
BRANCH  20  21
ATOM     21  C   UNL A   1      34.123  25.506  24.149  1.00  0.00     0.003 C 
ATOM     22  C   UNL A   1      34.516  25.413  25.609  1.00  0.00     0.004 C 
ENDBRANCH  20  21
ENDBRANCH  16  20
ENDBRANCH  12  15
ENDBRANCH  10  11
ENDBRANCH   6  10
ENDBRANCH   1   5
BRANCH   3  23
ATOM     23  C   UNL A   1      36.706  20.646  25.191  1.00  0.00     0.117 C 
BRANCH  23  24
ATOM     24  C   UNL A   1      37.909  19.728  24.993  1.00  0.00     0.042 C 
BRANCH  24  25
ATOM     25  C   UNL A   1      39.168  20.248  25.675  1.00  0.00     0.118 C 
BRANCH  25  26
ATOM     26  N   UNL A   1      40.152  19.196  25.878  1.00  0.00    -0.352 N 
ATOM     27  C   UNL A   1      41.501  19.292  26.101  1.00  0.00     0.251 C 
ATOM     28  H   UNL A   1      39.797  18.278  25.851  1.00  0.00     0.163 HD
ATOM     29  O   UNL A   1      42.210  18.298  26.024  1.00  0.00    -0.269 OA
BRANCH  27  30
ATOM     30  C   UNL A   1      42.095  20.606  26.418  1.00  0.00     0.039 A 
ATOM     31  C   UNL A   1      42.560  21.403  25.371  1.00  0.00     0.014 A 
ATOM     32  C   UNL A   1      42.200  21.044  27.742  1.00  0.00     0.014 A 
ATOM     33  C   UNL A   1      43.074  22.668  25.648  1.00  0.00     0.010 A 
ATOM     34  C   UNL A   1      42.635  22.336  28.008  1.00  0.00     0.010 A 
ATOM     35  C   UNL A   1      43.079  23.160  26.964  1.00  0.00    -0.014 A 
BRANCH  35  36
ATOM     36  C   UNL A   1      43.534  24.540  27.261  1.00  0.00     0.031 A 
ATOM     37  C   UNL A   1      42.565  25.562  27.783  1.00  0.00     0.074 A 
ATOM     38  C   UNL A   1      44.812  24.882  27.003  1.00  0.00     0.049 A 
ATOM     39  N   UNL A   1      42.762  26.829  28.047  1.00  0.00    -0.248 NA
ATOM     40  C   UNL A   1      41.184  25.110  28.016  1.00  0.00     0.031 C 
ATOM     41  C   UNL A   1      45.830  23.988  26.448  1.00  0.00     0.029 A 
ATOM     42  N   UNL A   1      45.470  26.075  27.162  1.00  0.00    -0.354 N 
ATOM     43  C   UNL A   1      41.534  27.324  28.465  1.00  0.00     0.074 A 
ATOM     44  C   UNL A   1      40.584  26.238  28.366  1.00  0.00     0.031 C 
ATOM     45  C   UNL A   1      46.989  24.656  26.337  1.00  0.00     0.029 A 
ATOM     46  C   UNL A   1      46.785  26.036  26.767  1.00  0.00     0.049 A 
ATOM     47  H   UNL A   1      45.041  26.884  27.525  1.00  0.00     0.167 HD
ATOM     48  C   UNL A   1      41.234  28.566  28.912  1.00  0.00     0.037 A 
ATOM     49  C   UNL A   1      47.717  27.006  26.743  1.00  0.00     0.037 A 
ATOM     50  C   UNL A   1      42.190  29.636  29.025  1.00  0.00     0.049 A 
ATOM     51  C   UNL A   1      47.350  28.383  27.230  1.00  0.00     0.074 A 
ATOM     52  C   UNL A   1      42.000  30.913  29.523  1.00  0.00     0.029 A 
ATOM     53  N   UNL A   1      43.516  29.556  28.626  1.00  0.00    -0.354 N 
ATOM     54  N   UNL A   1      46.204  28.818  27.696  1.00  0.00    -0.248 NA
ATOM     55  C   UNL A   1      48.408  29.401  27.194  1.00  0.00     0.031 C 
ATOM     56  C   UNL A   1      43.194  31.624  29.370  1.00  0.00     0.029 A 
ATOM     57  C   UNL A   1      44.148  30.772  28.838  1.00  0.00     0.049 A 
ATOM     58  H   UNL A   1      43.946  28.755  28.247  1.00  0.00     0.167 HD
ATOM     59  C   UNL A   1      46.411  30.148  28.036  1.00  0.00     0.074 A 
ATOM     60  C   UNL A   1      47.797  30.443  27.741  1.00  0.00     0.031 C 
ATOM     61  C   UNL A   1      45.532  31.046  28.545  1.00  0.00     0.037 A 
BRANCH  48  62
ATOM     62  C   UNL A   1      39.812  28.842  29.313  1.00  0.00     0.064 A 
ATOM     63  C   UNL A   1      38.867  29.323  28.396  1.00  0.00     0.173 A 
ATOM     64  C   UNL A   1      39.377  28.567  30.619  1.00  0.00     0.173 A 
ATOM     65  F   UNL A   1      39.232  29.613  27.138  1.00  0.00    -0.203 F 
ATOM     66  C   UNL A   1      37.545  29.542  28.776  1.00  0.00     0.198 A 
ATOM     67  C   UNL A   1      38.048  28.756  30.987  1.00  0.00     0.198 A 
ATOM     68  F   UNL A   1      40.239  28.100  31.535  1.00  0.00    -0.203 F 
ATOM     69  F   UNL A   1      36.670  30.046  27.895  1.00  0.00    -0.200 F 
ATOM     70  C   UNL A   1      37.135  29.250  30.068  1.00  0.00     0.200 A 
ATOM     71  F   UNL A   1      37.650  28.456  32.231  1.00  0.00    -0.200 F 
ATOM     72  F   UNL A   1      35.859  29.447  30.428  1.00  0.00    -0.200 F 
ENDBRANCH  48  62
BRANCH  49  73
ATOM     73  C   UNL A   1      49.089  26.712  26.249  1.00  0.00     0.064 A 
ATOM     74  C   UNL A   1      49.447  26.965  24.917  1.00  0.00     0.173 A 
ATOM     75  C   UNL A   1      50.063  26.156  27.090  1.00  0.00     0.173 A 
ATOM     76  F   UNL A   1      48.546  27.481  24.068  1.00  0.00    -0.203 F 
ATOM     77  C   UNL A   1      50.715  26.645  24.438  1.00  0.00     0.198 A 
ATOM     78  C   UNL A   1      51.342  25.867  26.620  1.00  0.00     0.198 A 
ATOM     79  F   UNL A   1      49.776  25.901  28.376  1.00  0.00    -0.203 F 
ATOM     80  F   UNL A   1      51.011  26.843  23.147  1.00  0.00    -0.200 F 
ATOM     81  C   UNL A   1      51.663  26.099  25.292  1.00  0.00     0.200 A 
ATOM     82  F   UNL A   1      52.260  25.359  27.453  1.00  0.00    -0.200 F 
ATOM     83  F   UNL A   1      52.884  25.792  24.832  1.00  0.00    -0.200 F 
ENDBRANCH  49  73
BRANCH  61  84
ATOM     84  C   UNL A   1      46.053  32.422  28.852  1.00  0.00     0.064 A 
ATOM     85  C   UNL A   1      45.995  33.460  27.911  1.00  0.00     0.173 A 
ATOM     86  C   UNL A   1      46.583  32.712  30.119  1.00  0.00     0.173 A 
ATOM     87  F   UNL A   1      45.511  33.232  26.681  1.00  0.00    -0.203 F 
ATOM     88  C   UNL A   1      46.478  34.731  28.217  1.00  0.00     0.198 A 
ATOM     89  C   UNL A   1      47.030  33.991  30.432  1.00  0.00     0.198 A 
ATOM     90  F   UNL A   1      46.653  31.757  31.058  1.00  0.00    -0.203 F 
ATOM     91  F   UNL A   1      46.465  35.692  27.284  1.00  0.00    -0.200 F 
ATOM     92  C   UNL A   1      46.987  34.997  29.479  1.00  0.00     0.200 A 
ATOM     93  F   UNL A   1      47.506  34.251  31.659  1.00  0.00    -0.200 F 
ATOM     94  F   UNL A   1      47.443  36.222  29.774  1.00  0.00    -0.200 F 
ENDBRANCH  61  84
ENDBRANCH  35  36
ENDBRANCH  27  30
ENDBRANCH  25  26
ENDBRANCH  24  25
ENDBRANCH  23  24
ENDBRANCH   3  23
TORSDOF 15
ENDMDL
