MODEL 1
REMARK VINA RESULT:     -11.5      0.000      0.000
REMARK SMILES CCC1(CC)CCN(C(=O)NC(=O)CCC(=O)NCCCNC(=O)c2ccc(-c3c4nc(c(-c5c(F)c(F)c(F)c(F)c5F)c5ccc([nH]5)c(-c5c(F)c(F)c(F)c(F)c5F)c5nc(c(-c6c(F)c(F)c(F)c(F)c6F)c6ccc3[nH]6)C=C5)C=C4)cc2)C1
REMARK SMILES IDX 19 1 18 2 16 3 17 4 15 6 14 7 12 8 9 9 10 10 11 11 13 13
REMARK SMILES IDX 8 14 3 15 6 16 88 17 7 18 2 19 1 20 4 21 5 22 20 23 21 24
REMARK SMILES IDX 22 25 23 26 24 28 25 29 26 30 87 31 27 32 86 33 28 34 29 35
REMARK SMILES IDX 30 36 80 37 31 38 85 39 79 40 81 41 32 42 84 43 78 44 77 45
REMARK SMILES IDX 33 47 65 48 45 49 64 50 46 51 49 52 63 53 82 54 47 55 48 56
REMARK SMILES IDX 62 58 83 59 50 60 34 61 35 62 43 63 36 64 37 65 41 66 44 67
REMARK SMILES IDX 38 68 39 69 42 70 40 71 66 72 67 73 75 74 68 75 69 76 73 77
REMARK SMILES IDX 76 78 70 79 71 80 74 81 72 82 51 83 52 84 60 85 53 86 54 87
REMARK SMILES IDX 58 88 61 89 55 90 56 91 59 92 57 93
REMARK H PARENT 18 5 11 12 22 27 81 46 49 57
REMARK Flexibility Score: inf
ROOT
ATOM      1  C   UNL A   1      31.724  27.930  26.380  1.00  0.00     0.117 C 
ENDROOT
BRANCH   1   2
ATOM      2  N   UNL A   1      31.034  26.695  26.727  1.00  0.00    -0.356 N 
ATOM      3  C   UNL A   1      30.166  25.936  26.007  1.00  0.00     0.220 C 
ATOM      4  O   UNL A   1      29.787  24.860  26.470  1.00  0.00    -0.275 OA
ATOM      5  H   UNL A   1      31.226  26.355  27.631  1.00  0.00     0.163 HD
BRANCH   3   6
ATOM      6  C   UNL A   1      29.675  26.415  24.666  1.00  0.00     0.110 C 
BRANCH   6   7
ATOM      7  C   UNL A   1      30.415  25.864  23.459  1.00  0.00     0.110 C 
BRANCH   7   8
ATOM      8  C   UNL A   1      30.992  26.854  22.480  1.00  0.00     0.228 C 
ATOM      9  C   UNL A   1      32.901  25.669  21.429  1.00  0.00     0.324 C 
ATOM     10  O   UNL A   1      33.043  25.663  20.204  1.00  0.00    -0.248 OA
ATOM     11  N   UNL A   1      32.281  26.744  22.014  1.00  0.00    -0.278 N 
ATOM     12  H   UNL A   1      32.838  27.551  22.113  1.00  0.00     0.174 HD
ATOM     13  O   UNL A   1      30.306  27.808  22.098  1.00  0.00    -0.275 OA
BRANCH   9  14
ATOM     14  N   UNL A   1      33.456  24.720  22.238  1.00  0.00    -0.324 N 
ATOM     15  C   UNL A   1      34.535  23.792  24.183  1.00  0.00    -0.011 C 
ATOM     16  C   UNL A   1      33.460  22.836  23.607  1.00  0.00     0.030 C 
ATOM     17  C   UNL A   1      34.224  25.106  23.419  1.00  0.00     0.128 C 
ATOM     18  C   UNL A   1      33.293  23.288  22.176  1.00  0.00     0.122 C 
BRANCH  15  19
ATOM     19  C   UNL A   1      35.958  23.249  23.854  1.00  0.00     0.005 C 
ATOM     20  C   UNL A   1      37.050  23.578  24.868  1.00  0.00     0.004 C 
ENDBRANCH  15  19
BRANCH  15  21
ATOM     21  C   UNL A   1      34.317  23.962  25.708  1.00  0.00     0.005 C 
ATOM     22  C   UNL A   1      32.981  23.429  26.225  1.00  0.00     0.004 C 
ENDBRANCH  15  21
ENDBRANCH   9  14
ENDBRANCH   7   8
ENDBRANCH   6   7
ENDBRANCH   3   6
ENDBRANCH   1   2
BRANCH   1  23
ATOM     23  C   UNL A   1      33.101  27.693  25.764  1.00  0.00     0.042 C 
BRANCH  23  24
ATOM     24  C   UNL A   1      33.758  28.945  25.199  1.00  0.00     0.118 C 
BRANCH  24  25
ATOM     25  N   UNL A   1      33.122  30.158  25.687  1.00  0.00    -0.352 N 
ATOM     26  C   UNL A   1      33.389  30.899  26.813  1.00  0.00     0.251 C 
ATOM     27  H   UNL A   1      32.387  30.499  25.127  1.00  0.00     0.163 HD
ATOM     28  O   UNL A   1      32.580  31.740  27.190  1.00  0.00    -0.269 OA
BRANCH  26  29
ATOM     29  C   UNL A   1      34.632  30.684  27.591  1.00  0.00     0.039 A 
ATOM     30  C   UNL A   1      34.758  29.512  28.343  1.00  0.00     0.014 A 
ATOM     31  C   UNL A   1      35.639  31.651  27.646  1.00  0.00     0.014 A 
ATOM     32  C   UNL A   1      35.909  29.288  29.106  1.00  0.00     0.010 A 
ATOM     33  C   UNL A   1      36.817  31.397  28.349  1.00  0.00     0.010 A 
ATOM     34  C   UNL A   1      36.962  30.217  29.094  1.00  0.00    -0.014 A 
BRANCH  34  35
ATOM     35  C   UNL A   1      38.214  29.975  29.858  1.00  0.00     0.031 A 
ATOM     36  C   UNL A   1      39.276  29.062  29.308  1.00  0.00     0.074 A 
ATOM     37  C   UNL A   1      38.373  30.530  31.075  1.00  0.00     0.049 A 
ATOM     38  N   UNL A   1      40.396  28.664  29.860  1.00  0.00    -0.248 NA
ATOM     39  C   UNL A   1      39.041  28.506  27.967  1.00  0.00     0.031 C 
ATOM     40  C   UNL A   1      37.408  31.407  31.734  1.00  0.00     0.029 A 
ATOM     41  N   UNL A   1      39.402  30.426  31.979  1.00  0.00    -0.354 N 
ATOM     42  C   UNL A   1      40.987  27.803  28.946  1.00  0.00     0.074 A 
ATOM     43  C   UNL A   1      40.084  27.701  27.819  1.00  0.00     0.031 C 
ATOM     44  C   UNL A   1      37.894  31.774  32.932  1.00  0.00     0.029 A 
ATOM     45  C   UNL A   1      39.184  31.125  33.141  1.00  0.00     0.049 A 
ATOM     46  H   UNL A   1      40.217  29.900  31.810  1.00  0.00     0.167 HD
ATOM     47  C   UNL A   1      42.181  27.170  29.028  1.00  0.00     0.037 A 
ATOM     48  C   UNL A   1      39.933  31.219  34.257  1.00  0.00     0.037 A 
ATOM     49  C   UNL A   1      43.093  27.292  30.136  1.00  0.00     0.049 A 
ATOM     50  C   UNL A   1      41.243  30.485  34.335  1.00  0.00     0.074 A 
ATOM     51  C   UNL A   1      44.357  26.746  30.277  1.00  0.00     0.029 A 
ATOM     52  N   UNL A   1      42.834  28.007  31.297  1.00  0.00    -0.354 N 
ATOM     53  N   UNL A   1      41.819  29.724  33.437  1.00  0.00    -0.248 NA
ATOM     54  C   UNL A   1      42.006  30.621  35.584  1.00  0.00     0.031 C 
ATOM     55  C   UNL A   1      44.844  27.091  31.542  1.00  0.00     0.029 A 
ATOM     56  C   UNL A   1      43.902  27.890  32.171  1.00  0.00     0.049 A 
ATOM     57  H   UNL A   1      42.013  28.521  31.473  1.00  0.00     0.167 HD
ATOM     58  C   UNL A   1      43.018  29.308  34.001  1.00  0.00     0.074 A 
ATOM     59  C   UNL A   1      43.095  29.912  35.314  1.00  0.00     0.031 C 
ATOM     60  C   UNL A   1      43.968  28.496  33.476  1.00  0.00     0.037 A 
BRANCH  47  61
ATOM     61  C   UNL A   1      42.579  26.282  27.885  1.00  0.00     0.064 A 
ATOM     62  C   UNL A   1      42.073  24.979  27.756  1.00  0.00     0.173 A 
ATOM     63  C   UNL A   1      43.440  26.753  26.884  1.00  0.00     0.173 A 
ATOM     64  F   UNL A   1      41.252  24.479  28.691  1.00  0.00    -0.203 F 
ATOM     65  C   UNL A   1      42.435  24.174  26.679  1.00  0.00     0.198 A 
ATOM     66  C   UNL A   1      43.778  25.955  25.794  1.00  0.00     0.198 A 
ATOM     67  F   UNL A   1      43.946  27.994  26.954  1.00  0.00    -0.203 F 
ATOM     68  F   UNL A   1      41.971  22.919  26.599  1.00  0.00    -0.200 F 
ATOM     69  C   UNL A   1      43.281  24.664  25.696  1.00  0.00     0.200 A 
ATOM     70  F   UNL A   1      44.584  26.435  24.837  1.00  0.00    -0.200 F 
ATOM     71  F   UNL A   1      43.621  23.891  24.656  1.00  0.00    -0.200 F 
ENDBRANCH  47  61
BRANCH  48  72
ATOM     72  C   UNL A   1      39.460  32.051  35.393  1.00  0.00     0.064 A 
ATOM     73  C   UNL A   1      38.606  31.516  36.367  1.00  0.00     0.173 A 
ATOM     74  C   UNL A   1      39.850  33.391  35.530  1.00  0.00     0.173 A 
ATOM     75  F   UNL A   1      38.185  30.248  36.265  1.00  0.00    -0.203 F 
ATOM     76  C   UNL A   1      38.150  32.296  37.429  1.00  0.00     0.198 A 
ATOM     77  C   UNL A   1      39.415  34.160  36.607  1.00  0.00     0.198 A 
ATOM     78  F   UNL A   1      40.667  33.949  34.624  1.00  0.00    -0.203 F 
ATOM     79  F   UNL A   1      37.301  31.772  38.324  1.00  0.00    -0.200 F 
ATOM     80  C   UNL A   1      38.559  33.614  37.551  1.00  0.00     0.200 A 
ATOM     81  F   UNL A   1      39.822  35.431  36.726  1.00  0.00    -0.200 F 
ATOM     82  F   UNL A   1      38.124  34.361  38.575  1.00  0.00    -0.200 F 
ENDBRANCH  48  72
BRANCH  60  83
ATOM     83  C   UNL A   1      45.182  28.225  34.313  1.00  0.00     0.064 A 
ATOM     84  C   UNL A   1      45.252  27.111  35.163  1.00  0.00     0.173 A 
ATOM     85  C   UNL A   1      46.307  29.059  34.227  1.00  0.00     0.173 A 
ATOM     86  F   UNL A   1      44.197  26.294  35.292  1.00  0.00    -0.203 F 
ATOM     87  C   UNL A   1      46.399  26.851  35.908  1.00  0.00     0.198 A 
ATOM     88  C   UNL A   1      47.462  28.781  34.954  1.00  0.00     0.198 A 
ATOM     89  F   UNL A   1      46.292  30.135  33.426  1.00  0.00    -0.203 F 
ATOM     90  F   UNL A   1      46.430  25.803  36.743  1.00  0.00    -0.200 F 
ATOM     91  C   UNL A   1      47.505  27.681  35.797  1.00  0.00     0.200 A 
ATOM     92  F   UNL A   1      48.533  29.578  34.837  1.00  0.00    -0.200 F 
ATOM     93  F   UNL A   1      48.612  27.424  36.508  1.00  0.00    -0.200 F 
ENDBRANCH  60  83
ENDBRANCH  34  35
ENDBRANCH  26  29
ENDBRANCH  24  25
ENDBRANCH  23  24
ENDBRANCH   1  23
TORSDOF 15
ENDMDL
MODEL 2
REMARK VINA RESULT:     -11.4      4.566      9.349
REMARK SMILES CCC1(CC)CCN(C(=O)NC(=O)CCC(=O)NCCCNC(=O)c2ccc(-c3c4nc(c(-c5c(F)c(F)c(F)c(F)c5F)c5ccc([nH]5)c(-c5c(F)c(F)c(F)c(F)c5F)c5nc(c(-c6c(F)c(F)c(F)c(F)c6F)c6ccc3[nH]6)C=C5)C=C4)cc2)C1
REMARK SMILES IDX 19 1 18 2 16 3 17 4 15 6 14 7 12 8 9 9 10 10 11 11 13 13
REMARK SMILES IDX 8 14 3 15 6 16 88 17 7 18 2 19 1 20 4 21 5 22 20 23 21 24
REMARK SMILES IDX 22 25 23 26 24 28 25 29 26 30 87 31 27 32 86 33 28 34 29 35
REMARK SMILES IDX 30 36 80 37 31 38 85 39 79 40 81 41 32 42 84 43 78 44 77 45
REMARK SMILES IDX 33 47 65 48 45 49 64 50 46 51 49 52 63 53 82 54 47 55 48 56
REMARK SMILES IDX 62 58 83 59 50 60 34 61 35 62 43 63 36 64 37 65 41 66 44 67
REMARK SMILES IDX 38 68 39 69 42 70 40 71 66 72 67 73 75 74 68 75 69 76 73 77
REMARK SMILES IDX 76 78 70 79 71 80 74 81 72 82 51 83 52 84 60 85 53 86 54 87
REMARK SMILES IDX 58 88 61 89 55 90 56 91 59 92 57 93
REMARK H PARENT 18 5 11 12 22 27 81 46 49 57
REMARK Flexibility Score: inf
ROOT
ATOM      1  C   UNL A   1      37.422  20.825  24.728  1.00  0.00     0.117 C 
ENDROOT
BRANCH   1   2
ATOM      2  N   UNL A   1      37.955  22.108  25.166  1.00  0.00    -0.356 N 
ATOM      3  C   UNL A   1      37.327  23.192  25.694  1.00  0.00     0.220 C 
ATOM      4  O   UNL A   1      38.004  24.137  26.097  1.00  0.00    -0.275 OA
ATOM      5  H   UNL A   1      38.929  22.208  25.061  1.00  0.00     0.163 HD
BRANCH   3   6
ATOM      6  C   UNL A   1      35.824  23.229  25.776  1.00  0.00     0.110 C 
BRANCH   6   7
ATOM      7  C   UNL A   1      35.141  24.251  24.882  1.00  0.00     0.110 C 
BRANCH   7   8
ATOM      8  C   UNL A   1      34.911  23.878  23.440  1.00  0.00     0.228 C 
ATOM      9  C   UNL A   1      33.374  25.619  22.570  1.00  0.00     0.324 C 
ATOM     10  O   UNL A   1      33.606  26.188  21.501  1.00  0.00    -0.248 OA
ATOM     11  N   UNL A   1      33.819  24.332  22.739  1.00  0.00    -0.278 N 
ATOM     12  H   UNL A   1      33.280  23.637  22.296  1.00  0.00     0.174 HD
ATOM     13  O   UNL A   1      35.706  23.122  22.869  1.00  0.00    -0.275 OA
BRANCH   9  14
ATOM     14  N   UNL A   1      32.576  26.162  23.534  1.00  0.00    -0.324 N 
ATOM     15  C   UNL A   1      31.604  27.865  24.936  1.00  0.00    -0.011 C 
ATOM     16  C   UNL A   1      30.560  26.803  24.509  1.00  0.00     0.030 C 
ATOM     17  C   UNL A   1      32.790  27.534  23.992  1.00  0.00     0.128 C 
ATOM     18  C   UNL A   1      31.392  25.599  24.134  1.00  0.00     0.122 C 
BRANCH  15  19
ATOM     19  C   UNL A   1      31.980  27.667  26.435  1.00  0.00     0.005 C 
ATOM     20  C   UNL A   1      31.832  28.895  27.329  1.00  0.00     0.004 C 
ENDBRANCH  15  19
BRANCH  15  21
ATOM     21  C   UNL A   1      31.045  29.285  24.660  1.00  0.00     0.005 C 
ATOM     22  C   UNL A   1      30.180  29.396  23.405  1.00  0.00     0.004 C 
ENDBRANCH  15  21
ENDBRANCH   9  14
ENDBRANCH   7   8
ENDBRANCH   6   7
ENDBRANCH   3   6
ENDBRANCH   1   2
BRANCH   1  23
ATOM     23  C   UNL A   1      38.412  19.676  24.901  1.00  0.00     0.042 C 
BRANCH  23  24
ATOM     24  C   UNL A   1      39.352  19.831  26.088  1.00  0.00     0.118 C 
BRANCH  24  25
ATOM     25  N   UNL A   1      40.569  19.053  25.921  1.00  0.00    -0.352 N 
ATOM     26  C   UNL A   1      41.880  19.462  25.916  1.00  0.00     0.251 C 
ATOM     27  H   UNL A   1      40.432  18.086  25.791  1.00  0.00     0.163 HD
ATOM     28  O   UNL A   1      42.750  18.701  25.506  1.00  0.00    -0.269 OA
BRANCH  26  29
ATOM     29  C   UNL A   1      42.259  20.817  26.382  1.00  0.00     0.039 A 
ATOM     30  C   UNL A   1      42.318  21.061  27.758  1.00  0.00     0.014 A 
ATOM     31  C   UNL A   1      42.483  21.865  25.484  1.00  0.00     0.014 A 
ATOM     32  C   UNL A   1      42.651  22.335  28.230  1.00  0.00     0.010 A 
ATOM     33  C   UNL A   1      42.885  23.116  25.955  1.00  0.00     0.010 A 
ATOM     34  C   UNL A   1      42.965  23.367  27.332  1.00  0.00    -0.014 A 
BRANCH  34  35
ATOM     35  C   UNL A   1      43.370  24.714  27.814  1.00  0.00     0.031 A 
ATOM     36  C   UNL A   1      42.330  25.751  28.139  1.00  0.00     0.074 A 
ATOM     37  C   UNL A   1      44.677  25.026  27.905  1.00  0.00     0.049 A 
ATOM     38  N   UNL A   1      42.488  27.002  28.493  1.00  0.00    -0.248 NA
ATOM     39  C   UNL A   1      40.924  25.333  28.032  1.00  0.00     0.031 C 
ATOM     40  C   UNL A   1      45.784  24.124  27.591  1.00  0.00     0.029 A 
ATOM     41  N   UNL A   1      45.295  26.195  28.277  1.00  0.00    -0.354 N 
ATOM     42  C   UNL A   1      41.209  27.522  28.636  1.00  0.00     0.074 A 
ATOM     43  C   UNL A   1      40.283  26.465  28.289  1.00  0.00     0.031 C 
ATOM     44  C   UNL A   1      46.946  24.766  27.794  1.00  0.00     0.029 A 
ATOM     45  C   UNL A   1      46.666  26.136  28.213  1.00  0.00     0.049 A 
ATOM     46  H   UNL A   1      44.803  26.999  28.560  1.00  0.00     0.167 HD
ATOM     47  C   UNL A   1      40.839  28.761  29.037  1.00  0.00     0.037 A 
ATOM     48  C   UNL A   1      47.593  27.084  28.451  1.00  0.00     0.037 A 
ATOM     49  C   UNL A   1      41.757  29.807  29.408  1.00  0.00     0.049 A 
ATOM     50  C   UNL A   1      47.156  28.461  28.869  1.00  0.00     0.074 A 
ATOM     51  C   UNL A   1      41.475  31.071  29.896  1.00  0.00     0.029 A 
ATOM     52  N   UNL A   1      43.139  29.708  29.327  1.00  0.00    -0.354 N 
ATOM     53  N   UNL A   1      45.944  28.921  29.060  1.00  0.00    -0.248 NA
ATOM     54  C   UNL A   1      48.217  29.452  29.101  1.00  0.00     0.031 C 
ATOM     55  C   UNL A   1      42.684  31.755  30.066  1.00  0.00     0.029 A 
ATOM     56  C   UNL A   1      43.721  30.900  29.727  1.00  0.00     0.049 A 
ATOM     57  H   UNL A   1      43.633  28.910  29.030  1.00  0.00     0.167 HD
ATOM     58  C   UNL A   1      46.095  30.243  29.454  1.00  0.00     0.074 A 
ATOM     59  C   UNL A   1      47.517  30.510  29.489  1.00  0.00     0.031 C 
ATOM     60  C   UNL A   1      45.138  31.154  29.758  1.00  0.00     0.037 A 
BRANCH  47  61
ATOM     61  C   UNL A   1      39.369  29.064  29.097  1.00  0.00     0.064 A 
ATOM     62  C   UNL A   1      38.658  29.015  30.306  1.00  0.00     0.173 A 
ATOM     63  C   UNL A   1      38.674  29.454  27.942  1.00  0.00     0.173 A 
ATOM     64  F   UNL A   1      39.275  28.641  31.437  1.00  0.00    -0.203 F 
ATOM     65  C   UNL A   1      37.300  29.319  30.350  1.00  0.00     0.198 A 
ATOM     66  C   UNL A   1      37.323  29.785  27.996  1.00  0.00     0.198 A 
ATOM     67  F   UNL A   1      39.310  29.526  26.762  1.00  0.00    -0.203 F 
ATOM     68  F   UNL A   1      36.632  29.225  31.508  1.00  0.00    -0.200 F 
ATOM     69  C   UNL A   1      36.635  29.710  29.198  1.00  0.00     0.200 A 
ATOM     70  F   UNL A   1      36.686  30.176  26.884  1.00  0.00    -0.200 F 
ATOM     71  F   UNL A   1      35.330  30.011  29.244  1.00  0.00    -0.200 F 
ENDBRANCH  47  61
BRANCH  48  72
ATOM     72  C   UNL A   1      49.035  26.758  28.303  1.00  0.00     0.064 A 
ATOM     73  C   UNL A   1      49.794  26.342  29.405  1.00  0.00     0.173 A 
ATOM     74  C   UNL A   1      49.682  26.853  27.062  1.00  0.00     0.173 A 
ATOM     75  F   UNL A   1      49.226  26.261  30.616  1.00  0.00    -0.203 F 
ATOM     76  C   UNL A   1      51.150  26.046  29.273  1.00  0.00     0.198 A 
ATOM     77  C   UNL A   1      51.031  26.532  26.927  1.00  0.00     0.198 A 
ATOM     78  F   UNL A   1      48.999  27.246  25.976  1.00  0.00    -0.203 F 
ATOM     79  F   UNL A   1      51.863  25.692  30.351  1.00  0.00    -0.200 F 
ATOM     80  C   UNL A   1      51.765  26.136  28.035  1.00  0.00     0.200 A 
ATOM     81  F   UNL A   1      51.618  26.609  25.726  1.00  0.00    -0.200 F 
ATOM     82  F   UNL A   1      53.067  25.847  27.908  1.00  0.00    -0.200 F 
ENDBRANCH  48  72
BRANCH  60  83
ATOM     83  C   UNL A   1      45.596  32.521  30.172  1.00  0.00     0.064 A 
ATOM     84  C   UNL A   1      45.887  32.821  31.511  1.00  0.00     0.173 A 
ATOM     85  C   UNL A   1      45.794  33.527  29.213  1.00  0.00     0.173 A 
ATOM     86  F   UNL A   1      45.697  31.900  32.466  1.00  0.00    -0.203 F 
ATOM     87  C   UNL A   1      46.345  34.085  31.876  1.00  0.00     0.198 A 
ATOM     88  C   UNL A   1      46.277  34.780  29.580  1.00  0.00     0.198 A 
ATOM     89  F   UNL A   1      45.534  33.288  27.919  1.00  0.00    -0.203 F 
ATOM     90  F   UNL A   1      46.580  34.362  33.167  1.00  0.00    -0.200 F 
ATOM     91  C   UNL A   1      46.548  35.060  30.911  1.00  0.00     0.200 A 
ATOM     92  F   UNL A   1      46.484  35.717  28.644  1.00  0.00    -0.200 F 
ATOM     93  F   UNL A   1      46.998  36.271  31.264  1.00  0.00    -0.200 F 
ENDBRANCH  60  83
ENDBRANCH  34  35
ENDBRANCH  26  29
ENDBRANCH  24  25
ENDBRANCH  23  24
ENDBRANCH   1  23
TORSDOF 15
ENDMDL
MODEL 3
REMARK VINA RESULT:     -11.4      4.819     10.046
REMARK SMILES CCC1(CC)CCN(C(=O)NC(=O)CCC(=O)NCCCNC(=O)c2ccc(-c3c4nc(c(-c5c(F)c(F)c(F)c(F)c5F)c5ccc([nH]5)c(-c5c(F)c(F)c(F)c(F)c5F)c5nc(c(-c6c(F)c(F)c(F)c(F)c6F)c6ccc3[nH]6)C=C5)C=C4)cc2)C1
REMARK SMILES IDX 19 1 18 2 16 3 17 4 15 6 14 7 12 8 9 9 10 10 11 11 13 13
REMARK SMILES IDX 8 14 3 15 6 16 88 17 7 18 2 19 1 20 4 21 5 22 20 23 21 24
REMARK SMILES IDX 22 25 23 26 24 28 25 29 26 30 87 31 27 32 86 33 28 34 29 35
REMARK SMILES IDX 30 36 80 37 31 38 85 39 79 40 81 41 32 42 84 43 78 44 77 45
REMARK SMILES IDX 33 47 65 48 45 49 64 50 46 51 49 52 63 53 82 54 47 55 48 56
REMARK SMILES IDX 62 58 83 59 50 60 34 61 35 62 43 63 36 64 37 65 41 66 44 67
REMARK SMILES IDX 38 68 39 69 42 70 40 71 66 72 67 73 75 74 68 75 69 76 73 77
REMARK SMILES IDX 76 78 70 79 71 80 74 81 72 82 51 83 52 84 60 85 53 86 54 87
REMARK SMILES IDX 58 88 61 89 55 90 56 91 59 92 57 93
REMARK H PARENT 18 5 11 12 22 27 81 46 49 57
REMARK Flexibility Score: inf
ROOT
ATOM      1  C   UNL A   1      37.510  20.700  24.663  1.00  0.00     0.117 C 
ENDROOT
BRANCH   1   2
ATOM      2  N   UNL A   1      38.087  21.964  25.097  1.00  0.00    -0.356 N 
ATOM      3  C   UNL A   1      37.503  23.054  25.662  1.00  0.00     0.220 C 
ATOM      4  O   UNL A   1      38.215  23.979  26.051  1.00  0.00    -0.275 OA
ATOM      5  H   UNL A   1      39.059  22.044  24.957  1.00  0.00     0.163 HD
BRANCH   3   6
ATOM      6  C   UNL A   1      36.005  23.123  25.800  1.00  0.00     0.110 C 
BRANCH   6   7
ATOM      7  C   UNL A   1      35.308  24.141  24.913  1.00  0.00     0.110 C 
BRANCH   7   8
ATOM      8  C   UNL A   1      34.992  23.734  23.496  1.00  0.00     0.228 C 
ATOM      9  C   UNL A   1      33.445  25.485  22.663  1.00  0.00     0.324 C 
ATOM     10  O   UNL A   1      33.629  26.020  21.568  1.00  0.00    -0.248 OA
ATOM     11  N   UNL A   1      33.873  24.194  22.843  1.00  0.00    -0.278 N 
ATOM     12  H   UNL A   1      33.297  23.498  22.448  1.00  0.00     0.174 HD
ATOM     13  O   UNL A   1      35.740  22.948  22.904  1.00  0.00    -0.275 OA
BRANCH   9  14
ATOM     14  N   UNL A   1      32.711  26.070  23.653  1.00  0.00    -0.324 N 
ATOM     15  C   UNL A   1      31.889  27.819  25.093  1.00  0.00    -0.011 C 
ATOM     16  C   UNL A   1      30.769  26.828  24.693  1.00  0.00     0.030 C 
ATOM     17  C   UNL A   1      33.024  27.422  24.112  1.00  0.00     0.128 C 
ATOM     18  C   UNL A   1      31.512  25.577  24.286  1.00  0.00     0.122 C 
BRANCH  15  19
ATOM     19  C   UNL A   1      32.297  27.588  26.579  1.00  0.00     0.005 C 
ATOM     20  C   UNL A   1      31.395  28.232  27.628  1.00  0.00     0.004 C 
ENDBRANCH  15  19
BRANCH  15  21
ATOM     21  C   UNL A   1      31.413  29.273  24.842  1.00  0.00     0.005 C 
ATOM     22  C   UNL A   1      30.396  29.424  23.710  1.00  0.00     0.004 C 
ENDBRANCH  15  21
ENDBRANCH   9  14
ENDBRANCH   7   8
ENDBRANCH   6   7
ENDBRANCH   3   6
ENDBRANCH   1   2
BRANCH   1  23
ATOM     23  C   UNL A   1      38.397  19.497  24.979  1.00  0.00     0.042 C 
BRANCH  23  24
ATOM     24  C   UNL A   1      39.295  19.684  26.194  1.00  0.00     0.118 C 
BRANCH  24  25
ATOM     25  N   UNL A   1      40.480  18.845  26.125  1.00  0.00    -0.352 N 
ATOM     26  C   UNL A   1      41.805  19.200  26.055  1.00  0.00     0.251 C 
ATOM     27  H   UNL A   1      40.306  17.875  26.128  1.00  0.00     0.163 HD
ATOM     28  O   UNL A   1      42.642  18.358  25.744  1.00  0.00    -0.269 OA
BRANCH  26  29
ATOM     29  C   UNL A   1      42.239  20.590  26.329  1.00  0.00     0.039 A 
ATOM     30  C   UNL A   1      42.481  20.968  27.653  1.00  0.00     0.014 A 
ATOM     31  C   UNL A   1      42.338  21.542  25.310  1.00  0.00     0.014 A 
ATOM     32  C   UNL A   1      42.871  22.278  27.948  1.00  0.00     0.010 A 
ATOM     33  C   UNL A   1      42.795  22.829  25.596  1.00  0.00     0.010 A 
ATOM     34  C   UNL A   1      43.059  23.214  26.919  1.00  0.00    -0.014 A 
BRANCH  34  35
ATOM     35  C   UNL A   1      43.521  24.597  27.207  1.00  0.00     0.031 A 
ATOM     36  C   UNL A   1      42.561  25.625  27.743  1.00  0.00     0.074 A 
ATOM     37  C   UNL A   1      44.791  24.949  26.931  1.00  0.00     0.049 A 
ATOM     38  N   UNL A   1      42.756  26.899  27.978  1.00  0.00    -0.248 NA
ATOM     39  C   UNL A   1      41.195  25.164  28.035  1.00  0.00     0.031 C 
ATOM     40  C   UNL A   1      45.812  24.059  26.380  1.00  0.00     0.029 A 
ATOM     41  N   UNL A   1      45.437  26.154  27.065  1.00  0.00    -0.354 N 
ATOM     42  C   UNL A   1      41.539  27.392  28.429  1.00  0.00     0.074 A 
ATOM     43  C   UNL A   1      40.599  26.292  28.395  1.00  0.00     0.031 C 
ATOM     44  C   UNL A   1      46.959  24.742  26.234  1.00  0.00     0.029 A 
ATOM     45  C   UNL A   1      46.743  26.127  26.642  1.00  0.00     0.049 A 
ATOM     46  H   UNL A   1      45.004  26.961  27.427  1.00  0.00     0.167 HD
ATOM     47  C   UNL A   1      41.236  28.643  28.850  1.00  0.00     0.037 A 
ATOM     48  C   UNL A   1      47.660  27.111  26.576  1.00  0.00     0.037 A 
ATOM     49  C   UNL A   1      42.177  29.732  28.910  1.00  0.00     0.049 A 
ATOM     50  C   UNL A   1      47.293  28.499  27.025  1.00  0.00     0.074 A 
ATOM     51  C   UNL A   1      41.981  31.016  29.391  1.00  0.00     0.029 A 
ATOM     52  N   UNL A   1      43.491  29.666  28.470  1.00  0.00    -0.354 N 
ATOM     53  N   UNL A   1      46.156  28.938  27.508  1.00  0.00    -0.248 NA
ATOM     54  C   UNL A   1      48.335  29.530  26.916  1.00  0.00     0.031 C 
ATOM     55  C   UNL A   1      43.162  31.740  29.198  1.00  0.00     0.029 A 
ATOM     56  C   UNL A   1      44.108  30.895  28.640  1.00  0.00     0.049 A 
ATOM     57  H   UNL A   1      43.921  28.865  28.094  1.00  0.00     0.167 HD
ATOM     58  C   UNL A   1      46.351  30.285  27.780  1.00  0.00     0.074 A 
ATOM     59  C   UNL A   1      47.720  30.591  27.421  1.00  0.00     0.031 C 
ATOM     60  C   UNL A   1      45.471  31.187  28.280  1.00  0.00     0.037 A 
BRANCH  47  61
ATOM     61  C   UNL A   1      39.824  28.910  29.283  1.00  0.00     0.064 A 
ATOM     62  C   UNL A   1      38.839  29.313  28.369  1.00  0.00     0.173 A 
ATOM     63  C   UNL A   1      39.440  28.717  30.619  1.00  0.00     0.173 A 
ATOM     64  F   UNL A   1      39.156  29.519  27.082  1.00  0.00    -0.203 F 
ATOM     65  C   UNL A   1      37.528  29.537  28.782  1.00  0.00     0.198 A 
ATOM     66  C   UNL A   1      38.123  28.914  31.022  1.00  0.00     0.198 A 
ATOM     67  F   UNL A   1      40.342  28.324  31.532  1.00  0.00    -0.203 F 
ATOM     68  F   UNL A   1      36.613  29.961  27.899  1.00  0.00    -0.200 F 
ATOM     69  C   UNL A   1      37.169  29.332  30.106  1.00  0.00     0.200 A 
ATOM     70  F   UNL A   1      37.775  28.701  32.299  1.00  0.00    -0.200 F 
ATOM     71  F   UNL A   1      35.905  29.539  30.499  1.00  0.00    -0.200 F 
ENDBRANCH  47  61
BRANCH  48  72
ATOM     72  C   UNL A   1      49.024  26.815  26.067  1.00  0.00     0.064 A 
ATOM     73  C   UNL A   1      50.025  26.343  26.927  1.00  0.00     0.173 A 
ATOM     74  C   UNL A   1      49.355  26.996  24.716  1.00  0.00     0.173 A 
ATOM     75  F   UNL A   1      49.763  26.179  28.232  1.00  0.00    -0.203 F 
ATOM     76  C   UNL A   1      51.309  26.075  26.457  1.00  0.00     0.198 A 
ATOM     77  C   UNL A   1      50.632  26.702  24.243  1.00  0.00     0.198 A 
ATOM     78  F   UNL A   1      48.432  27.446  23.853  1.00  0.00    -0.203 F 
ATOM     79  F   UNL A   1      52.259  25.664  27.308  1.00  0.00    -0.200 F 
ATOM     80  C   UNL A   1      51.610  26.249  25.115  1.00  0.00     0.200 A 
ATOM     81  F   UNL A   1      50.914  26.861  22.943  1.00  0.00    -0.200 F 
ATOM     82  F   UNL A   1      52.843  25.987  24.663  1.00  0.00    -0.200 F 
ENDBRANCH  48  72
BRANCH  60  83
ATOM     83  C   UNL A   1      45.965  32.588  28.487  1.00  0.00     0.064 A 
ATOM     84  C   UNL A   1      45.820  33.570  27.495  1.00  0.00     0.173 A 
ATOM     85  C   UNL A   1      46.542  32.967  29.709  1.00  0.00     0.173 A 
ATOM     86  F   UNL A   1      45.290  33.253  26.304  1.00  0.00    -0.203 F 
ATOM     87  C   UNL A   1      46.251  34.876  27.714  1.00  0.00     0.198 A 
ATOM     88  C   UNL A   1      46.947  34.280  29.933  1.00  0.00     0.198 A 
ATOM     89  F   UNL A   1      46.698  32.066  30.691  1.00  0.00    -0.203 F 
ATOM     90  F   UNL A   1      46.138  35.789  26.739  1.00  0.00    -0.200 F 
ATOM     91  C   UNL A   1      46.805  35.232  28.935  1.00  0.00     0.200 A 
ATOM     92  F   UNL A   1      47.472  34.625  31.117  1.00  0.00    -0.200 F 
ATOM     93  F   UNL A   1      47.210  36.492  29.146  1.00  0.00    -0.200 F 
ENDBRANCH  60  83
ENDBRANCH  34  35
ENDBRANCH  26  29
ENDBRANCH  24  25
ENDBRANCH  23  24
ENDBRANCH   1  23
TORSDOF 15
ENDMDL
