MODEL 1
REMARK VINA RESULT:     -13.0      0.000      0.000
REMARK SMILES CS(=O)(=O)c1ccc(/C=C(/C(=O)NCCCNC(=O)c2ccc(-c3c4nc(c(-c5c(F)c(F)c(F)c(F)c5F)c5ccc([nH]5)c(-c5c(F)c(F)c(F)c(F)c5F)c5nc(c(-c6c(F)c(F)c(F)c(F)c6F)c6ccc3[nH]6)C=C5)C=C4)cc2)c2ccccc2)cc1
REMARK SMILES IDX 15 1 14 2 13 3 11 4 12 5 10 7 9 8 8 9 5 10 6 11 90 12 7 13
REMARK SMILES IDX 89 14 2 15 1 16 3 17 4 18 83 19 84 20 88 21 85 22 87 23
REMARK SMILES IDX 86 24 16 25 17 26 18 27 19 29 20 30 21 31 82 32 22 33 81 34
REMARK SMILES IDX 23 35 24 36 25 37 75 38 26 39 80 40 74 41 76 42 27 43 79 44
REMARK SMILES IDX 73 45 72 46 28 48 60 49 40 50 59 51 41 52 44 53 58 54 77 55
REMARK SMILES IDX 42 56 43 57 57 59 78 60 45 61 29 62 30 63 38 64 31 65 32 66
REMARK SMILES IDX 36 67 39 68 33 69 34 70 37 71 35 72 61 73 62 74 70 75 63 76
REMARK SMILES IDX 64 77 68 78 71 79 65 80 66 81 69 82 67 83 46 84 47 85 55 86
REMARK SMILES IDX 48 87 49 88 53 89 56 90 50 91 51 92 54 93 52 94
REMARK H PARENT 13 6 17 28 76 47 44 58
REMARK Flexibility Score: inf
ROOT
ATOM      1  C   UNL A   1      35.579  23.615  25.941  1.00  0.00     0.042 C 
ENDROOT
BRANCH   1   2
ATOM      2  C   UNL A   1      34.233  23.684  25.216  1.00  0.00     0.118 C 
BRANCH   2   3
ATOM      3  N   UNL A   1      33.146  23.444  26.144  1.00  0.00    -0.352 N 
ATOM      4  C   UNL A   1      32.051  24.152  26.524  1.00  0.00     0.251 C 
ATOM      5  O   UNL A   1      31.363  23.638  27.411  1.00  0.00    -0.269 OA
ATOM      6  H   UNL A   1      33.217  22.575  26.601  1.00  0.00     0.163 HD
BRANCH   4   7
ATOM      7  C   UNL A   1      31.621  25.446  25.870  1.00  0.00     0.047 C 
ATOM      8  C   UNL A   1      30.879  25.464  24.739  1.00  0.00     0.022 C 
BRANCH   8   9
ATOM      9  C   UNL A   1      30.247  26.599  24.027  1.00  0.00    -0.025 A 
ATOM     10  C   UNL A   1      28.895  28.781  22.889  1.00  0.00     0.067 A 
ATOM     11  C   UNL A   1      30.287  28.730  22.850  1.00  0.00     0.021 A 
ATOM     12  C   UNL A   1      28.163  27.742  23.460  1.00  0.00     0.021 A 
ATOM     13  C   UNL A   1      30.952  27.621  23.380  1.00  0.00     0.009 A 
ATOM     14  C   UNL A   1      28.841  26.659  24.026  1.00  0.00     0.009 A 
BRANCH  10  15
ATOM     15  S   UNL A   1      28.067  30.204  22.226  1.00  0.00     0.175 S 
ATOM     16  C   UNL A   1      29.214  31.518  22.549  1.00  0.00     0.163 C 
ATOM     17  O   UNL A   1      26.880  30.423  23.024  1.00  0.00    -0.224 OA
ATOM     18  O   UNL A   1      27.980  30.034  20.786  1.00  0.00    -0.224 OA
ENDBRANCH  10  15
ENDBRANCH   8   9
BRANCH   7  19
ATOM     19  C   UNL A   1      32.201  26.697  26.424  1.00  0.00    -0.013 A 
ATOM     20  C   UNL A   1      33.524  27.027  26.079  1.00  0.00     0.009 A 
ATOM     21  C   UNL A   1      31.455  27.604  27.186  1.00  0.00     0.009 A 
ATOM     22  C   UNL A   1      34.076  28.251  26.449  1.00  0.00     0.001 A 
ATOM     23  C   UNL A   1      32.005  28.841  27.538  1.00  0.00     0.001 A 
ATOM     24  C   UNL A   1      33.309  29.167  27.163  1.00  0.00     0.000 A 
ENDBRANCH   7  19
ENDBRANCH   4   7
ENDBRANCH   2   3
ENDBRANCH   1   2
BRANCH   1  25
ATOM     25  C   UNL A   1      36.778  23.564  24.994  1.00  0.00     0.118 C 
BRANCH  25  26
ATOM     26  N   UNL A   1      37.777  22.603  25.436  1.00  0.00    -0.352 N 
ATOM     27  C   UNL A   1      38.975  22.791  26.071  1.00  0.00     0.251 C 
ATOM     28  H   UNL A   1      37.554  21.662  25.249  1.00  0.00     0.163 HD
ATOM     29  O   UNL A   1      39.779  21.863  26.114  1.00  0.00    -0.269 OA
BRANCH  27  30
ATOM     30  C   UNL A   1      39.315  24.081  26.709  1.00  0.00     0.039 A 
ATOM     31  C   UNL A   1      40.049  25.014  25.968  1.00  0.00     0.014 A 
ATOM     32  C   UNL A   1      39.008  24.347  28.047  1.00  0.00     0.014 A 
ATOM     33  C   UNL A   1      40.456  26.211  26.561  1.00  0.00     0.010 A 
ATOM     34  C   UNL A   1      39.343  25.576  28.612  1.00  0.00     0.010 A 
ATOM     35  C   UNL A   1      40.095  26.510  27.885  1.00  0.00    -0.014 A 
BRANCH  35  36
ATOM     36  C   UNL A   1      40.537  27.780  28.517  1.00  0.00     0.031 A 
ATOM     37  C   UNL A   1      41.978  27.974  28.912  1.00  0.00     0.074 A 
ATOM     38  C   UNL A   1      39.635  28.754  28.750  1.00  0.00     0.049 A 
ATOM     39  N   UNL A   1      42.552  29.014  29.464  1.00  0.00    -0.248 NA
ATOM     40  C   UNL A   1      42.893  26.843  28.682  1.00  0.00     0.031 C 
ATOM     41  C   UNL A   1      38.202  28.663  28.468  1.00  0.00     0.029 A 
ATOM     42  N   UNL A   1      39.789  30.012  29.279  1.00  0.00    -0.354 N 
ATOM     43  C   UNL A   1      43.880  28.656  29.662  1.00  0.00     0.074 A 
ATOM     44  C   UNL A   1      44.021  27.288  29.218  1.00  0.00     0.031 C 
ATOM     45  C   UNL A   1      37.612  29.822  28.802  1.00  0.00     0.029 A 
ATOM     46  C   UNL A   1      38.617  30.725  29.352  1.00  0.00     0.049 A 
ATOM     47  H   UNL A   1      40.656  30.368  29.578  1.00  0.00     0.167 HD
ATOM     48  C   UNL A   1      44.895  29.410  30.146  1.00  0.00     0.037 A 
ATOM     49  C   UNL A   1      38.381  31.968  29.816  1.00  0.00     0.037 A 
ATOM     50  C   UNL A   1      44.760  30.786  30.547  1.00  0.00     0.049 A 
ATOM     51  C   UNL A   1      39.537  32.789  30.323  1.00  0.00     0.074 A 
ATOM     52  C   UNL A   1      45.746  31.662  30.967  1.00  0.00     0.029 A 
ATOM     53  N   UNL A   1      43.563  31.484  30.582  1.00  0.00    -0.354 N 
ATOM     54  N   UNL A   1      40.806  32.472  30.409  1.00  0.00    -0.248 NA
ATOM     55  C   UNL A   1      39.229  34.150  30.783  1.00  0.00     0.031 C 
ATOM     56  C   UNL A   1      45.136  32.871  31.316  1.00  0.00     0.029 A 
ATOM     57  C   UNL A   1      43.781  32.770  31.048  1.00  0.00     0.049 A 
ATOM     58  H   UNL A   1      42.688  31.120  30.315  1.00  0.00     0.167 HD
ATOM     59  C   UNL A   1      41.449  33.598  30.906  1.00  0.00     0.074 A 
ATOM     60  C   UNL A   1      40.434  34.617  31.072  1.00  0.00     0.031 C 
ATOM     61  C   UNL A   1      42.759  33.774  31.206  1.00  0.00     0.037 A 
BRANCH  48  62
ATOM     62  C   UNL A   1      46.251  28.776  30.273  1.00  0.00     0.064 A 
ATOM     63  C   UNL A   1      46.635  28.072  31.425  1.00  0.00     0.173 A 
ATOM     64  C   UNL A   1      47.148  28.802  29.194  1.00  0.00     0.173 A 
ATOM     65  F   UNL A   1      45.820  28.023  32.489  1.00  0.00    -0.203 F 
ATOM     66  C   UNL A   1      47.870  27.433  31.497  1.00  0.00     0.198 A 
ATOM     67  C   UNL A   1      48.370  28.137  29.257  1.00  0.00     0.198 A 
ATOM     68  F   UNL A   1      46.830  29.456  28.067  1.00  0.00    -0.203 F 
ATOM     69  F   UNL A   1      48.230  26.797  32.620  1.00  0.00    -0.200 F 
ATOM     70  C   UNL A   1      48.732  27.457  30.410  1.00  0.00     0.200 A 
ATOM     71  F   UNL A   1      49.193  28.149  28.201  1.00  0.00    -0.200 F 
ATOM     72  F   UNL A   1      49.911  26.824  30.473  1.00  0.00    -0.200 F 
ENDBRANCH  48  62
BRANCH  49  73
ATOM     73  C   UNL A   1      36.998  32.518  29.823  1.00  0.00     0.064 A 
ATOM     74  C   UNL A   1      36.503  33.257  28.739  1.00  0.00     0.173 A 
ATOM     75  C   UNL A   1      36.158  32.354  30.934  1.00  0.00     0.173 A 
ATOM     76  F   UNL A   1      37.273  33.458  27.658  1.00  0.00    -0.203 F 
ATOM     77  C   UNL A   1      35.241  33.848  28.784  1.00  0.00     0.198 A 
ATOM     78  C   UNL A   1      34.881  32.913  30.962  1.00  0.00     0.198 A 
ATOM     79  F   UNL A   1      36.575  31.648  31.995  1.00  0.00    -0.203 F 
ATOM     80  F   UNL A   1      34.825  34.611  27.763  1.00  0.00    -0.200 F 
ATOM     81  C   UNL A   1      34.430  33.673  29.895  1.00  0.00     0.200 A 
ATOM     82  F   UNL A   1      34.093  32.725  32.030  1.00  0.00    -0.200 F 
ATOM     83  F   UNL A   1      33.221  34.246  29.941  1.00  0.00    -0.200 F 
ENDBRANCH  49  73
BRANCH  61  84
ATOM     84  C   UNL A   1      43.170  35.127  31.712  1.00  0.00     0.064 A 
ATOM     85  C   UNL A   1      43.664  36.120  30.852  1.00  0.00     0.173 A 
ATOM     86  C   UNL A   1      43.054  35.440  33.075  1.00  0.00     0.173 A 
ATOM     87  F   UNL A   1      43.806  35.867  29.542  1.00  0.00    -0.203 F 
ATOM     88  C   UNL A   1      44.068  37.357  31.344  1.00  0.00     0.198 A 
ATOM     89  C   UNL A   1      43.423  36.693  33.558  1.00  0.00     0.198 A 
ATOM     90  F   UNL A   1      42.577  34.532  33.941  1.00  0.00    -0.203 F 
ATOM     91  F   UNL A   1      44.603  38.263  30.513  1.00  0.00    -0.200 F 
ATOM     92  C   UNL A   1      43.942  37.645  32.694  1.00  0.00     0.200 A 
ATOM     93  F   UNL A   1      43.282  36.975  34.860  1.00  0.00    -0.200 F 
ATOM     94  F   UNL A   1      44.331  38.837  33.165  1.00  0.00    -0.200 F 
ENDBRANCH  61  84
ENDBRANCH  35  36
ENDBRANCH  27  30
ENDBRANCH  25  26
ENDBRANCH   1  25
TORSDOF 13
ENDMDL
MODEL 2
REMARK VINA RESULT:     -12.7      3.799      9.142
REMARK SMILES CS(=O)(=O)c1ccc(/C=C(/C(=O)NCCCNC(=O)c2ccc(-c3c4nc(c(-c5c(F)c(F)c(F)c(F)c5F)c5ccc([nH]5)c(-c5c(F)c(F)c(F)c(F)c5F)c5nc(c(-c6c(F)c(F)c(F)c(F)c6F)c6ccc3[nH]6)C=C5)C=C4)cc2)c2ccccc2)cc1
REMARK SMILES IDX 15 1 14 2 13 3 11 4 12 5 10 7 9 8 8 9 5 10 6 11 90 12 7 13
REMARK SMILES IDX 89 14 2 15 1 16 3 17 4 18 83 19 84 20 88 21 85 22 87 23
REMARK SMILES IDX 86 24 16 25 17 26 18 27 19 29 20 30 21 31 82 32 22 33 81 34
REMARK SMILES IDX 23 35 24 36 25 37 75 38 26 39 80 40 74 41 76 42 27 43 79 44
REMARK SMILES IDX 73 45 72 46 28 48 60 49 40 50 59 51 41 52 44 53 58 54 77 55
REMARK SMILES IDX 42 56 43 57 57 59 78 60 45 61 29 62 30 63 38 64 31 65 32 66
REMARK SMILES IDX 36 67 39 68 33 69 34 70 37 71 35 72 61 73 62 74 70 75 63 76
REMARK SMILES IDX 64 77 68 78 71 79 65 80 66 81 69 82 67 83 46 84 47 85 55 86
REMARK SMILES IDX 48 87 49 88 53 89 56 90 50 91 51 92 54 93 52 94
REMARK H PARENT 13 6 17 28 76 47 44 58
REMARK Flexibility Score: inf
ROOT
ATOM      1  C   UNL A   1      33.764  27.826  25.761  1.00  0.00     0.042 C 
ENDROOT
BRANCH   1   2
ATOM      2  C   UNL A   1      32.703  27.005  25.025  1.00  0.00     0.118 C 
BRANCH   2   3
ATOM      3  N   UNL A   1      33.028  26.905  23.616  1.00  0.00    -0.352 N 
ATOM      4  C   UNL A   1      33.483  25.905  22.817  1.00  0.00     0.251 C 
ATOM      5  O   UNL A   1      33.707  26.219  21.645  1.00  0.00    -0.269 OA
ATOM      6  H   UNL A   1      32.887  27.749  23.130  1.00  0.00     0.163 HD
BRANCH   4   7
ATOM      7  C   UNL A   1      33.636  24.471  23.273  1.00  0.00     0.047 C 
ATOM      8  C   UNL A   1      32.592  23.612  23.295  1.00  0.00     0.022 C 
BRANCH   8   9
ATOM      9  C   UNL A   1      32.556  22.157  23.569  1.00  0.00    -0.025 A 
ATOM     10  C   UNL A   1      32.625  19.365  23.865  1.00  0.00     0.067 A 
ATOM     11  C   UNL A   1      32.940  20.186  24.947  1.00  0.00     0.021 A 
ATOM     12  C   UNL A   1      32.245  19.917  22.643  1.00  0.00     0.021 A 
ATOM     13  C   UNL A   1      32.863  21.574  24.805  1.00  0.00     0.009 A 
ATOM     14  C   UNL A   1      32.213  21.307  22.501  1.00  0.00     0.009 A 
BRANCH  10  15
ATOM     15  S   UNL A   1      32.746  17.605  24.058  1.00  0.00     0.175 S 
ATOM     16  C   UNL A   1      34.398  17.383  24.662  1.00  0.00     0.163 C 
ATOM     17  O   UNL A   1      32.656  17.020  22.738  1.00  0.00    -0.224 OA
ATOM     18  O   UNL A   1      31.829  17.213  25.115  1.00  0.00    -0.224 OA
ENDBRANCH  10  15
ENDBRANCH   8   9
BRANCH   7  19
ATOM     19  C   UNL A   1      34.946  24.099  23.867  1.00  0.00    -0.013 A 
ATOM     20  C   UNL A   1      35.197  24.456  25.204  1.00  0.00     0.009 A 
ATOM     21  C   UNL A   1      35.892  23.323  23.186  1.00  0.00     0.009 A 
ATOM     22  C   UNL A   1      36.345  24.014  25.860  1.00  0.00     0.001 A 
ATOM     23  C   UNL A   1      37.032  22.863  23.853  1.00  0.00     0.001 A 
ATOM     24  C   UNL A   1      37.253  23.201  25.189  1.00  0.00     0.000 A 
ENDBRANCH   7  19
ENDBRANCH   4   7
ENDBRANCH   2   3
ENDBRANCH   1   2
BRANCH   1  25
ATOM     25  C   UNL A   1      33.341  28.244  27.170  1.00  0.00     0.118 C 
BRANCH  25  26
ATOM     26  N   UNL A   1      33.322  29.691  27.322  1.00  0.00    -0.352 N 
ATOM     27  C   UNL A   1      34.232  30.539  27.892  1.00  0.00     0.251 C 
ATOM     28  H   UNL A   1      32.522  30.133  26.954  1.00  0.00     0.163 HD
ATOM     29  O   UNL A   1      33.894  31.693  28.148  1.00  0.00    -0.269 OA
BRANCH  27  30
ATOM     30  C   UNL A   1      35.611  30.098  28.197  1.00  0.00     0.039 A 
ATOM     31  C   UNL A   1      35.887  29.633  29.488  1.00  0.00     0.014 A 
ATOM     32  C   UNL A   1      36.648  30.224  27.269  1.00  0.00     0.014 A 
ATOM     33  C   UNL A   1      37.192  29.281  29.838  1.00  0.00     0.010 A 
ATOM     34  C   UNL A   1      37.935  29.794  27.594  1.00  0.00     0.010 A 
ATOM     35  C   UNL A   1      38.227  29.344  28.890  1.00  0.00    -0.014 A 
BRANCH  35  36
ATOM     36  C   UNL A   1      39.617  28.978  29.267  1.00  0.00     0.031 A 
ATOM     37  C   UNL A   1      40.432  29.889  30.148  1.00  0.00     0.074 A 
ATOM     38  C   UNL A   1      40.150  27.832  28.800  1.00  0.00     0.049 A 
ATOM     39  N   UNL A   1      41.655  29.733  30.590  1.00  0.00    -0.248 NA
ATOM     40  C   UNL A   1      39.805  31.152  30.568  1.00  0.00     0.031 C 
ATOM     41  C   UNL A   1      39.482  26.898  27.892  1.00  0.00     0.029 A 
ATOM     42  N   UNL A   1      41.376  27.256  29.024  1.00  0.00    -0.354 N 
ATOM     43  C   UNL A   1      41.945  30.880  31.320  1.00  0.00     0.074 A 
ATOM     44  C   UNL A   1      40.793  31.747  31.222  1.00  0.00     0.031 C 
ATOM     45  C   UNL A   1      40.295  25.855  27.656  1.00  0.00     0.029 A 
ATOM     46  C   UNL A   1      41.552  26.062  28.367  1.00  0.00     0.049 A 
ATOM     47  H   UNL A   1      42.065  27.661  29.599  1.00  0.00     0.167 HD
ATOM     48  C   UNL A   1      43.063  31.172  32.027  1.00  0.00     0.037 A 
ATOM     49  C   UNL A   1      42.611  25.230  28.341  1.00  0.00     0.037 A 
ATOM     50  C   UNL A   1      44.191  30.287  32.156  1.00  0.00     0.049 A 
ATOM     51  C   UNL A   1      43.827  25.572  29.161  1.00  0.00     0.074 A 
ATOM     52  C   UNL A   1      45.332  30.452  32.922  1.00  0.00     0.029 A 
ATOM     53  N   UNL A   1      44.323  29.074  31.499  1.00  0.00    -0.354 N 
ATOM     54  N   UNL A   1      44.047  26.612  29.927  1.00  0.00    -0.248 NA
ATOM     55  C   UNL A   1      44.940  24.612  29.124  1.00  0.00     0.031 C 
ATOM     56  C   UNL A   1      46.181  29.369  32.680  1.00  0.00     0.029 A 
ATOM     57  C   UNL A   1      45.541  28.495  31.817  1.00  0.00     0.049 A 
ATOM     58  H   UNL A   1      43.650  28.681  30.897  1.00  0.00     0.167 HD
ATOM     59  C   UNL A   1      45.305  26.420  30.482  1.00  0.00     0.074 A 
ATOM     60  C   UNL A   1      45.787  25.148  29.989  1.00  0.00     0.031 C 
ATOM     61  C   UNL A   1      46.005  27.226  31.319  1.00  0.00     0.037 A 
BRANCH  48  62
ATOM     62  C   UNL A   1      43.132  32.500  32.725  1.00  0.00     0.064 A 
ATOM     63  C   UNL A   1      43.633  33.646  32.088  1.00  0.00     0.173 A 
ATOM     64  C   UNL A   1      42.615  32.646  34.022  1.00  0.00     0.173 A 
ATOM     65  F   UNL A   1      44.147  33.562  30.853  1.00  0.00    -0.203 F 
ATOM     66  C   UNL A   1      43.627  34.883  32.728  1.00  0.00     0.198 A 
ATOM     67  C   UNL A   1      42.583  33.889  34.648  1.00  0.00     0.198 A 
ATOM     68  F   UNL A   1      42.120  31.584  34.675  1.00  0.00    -0.203 F 
ATOM     69  F   UNL A   1      44.141  35.957  32.114  1.00  0.00    -0.200 F 
ATOM     70  C   UNL A   1      43.092  35.006  34.003  1.00  0.00     0.200 A 
ATOM     71  F   UNL A   1      42.052  34.008  35.872  1.00  0.00    -0.200 F 
ATOM     72  F   UNL A   1      43.068  36.200  34.609  1.00  0.00    -0.200 F 
ENDBRANCH  48  62
BRANCH  49  73
ATOM     73  C   UNL A   1      42.575  23.992  27.515  1.00  0.00     0.064 A 
ATOM     74  C   UNL A   1      42.175  22.765  28.061  1.00  0.00     0.173 A 
ATOM     75  C   UNL A   1      42.984  24.004  26.173  1.00  0.00     0.173 A 
ATOM     76  F   UNL A   1      41.791  22.696  29.345  1.00  0.00    -0.203 F 
ATOM     77  C   UNL A   1      42.227  21.590  27.312  1.00  0.00     0.198 A 
ATOM     78  C   UNL A   1      42.999  22.835  25.414  1.00  0.00     0.198 A 
ATOM     79  F   UNL A   1      43.368  25.152  25.596  1.00  0.00    -0.203 F 
ATOM     80  F   UNL A   1      41.909  20.420  27.883  1.00  0.00    -0.200 F 
ATOM     81  C   UNL A   1      42.637  21.627  25.988  1.00  0.00     0.200 A 
ATOM     82  F   UNL A   1      43.378  22.879  24.129  1.00  0.00    -0.200 F 
ATOM     83  F   UNL A   1      42.694  20.497  25.271  1.00  0.00    -0.200 F 
ENDBRANCH  49  73
BRANCH  61  84
ATOM     84  C   UNL A   1      47.349  26.737  31.775  1.00  0.00     0.064 A 
ATOM     85  C   UNL A   1      47.492  25.911  32.902  1.00  0.00     0.173 A 
ATOM     86  C   UNL A   1      48.510  27.086  31.068  1.00  0.00     0.173 A 
ATOM     87  F   UNL A   1      46.415  25.558  33.620  1.00  0.00    -0.203 F 
ATOM     88  C   UNL A   1      48.749  25.493  33.328  1.00  0.00     0.198 A 
ATOM     89  C   UNL A   1      49.762  26.632  31.474  1.00  0.00     0.198 A 
ATOM     90  F   UNL A   1      48.430  27.862  29.977  1.00  0.00    -0.203 F 
ATOM     91  F   UNL A   1      48.866  24.764  34.447  1.00  0.00    -0.200 F 
ATOM     92  C   UNL A   1      49.882  25.848  32.611  1.00  0.00     0.200 A 
ATOM     93  F   UNL A   1      50.853  26.962  30.769  1.00  0.00    -0.200 F 
ATOM     94  F   UNL A   1      51.091  25.443  33.022  1.00  0.00    -0.200 F 
ENDBRANCH  61  84
ENDBRANCH  35  36
ENDBRANCH  27  30
ENDBRANCH  25  26
ENDBRANCH   1  25
TORSDOF 13
ENDMDL
MODEL 3
REMARK VINA RESULT:     -12.7      0.971      1.566
REMARK SMILES CS(=O)(=O)c1ccc(/C=C(/C(=O)NCCCNC(=O)c2ccc(-c3c4nc(c(-c5c(F)c(F)c(F)c(F)c5F)c5ccc([nH]5)c(-c5c(F)c(F)c(F)c(F)c5F)c5nc(c(-c6c(F)c(F)c(F)c(F)c6F)c6ccc3[nH]6)C=C5)C=C4)cc2)c2ccccc2)cc1
REMARK SMILES IDX 15 1 14 2 13 3 11 4 12 5 10 7 9 8 8 9 5 10 6 11 90 12 7 13
REMARK SMILES IDX 89 14 2 15 1 16 3 17 4 18 83 19 84 20 88 21 85 22 87 23
REMARK SMILES IDX 86 24 16 25 17 26 18 27 19 29 20 30 21 31 82 32 22 33 81 34
REMARK SMILES IDX 23 35 24 36 25 37 75 38 26 39 80 40 74 41 76 42 27 43 79 44
REMARK SMILES IDX 73 45 72 46 28 48 60 49 40 50 59 51 41 52 44 53 58 54 77 55
REMARK SMILES IDX 42 56 43 57 57 59 78 60 45 61 29 62 30 63 38 64 31 65 32 66
REMARK SMILES IDX 36 67 39 68 33 69 34 70 37 71 35 72 61 73 62 74 70 75 63 76
REMARK SMILES IDX 64 77 68 78 71 79 65 80 66 81 69 82 67 83 46 84 47 85 55 86
REMARK SMILES IDX 48 87 49 88 53 89 56 90 50 91 51 92 54 93 52 94
REMARK H PARENT 13 6 17 28 76 47 44 58
REMARK Flexibility Score: inf
ROOT
ATOM      1  C   UNL A   1      36.078  23.284  24.306  1.00  0.00     0.042 C 
ENDROOT
BRANCH   1   2
ATOM      2  C   UNL A   1      34.637  23.747  24.086  1.00  0.00     0.118 C 
BRANCH   2   3
ATOM      3  N   UNL A   1      33.824  23.440  25.246  1.00  0.00    -0.352 N 
ATOM      4  C   UNL A   1      32.831  24.089  25.908  1.00  0.00     0.251 C 
ATOM      5  O   UNL A   1      32.406  23.526  26.920  1.00  0.00    -0.269 OA
ATOM      6  H   UNL A   1      34.040  22.565  25.644  1.00  0.00     0.163 HD
BRANCH   4   7
ATOM      7  C   UNL A   1      32.202  25.376  25.421  1.00  0.00     0.047 C 
ATOM      8  C   UNL A   1      31.492  25.434  24.271  1.00  0.00     0.022 C 
BRANCH   8   9
ATOM      9  C   UNL A   1      30.693  26.541  23.696  1.00  0.00    -0.025 A 
ATOM     10  C   UNL A   1      29.056  28.656  22.841  1.00  0.00     0.067 A 
ATOM     11  C   UNL A   1      30.425  28.691  22.585  1.00  0.00     0.021 A 
ATOM     12  C   UNL A   1      28.483  27.564  23.491  1.00  0.00     0.021 A 
ATOM     13  C   UNL A   1      31.228  27.616  22.976  1.00  0.00     0.009 A 
ATOM     14  C   UNL A   1      29.303  26.515  23.915  1.00  0.00     0.009 A 
BRANCH  10  15
ATOM     15  S   UNL A   1      28.054  30.037  22.353  1.00  0.00     0.175 S 
ATOM     16  C   UNL A   1      29.039  31.432  22.831  1.00  0.00     0.163 C 
ATOM     17  O   UNL A   1      26.861  30.015  23.171  1.00  0.00    -0.224 OA
ATOM     18  O   UNL A   1      27.967  30.030  20.902  1.00  0.00    -0.224 OA
ENDBRANCH  10  15
ENDBRANCH   8   9
BRANCH   7  19
ATOM     19  C   UNL A   1      32.550  26.611  26.169  1.00  0.00    -0.013 A 
ATOM     20  C   UNL A   1      33.821  27.179  25.964  1.00  0.00     0.009 A 
ATOM     21  C   UNL A   1      31.634  27.283  26.987  1.00  0.00     0.009 A 
ATOM     22  C   UNL A   1      34.154  28.410  26.525  1.00  0.00     0.001 A 
ATOM     23  C   UNL A   1      31.964  28.529  27.532  1.00  0.00     0.001 A 
ATOM     24  C   UNL A   1      33.218  29.094  27.294  1.00  0.00     0.000 A 
ENDBRANCH   7  19
ENDBRANCH   4   7
ENDBRANCH   2   3
ENDBRANCH   1   2
BRANCH   1  25
ATOM     25  C   UNL A   1      36.534  23.384  25.762  1.00  0.00     0.118 C 
BRANCH  25  26
ATOM     26  N   UNL A   1      37.638  22.481  26.047  1.00  0.00    -0.352 N 
ATOM     27  C   UNL A   1      38.925  22.740  26.435  1.00  0.00     0.251 C 
ATOM     28  H   UNL A   1      37.424  21.525  25.945  1.00  0.00     0.163 HD
ATOM     29  O   UNL A   1      39.762  21.844  26.363  1.00  0.00    -0.269 OA
BRANCH  27  30
ATOM     30  C   UNL A   1      39.323  24.071  26.943  1.00  0.00     0.039 A 
ATOM     31  C   UNL A   1      39.953  24.956  26.061  1.00  0.00     0.014 A 
ATOM     32  C   UNL A   1      39.174  24.423  28.287  1.00  0.00     0.014 A 
ATOM     33  C   UNL A   1      40.413  26.191  26.521  1.00  0.00     0.010 A 
ATOM     34  C   UNL A   1      39.559  25.689  28.727  1.00  0.00     0.010 A 
ATOM     35  C   UNL A   1      40.208  26.576  27.857  1.00  0.00    -0.014 A 
BRANCH  35  36
ATOM     36  C   UNL A   1      40.707  27.887  28.347  1.00  0.00     0.031 A 
ATOM     37  C   UNL A   1      42.186  28.171  28.393  1.00  0.00     0.074 A 
ATOM     38  C   UNL A   1      39.827  28.816  28.769  1.00  0.00     0.049 A 
ATOM     39  N   UNL A   1      42.808  29.257  28.779  1.00  0.00    -0.248 NA
ATOM     40  C   UNL A   1      43.089  27.086  27.974  1.00  0.00     0.031 C 
ATOM     41  C   UNL A   1      38.375  28.637  28.831  1.00  0.00     0.029 A 
ATOM     42  N   UNL A   1      40.022  30.095  29.227  1.00  0.00    -0.354 N 
ATOM     43  C   UNL A   1      44.165  28.979  28.667  1.00  0.00     0.074 A 
ATOM     44  C   UNL A   1      44.282  27.608  28.225  1.00  0.00     0.031 C 
ATOM     45  C   UNL A   1      37.810  29.771  29.274  1.00  0.00     0.029 A 
ATOM     46  C   UNL A   1      38.858  30.744  29.560  1.00  0.00     0.049 A 
ATOM     47  H   UNL A   1      40.912  30.507  29.310  1.00  0.00     0.167 HD
ATOM     48  C   UNL A   1      45.218  29.802  28.889  1.00  0.00     0.037 A 
ATOM     49  C   UNL A   1      38.661  31.985  30.046  1.00  0.00     0.037 A 
ATOM     50  C   UNL A   1      45.096  31.179  29.288  1.00  0.00     0.049 A 
ATOM     51  C   UNL A   1      39.851  32.884  30.256  1.00  0.00     0.074 A 
ATOM     52  C   UNL A   1      46.097  32.121  29.453  1.00  0.00     0.029 A 
ATOM     53  N   UNL A   1      43.900  31.811  29.590  1.00  0.00    -0.354 N 
ATOM     54  N   UNL A   1      41.122  32.640  30.049  1.00  0.00    -0.248 NA
ATOM     55  C   UNL A   1      39.577  34.239  30.753  1.00  0.00     0.031 C 
ATOM     56  C   UNL A   1      45.513  33.304  29.914  1.00  0.00     0.029 A 
ATOM     57  C   UNL A   1      44.141  33.121  29.972  1.00  0.00     0.049 A 
ATOM     58  H   UNL A   1      43.010  31.392  29.541  1.00  0.00     0.167 HD
ATOM     59  C   UNL A   1      41.794  33.814  30.364  1.00  0.00     0.074 A 
ATOM     60  C   UNL A   1      40.786  34.780  30.745  1.00  0.00     0.031 C 
ATOM     61  C   UNL A   1      43.125  34.071  30.347  1.00  0.00     0.037 A 
BRANCH  48  62
ATOM     62  C   UNL A   1      46.601  29.247  28.706  1.00  0.00     0.064 A 
ATOM     63  C   UNL A   1      47.253  29.277  27.463  1.00  0.00     0.173 A 
ATOM     64  C   UNL A   1      47.316  28.752  29.808  1.00  0.00     0.173 A 
ATOM     65  F   UNL A   1      46.613  29.731  26.376  1.00  0.00    -0.203 F 
ATOM     66  C   UNL A   1      48.561  28.818  27.328  1.00  0.00     0.198 A 
ATOM     67  C   UNL A   1      48.635  28.322  29.676  1.00  0.00     0.198 A 
ATOM     68  F   UNL A   1      46.743  28.704  31.019  1.00  0.00    -0.203 F 
ATOM     69  F   UNL A   1      49.151  28.825  26.125  1.00  0.00    -0.200 F 
ATOM     70  C   UNL A   1      49.255  28.352  28.436  1.00  0.00     0.200 A 
ATOM     71  F   UNL A   1      49.307  27.887  30.749  1.00  0.00    -0.200 F 
ATOM     72  F   UNL A   1      50.520  27.931  28.308  1.00  0.00    -0.200 F 
ENDBRANCH  48  62
BRANCH  49  73
ATOM     73  C   UNL A   1      37.287  32.459  30.367  1.00  0.00     0.064 A 
ATOM     74  C   UNL A   1      36.506  33.126  29.412  1.00  0.00     0.173 A 
ATOM     75  C   UNL A   1      36.743  32.293  31.648  1.00  0.00     0.173 A 
ATOM     76  F   UNL A   1      36.986  33.326  28.175  1.00  0.00    -0.203 F 
ATOM     77  C   UNL A   1      35.256  33.648  29.739  1.00  0.00     0.198 A 
ATOM     78  C   UNL A   1      35.476  32.781  31.964  1.00  0.00     0.198 A 
ATOM     79  F   UNL A   1      37.442  31.654  32.598  1.00  0.00    -0.203 F 
ATOM     80  F   UNL A   1      34.564  34.346  28.828  1.00  0.00    -0.200 F 
ATOM     81  C   UNL A   1      34.741  33.473  31.015  1.00  0.00     0.200 A 
ATOM     82  F   UNL A   1      34.975  32.593  33.193  1.00  0.00    -0.200 F 
ATOM     83  F   UNL A   1      33.542  33.980  31.332  1.00  0.00    -0.200 F 
ENDBRANCH  49  73
BRANCH  61  84
ATOM     84  C   UNL A   1      43.560  35.459  30.722  1.00  0.00     0.064 A 
ATOM     85  C   UNL A   1      43.650  36.487  29.771  1.00  0.00     0.173 A 
ATOM     86  C   UNL A   1      43.875  35.768  32.054  1.00  0.00     0.173 A 
ATOM     87  F   UNL A   1      43.372  36.241  28.482  1.00  0.00    -0.203 F 
ATOM     88  C   UNL A   1      44.084  37.759  30.131  1.00  0.00     0.198 A 
ATOM     89  C   UNL A   1      44.271  37.053  32.418  1.00  0.00     0.198 A 
ATOM     90  F   UNL A   1      43.794  34.827  33.006  1.00  0.00    -0.203 F 
ATOM     91  F   UNL A   1      44.231  38.705  29.193  1.00  0.00    -0.200 F 
ATOM     92  C   UNL A   1      44.388  38.043  31.454  1.00  0.00     0.200 A 
ATOM     93  F   UNL A   1      44.545  37.329  33.699  1.00  0.00    -0.200 F 
ATOM     94  F   UNL A   1      44.804  39.269  31.799  1.00  0.00    -0.200 F 
ENDBRANCH  61  84
ENDBRANCH  35  36
ENDBRANCH  27  30
ENDBRANCH  25  26
ENDBRANCH   1  25
TORSDOF 13
ENDMDL
