MODEL 1
REMARK VINA RESULT:     -14.2      0.000      0.000
REMARK SMILES Cc1nc2ccc(Cl)cc2cc1C(=O)N1CCC(C(=O)NCCCNC(=O)c2ccc(-c3c4nc(c(-c5c(F)c(F)c(F)c(F)c5F)c5ccc([nH]5)c(-c5c(F)c(F)c(F)c(F)c5F)c5nc(c(-c6c(F)c(F)c(F)c(F)c6F)c6ccc3[nH]6)C=C5)C=C4)cc2)CC1
REMARK SMILES IDX 23 1 22 2 21 3 19 4 20 5 18 7 13 8 14 9 15 10 16 11 92 12
REMARK SMILES IDX 17 13 91 14 12 15 1 16 2 17 3 18 4 19 11 20 5 21 10 22 6 23
REMARK SMILES IDX 9 24 7 25 8 26 24 27 25 28 26 29 27 31 28 32 29 33 90 34
REMARK SMILES IDX 30 35 89 36 31 37 32 38 33 39 83 40 34 41 88 42 82 43 84 44
REMARK SMILES IDX 35 45 87 46 81 47 80 48 36 50 68 51 48 52 67 53 49 54 52 55
REMARK SMILES IDX 66 56 85 57 50 58 51 59 65 61 86 62 53 63 37 64 38 65 46 66
REMARK SMILES IDX 39 67 40 68 44 69 47 70 41 71 42 72 45 73 43 74 69 75 70 76
REMARK SMILES IDX 78 77 71 78 72 79 76 80 79 81 73 82 74 83 77 84 75 85 54 86
REMARK SMILES IDX 55 87 63 88 56 89 57 90 61 91 64 92 58 93 59 94 62 95 60 96
REMARK H PARENT 21 6 25 30 84 49 52 60
REMARK Flexibility Score: inf
ROOT
ATOM      1  C   UNL A   1      31.508  32.272  26.520  1.00  0.00     0.042 C 
ENDROOT
BRANCH   1   2
ATOM      2  C   UNL A   1      31.654  30.781  26.262  1.00  0.00     0.117 C 
BRANCH   2   3
ATOM      3  N   UNL A   1      31.064  30.380  24.994  1.00  0.00    -0.356 N 
ATOM      4  C   UNL A   1      31.296  29.298  24.203  1.00  0.00     0.223 C 
ATOM      5  O   UNL A   1      30.669  29.210  23.145  1.00  0.00    -0.275 OA
ATOM      6  H   UNL A   1      30.379  30.997  24.649  1.00  0.00     0.163 HD
BRANCH   4   7
ATOM      7  C   UNL A   1      32.295  28.225  24.600  1.00  0.00     0.082 C 
ATOM      8  C   UNL A   1      32.727  24.222  25.952  1.00  0.00     0.255 C 
ATOM      9  O   UNL A   1      31.957  23.919  26.857  1.00  0.00    -0.269 OA
ATOM     10  N   UNL A   1      32.801  25.527  25.452  1.00  0.00    -0.339 N 
ATOM     11  C   UNL A   1      32.900  26.589  26.437  1.00  0.00     0.120 C 
ATOM     12  C   UNL A   1      33.123  25.879  24.069  1.00  0.00     0.120 C 
ATOM     13  C   UNL A   1      32.090  27.808  26.060  1.00  0.00     0.035 C 
ATOM     14  C   UNL A   1      32.318  27.075  23.582  1.00  0.00     0.035 C 
BRANCH   8  15
ATOM     15  C   UNL A   1      33.769  23.248  25.519  1.00  0.00     0.061 A 
ATOM     16  C   UNL A   1      32.121  21.602  24.462  1.00  0.00     0.067 C 
ATOM     17  C   UNL A   1      33.495  22.041  24.877  1.00  0.00     0.051 A 
ATOM     18  N   UNL A   1      34.473  21.113  24.636  1.00  0.00    -0.252 NA
ATOM     19  C   UNL A   1      35.739  21.362  25.017  1.00  0.00     0.071 A 
ATOM     20  C   UNL A   1      35.087  23.474  25.933  1.00  0.00     0.026 A 
ATOM     21  C   UNL A   1      36.743  20.425  24.805  1.00  0.00     0.030 A 
ATOM     22  C   UNL A   1      36.097  22.558  25.657  1.00  0.00     0.002 A 
ATOM     23  C   UNL A   1      38.072  20.671  25.177  1.00  0.00     0.023 A 
ATOM     24  C   UNL A   1      37.423  22.824  26.027  1.00  0.00     0.030 A 
ATOM     25  C   UNL A   1      38.408  21.879  25.776  1.00  0.00     0.041 A 
ATOM     26  Cl  UNL A   1      40.038  22.213  26.207  1.00  0.00    -0.084 Cl
ENDBRANCH   8  15
ENDBRANCH   4   7
ENDBRANCH   2   3
ENDBRANCH   1   2
BRANCH   1  27
ATOM     27  C   UNL A   1      32.671  32.869  27.295  1.00  0.00     0.118 C 
BRANCH  27  28
ATOM     28  N   UNL A   1      32.446  34.265  27.644  1.00  0.00    -0.352 N 
ATOM     29  C   UNL A   1      33.011  35.026  28.635  1.00  0.00     0.251 C 
ATOM     30  H   UNL A   1      31.788  34.736  27.083  1.00  0.00     0.163 HD
ATOM     31  O   UNL A   1      32.537  36.128  28.908  1.00  0.00    -0.269 OA
BRANCH  29  32
ATOM     32  C   UNL A   1      34.175  34.517  29.388  1.00  0.00     0.039 A 
ATOM     33  C   UNL A   1      33.969  33.917  30.632  1.00  0.00     0.014 A 
ATOM     34  C   UNL A   1      35.467  34.633  28.871  1.00  0.00     0.014 A 
ATOM     35  C   UNL A   1      35.052  33.374  31.324  1.00  0.00     0.010 A 
ATOM     36  C   UNL A   1      36.527  34.003  29.509  1.00  0.00     0.010 A 
ATOM     37  C   UNL A   1      36.333  33.375  30.748  1.00  0.00    -0.014 A 
BRANCH  37  38
ATOM     38  C   UNL A   1      37.489  32.736  31.426  1.00  0.00     0.031 A 
ATOM     39  C   UNL A   1      38.179  31.563  30.789  1.00  0.00     0.074 A 
ATOM     40  C   UNL A   1      37.862  33.160  32.648  1.00  0.00     0.049 A 
ATOM     41  N   UNL A   1      39.142  30.812  31.260  1.00  0.00    -0.248 NA
ATOM     42  C   UNL A   1      37.699  31.158  29.459  1.00  0.00     0.031 C 
ATOM     43  C   UNL A   1      37.231  34.249  33.394  1.00  0.00     0.029 A 
ATOM     44  N   UNL A   1      38.850  32.710  33.488  1.00  0.00    -0.354 N 
ATOM     45  C   UNL A   1      39.370  29.841  30.294  1.00  0.00     0.074 A 
ATOM     46  C   UNL A   1      38.400  30.056  29.241  1.00  0.00     0.031 C 
ATOM     47  C   UNL A   1      37.856  34.393  34.573  1.00  0.00     0.029 A 
ATOM     48  C   UNL A   1      38.900  33.380  34.685  1.00  0.00     0.049 A 
ATOM     49  H   UNL A   1      39.465  31.978  33.254  1.00  0.00     0.167 HD
ATOM     50  C   UNL A   1      40.318  28.875  30.272  1.00  0.00     0.037 A 
ATOM     51  C   UNL A   1      39.688  33.188  35.760  1.00  0.00     0.037 A 
ATOM     52  C   UNL A   1      41.288  28.676  31.316  1.00  0.00     0.049 A 
ATOM     53  C   UNL A   1      40.731  32.104  35.719  1.00  0.00     0.074 A 
ATOM     54  C   UNL A   1      42.330  27.768  31.366  1.00  0.00     0.029 A 
ATOM     55  N   UNL A   1      41.328  29.394  32.504  1.00  0.00    -0.354 N 
ATOM     56  N   UNL A   1      40.991  31.241  34.767  1.00  0.00    -0.248 NA
ATOM     57  C   UNL A   1      41.596  31.972  36.900  1.00  0.00     0.031 C 
ATOM     58  C   UNL A   1      42.963  27.896  32.607  1.00  0.00     0.029 A 
ATOM     59  C   UNL A   1      42.358  28.929  33.305  1.00  0.00     0.049 A 
ATOM     60  H   UNL A   1      40.714  30.127  32.742  1.00  0.00     0.167 HD
ATOM     61  C   UNL A   1      42.060  30.482  35.219  1.00  0.00     0.074 A 
ATOM     62  C   UNL A   1      42.413  30.997  36.527  1.00  0.00     0.031 C 
ATOM     63  C   UNL A   1      42.695  29.452  34.606  1.00  0.00     0.037 A 
BRANCH  50  64
ATOM     64  C   UNL A   1      40.342  27.957  29.082  1.00  0.00     0.064 A 
ATOM     65  C   UNL A   1      41.094  28.255  27.933  1.00  0.00     0.173 A 
ATOM     66  C   UNL A   1      39.610  26.761  29.089  1.00  0.00     0.173 A 
ATOM     67  F   UNL A   1      41.805  29.391  27.867  1.00  0.00    -0.203 F 
ATOM     68  C   UNL A   1      41.073  27.415  26.822  1.00  0.00     0.198 A 
ATOM     69  C   UNL A   1      39.622  25.903  27.991  1.00  0.00     0.198 A 
ATOM     70  F   UNL A   1      38.880  26.420  30.162  1.00  0.00    -0.203 F 
ATOM     71  F   UNL A   1      41.742  27.757  25.713  1.00  0.00    -0.200 F 
ATOM     72  C   UNL A   1      40.342  26.237  26.855  1.00  0.00     0.200 A 
ATOM     73  F   UNL A   1      38.928  24.758  28.030  1.00  0.00    -0.200 F 
ATOM     74  F   UNL A   1      40.323  25.429  25.785  1.00  0.00    -0.200 F 
ENDBRANCH  50  64
BRANCH  51  75
ATOM     75  C   UNL A   1      39.521  34.053  36.957  1.00  0.00     0.064 A 
ATOM     76  C   UNL A   1      38.752  33.634  38.052  1.00  0.00     0.173 A 
ATOM     77  C   UNL A   1      40.143  35.307  37.040  1.00  0.00     0.173 A 
ATOM     78  F   UNL A   1      38.123  32.450  38.013  1.00  0.00    -0.203 F 
ATOM     79  C   UNL A   1      38.600  34.442  39.177  1.00  0.00     0.198 A 
ATOM     80  C   UNL A   1      40.015  36.102  38.177  1.00  0.00     0.198 A 
ATOM     81  F   UNL A   1      40.895  35.753  36.023  1.00  0.00    -0.203 F 
ATOM     82  F   UNL A   1      37.826  34.034  40.191  1.00  0.00    -0.200 F 
ATOM     83  C   UNL A   1      39.238  35.672  39.242  1.00  0.00     0.200 A 
ATOM     84  F   UNL A   1      40.647  37.282  38.242  1.00  0.00    -0.200 F 
ATOM     85  F   UNL A   1      39.099  36.444  40.328  1.00  0.00    -0.200 F 
ENDBRANCH  51  75
BRANCH  63  86
ATOM     86  C   UNL A   1      43.857  28.830  35.327  1.00  0.00     0.064 A 
ATOM     87  C   UNL A   1      45.172  29.277  35.131  1.00  0.00     0.173 A 
ATOM     88  C   UNL A   1      43.645  27.806  36.263  1.00  0.00     0.173 A 
ATOM     89  F   UNL A   1      45.431  30.244  34.237  1.00  0.00    -0.203 F 
ATOM     90  C   UNL A   1      46.233  28.705  35.828  1.00  0.00     0.198 A 
ATOM     91  C   UNL A   1      44.704  27.260  36.982  1.00  0.00     0.198 A 
ATOM     92  F   UNL A   1      42.406  27.347  36.494  1.00  0.00    -0.203 F 
ATOM     93  F   UNL A   1      47.487  29.115  35.590  1.00  0.00    -0.200 F 
ATOM     94  C   UNL A   1      45.997  27.704  36.759  1.00  0.00     0.200 A 
ATOM     95  F   UNL A   1      44.471  26.305  37.893  1.00  0.00    -0.200 F 
ATOM     96  F   UNL A   1      47.020  27.163  37.437  1.00  0.00    -0.200 F 
ENDBRANCH  63  86
ENDBRANCH  37  38
ENDBRANCH  29  32
ENDBRANCH  27  28
ENDBRANCH   1  27
TORSDOF 11
ENDMDL
MODEL 2
REMARK VINA RESULT:     -14.0      5.613     11.437
REMARK SMILES Cc1nc2ccc(Cl)cc2cc1C(=O)N1CCC(C(=O)NCCCNC(=O)c2ccc(-c3c4nc(c(-c5c(F)c(F)c(F)c(F)c5F)c5ccc([nH]5)c(-c5c(F)c(F)c(F)c(F)c5F)c5nc(c(-c6c(F)c(F)c(F)c(F)c6F)c6ccc3[nH]6)C=C5)C=C4)cc2)CC1
REMARK SMILES IDX 23 1 22 2 21 3 19 4 20 5 18 7 13 8 14 9 15 10 16 11 92 12
REMARK SMILES IDX 17 13 91 14 12 15 1 16 2 17 3 18 4 19 11 20 5 21 10 22 6 23
REMARK SMILES IDX 9 24 7 25 8 26 24 27 25 28 26 29 27 31 28 32 29 33 90 34
REMARK SMILES IDX 30 35 89 36 31 37 32 38 33 39 83 40 34 41 88 42 82 43 84 44
REMARK SMILES IDX 35 45 87 46 81 47 80 48 36 50 68 51 48 52 67 53 49 54 52 55
REMARK SMILES IDX 66 56 85 57 50 58 51 59 65 61 86 62 53 63 37 64 38 65 46 66
REMARK SMILES IDX 39 67 40 68 44 69 47 70 41 71 42 72 45 73 43 74 69 75 70 76
REMARK SMILES IDX 78 77 71 78 72 79 76 80 79 81 73 82 74 83 77 84 75 85 54 86
REMARK SMILES IDX 55 87 63 88 56 89 57 90 61 91 64 92 58 93 59 94 62 95 60 96
REMARK H PARENT 21 6 25 30 84 49 52 60
REMARK Flexibility Score: inf
ROOT
ATOM      1  C   UNL A   1      38.209  19.421  25.221  1.00  0.00     0.042 C 
ENDROOT
BRANCH   1   2
ATOM      2  C   UNL A   1      37.182  20.491  24.885  1.00  0.00     0.117 C 
BRANCH   2   3
ATOM      3  N   UNL A   1      35.818  19.994  24.974  1.00  0.00    -0.356 N 
ATOM      4  C   UNL A   1      34.643  20.644  25.193  1.00  0.00     0.223 C 
ATOM      5  O   UNL A   1      33.612  19.970  25.252  1.00  0.00    -0.275 OA
ATOM      6  H   UNL A   1      35.730  19.021  24.857  1.00  0.00     0.163 HD
BRANCH   4   7
ATOM      7  C   UNL A   1      34.590  22.152  25.361  1.00  0.00     0.082 C 
ATOM      8  C   UNL A   1      33.481  25.808  23.508  1.00  0.00     0.255 C 
ATOM      9  O   UNL A   1      33.829  25.895  22.335  1.00  0.00    -0.269 OA
ATOM     10  N   UNL A   1      33.849  24.722  24.308  1.00  0.00    -0.339 N 
ATOM     11  C   UNL A   1      35.250  24.344  24.276  1.00  0.00     0.120 C 
ATOM     12  C   UNL A   1      33.042  24.171  25.398  1.00  0.00     0.120 C 
ATOM     13  C   UNL A   1      35.449  22.846  24.299  1.00  0.00     0.035 C 
ATOM     14  C   UNL A   1      33.143  22.654  25.471  1.00  0.00     0.035 C 
BRANCH   8  15
ATOM     15  C   UNL A   1      32.843  26.980  24.171  1.00  0.00     0.061 A 
ATOM     16  C   UNL A   1      30.711  26.914  22.759  1.00  0.00     0.067 C 
ATOM     17  C   UNL A   1      31.604  27.508  23.809  1.00  0.00     0.051 A 
ATOM     18  N   UNL A   1      31.131  28.676  24.347  1.00  0.00    -0.252 NA
ATOM     19  C   UNL A   1      31.868  29.340  25.256  1.00  0.00     0.071 A 
ATOM     20  C   UNL A   1      33.606  27.702  25.096  1.00  0.00     0.026 A 
ATOM     21  C   UNL A   1      31.419  30.538  25.797  1.00  0.00     0.030 A 
ATOM     22  C   UNL A   1      33.119  28.867  25.681  1.00  0.00     0.002 A 
ATOM     23  C   UNL A   1      32.162  31.237  26.759  1.00  0.00     0.023 A 
ATOM     24  C   UNL A   1      33.870  29.549  26.649  1.00  0.00     0.030 A 
ATOM     25  C   UNL A   1      33.381  30.730  27.191  1.00  0.00     0.041 A 
ATOM     26  Cl  UNL A   1      34.289  31.553  28.395  1.00  0.00    -0.084 Cl
ENDBRANCH   8  15
ENDBRANCH   4   7
ENDBRANCH   2   3
ENDBRANCH   1   2
BRANCH   1  27
ATOM     27  C   UNL A   1      39.500  19.981  25.793  1.00  0.00     0.118 C 
BRANCH  27  28
ATOM     28  N   UNL A   1      40.533  18.962  25.930  1.00  0.00    -0.352 N 
ATOM     29  C   UNL A   1      41.887  19.100  26.100  1.00  0.00     0.251 C 
ATOM     30  H   UNL A   1      40.210  18.033  25.897  1.00  0.00     0.163 HD
ATOM     31  O   UNL A   1      42.622  18.120  25.984  1.00  0.00    -0.269 OA
BRANCH  29  32
ATOM     32  C   UNL A   1      42.466  20.424  26.404  1.00  0.00     0.039 A 
ATOM     33  C   UNL A   1      43.025  21.174  25.367  1.00  0.00     0.014 A 
ATOM     34  C   UNL A   1      42.460  20.924  27.707  1.00  0.00     0.014 A 
ATOM     35  C   UNL A   1      43.517  22.453  25.628  1.00  0.00     0.010 A 
ATOM     36  C   UNL A   1      42.853  22.235  27.946  1.00  0.00     0.010 A 
ATOM     37  C   UNL A   1      43.396  23.010  26.912  1.00  0.00    -0.014 A 
BRANCH  37  38
ATOM     38  C   UNL A   1      43.839  24.397  27.201  1.00  0.00     0.031 A 
ATOM     39  C   UNL A   1      42.846  25.420  27.676  1.00  0.00     0.074 A 
ATOM     40  C   UNL A   1      45.115  24.753  26.957  1.00  0.00     0.049 A 
ATOM     41  N   UNL A   1      43.013  26.699  27.893  1.00  0.00    -0.248 NA
ATOM     42  C   UNL A   1      41.471  24.948  27.903  1.00  0.00     0.031 C 
ATOM     43  C   UNL A   1      46.156  23.865  26.439  1.00  0.00     0.029 A 
ATOM     44  N   UNL A   1      45.747  25.963  27.094  1.00  0.00    -0.354 N 
ATOM     45  C   UNL A   1      41.767  27.185  28.266  1.00  0.00     0.074 A 
ATOM     46  C   UNL A   1      40.839  26.078  28.180  1.00  0.00     0.031 C 
ATOM     47  C   UNL A   1      47.299  24.556  26.316  1.00  0.00     0.029 A 
ATOM     48  C   UNL A   1      47.062  25.943  26.702  1.00  0.00     0.049 A 
ATOM     49  H   UNL A   1      45.300  26.769  27.440  1.00  0.00     0.167 HD
ATOM     50  C   UNL A   1      41.431  28.433  28.669  1.00  0.00     0.037 A 
ATOM     51  C   UNL A   1      47.972  26.935  26.646  1.00  0.00     0.037 A 
ATOM     52  C   UNL A   1      42.362  29.526  28.765  1.00  0.00     0.049 A 
ATOM     53  C   UNL A   1      47.576  28.316  27.091  1.00  0.00     0.074 A 
ATOM     54  C   UNL A   1      42.141  30.813  29.221  1.00  0.00     0.029 A 
ATOM     55  N   UNL A   1      43.697  29.460  28.388  1.00  0.00    -0.354 N 
ATOM     56  N   UNL A   1      46.414  28.748  27.518  1.00  0.00    -0.248 NA
ATOM     57  C   UNL A   1      48.621  29.348  27.055  1.00  0.00     0.031 C 
ATOM     58  C   UNL A   1      43.324  31.542  29.064  1.00  0.00     0.029 A 
ATOM     59  C   UNL A   1      44.303  30.693  28.572  1.00  0.00     0.049 A 
ATOM     60  H   UNL A   1      44.147  28.656  28.040  1.00  0.00     0.167 HD
ATOM     61  C   UNL A   1      46.591  30.090  27.824  1.00  0.00     0.074 A 
ATOM     62  C   UNL A   1      47.981  30.398  27.549  1.00  0.00     0.031 C 
ATOM     63  C   UNL A   1      45.687  30.985  28.292  1.00  0.00     0.037 A 
BRANCH  50  64
ATOM     64  C   UNL A   1      39.992  28.678  29.029  1.00  0.00     0.064 A 
ATOM     65  C   UNL A   1      39.502  28.440  30.323  1.00  0.00     0.173 A 
ATOM     66  C   UNL A   1      39.091  29.165  28.070  1.00  0.00     0.173 A 
ATOM     67  F   UNL A   1      40.317  27.966  31.278  1.00  0.00    -0.203 F 
ATOM     68  C   UNL A   1      38.157  28.634  30.630  1.00  0.00     0.198 A 
ATOM     69  C   UNL A   1      37.754  29.394  28.390  1.00  0.00     0.198 A 
ATOM     70  F   UNL A   1      39.504  29.418  26.819  1.00  0.00    -0.203 F 
ATOM     71  F   UNL A   1      37.700  28.332  31.853  1.00  0.00    -0.200 F 
ATOM     72  C   UNL A   1      37.286  29.116  29.664  1.00  0.00     0.200 A 
ATOM     73  F   UNL A   1      36.917  29.875  27.461  1.00  0.00    -0.200 F 
ATOM     74  F   UNL A   1      35.992  29.302  29.961  1.00  0.00    -0.200 F 
ENDBRANCH  50  64
BRANCH  51  75
ATOM     75  C   UNL A   1      49.345  26.645  26.156  1.00  0.00     0.064 A 
ATOM     76  C   UNL A   1      50.322  26.117  27.011  1.00  0.00     0.173 A 
ATOM     77  C   UNL A   1      49.701  26.872  24.818  1.00  0.00     0.173 A 
ATOM     78  F   UNL A   1      50.035  25.900  28.302  1.00  0.00    -0.203 F 
ATOM     79  C   UNL A   1      51.608  25.841  26.550  1.00  0.00     0.198 A 
ATOM     80  C   UNL A   1      50.978  26.567  24.351  1.00  0.00     0.198 A 
ATOM     81  F   UNL A   1      48.801  27.369  23.957  1.00  0.00    -0.203 F 
ATOM     82  F   UNL A   1      52.535  25.375  27.398  1.00  0.00    -0.200 F 
ATOM     83  C   UNL A   1      51.932  26.058  25.219  1.00  0.00     0.200 A 
ATOM     84  F   UNL A   1      51.282  26.763  23.061  1.00  0.00    -0.200 F 
ATOM     85  F   UNL A   1      53.166  25.783  24.775  1.00  0.00    -0.200 F 
ENDBRANCH  51  75
BRANCH  63  86
ATOM     86  C   UNL A   1      46.174  32.379  28.568  1.00  0.00     0.064 A 
ATOM     87  C   UNL A   1      46.111  33.389  27.596  1.00  0.00     0.173 A 
ATOM     88  C   UNL A   1      46.665  32.719  29.837  1.00  0.00     0.173 A 
ATOM     89  F   UNL A   1      45.663  33.112  26.362  1.00  0.00    -0.203 F 
ATOM     90  C   UNL A   1      46.544  34.682  27.880  1.00  0.00     0.198 A 
ATOM     91  C   UNL A   1      47.065  34.021  30.127  1.00  0.00     0.198 A 
ATOM     92  F   UNL A   1      46.740  31.793  30.805  1.00  0.00    -0.203 F 
ATOM     93  F   UNL A   1      46.520  35.619  26.922  1.00  0.00    -0.200 F 
ATOM     94  C   UNL A   1      47.012  34.998  29.146  1.00  0.00     0.200 A 
ATOM     95  F   UNL A   1      47.501  34.328  31.356  1.00  0.00    -0.200 F 
ATOM     96  F   UNL A   1      47.417  36.247  29.420  1.00  0.00    -0.200 F 
ENDBRANCH  63  86
ENDBRANCH  37  38
ENDBRANCH  29  32
ENDBRANCH  27  28
ENDBRANCH   1  27
TORSDOF 11
ENDMDL
MODEL 3
REMARK VINA RESULT:     -13.6      1.798      7.833
REMARK SMILES Cc1nc2ccc(Cl)cc2cc1C(=O)N1CCC(C(=O)NCCCNC(=O)c2ccc(-c3c4nc(c(-c5c(F)c(F)c(F)c(F)c5F)c5ccc([nH]5)c(-c5c(F)c(F)c(F)c(F)c5F)c5nc(c(-c6c(F)c(F)c(F)c(F)c6F)c6ccc3[nH]6)C=C5)C=C4)cc2)CC1
REMARK SMILES IDX 23 1 22 2 21 3 19 4 20 5 18 7 13 8 14 9 15 10 16 11 92 12
REMARK SMILES IDX 17 13 91 14 12 15 1 16 2 17 3 18 4 19 11 20 5 21 10 22 6 23
REMARK SMILES IDX 9 24 7 25 8 26 24 27 25 28 26 29 27 31 28 32 29 33 90 34
REMARK SMILES IDX 30 35 89 36 31 37 32 38 33 39 83 40 34 41 88 42 82 43 84 44
REMARK SMILES IDX 35 45 87 46 81 47 80 48 36 50 68 51 48 52 67 53 49 54 52 55
REMARK SMILES IDX 66 56 85 57 50 58 51 59 65 61 86 62 53 63 37 64 38 65 46 66
REMARK SMILES IDX 39 67 40 68 44 69 47 70 41 71 42 72 45 73 43 74 69 75 70 76
REMARK SMILES IDX 78 77 71 78 72 79 76 80 79 81 73 82 74 83 77 84 75 85 54 86
REMARK SMILES IDX 55 87 63 88 56 89 57 90 61 91 64 92 58 93 59 94 62 95 60 96
REMARK H PARENT 21 6 25 30 84 49 52 60
REMARK Flexibility Score: inf
ROOT
ATOM      1  C   UNL A   1      33.272  35.481  28.656  1.00  0.00     0.042 C 
ENDROOT
BRANCH   1   2
ATOM      2  C   UNL A   1      33.635  34.037  28.969  1.00  0.00     0.117 C 
BRANCH   2   3
ATOM      3  N   UNL A   1      35.016  33.730  28.630  1.00  0.00    -0.356 N 
ATOM      4  C   UNL A   1      35.604  32.564  28.250  1.00  0.00     0.223 C 
ATOM      5  O   UNL A   1      36.820  32.569  28.047  1.00  0.00    -0.275 OA
ATOM      6  H   UNL A   1      35.630  34.497  28.685  1.00  0.00     0.163 HD
BRANCH   4   7
ATOM      7  C   UNL A   1      34.798  31.288  28.079  1.00  0.00     0.082 C 
ATOM      8  C   UNL A   1      33.368  28.443  25.269  1.00  0.00     0.255 C 
ATOM      9  O   UNL A   1      32.897  28.943  24.253  1.00  0.00    -0.269 OA
ATOM     10  N   UNL A   1      33.792  29.225  26.348  1.00  0.00    -0.339 N 
ATOM     11  C   UNL A   1      32.873  30.255  26.797  1.00  0.00     0.120 C 
ATOM     12  C   UNL A   1      34.891  28.884  27.252  1.00  0.00     0.120 C 
ATOM     13  C   UNL A   1      33.577  31.534  27.186  1.00  0.00     0.035 C 
ATOM     14  C   UNL A   1      35.692  30.110  27.664  1.00  0.00     0.035 C 
BRANCH   8  15
ATOM     15  C   UNL A   1      33.288  26.967  25.464  1.00  0.00     0.061 A 
ATOM     16  C   UNL A   1      31.044  27.016  26.689  1.00  0.00     0.067 C 
ATOM     17  C   UNL A   1      32.255  26.320  26.141  1.00  0.00     0.051 A 
ATOM     18  N   UNL A   1      32.304  24.981  26.424  1.00  0.00    -0.252 NA
ATOM     19  C   UNL A   1      33.370  24.255  26.040  1.00  0.00     0.071 A 
ATOM     20  C   UNL A   1      34.400  26.199  25.099  1.00  0.00     0.026 A 
ATOM     21  C   UNL A   1      33.452  22.901  26.337  1.00  0.00     0.030 A 
ATOM     22  C   UNL A   1      34.444  24.831  25.344  1.00  0.00     0.002 A 
ATOM     23  C   UNL A   1      34.545  22.121  25.931  1.00  0.00     0.023 A 
ATOM     24  C   UNL A   1      35.539  24.063  24.922  1.00  0.00     0.030 A 
ATOM     25  C   UNL A   1      35.579  22.706  25.211  1.00  0.00     0.041 A 
ATOM     26  Cl  UNL A   1      36.908  21.760  24.673  1.00  0.00    -0.084 Cl
ENDBRANCH   8  15
ENDBRANCH   4   7
ENDBRANCH   2   3
ENDBRANCH   1   2
BRANCH   1  27
ATOM     27  C   UNL A   1      33.561  36.438  29.800  1.00  0.00     0.118 C 
BRANCH  27  28
ATOM     28  N   UNL A   1      32.529  36.402  30.827  1.00  0.00    -0.352 N 
ATOM     29  C   UNL A   1      32.480  35.694  32.000  1.00  0.00     0.251 C 
ATOM     30  H   UNL A   1      31.747  36.974  30.654  1.00  0.00     0.163 HD
ATOM     31  O   UNL A   1      31.428  35.632  32.636  1.00  0.00    -0.269 OA
BRANCH  29  32
ATOM     32  C   UNL A   1      33.681  34.990  32.492  1.00  0.00     0.039 A 
ATOM     33  C   UNL A   1      33.559  33.674  32.945  1.00  0.00     0.014 A 
ATOM     34  C   UNL A   1      34.925  35.624  32.509  1.00  0.00     0.014 A 
ATOM     35  C   UNL A   1      34.697  32.975  33.351  1.00  0.00     0.010 A 
ATOM     36  C   UNL A   1      36.068  34.897  32.814  1.00  0.00     0.010 A 
ATOM     37  C   UNL A   1      35.966  33.568  33.249  1.00  0.00    -0.014 A 
BRANCH  37  38
ATOM     38  C   UNL A   1      37.201  32.823  33.599  1.00  0.00     0.031 A 
ATOM     39  C   UNL A   1      37.946  33.154  34.861  1.00  0.00     0.074 A 
ATOM     40  C   UNL A   1      37.692  31.908  32.743  1.00  0.00     0.049 A 
ATOM     41  N   UNL A   1      39.087  32.686  35.297  1.00  0.00    -0.248 NA
ATOM     42  C   UNL A   1      37.345  34.176  35.733  1.00  0.00     0.031 C 
ATOM     43  C   UNL A   1      37.091  31.542  31.460  1.00  0.00     0.029 A 
ATOM     44  N   UNL A   1      38.822  31.133  32.813  1.00  0.00    -0.354 N 
ATOM     45  C   UNL A   1      39.346  33.365  36.481  1.00  0.00     0.074 A 
ATOM     46  C   UNL A   1      38.279  34.324  36.660  1.00  0.00     0.031 C 
ATOM     47  C   UNL A   1      37.849  30.605  30.871  1.00  0.00     0.029 A 
ATOM     48  C   UNL A   1      39.012  30.335  31.712  1.00  0.00     0.049 A 
ATOM     49  H   UNL A   1      39.439  31.147  33.581  1.00  0.00     0.167 HD
ATOM     50  C   UNL A   1      40.366  33.185  37.353  1.00  0.00     0.037 A 
ATOM     51  C   UNL A   1      40.017  29.494  31.406  1.00  0.00     0.037 A 
ATOM     52  C   UNL A   1      41.417  32.218  37.176  1.00  0.00     0.049 A 
ATOM     53  C   UNL A   1      41.145  29.315  32.385  1.00  0.00     0.074 A 
ATOM     54  C   UNL A   1      42.463  31.912  38.027  1.00  0.00     0.029 A 
ATOM     55  N   UNL A   1      41.560  31.405  36.059  1.00  0.00    -0.354 N 
ATOM     56  N   UNL A   1      41.340  29.904  33.540  1.00  0.00    -0.248 NA
ATOM     57  C   UNL A   1      42.190  28.347  32.023  1.00  0.00     0.031 C 
ATOM     58  C   UNL A   1      43.271  30.957  37.401  1.00  0.00     0.029 A 
ATOM     59  C   UNL A   1      42.694  30.619  36.188  1.00  0.00     0.049 A 
ATOM     60  H   UNL A   1      40.946  31.389  35.289  1.00  0.00     0.167 HD
ATOM     61  C   UNL A   1      42.511  29.364  34.053  1.00  0.00     0.074 A 
ATOM     62  C   UNL A   1      42.975  28.386  33.090  1.00  0.00     0.031 C 
ATOM     63  C   UNL A   1      43.144  29.651  35.218  1.00  0.00     0.037 A 
BRANCH  50  64
ATOM     64  C   UNL A   1      40.392  34.062  38.574  1.00  0.00     0.064 A 
ATOM     65  C   UNL A   1      41.084  35.285  38.592  1.00  0.00     0.173 A 
ATOM     66  C   UNL A   1      39.712  33.681  39.740  1.00  0.00     0.173 A 
ATOM     67  F   UNL A   1      41.760  35.695  37.508  1.00  0.00    -0.203 F 
ATOM     68  C   UNL A   1      41.133  36.066  39.744  1.00  0.00     0.198 A 
ATOM     69  C   UNL A   1      39.730  34.483  40.879  1.00  0.00     0.198 A 
ATOM     70  F   UNL A   1      39.028  32.528  39.779  1.00  0.00    -0.203 F 
ATOM     71  F   UNL A   1      41.858  37.193  39.757  1.00  0.00    -0.200 F 
ATOM     72  C   UNL A   1      40.451  35.667  40.884  1.00  0.00     0.200 A 
ATOM     73  F   UNL A   1      39.058  34.105  41.975  1.00  0.00    -0.200 F 
ATOM     74  F   UNL A   1      40.498  36.421  41.992  1.00  0.00    -0.200 F 
ENDBRANCH  50  64
BRANCH  51  75
ATOM     75  C   UNL A   1      39.989  28.754  30.117  1.00  0.00     0.064 A 
ATOM     76  C   UNL A   1      40.567  29.294  28.960  1.00  0.00     0.173 A 
ATOM     77  C   UNL A   1      39.404  27.483  30.021  1.00  0.00     0.173 A 
ATOM     78  F   UNL A   1      41.124  30.514  28.996  1.00  0.00    -0.203 F 
ATOM     79  C   UNL A   1      40.546  28.598  27.753  1.00  0.00     0.198 A 
ATOM     80  C   UNL A   1      39.410  26.775  28.821  1.00  0.00     0.198 A 
ATOM     81  F   UNL A   1      38.843  26.918  31.101  1.00  0.00    -0.203 F 
ATOM     82  F   UNL A   1      41.069  29.155  26.652  1.00  0.00    -0.200 F 
ATOM     83  C   UNL A   1      39.975  27.336  27.687  1.00  0.00     0.200 A 
ATOM     84  F   UNL A   1      38.872  25.549  28.767  1.00  0.00    -0.200 F 
ATOM     85  F   UNL A   1      39.964  26.664  26.528  1.00  0.00    -0.200 F 
ENDBRANCH  51  75
BRANCH  63  86
ATOM     86  C   UNL A   1      44.392  28.877  35.534  1.00  0.00     0.064 A 
ATOM     87  C   UNL A   1      44.351  27.667  36.242  1.00  0.00     0.173 A 
ATOM     88  C   UNL A   1      45.640  29.330  35.079  1.00  0.00     0.173 A 
ATOM     89  F   UNL A   1      43.185  27.198  36.712  1.00  0.00    -0.203 F 
ATOM     90  C   UNL A   1      45.517  26.951  36.503  1.00  0.00     0.198 A 
ATOM     91  C   UNL A   1      46.798  28.594  35.312  1.00  0.00     0.198 A 
ATOM     92  F   UNL A   1      45.734  30.477  34.391  1.00  0.00    -0.203 F 
ATOM     93  F   UNL A   1      45.460  25.822  37.223  1.00  0.00    -0.200 F 
ATOM     94  C   UNL A   1      46.737  27.410  36.030  1.00  0.00     0.200 A 
ATOM     95  F   UNL A   1      47.974  29.031  34.840  1.00  0.00    -0.200 F 
ATOM     96  F   UNL A   1      47.857  26.713  36.273  1.00  0.00    -0.200 F 
ENDBRANCH  63  86
ENDBRANCH  37  38
ENDBRANCH  29  32
ENDBRANCH  27  28
ENDBRANCH   1  27
TORSDOF 11
ENDMDL
