MODEL 1
REMARK VINA RESULT:     -12.1      0.000      0.000
REMARK SMILES Cc1nn(C)c(=O)c(C(=O)N[C@H](C)CC(=O)NCCCNC(=O)c2ccc(-c3c4nc(c(-c5c(F)c(F)c(F)c(F)c5F)c5ccc([nH]5)c(-c5c(F)c(F)c(F)c(F)c5F)c5nc(c(-c6c(F)c(F)c(F)c(F)c6F)c6ccc3[nH]6)C=C5)C=C4)cc2)c1C
REMARK SMILES IDX 18 1 17 2 15 3 16 4 14 6 12 7 13 8 11 9 9 10 10 11 8 13 1 14
REMARK SMILES IDX 2 15 3 16 87 17 4 18 88 19 5 20 6 21 7 22 19 23 20 24 21 25
REMARK SMILES IDX 22 26 23 28 24 29 25 30 86 31 26 32 85 33 27 34 28 35 29 36
REMARK SMILES IDX 79 37 30 38 84 39 78 40 80 41 31 42 83 43 77 44 76 45 32 47
REMARK SMILES IDX 64 48 44 49 63 50 45 51 48 52 62 53 81 54 46 55 47 56 61 58
REMARK SMILES IDX 82 59 49 60 33 61 34 62 42 63 35 64 36 65 40 66 43 67 37 68
REMARK SMILES IDX 38 69 41 70 39 71 65 72 66 73 74 74 67 75 68 76 72 77 75 78
REMARK SMILES IDX 69 79 70 80 73 81 71 82 50 83 51 84 59 85 52 86 53 87 57 88
REMARK SMILES IDX 60 89 54 90 55 91 58 92 56 93
REMARK H PARENT 17 5 11 12 21 27 80 46 48 57
REMARK Flexibility Score: inf
ROOT
ATOM      1  C   UNL A   1      36.707  20.983  24.746  1.00  0.00     0.117 C 
ENDROOT
BRANCH   1   2
ATOM      2  N   UNL A   1      35.607  20.853  25.677  1.00  0.00    -0.356 N 
ATOM      3  C   UNL A   1      34.935  21.808  26.363  1.00  0.00     0.222 C 
ATOM      4  O   UNL A   1      34.021  21.436  27.100  1.00  0.00    -0.275 OA
ATOM      5  H   UNL A   1      35.300  19.931  25.834  1.00  0.00     0.163 HD
BRANCH   3   6
ATOM      6  C   UNL A   1      35.279  23.277  26.205  1.00  0.00     0.124 C 
BRANCH   6   7
ATOM      7  C   UNL A   1      34.217  24.145  25.484  1.00  0.00     0.088 C 
ATOM      8  C   UNL A   1      34.020  23.666  24.039  1.00  0.00     0.031 C 
BRANCH   7   9
ATOM      9  N   UNL A   1      32.932  23.978  26.182  1.00  0.00    -0.349 N 
ATOM     10  C   UNL A   1      31.783  24.655  26.420  1.00  0.00     0.257 C 
ATOM     11  O   UNL A   1      31.075  24.100  27.271  1.00  0.00    -0.269 OA
ATOM     12  H   UNL A   1      32.896  23.094  26.613  1.00  0.00     0.164 HD
BRANCH  10  13
ATOM     13  C   UNL A   1      31.290  25.934  25.792  1.00  0.00     0.111 A 
ATOM     14  C   UNL A   1      29.819  27.803  22.803  1.00  0.00     0.069 C 
ATOM     15  C   UNL A   1      30.597  27.513  24.075  1.00  0.00     0.062 A 
ATOM     16  N   UNL A   1      31.037  28.561  24.687  1.00  0.00    -0.175 NA
ATOM     17  C   UNL A   1      30.816  26.107  24.540  1.00  0.00    -0.010 A 
ATOM     18  N   UNL A   1      31.630  28.381  25.897  1.00  0.00    -0.232 N 
ATOM     19  C   UNL A   1      30.659  25.058  23.499  1.00  0.00     0.047 C 
ATOM     20  C   UNL A   1      32.179  29.584  26.499  1.00  0.00     0.178 C 
ATOM     21  C   UNL A   1      31.588  27.183  26.598  1.00  0.00     0.279 A 
ATOM     22  O   UNL A   1      31.803  27.128  27.808  1.00  0.00    -0.267 OA
ENDBRANCH  10  13
ENDBRANCH   7   9
ENDBRANCH   6   7
ENDBRANCH   3   6
ENDBRANCH   1   2
BRANCH   1  23
ATOM     23  C   UNL A   1      37.762  19.914  25.002  1.00  0.00     0.042 C 
BRANCH  23  24
ATOM     24  C   UNL A   1      38.947  20.423  25.814  1.00  0.00     0.118 C 
BRANCH  24  25
ATOM     25  N   UNL A   1      39.990  19.417  25.934  1.00  0.00    -0.352 N 
ATOM     26  C   UNL A   1      41.347  19.554  26.058  1.00  0.00     0.251 C 
ATOM     27  H   UNL A   1      39.668  18.486  25.924  1.00  0.00     0.163 HD
ATOM     28  O   UNL A   1      42.069  18.580  25.834  1.00  0.00    -0.269 OA
BRANCH  26  29
ATOM     29  C   UNL A   1      41.961  20.837  26.461  1.00  0.00     0.039 A 
ATOM     30  C   UNL A   1      42.095  21.122  27.825  1.00  0.00     0.014 A 
ATOM     31  C   UNL A   1      42.307  21.806  25.516  1.00  0.00     0.014 A 
ATOM     32  C   UNL A   1      42.591  22.361  28.236  1.00  0.00     0.010 A 
ATOM     33  C   UNL A   1      42.879  23.009  25.922  1.00  0.00     0.010 A 
ATOM     34  C   UNL A   1      42.996  23.312  27.287  1.00  0.00    -0.014 A 
BRANCH  34  35
ATOM     35  C   UNL A   1      43.464  24.660  27.692  1.00  0.00     0.031 A 
ATOM     36  C   UNL A   1      42.455  25.717  28.053  1.00  0.00     0.074 A 
ATOM     37  C   UNL A   1      44.778  24.947  27.699  1.00  0.00     0.049 A 
ATOM     38  N   UNL A   1      42.643  26.982  28.333  1.00  0.00    -0.248 NA
ATOM     39  C   UNL A   1      41.044  25.302  28.078  1.00  0.00     0.031 C 
ATOM     40  C   UNL A   1      45.850  24.012  27.359  1.00  0.00     0.029 A 
ATOM     41  N   UNL A   1      45.436  26.114  28.001  1.00  0.00    -0.354 N 
ATOM     42  C   UNL A   1      41.377  27.512  28.549  1.00  0.00     0.074 A 
ATOM     43  C   UNL A   1      40.425  26.447  28.319  1.00  0.00     0.031 C 
ATOM     44  C   UNL A   1      47.033  24.633  27.494  1.00  0.00     0.029 A 
ATOM     45  C   UNL A   1      46.800  26.020  27.891  1.00  0.00     0.049 A 
ATOM     46  H   UNL A   1      44.972  26.939  28.269  1.00  0.00     0.167 HD
ATOM     47  C   UNL A   1      41.040  28.765  28.934  1.00  0.00     0.037 A 
ATOM     48  C   UNL A   1      47.754  26.951  28.084  1.00  0.00     0.037 A 
ATOM     49  C   UNL A   1      41.990  29.812  29.198  1.00  0.00     0.049 A 
ATOM     50  C   UNL A   1      47.353  28.343  28.489  1.00  0.00     0.074 A 
ATOM     51  C   UNL A   1      41.752  31.106  29.625  1.00  0.00     0.029 A 
ATOM     52  N   UNL A   1      43.365  29.679  29.069  1.00  0.00    -0.354 N 
ATOM     53  N   UNL A   1      46.154  28.827  28.707  1.00  0.00    -0.248 NA
ATOM     54  C   UNL A   1      48.437  29.318  28.671  1.00  0.00     0.031 C 
ATOM     55  C   UNL A   1      42.981  31.767  29.722  1.00  0.00     0.029 A 
ATOM     56  C   UNL A   1      43.987  30.873  29.395  1.00  0.00     0.049 A 
ATOM     57  H   UNL A   1      43.829  28.859  28.785  1.00  0.00     0.167 HD
ATOM     58  C   UNL A   1      46.340  30.155  29.070  1.00  0.00     0.074 A 
ATOM     59  C   UNL A   1      47.768  30.395  29.060  1.00  0.00     0.031 C 
ATOM     60  C   UNL A   1      45.411  31.091  29.378  1.00  0.00     0.037 A 
BRANCH  47  61
ATOM     61  C   UNL A   1      39.581  29.072  29.105  1.00  0.00     0.064 A 
ATOM     62  C   UNL A   1      38.784  29.466  28.020  1.00  0.00     0.173 A 
ATOM     63  C   UNL A   1      38.962  28.926  30.356  1.00  0.00     0.173 A 
ATOM     64  F   UNL A   1      39.332  29.635  26.807  1.00  0.00    -0.203 F 
ATOM     65  C   UNL A   1      37.427  29.724  28.185  1.00  0.00     0.198 A 
ATOM     66  C   UNL A   1      37.598  29.157  30.512  1.00  0.00     0.198 A 
ATOM     67  F   UNL A   1      39.679  28.548  31.425  1.00  0.00    -0.203 F 
ATOM     68  F   UNL A   1      36.694  30.141  27.143  1.00  0.00    -0.200 F 
ATOM     69  C   UNL A   1      36.832  29.561  29.428  1.00  0.00     0.200 A 
ATOM     70  F   UNL A   1      37.023  28.990  31.711  1.00  0.00    -0.200 F 
ATOM     71  F   UNL A   1      35.523  29.800  29.581  1.00  0.00    -0.200 F 
ENDBRANCH  47  61
BRANCH  48  72
ATOM     72  C   UNL A   1      49.185  26.584  27.924  1.00  0.00     0.064 A 
ATOM     73  C   UNL A   1      49.764  26.507  26.650  1.00  0.00     0.173 A 
ATOM     74  C   UNL A   1      50.003  26.322  29.031  1.00  0.00     0.173 A 
ATOM     75  F   UNL A   1      49.015  26.729  25.560  1.00  0.00    -0.203 F 
ATOM     76  C   UNL A   1      51.107  26.171  26.489  1.00  0.00     0.198 A 
ATOM     77  C   UNL A   1      51.352  26.011  28.871  1.00  0.00     0.198 A 
ATOM     78  F   UNL A   1      49.498  26.387  30.271  1.00  0.00    -0.203 F 
ATOM     79  F   UNL A   1      51.627  26.072  25.258  1.00  0.00    -0.200 F 
ATOM     80  C   UNL A   1      51.902  25.930  27.599  1.00  0.00     0.200 A 
ATOM     81  F   UNL A   1      52.121  25.793  29.946  1.00  0.00    -0.200 F 
ATOM     82  F   UNL A   1      53.195  25.618  27.445  1.00  0.00    -0.200 F 
ENDBRANCH  48  72
BRANCH  60  83
ATOM     83  C   UNL A   1      45.906  32.459  29.744  1.00  0.00     0.064 A 
ATOM     84  C   UNL A   1      46.265  32.776  31.062  1.00  0.00     0.173 A 
ATOM     85  C   UNL A   1      46.081  33.441  28.759  1.00  0.00     0.173 A 
ATOM     86  F   UNL A   1      46.104  31.872  32.041  1.00  0.00    -0.203 F 
ATOM     87  C   UNL A   1      46.765  34.035  31.384  1.00  0.00     0.198 A 
ATOM     88  C   UNL A   1      46.606  34.690  29.079  1.00  0.00     0.198 A 
ATOM     89  F   UNL A   1      45.761  33.184  27.482  1.00  0.00    -0.203 F 
ATOM     90  F   UNL A   1      47.067  34.329  32.655  1.00  0.00    -0.200 F 
ATOM     91  C   UNL A   1      46.942  34.988  30.391  1.00  0.00     0.200 A 
ATOM     92  F   UNL A   1      46.790  35.604  28.117  1.00  0.00    -0.200 F 
ATOM     93  F   UNL A   1      47.434  36.195  30.700  1.00  0.00    -0.200 F 
ENDBRANCH  60  83
ENDBRANCH  34  35
ENDBRANCH  26  29
ENDBRANCH  24  25
ENDBRANCH  23  24
ENDBRANCH   1  23
TORSDOF 13
ENDMDL
MODEL 2
REMARK VINA RESULT:     -12.1      5.240     10.603
REMARK SMILES Cc1nn(C)c(=O)c(C(=O)N[C@H](C)CC(=O)NCCCNC(=O)c2ccc(-c3c4nc(c(-c5c(F)c(F)c(F)c(F)c5F)c5ccc([nH]5)c(-c5c(F)c(F)c(F)c(F)c5F)c5nc(c(-c6c(F)c(F)c(F)c(F)c6F)c6ccc3[nH]6)C=C5)C=C4)cc2)c1C
REMARK SMILES IDX 18 1 17 2 15 3 16 4 14 6 12 7 13 8 11 9 9 10 10 11 8 13 1 14
REMARK SMILES IDX 2 15 3 16 87 17 4 18 88 19 5 20 6 21 7 22 19 23 20 24 21 25
REMARK SMILES IDX 22 26 23 28 24 29 25 30 86 31 26 32 85 33 27 34 28 35 29 36
REMARK SMILES IDX 79 37 30 38 84 39 78 40 80 41 31 42 83 43 77 44 76 45 32 47
REMARK SMILES IDX 64 48 44 49 63 50 45 51 48 52 62 53 81 54 46 55 47 56 61 58
REMARK SMILES IDX 82 59 49 60 33 61 34 62 42 63 35 64 36 65 40 66 43 67 37 68
REMARK SMILES IDX 38 69 41 70 39 71 65 72 66 73 74 74 67 75 68 76 72 77 75 78
REMARK SMILES IDX 69 79 70 80 73 81 71 82 50 83 51 84 59 85 52 86 53 87 57 88
REMARK SMILES IDX 60 89 54 90 55 91 58 92 56 93
REMARK H PARENT 17 5 11 12 21 27 80 46 48 57
REMARK Flexibility Score: inf
ROOT
ATOM      1  C   UNL A   1      31.392  30.759  26.484  1.00  0.00     0.117 C 
ENDROOT
BRANCH   1   2
ATOM      2  N   UNL A   1      31.506  30.316  25.112  1.00  0.00    -0.356 N 
ATOM      3  C   UNL A   1      31.384  29.072  24.589  1.00  0.00     0.222 C 
ATOM      4  O   UNL A   1      31.523  28.956  23.371  1.00  0.00    -0.275 OA
ATOM      5  H   UNL A   1      31.701  31.026  24.459  1.00  0.00     0.163 HD
BRANCH   3   6
ATOM      6  C   UNL A   1      31.061  27.880  25.469  1.00  0.00     0.124 C 
BRANCH   6   7
ATOM      7  C   UNL A   1      32.216  26.871  25.691  1.00  0.00     0.088 C 
ATOM      8  C   UNL A   1      33.352  27.519  26.494  1.00  0.00     0.031 C 
BRANCH   7   9
ATOM      9  N   UNL A   1      31.700  25.746  26.488  1.00  0.00    -0.349 N 
ATOM     10  C   UNL A   1      31.715  24.392  26.506  1.00  0.00     0.257 C 
ATOM     11  O   UNL A   1      30.918  23.921  27.328  1.00  0.00    -0.269 OA
ATOM     12  H   UNL A   1      31.178  26.087  27.251  1.00  0.00     0.164 HD
BRANCH  10  13
ATOM     13  C   UNL A   1      32.553  23.443  25.687  1.00  0.00     0.111 A 
ATOM     14  C   UNL A   1      35.504  21.034  25.405  1.00  0.00     0.069 C 
ATOM     15  C   UNL A   1      34.437  22.048  25.033  1.00  0.00     0.062 A 
ATOM     16  N   UNL A   1      34.294  22.237  23.764  1.00  0.00    -0.175 NA
ATOM     17  C   UNL A   1      33.642  22.753  26.088  1.00  0.00    -0.010 A 
ATOM     18  N   UNL A   1      33.271  23.035  23.357  1.00  0.00    -0.232 N 
ATOM     19  C   UNL A   1      34.251  22.765  27.444  1.00  0.00     0.047 C 
ATOM     20  C   UNL A   1      33.210  23.277  21.925  1.00  0.00     0.178 C 
ATOM     21  C   UNL A   1      32.257  23.466  24.201  1.00  0.00     0.279 A 
ATOM     22  O   UNL A   1      31.177  23.871  23.771  1.00  0.00    -0.267 OA
ENDBRANCH  10  13
ENDBRANCH   7   9
ENDBRANCH   6   7
ENDBRANCH   3   6
ENDBRANCH   1   2
BRANCH   1  23
ATOM     23  C   UNL A   1      31.401  32.281  26.564  1.00  0.00     0.042 C 
BRANCH  23  24
ATOM     24  C   UNL A   1      32.673  32.841  27.191  1.00  0.00     0.118 C 
BRANCH  24  25
ATOM     25  N   UNL A   1      32.512  34.231  27.587  1.00  0.00    -0.352 N 
ATOM     26  C   UNL A   1      33.041  34.920  28.646  1.00  0.00     0.251 C 
ATOM     27  H   UNL A   1      31.927  34.762  26.999  1.00  0.00     0.163 HD
ATOM     28  O   UNL A   1      32.535  35.996  28.971  1.00  0.00    -0.269 OA
BRANCH  26  29
ATOM     29  C   UNL A   1      34.206  34.408  29.398  1.00  0.00     0.039 A 
ATOM     30  C   UNL A   1      35.487  34.599  28.870  1.00  0.00     0.014 A 
ATOM     31  C   UNL A   1      34.044  33.648  30.560  1.00  0.00     0.014 A 
ATOM     32  C   UNL A   1      36.599  34.051  29.513  1.00  0.00     0.010 A 
ATOM     33  C   UNL A   1      35.157  33.173  31.247  1.00  0.00     0.010 A 
ATOM     34  C   UNL A   1      36.444  33.341  30.713  1.00  0.00    -0.014 A 
BRANCH  34  35
ATOM     35  C   UNL A   1      37.597  32.692  31.383  1.00  0.00     0.031 A 
ATOM     36  C   UNL A   1      38.317  31.564  30.693  1.00  0.00     0.074 A 
ATOM     37  C   UNL A   1      37.972  33.081  32.615  1.00  0.00     0.049 A 
ATOM     38  N   UNL A   1      39.277  30.795  31.141  1.00  0.00    -0.248 NA
ATOM     39  C   UNL A   1      37.881  31.243  29.325  1.00  0.00     0.031 C 
ATOM     40  C   UNL A   1      37.347  34.153  33.390  1.00  0.00     0.029 A 
ATOM     41  N   UNL A   1      38.970  32.615  33.433  1.00  0.00    -0.354 N 
ATOM     42  C   UNL A   1      39.545  29.893  30.118  1.00  0.00     0.074 A 
ATOM     43  C   UNL A   1      38.614  30.175  29.047  1.00  0.00     0.031 C 
ATOM     44  C   UNL A   1      37.991  34.279  34.562  1.00  0.00     0.029 A 
ATOM     45  C   UNL A   1      39.046  33.271  34.636  1.00  0.00     0.049 A 
ATOM     46  H   UNL A   1      39.573  31.878  33.182  1.00  0.00     0.167 HD
ATOM     47  C   UNL A   1      40.500  28.936  30.066  1.00  0.00     0.037 A 
ATOM     48  C   UNL A   1      39.872  33.078  35.682  1.00  0.00     0.037 A 
ATOM     49  C   UNL A   1      41.448  28.681  31.117  1.00  0.00     0.049 A 
ATOM     50  C   UNL A   1      40.911  31.992  35.608  1.00  0.00     0.074 A 
ATOM     51  C   UNL A   1      42.476  27.756  31.146  1.00  0.00     0.029 A 
ATOM     52  N   UNL A   1      41.488  29.364  32.324  1.00  0.00    -0.354 N 
ATOM     53  N   UNL A   1      41.166  31.158  34.630  1.00  0.00    -0.248 NA
ATOM     54  C   UNL A   1      41.774  31.819  36.785  1.00  0.00     0.031 C 
ATOM     55  C   UNL A   1      43.118  27.856  32.385  1.00  0.00     0.029 A 
ATOM     56  C   UNL A   1      42.516  28.871  33.111  1.00  0.00     0.049 A 
ATOM     57  H   UNL A   1      40.876  30.090  32.582  1.00  0.00     0.167 HD
ATOM     58  C   UNL A   1      42.228  30.374  35.064  1.00  0.00     0.074 A 
ATOM     59  C   UNL A   1      42.581  30.846  36.387  1.00  0.00     0.031 C 
ATOM     60  C   UNL A   1      42.851  29.354  34.426  1.00  0.00     0.037 A 
BRANCH  47  61
ATOM     61  C   UNL A   1      40.577  28.097  28.824  1.00  0.00     0.064 A 
ATOM     62  C   UNL A   1      41.376  28.475  27.734  1.00  0.00     0.173 A 
ATOM     63  C   UNL A   1      39.882  26.881  28.738  1.00  0.00     0.173 A 
ATOM     64  F   UNL A   1      42.047  29.637  27.761  1.00  0.00    -0.203 F 
ATOM     65  C   UNL A   1      41.459  27.679  26.596  1.00  0.00     0.198 A 
ATOM     66  C   UNL A   1      39.990  26.073  27.609  1.00  0.00     0.198 A 
ATOM     67  F   UNL A   1      39.106  26.472  29.753  1.00  0.00    -0.203 F 
ATOM     68  F   UNL A   1      42.195  28.081  25.550  1.00  0.00    -0.200 F 
ATOM     69  C   UNL A   1      40.774  26.474  26.538  1.00  0.00     0.200 A 
ATOM     70  F   UNL A   1      39.335  24.904  27.558  1.00  0.00    -0.200 F 
ATOM     71  F   UNL A   1      40.864  25.704  25.445  1.00  0.00    -0.200 F 
ENDBRANCH  47  61
BRANCH  48  72
ATOM     72  C   UNL A   1      39.767  33.953  36.877  1.00  0.00     0.064 A 
ATOM     73  C   UNL A   1      40.468  35.166  36.939  1.00  0.00     0.173 A 
ATOM     74  C   UNL A   1      38.957  33.611  37.969  1.00  0.00     0.173 A 
ATOM     75  F   UNL A   1      41.272  35.525  35.927  1.00  0.00    -0.203 F 
ATOM     76  C   UNL A   1      40.372  35.998  38.052  1.00  0.00     0.198 A 
ATOM     77  C   UNL A   1      38.841  34.456  39.071  1.00  0.00     0.198 A 
ATOM     78  F   UNL A   1      38.263  32.464  37.957  1.00  0.00    -0.203 F 
ATOM     79  F   UNL A   1      41.078  37.135  38.098  1.00  0.00    -0.200 F 
ATOM     80  C   UNL A   1      39.552  35.646  39.114  1.00  0.00     0.200 A 
ATOM     81  F   UNL A   1      38.038  34.120  40.089  1.00  0.00    -0.200 F 
ATOM     82  F   UNL A   1      39.450  36.451  40.179  1.00  0.00    -0.200 F 
ENDBRANCH  48  72
BRANCH  60  83
ATOM     83  C   UNL A   1      43.987  28.686  35.140  1.00  0.00     0.064 A 
ATOM     84  C   UNL A   1      43.777  27.566  35.958  1.00  0.00     0.173 A 
ATOM     85  C   UNL A   1      45.305  29.131  34.958  1.00  0.00     0.173 A 
ATOM     86  F   UNL A   1      42.533  27.110  36.172  1.00  0.00    -0.203 F 
ATOM     87  C   UNL A   1      44.844  26.926  36.582  1.00  0.00     0.198 A 
ATOM     88  C   UNL A   1      46.372  28.472  35.562  1.00  0.00     0.198 A 
ATOM     89  F   UNL A   1      45.559  30.192  34.179  1.00  0.00    -0.203 F 
ATOM     90  F   UNL A   1      44.617  25.881  37.389  1.00  0.00    -0.200 F 
ATOM     91  C   UNL A   1      46.141  27.375  36.378  1.00  0.00     0.200 A 
ATOM     92  F   UNL A   1      47.625  28.898  35.352  1.00  0.00    -0.200 F 
ATOM     93  F   UNL A   1      47.168  26.751  36.970  1.00  0.00    -0.200 F 
ENDBRANCH  60  83
ENDBRANCH  34  35
ENDBRANCH  26  29
ENDBRANCH  24  25
ENDBRANCH  23  24
ENDBRANCH   1  23
TORSDOF 13
ENDMDL
MODEL 3
REMARK VINA RESULT:     -12.1      5.262     10.656
REMARK SMILES Cc1nn(C)c(=O)c(C(=O)N[C@H](C)CC(=O)NCCCNC(=O)c2ccc(-c3c4nc(c(-c5c(F)c(F)c(F)c(F)c5F)c5ccc([nH]5)c(-c5c(F)c(F)c(F)c(F)c5F)c5nc(c(-c6c(F)c(F)c(F)c(F)c6F)c6ccc3[nH]6)C=C5)C=C4)cc2)c1C
REMARK SMILES IDX 18 1 17 2 15 3 16 4 14 6 12 7 13 8 11 9 9 10 10 11 8 13 1 14
REMARK SMILES IDX 2 15 3 16 87 17 4 18 88 19 5 20 6 21 7 22 19 23 20 24 21 25
REMARK SMILES IDX 22 26 23 28 24 29 25 30 86 31 26 32 85 33 27 34 28 35 29 36
REMARK SMILES IDX 79 37 30 38 84 39 78 40 80 41 31 42 83 43 77 44 76 45 32 47
REMARK SMILES IDX 64 48 44 49 63 50 45 51 48 52 62 53 81 54 46 55 47 56 61 58
REMARK SMILES IDX 82 59 49 60 33 61 34 62 42 63 35 64 36 65 40 66 43 67 37 68
REMARK SMILES IDX 38 69 41 70 39 71 65 72 66 73 74 74 67 75 68 76 72 77 75 78
REMARK SMILES IDX 69 79 70 80 73 81 71 82 50 83 51 84 59 85 52 86 53 87 57 88
REMARK SMILES IDX 60 89 54 90 55 91 58 92 56 93
REMARK H PARENT 17 5 11 12 21 27 80 46 48 57
REMARK Flexibility Score: inf
ROOT
ATOM      1  C   UNL A   1      31.384  30.779  26.504  1.00  0.00     0.117 C 
ENDROOT
BRANCH   1   2
ATOM      2  N   UNL A   1      31.636  30.384  25.135  1.00  0.00    -0.356 N 
ATOM      3  C   UNL A   1      31.596  29.156  24.566  1.00  0.00     0.222 C 
ATOM      4  O   UNL A   1      31.851  29.083  23.363  1.00  0.00    -0.275 OA
ATOM      5  H   UNL A   1      31.872  31.120  24.525  1.00  0.00     0.163 HD
BRANCH   3   6
ATOM      6  C   UNL A   1      31.224  27.928  25.374  1.00  0.00     0.124 C 
BRANCH   6   7
ATOM      7  C   UNL A   1      32.354  26.889  25.584  1.00  0.00     0.088 C 
ATOM      8  C   UNL A   1      33.531  27.517  26.342  1.00  0.00     0.031 C 
BRANCH   7   9
ATOM      9  N   UNL A   1      31.828  25.795  26.417  1.00  0.00    -0.349 N 
ATOM     10  C   UNL A   1      31.815  24.441  26.468  1.00  0.00     0.257 C 
ATOM     11  O   UNL A   1      31.022  24.008  27.314  1.00  0.00    -0.269 OA
ATOM     12  H   UNL A   1      31.326  26.165  27.178  1.00  0.00     0.164 HD
BRANCH  10  13
ATOM     13  C   UNL A   1      32.621  23.455  25.661  1.00  0.00     0.111 A 
ATOM     14  C   UNL A   1      35.501  20.959  25.400  1.00  0.00     0.069 C 
ATOM     15  C   UNL A   1      34.460  21.997  25.018  1.00  0.00     0.062 A 
ATOM     16  N   UNL A   1      34.312  22.167  23.747  1.00  0.00    -0.175 NA
ATOM     17  C   UNL A   1      33.693  22.742  26.066  1.00  0.00    -0.010 A 
ATOM     18  N   UNL A   1      33.309  22.986  23.333  1.00  0.00    -0.232 N 
ATOM     19  C   UNL A   1      34.312  22.761  27.417  1.00  0.00     0.047 C 
ATOM     20  C   UNL A   1      33.244  23.205  21.898  1.00  0.00     0.178 C 
ATOM     21  C   UNL A   1      32.314  23.461  24.176  1.00  0.00     0.279 A 
ATOM     22  O   UNL A   1      31.243  23.888  23.746  1.00  0.00    -0.267 OA
ENDBRANCH  10  13
ENDBRANCH   7   9
ENDBRANCH   6   7
ENDBRANCH   3   6
ENDBRANCH   1   2
BRANCH   1  23
ATOM     23  C   UNL A   1      31.357  32.297  26.633  1.00  0.00     0.042 C 
BRANCH  23  24
ATOM     24  C   UNL A   1      32.655  32.874  27.189  1.00  0.00     0.118 C 
BRANCH  24  25
ATOM     25  N   UNL A   1      32.498  34.264  27.587  1.00  0.00    -0.352 N 
ATOM     26  C   UNL A   1      33.030  34.949  28.646  1.00  0.00     0.251 C 
ATOM     27  H   UNL A   1      31.916  34.798  26.999  1.00  0.00     0.163 HD
ATOM     28  O   UNL A   1      32.528  36.027  28.973  1.00  0.00    -0.269 OA
BRANCH  26  29
ATOM     29  C   UNL A   1      34.193  34.432  29.398  1.00  0.00     0.039 A 
ATOM     30  C   UNL A   1      35.473  34.598  28.859  1.00  0.00     0.014 A 
ATOM     31  C   UNL A   1      34.028  33.691  30.572  1.00  0.00     0.014 A 
ATOM     32  C   UNL A   1      36.581  34.044  29.503  1.00  0.00     0.010 A 
ATOM     33  C   UNL A   1      35.140  33.210  31.258  1.00  0.00     0.010 A 
ATOM     34  C   UNL A   1      36.424  33.352  30.713  1.00  0.00    -0.014 A 
BRANCH  34  35
ATOM     35  C   UNL A   1      37.573  32.696  31.385  1.00  0.00     0.031 A 
ATOM     36  C   UNL A   1      38.289  31.566  30.695  1.00  0.00     0.074 A 
ATOM     37  C   UNL A   1      37.948  33.083  32.618  1.00  0.00     0.049 A 
ATOM     38  N   UNL A   1      39.244  30.792  31.144  1.00  0.00    -0.248 NA
ATOM     39  C   UNL A   1      37.854  31.248  29.325  1.00  0.00     0.031 C 
ATOM     40  C   UNL A   1      37.326  34.156  33.393  1.00  0.00     0.029 A 
ATOM     41  N   UNL A   1      38.942  32.611  33.438  1.00  0.00    -0.354 N 
ATOM     42  C   UNL A   1      39.509  29.890  30.121  1.00  0.00     0.074 A 
ATOM     43  C   UNL A   1      38.582  30.177  29.048  1.00  0.00     0.031 C 
ATOM     44  C   UNL A   1      37.969  34.278  34.566  1.00  0.00     0.029 A 
ATOM     45  C   UNL A   1      39.019  33.265  34.642  1.00  0.00     0.049 A 
ATOM     46  H   UNL A   1      39.542  31.871  33.187  1.00  0.00     0.167 HD
ATOM     47  C   UNL A   1      40.460  28.927  30.069  1.00  0.00     0.037 A 
ATOM     48  C   UNL A   1      39.842  33.066  35.689  1.00  0.00     0.037 A 
ATOM     49  C   UNL A   1      41.404  28.666  31.122  1.00  0.00     0.049 A 
ATOM     50  C   UNL A   1      40.875  31.975  35.615  1.00  0.00     0.074 A 
ATOM     51  C   UNL A   1      42.428  27.736  31.152  1.00  0.00     0.029 A 
ATOM     52  N   UNL A   1      41.446  29.348  32.330  1.00  0.00    -0.354 N 
ATOM     53  N   UNL A   1      41.128  31.141  34.637  1.00  0.00    -0.248 NA
ATOM     54  C   UNL A   1      41.735  31.797  36.794  1.00  0.00     0.031 C 
ATOM     55  C   UNL A   1      43.068  27.832  32.392  1.00  0.00     0.029 A 
ATOM     56  C   UNL A   1      42.469  28.850  33.118  1.00  0.00     0.049 A 
ATOM     57  H   UNL A   1      40.837  30.077  32.588  1.00  0.00     0.167 HD
ATOM     58  C   UNL A   1      42.185  30.352  35.072  1.00  0.00     0.074 A 
ATOM     59  C   UNL A   1      42.539  30.820  36.396  1.00  0.00     0.031 C 
ATOM     60  C   UNL A   1      42.804  29.329  34.434  1.00  0.00     0.037 A 
BRANCH  47  61
ATOM     61  C   UNL A   1      40.535  28.090  28.826  1.00  0.00     0.064 A 
ATOM     62  C   UNL A   1      41.325  28.474  27.731  1.00  0.00     0.173 A 
ATOM     63  C   UNL A   1      39.847  26.869  28.744  1.00  0.00     0.173 A 
ATOM     64  F   UNL A   1      41.988  29.640  27.755  1.00  0.00    -0.203 F 
ATOM     65  C   UNL A   1      41.406  27.678  26.593  1.00  0.00     0.198 A 
ATOM     66  C   UNL A   1      39.954  26.062  27.614  1.00  0.00     0.198 A 
ATOM     67  F   UNL A   1      39.081  26.455  29.764  1.00  0.00    -0.203 F 
ATOM     68  F   UNL A   1      42.133  28.086  25.543  1.00  0.00    -0.200 F 
ATOM     69  C   UNL A   1      40.729  26.469  26.538  1.00  0.00     0.200 A 
ATOM     70  F   UNL A   1      39.307  24.889  27.566  1.00  0.00    -0.200 F 
ATOM     71  F   UNL A   1      40.818  25.700  25.445  1.00  0.00    -0.200 F 
ENDBRANCH  47  61
BRANCH  48  72
ATOM     72  C   UNL A   1      39.739  33.941  36.885  1.00  0.00     0.064 A 
ATOM     73  C   UNL A   1      40.437  35.155  36.944  1.00  0.00     0.173 A 
ATOM     74  C   UNL A   1      38.934  33.596  37.979  1.00  0.00     0.173 A 
ATOM     75  F   UNL A   1      41.236  35.517  35.929  1.00  0.00    -0.203 F 
ATOM     76  C   UNL A   1      40.342  35.987  38.058  1.00  0.00     0.198 A 
ATOM     77  C   UNL A   1      38.819  34.440  39.082  1.00  0.00     0.198 A 
ATOM     78  F   UNL A   1      38.243  32.447  37.969  1.00  0.00    -0.203 F 
ATOM     79  F   UNL A   1      41.046  37.126  38.102  1.00  0.00    -0.200 F 
ATOM     80  C   UNL A   1      39.528  35.632  39.123  1.00  0.00     0.200 A 
ATOM     81  F   UNL A   1      38.021  34.101  40.103  1.00  0.00    -0.200 F 
ATOM     82  F   UNL A   1      39.428  36.437  40.189  1.00  0.00    -0.200 F 
ENDBRANCH  48  72
BRANCH  60  83
ATOM     83  C   UNL A   1      43.936  28.654  35.150  1.00  0.00     0.064 A 
ATOM     84  C   UNL A   1      45.262  29.074  34.977  1.00  0.00     0.173 A 
ATOM     85  C   UNL A   1      43.685  27.619  36.063  1.00  0.00     0.173 A 
ATOM     86  F   UNL A   1      45.553  30.052  34.106  1.00  0.00    -0.203 F 
ATOM     87  C   UNL A   1      46.301  28.469  35.680  1.00  0.00     0.198 A 
ATOM     88  C   UNL A   1      44.723  27.035  36.784  1.00  0.00     0.198 A 
ATOM     89  F   UNL A   1      42.433  27.188  36.270  1.00  0.00    -0.203 F 
ATOM     90  F   UNL A   1      47.565  28.860  35.473  1.00  0.00    -0.200 F 
ATOM     91  C   UNL A   1      46.030  27.456  36.588  1.00  0.00     0.200 A 
ATOM     92  F   UNL A   1      44.458  26.066  37.672  1.00  0.00    -0.200 F 
ATOM     93  F   UNL A   1      47.029  26.883  37.273  1.00  0.00    -0.200 F 
ENDBRANCH  60  83
ENDBRANCH  34  35
ENDBRANCH  26  29
ENDBRANCH  24  25
ENDBRANCH  23  24
ENDBRANCH   1  23
TORSDOF 13
ENDMDL
