MODEL 1
REMARK VINA RESULT:     -11.3      0.000      0.000
REMARK SMILES CCC(CC)C[N@H+]1[C@@H]2CC[C@H]1C[C@H](CC(=O)NCCCNC(=O)c1ccc(-c3c4nc(c(-c5c(F)c(F)c(F)c(F)c5F)c5ccc([nH]5)c(-c5c(F)c(F)c(F)c(F)c5F)c5nc(c(-c6c(F)c(F)c(F)c(F)c6F)c6ccc3[nH]6)C=C5)C=C4)cc1)C2
REMARK SMILES IDX 18 1 17 2 15 3 16 4 14 6 13 7 7 8 8 9 11 10 9 12 87 13 10 14
REMARK SMILES IDX 12 15 6 16 3 17 2 18 1 19 4 20 5 21 19 22 20 23 21 24 22 25
REMARK SMILES IDX 23 27 24 28 25 29 86 30 26 31 85 32 27 33 28 34 29 35 79 36
REMARK SMILES IDX 30 37 84 38 78 39 80 40 31 41 83 42 77 43 76 44 32 46 64 47
REMARK SMILES IDX 44 48 63 49 45 50 48 51 62 52 81 53 46 54 47 55 61 57 82 58
REMARK SMILES IDX 49 59 33 60 34 61 42 62 35 63 36 64 40 65 43 66 37 67 38 68
REMARK SMILES IDX 41 69 39 70 65 71 66 72 74 73 67 74 68 75 72 76 75 77 69 78
REMARK SMILES IDX 70 79 73 80 71 81 50 82 51 83 59 84 52 85 53 86 57 87 60 88
REMARK SMILES IDX 54 89 55 90 58 91 56 92
REMARK H PARENT 17 5 7 11 21 26 80 45 48 56
REMARK Flexibility Score: inf
ROOT
ATOM      1  C   UNL A   1      31.817  30.559  26.876  1.00  0.00     0.117 C 
ENDROOT
BRANCH   1   2
ATOM      2  N   UNL A   1      33.076  30.182  27.508  1.00  0.00    -0.356 N 
ATOM      3  C   UNL A   1      34.053  29.304  27.142  1.00  0.00     0.220 C 
ATOM      4  O   UNL A   1      35.022  29.179  27.893  1.00  0.00    -0.275 OA
ATOM      5  H   UNL A   1      33.254  30.650  28.355  1.00  0.00     0.163 HD
BRANCH   3   6
ATOM      6  C   UNL A   1      33.960  28.492  25.862  1.00  0.00     0.104 C 
BRANCH   6   7
ATOM      7  C   UNL A   1      33.587  27.011  26.098  1.00  0.00     0.010 C 
ATOM      8  N   UNL A   1      31.622  25.310  24.611  1.00  0.00    -0.330 N 
ATOM      9  C   UNL A   1      33.049  24.939  24.639  1.00  0.00     0.184 C 
ATOM     10  C   UNL A   1      31.368  25.627  26.025  1.00  0.00     0.184 C 
ATOM     11  H   UNL A   1      31.008  24.572  24.265  1.00  0.00     0.348 HD
ATOM     12  C   UNL A   1      33.094  23.966  25.825  1.00  0.00     0.071 C 
ATOM     13  C   UNL A   1      33.964  26.160  24.867  1.00  0.00     0.069 C 
ATOM     14  C   UNL A   1      31.943  24.400  26.727  1.00  0.00     0.071 C 
ATOM     15  C   UNL A   1      32.103  26.892  26.477  1.00  0.00     0.069 C 
BRANCH   8  16
ATOM     16  C   UNL A   1      31.285  26.361  23.641  1.00  0.00     0.266 C 
BRANCH  16  17
ATOM     17  C   UNL A   1      30.273  27.417  24.148  1.00  0.00     0.044 C 
BRANCH  17  18
ATOM     18  C   UNL A   1      30.666  28.866  23.799  1.00  0.00     0.006 C 
ATOM     19  C   UNL A   1      31.853  28.950  22.844  1.00  0.00     0.004 C 
ENDBRANCH  17  18
BRANCH  17  20
ATOM     20  C   UNL A   1      28.848  27.037  23.665  1.00  0.00     0.006 C 
ATOM     21  C   UNL A   1      28.006  28.190  23.126  1.00  0.00     0.004 C 
ENDBRANCH  17  20
ENDBRANCH  16  17
ENDBRANCH   8  16
ENDBRANCH   6   7
ENDBRANCH   3   6
ENDBRANCH   1   2
BRANCH   1  22
ATOM     22  C   UNL A   1      31.581  32.072  26.896  1.00  0.00     0.042 C 
BRANCH  22  23
ATOM     23  C   UNL A   1      32.842  32.906  27.059  1.00  0.00     0.118 C 
BRANCH  23  24
ATOM     24  N   UNL A   1      32.552  34.212  27.623  1.00  0.00    -0.352 N 
ATOM     25  C   UNL A   1      33.057  34.813  28.752  1.00  0.00     0.251 C 
ATOM     26  H   UNL A   1      31.895  34.747  27.121  1.00  0.00     0.163 HD
ATOM     27  O   UNL A   1      32.501  35.812  29.200  1.00  0.00    -0.269 OA
BRANCH  25  28
ATOM     28  C   UNL A   1      34.254  34.272  29.443  1.00  0.00     0.039 A 
ATOM     29  C   UNL A   1      35.521  34.527  28.903  1.00  0.00     0.014 A 
ATOM     30  C   UNL A   1      34.141  33.456  30.572  1.00  0.00     0.014 A 
ATOM     31  C   UNL A   1      36.667  34.001  29.513  1.00  0.00     0.010 A 
ATOM     32  C   UNL A   1      35.285  33.000  31.224  1.00  0.00     0.010 A 
ATOM     33  C   UNL A   1      36.560  33.249  30.691  1.00  0.00    -0.014 A 
BRANCH  33  34
ATOM     34  C   UNL A   1      37.746  32.651  31.360  1.00  0.00     0.031 A 
ATOM     35  C   UNL A   1      38.438  31.474  30.723  1.00  0.00     0.074 A 
ATOM     36  C   UNL A   1      38.150  33.095  32.565  1.00  0.00     0.049 A 
ATOM     37  N   UNL A   1      39.360  30.685  31.213  1.00  0.00    -0.248 NA
ATOM     38  C   UNL A   1      38.010  31.121  29.361  1.00  0.00     0.031 C 
ATOM     39  C   UNL A   1      37.562  34.216  33.296  1.00  0.00     0.029 A 
ATOM     40  N   UNL A   1      39.140  32.635  33.401  1.00  0.00    -0.354 N 
ATOM     41  C   UNL A   1      39.592  29.723  30.238  1.00  0.00     0.074 A 
ATOM     42  C   UNL A   1      38.689  30.005  29.143  1.00  0.00     0.031 C 
ATOM     43  C   UNL A   1      38.201  34.359  34.469  1.00  0.00     0.029 A 
ATOM     44  C   UNL A   1      39.212  33.313  34.593  1.00  0.00     0.049 A 
ATOM     45  H   UNL A   1      39.740  31.890  33.166  1.00  0.00     0.167 HD
ATOM     46  C   UNL A   1      40.485  28.705  30.248  1.00  0.00     0.037 A 
ATOM     47  C   UNL A   1      39.988  33.097  35.674  1.00  0.00     0.037 A 
ATOM     48  C   UNL A   1      41.413  28.455  31.318  1.00  0.00     0.049 A 
ATOM     49  C   UNL A   1      40.971  31.957  35.664  1.00  0.00     0.074 A 
ATOM     50  C   UNL A   1      42.395  27.483  31.399  1.00  0.00     0.029 A 
ATOM     51  N   UNL A   1      41.479  29.190  32.493  1.00  0.00    -0.354 N 
ATOM     52  N   UNL A   1      41.204  31.074  34.725  1.00  0.00    -0.248 NA
ATOM     53  C   UNL A   1      41.802  31.784  36.866  1.00  0.00     0.031 C 
ATOM     54  C   UNL A   1      43.030  27.606  32.640  1.00  0.00     0.029 A 
ATOM     55  C   UNL A   1      42.476  28.685  33.310  1.00  0.00     0.049 A 
ATOM     56  H   UNL A   1      40.901  29.957  32.712  1.00  0.00     0.167 HD
ATOM     57  C   UNL A   1      42.228  30.268  35.203  1.00  0.00     0.074 A 
ATOM     58  C   UNL A   1      42.573  30.764  36.517  1.00  0.00     0.031 C 
ATOM     59  C   UNL A   1      42.829  29.212  34.602  1.00  0.00     0.037 A 
BRANCH  46  60
ATOM     60  C   UNL A   1      40.503  27.782  29.065  1.00  0.00     0.064 A 
ATOM     61  C   UNL A   1      39.688  26.641  29.008  1.00  0.00     0.173 A 
ATOM     62  C   UNL A   1      41.317  28.061  27.958  1.00  0.00     0.173 A 
ATOM     63  F   UNL A   1      38.899  26.322  30.045  1.00  0.00    -0.203 F 
ATOM     64  C   UNL A   1      39.711  25.798  27.899  1.00  0.00     0.198 A 
ATOM     65  C   UNL A   1      41.315  27.233  26.837  1.00  0.00     0.198 A 
ATOM     66  F   UNL A   1      42.110  29.144  27.957  1.00  0.00    -0.203 F 
ATOM     67  F   UNL A   1      38.962  24.688  27.889  1.00  0.00    -0.200 F 
ATOM     68  C   UNL A   1      40.519  26.099  26.813  1.00  0.00     0.200 A 
ATOM     69  F   UNL A   1      42.086  27.534  25.782  1.00  0.00    -0.200 F 
ATOM     70  F   UNL A   1      40.534  25.291  25.743  1.00  0.00    -0.200 F 
ENDBRANCH  46  60
BRANCH  47  71
ATOM     71  C   UNL A   1      39.873  33.991  36.857  1.00  0.00     0.064 A 
ATOM     72  C   UNL A   1      39.030  33.661  37.926  1.00  0.00     0.173 A 
ATOM     73  C   UNL A   1      40.597  35.189  36.942  1.00  0.00     0.173 A 
ATOM     74  F   UNL A   1      38.299  32.537  37.880  1.00  0.00    -0.203 F 
ATOM     75  C   UNL A   1      38.902  34.502  39.029  1.00  0.00     0.198 A 
ATOM     76  C   UNL A   1      40.489  36.017  38.058  1.00  0.00     0.198 A 
ATOM     77  F   UNL A   1      41.420  35.550  35.946  1.00  0.00    -0.203 F 
ATOM     78  F   UNL A   1      38.057  34.183  40.019  1.00  0.00    -0.200 F 
ATOM     79  C   UNL A   1      39.637  35.677  39.098  1.00  0.00     0.200 A 
ATOM     80  F   UNL A   1      41.209  37.145  38.125  1.00  0.00    -0.200 F 
ATOM     81  F   UNL A   1      39.517  36.484  40.160  1.00  0.00    -0.200 F 
ENDBRANCH  47  71
BRANCH  59  82
ATOM     82  C   UNL A   1      43.968  28.554  35.323  1.00  0.00     0.064 A 
ATOM     83  C   UNL A   1      43.767  27.465  36.182  1.00  0.00     0.173 A 
ATOM     84  C   UNL A   1      45.287  28.973  35.085  1.00  0.00     0.173 A 
ATOM     85  F   UNL A   1      42.524  27.037  36.450  1.00  0.00    -0.203 F 
ATOM     86  C   UNL A   1      44.846  26.822  36.783  1.00  0.00     0.198 A 
ATOM     87  C   UNL A   1      46.363  28.313  35.667  1.00  0.00     0.198 A 
ATOM     88  F   UNL A   1      45.530  30.007  34.266  1.00  0.00    -0.203 F 
ATOM     89  F   UNL A   1      44.632  25.798  37.621  1.00  0.00    -0.200 F 
ATOM     90  C   UNL A   1      46.143  27.240  36.517  1.00  0.00     0.200 A 
ATOM     91  F   UNL A   1      47.615  28.708  35.400  1.00  0.00    -0.200 F 
ATOM     92  F   UNL A   1      47.180  26.607  37.083  1.00  0.00    -0.200 F 
ENDBRANCH  59  82
ENDBRANCH  33  34
ENDBRANCH  25  28
ENDBRANCH  23  24
ENDBRANCH  22  23
ENDBRANCH   1  22
TORSDOF 15
ENDMDL
MODEL 2
REMARK VINA RESULT:     -11.2      3.879      9.169
REMARK SMILES CCC(CC)C[N@H+]1[C@@H]2CC[C@H]1C[C@H](CC(=O)NCCCNC(=O)c1ccc(-c3c4nc(c(-c5c(F)c(F)c(F)c(F)c5F)c5ccc([nH]5)c(-c5c(F)c(F)c(F)c(F)c5F)c5nc(c(-c6c(F)c(F)c(F)c(F)c6F)c6ccc3[nH]6)C=C5)C=C4)cc1)C2
REMARK SMILES IDX 18 1 17 2 15 3 16 4 14 6 13 7 7 8 8 9 11 10 9 12 87 13 10 14
REMARK SMILES IDX 12 15 6 16 3 17 2 18 1 19 4 20 5 21 19 22 20 23 21 24 22 25
REMARK SMILES IDX 23 27 24 28 25 29 86 30 26 31 85 32 27 33 28 34 29 35 79 36
REMARK SMILES IDX 30 37 84 38 78 39 80 40 31 41 83 42 77 43 76 44 32 46 64 47
REMARK SMILES IDX 44 48 63 49 45 50 48 51 62 52 81 53 46 54 47 55 61 57 82 58
REMARK SMILES IDX 49 59 33 60 34 61 42 62 35 63 36 64 40 65 43 66 37 67 38 68
REMARK SMILES IDX 41 69 39 70 65 71 66 72 74 73 67 74 68 75 72 76 75 77 69 78
REMARK SMILES IDX 70 79 73 80 71 81 50 82 51 83 59 84 52 85 53 86 57 87 60 88
REMARK SMILES IDX 54 89 55 90 58 91 56 92
REMARK H PARENT 17 5 7 11 21 26 80 45 48 56
REMARK Flexibility Score: inf
ROOT
ATOM      1  C   UNL A   1      32.824  28.079  24.165  1.00  0.00     0.117 C 
ENDROOT
BRANCH   1   2
ATOM      2  N   UNL A   1      33.107  27.490  22.862  1.00  0.00    -0.356 N 
ATOM      3  C   UNL A   1      33.289  26.198  22.465  1.00  0.00     0.220 C 
ATOM      4  O   UNL A   1      33.531  25.993  21.275  1.00  0.00    -0.275 OA
ATOM      5  H   UNL A   1      33.178  28.147  22.133  1.00  0.00     0.163 HD
BRANCH   3   6
ATOM      6  C   UNL A   1      33.211  25.042  23.447  1.00  0.00     0.104 C 
BRANCH   6   7
ATOM      7  C   UNL A   1      34.595  24.534  23.911  1.00  0.00     0.010 C 
ATOM      8  N   UNL A   1      35.256  22.109  25.537  1.00  0.00    -0.330 N 
ATOM      9  C   UNL A   1      35.784  22.246  24.166  1.00  0.00     0.184 C 
ATOM     10  C   UNL A   1      35.529  23.442  26.097  1.00  0.00     0.184 C 
ATOM     11  H   UNL A   1      35.698  21.366  26.079  1.00  0.00     0.348 HD
ATOM     12  C   UNL A   1      37.160  22.876  24.425  1.00  0.00     0.071 C 
ATOM     13  C   UNL A   1      34.896  23.154  23.290  1.00  0.00     0.069 C 
ATOM     14  C   UNL A   1      36.998  23.637  25.737  1.00  0.00     0.071 C 
ATOM     15  C   UNL A   1      34.671  24.531  25.445  1.00  0.00     0.069 C 
BRANCH   8  16
ATOM     16  C   UNL A   1      33.864  21.647  25.610  1.00  0.00     0.266 C 
BRANCH  16  17
ATOM     17  C   UNL A   1      33.461  20.616  24.527  1.00  0.00     0.044 C 
BRANCH  17  18
ATOM     18  C   UNL A   1      33.383  19.169  25.052  1.00  0.00     0.006 C 
ATOM     19  C   UNL A   1      34.123  18.171  24.166  1.00  0.00     0.004 C 
ENDBRANCH  17  18
BRANCH  17  20
ATOM     20  C   UNL A   1      32.154  21.085  23.833  1.00  0.00     0.006 C 
ATOM     21  C   UNL A   1      32.071  20.812  22.334  1.00  0.00     0.004 C 
ENDBRANCH  17  20
ENDBRANCH  16  17
ENDBRANCH   8  16
ENDBRANCH   6   7
ENDBRANCH   3   6
ENDBRANCH   1   2
BRANCH   1  22
ATOM     22  C   UNL A   1      34.099  28.431  24.938  1.00  0.00     0.042 C 
BRANCH  22  23
ATOM     23  C   UNL A   1      33.930  28.475  26.448  1.00  0.00     0.118 C 
BRANCH  23  24
ATOM     24  N   UNL A   1      33.782  29.836  26.932  1.00  0.00    -0.352 N 
ATOM     25  C   UNL A   1      34.570  30.547  27.807  1.00  0.00     0.251 C 
ATOM     26  H   UNL A   1      33.002  30.322  26.581  1.00  0.00     0.163 HD
ATOM     27  O   UNL A   1      34.141  31.593  28.287  1.00  0.00    -0.269 OA
BRANCH  25  28
ATOM     28  C   UNL A   1      35.922  30.070  28.189  1.00  0.00     0.039 A 
ATOM     29  C   UNL A   1      36.113  29.522  29.463  1.00  0.00     0.014 A 
ATOM     30  C   UNL A   1      37.020  30.225  27.338  1.00  0.00     0.014 A 
ATOM     31  C   UNL A   1      37.385  29.095  29.865  1.00  0.00     0.010 A 
ATOM     32  C   UNL A   1      38.268  29.727  27.707  1.00  0.00     0.010 A 
ATOM     33  C   UNL A   1      38.471  29.176  28.982  1.00  0.00    -0.014 A 
BRANCH  33  34
ATOM     34  C   UNL A   1      39.843  28.757  29.373  1.00  0.00     0.031 A 
ATOM     35  C   UNL A   1      40.694  29.690  30.194  1.00  0.00     0.074 A 
ATOM     36  C   UNL A   1      40.359  27.596  28.928  1.00  0.00     0.049 A 
ATOM     37  N   UNL A   1      41.968  29.616  30.486  1.00  0.00    -0.248 NA
ATOM     38  C   UNL A   1      40.025  30.884  30.733  1.00  0.00     0.031 C 
ATOM     39  C   UNL A   1      39.648  26.608  28.117  1.00  0.00     0.029 A 
ATOM     40  N   UNL A   1      41.616  27.062  29.075  1.00  0.00    -0.354 N 
ATOM     41  C   UNL A   1      42.259  30.768  31.206  1.00  0.00     0.074 A 
ATOM     42  C   UNL A   1      41.038  31.542  31.276  1.00  0.00     0.031 C 
ATOM     43  C   UNL A   1      40.477  25.589  27.840  1.00  0.00     0.029 A 
ATOM     44  C   UNL A   1      41.790  25.871  28.413  1.00  0.00     0.049 A 
ATOM     45  H   UNL A   1      42.326  27.492  29.606  1.00  0.00     0.167 HD
ATOM     46  C   UNL A   1      43.432  31.141  31.769  1.00  0.00     0.037 A 
ATOM     47  C   UNL A   1      42.891  25.108  28.263  1.00  0.00     0.037 A 
ATOM     48  C   UNL A   1      44.632  30.348  31.736  1.00  0.00     0.049 A 
ATOM     49  C   UNL A   1      44.186  25.544  28.895  1.00  0.00     0.074 A 
ATOM     50  C   UNL A   1      45.857  30.613  32.323  1.00  0.00     0.029 A 
ATOM     51  N   UNL A   1      44.754  29.129  31.086  1.00  0.00    -0.354 N 
ATOM     52  N   UNL A   1      44.441  26.619  29.600  1.00  0.00    -0.248 NA
ATOM     53  C   UNL A   1      45.348  24.661  28.711  1.00  0.00     0.031 C 
ATOM     54  C   UNL A   1      46.732  29.571  31.997  1.00  0.00     0.029 A 
ATOM     55  C   UNL A   1      46.038  28.636  31.247  1.00  0.00     0.049 A 
ATOM     56  H   UNL A   1      44.034  28.681  30.585  1.00  0.00     0.167 HD
ATOM     57  C   UNL A   1      45.775  26.524  29.974  1.00  0.00     0.074 A 
ATOM     58  C   UNL A   1      46.278  25.286  29.418  1.00  0.00     0.031 C 
ATOM     59  C   UNL A   1      46.513  27.385  30.715  1.00  0.00     0.037 A 
BRANCH  46  60
ATOM     60  C   UNL A   1      43.480  32.468  32.468  1.00  0.00     0.064 A 
ATOM     61  C   UNL A   1      43.804  33.651  31.785  1.00  0.00     0.173 A 
ATOM     62  C   UNL A   1      43.159  32.565  33.830  1.00  0.00     0.173 A 
ATOM     63  F   UNL A   1      44.129  33.612  30.484  1.00  0.00    -0.203 F 
ATOM     64  C   UNL A   1      43.835  34.875  32.448  1.00  0.00     0.198 A 
ATOM     65  C   UNL A   1      43.161  33.795  34.483  1.00  0.00     0.198 A 
ATOM     66  F   UNL A   1      42.834  31.466  34.528  1.00  0.00    -0.203 F 
ATOM     67  F   UNL A   1      44.197  35.983  31.787  1.00  0.00    -0.200 F 
ATOM     68  C   UNL A   1      43.507  34.948  33.794  1.00  0.00     0.200 A 
ATOM     69  F   UNL A   1      42.830  33.865  35.780  1.00  0.00    -0.200 F 
ATOM     70  F   UNL A   1      43.531  36.128  34.428  1.00  0.00    -0.200 F 
ENDBRANCH  46  60
BRANCH  47  71
ATOM     71  C   UNL A   1      42.814  23.841  27.488  1.00  0.00     0.064 A 
ATOM     72  C   UNL A   1      43.115  23.818  26.120  1.00  0.00     0.173 A 
ATOM     73  C   UNL A   1      42.435  22.635  28.094  1.00  0.00     0.173 A 
ATOM     74  F   UNL A   1      43.459  24.952  25.491  1.00  0.00    -0.203 F 
ATOM     75  C   UNL A   1      43.026  22.639  25.383  1.00  0.00     0.198 A 
ATOM     76  C   UNL A   1      42.372  21.450  27.361  1.00  0.00     0.198 A 
ATOM     77  F   UNL A   1      42.137  22.602  29.401  1.00  0.00    -0.203 F 
ATOM     78  F   UNL A   1      43.279  22.653  24.067  1.00  0.00    -0.200 F 
ATOM     79  C   UNL A   1      42.660  21.454  26.005  1.00  0.00     0.200 A 
ATOM     80  F   UNL A   1      42.030  20.306  27.969  1.00  0.00    -0.200 F 
ATOM     81  F   UNL A   1      42.578  20.321  25.297  1.00  0.00    -0.200 F 
ENDBRANCH  47  71
BRANCH  59  82
ATOM     82  C   UNL A   1      47.928  26.999  31.030  1.00  0.00     0.064 A 
ATOM     83  C   UNL A   1      48.238  26.131  32.085  1.00  0.00     0.173 A 
ATOM     84  C   UNL A   1      48.977  27.444  30.210  1.00  0.00     0.173 A 
ATOM     85  F   UNL A   1      47.271  25.690  32.904  1.00  0.00    -0.203 F 
ATOM     86  C   UNL A   1      49.551  25.727  32.313  1.00  0.00     0.198 A 
ATOM     87  C   UNL A   1      50.284  27.018  30.425  1.00  0.00     0.198 A 
ATOM     88  F   UNL A   1      48.729  28.271  29.184  1.00  0.00    -0.203 F 
ATOM     89  F   UNL A   1      49.832  24.916  33.343  1.00  0.00    -0.200 F 
ATOM     90  C   UNL A   1      50.570  26.162  31.478  1.00  0.00     0.200 A 
ATOM     91  F   UNL A   1      51.265  27.429  29.610  1.00  0.00    -0.200 F 
ATOM     92  F   UNL A   1      51.830  25.757  31.690  1.00  0.00    -0.200 F 
ENDBRANCH  59  82
ENDBRANCH  33  34
ENDBRANCH  25  28
ENDBRANCH  23  24
ENDBRANCH  22  23
ENDBRANCH   1  22
TORSDOF 15
ENDMDL
MODEL 3
REMARK VINA RESULT:     -11.2      0.997      2.560
REMARK SMILES CCC(CC)C[N@H+]1[C@@H]2CC[C@H]1C[C@H](CC(=O)NCCCNC(=O)c1ccc(-c3c4nc(c(-c5c(F)c(F)c(F)c(F)c5F)c5ccc([nH]5)c(-c5c(F)c(F)c(F)c(F)c5F)c5nc(c(-c6c(F)c(F)c(F)c(F)c6F)c6ccc3[nH]6)C=C5)C=C4)cc1)C2
REMARK SMILES IDX 18 1 17 2 15 3 16 4 14 6 13 7 7 8 8 9 11 10 9 12 87 13 10 14
REMARK SMILES IDX 12 15 6 16 3 17 2 18 1 19 4 20 5 21 19 22 20 23 21 24 22 25
REMARK SMILES IDX 23 27 24 28 25 29 86 30 26 31 85 32 27 33 28 34 29 35 79 36
REMARK SMILES IDX 30 37 84 38 78 39 80 40 31 41 83 42 77 43 76 44 32 46 64 47
REMARK SMILES IDX 44 48 63 49 45 50 48 51 62 52 81 53 46 54 47 55 61 57 82 58
REMARK SMILES IDX 49 59 33 60 34 61 42 62 35 63 36 64 40 65 43 66 37 67 38 68
REMARK SMILES IDX 41 69 39 70 65 71 66 72 74 73 67 74 68 75 72 76 75 77 69 78
REMARK SMILES IDX 70 79 73 80 71 81 50 82 51 83 59 84 52 85 53 86 57 87 60 88
REMARK SMILES IDX 54 89 55 90 58 91 56 92
REMARK H PARENT 17 5 7 11 21 26 80 45 48 56
REMARK Flexibility Score: inf
ROOT
ATOM      1  C   UNL A   1      31.781  30.570  26.921  1.00  0.00     0.117 C 
ENDROOT
BRANCH   1   2
ATOM      2  N   UNL A   1      33.177  30.272  27.213  1.00  0.00    -0.356 N 
ATOM      3  C   UNL A   1      33.909  29.128  27.096  1.00  0.00     0.220 C 
ATOM      4  O   UNL A   1      35.093  29.166  27.436  1.00  0.00    -0.275 OA
ATOM      5  H   UNL A   1      33.687  31.041  27.557  1.00  0.00     0.163 HD
BRANCH   3   6
ATOM      6  C   UNL A   1      33.298  27.838  26.577  1.00  0.00     0.104 C 
BRANCH   6   7
ATOM      7  C   UNL A   1      33.504  27.626  25.059  1.00  0.00     0.010 C 
ATOM      8  N   UNL A   1      31.666  28.323  22.801  1.00  0.00    -0.330 N 
ATOM      9  C   UNL A   1      33.005  28.938  22.881  1.00  0.00     0.184 C 
ATOM     10  C   UNL A   1      31.971  26.908  23.065  1.00  0.00     0.184 C 
ATOM     11  H   UNL A   1      31.203  28.456  21.902  1.00  0.00     0.348 HD
ATOM     12  C   UNL A   1      33.834  27.991  22.002  1.00  0.00     0.071 C 
ATOM     13  C   UNL A   1      33.537  28.985  24.328  1.00  0.00     0.069 C 
ATOM     14  C   UNL A   1      33.116  26.648  22.092  1.00  0.00     0.071 C 
ATOM     15  C   UNL A   1      32.434  26.674  24.507  1.00  0.00     0.069 C 
BRANCH   8  16
ATOM     16  C   UNL A   1      30.659  28.943  23.672  1.00  0.00     0.266 C 
BRANCH  16  17
ATOM     17  C   UNL A   1      29.488  29.631  22.927  1.00  0.00     0.044 C 
BRANCH  17  18
ATOM     18  C   UNL A   1      28.252  28.727  22.752  1.00  0.00     0.006 C 
ATOM     19  C   UNL A   1      28.368  27.403  23.501  1.00  0.00     0.004 C 
ENDBRANCH  17  18
BRANCH  17  20
ATOM     20  C   UNL A   1      29.163  30.983  23.619  1.00  0.00     0.006 C 
ATOM     21  C   UNL A   1      27.716  31.451  23.501  1.00  0.00     0.004 C 
ENDBRANCH  17  20
ENDBRANCH  16  17
ENDBRANCH   8  16
ENDBRANCH   6   7
ENDBRANCH   3   6
ENDBRANCH   1   2
BRANCH   1  22
ATOM     22  C   UNL A   1      31.499  32.075  26.880  1.00  0.00     0.042 C 
BRANCH  22  23
ATOM     23  C   UNL A   1      32.741  32.951  26.918  1.00  0.00     0.118 C 
BRANCH  23  24
ATOM     24  N   UNL A   1      32.497  34.198  27.620  1.00  0.00    -0.352 N 
ATOM     25  C   UNL A   1      33.050  34.671  28.788  1.00  0.00     0.251 C 
ATOM     26  H   UNL A   1      31.838  34.794  27.198  1.00  0.00     0.163 HD
ATOM     27  O   UNL A   1      32.531  35.629  29.353  1.00  0.00    -0.269 OA
BRANCH  25  28
ATOM     28  C   UNL A   1      34.256  34.041  29.380  1.00  0.00     0.039 A 
ATOM     29  C   UNL A   1      34.093  33.017  30.322  1.00  0.00     0.014 A 
ATOM     30  C   UNL A   1      35.543  34.494  29.076  1.00  0.00     0.014 A 
ATOM     31  C   UNL A   1      35.211  32.427  30.924  1.00  0.00     0.010 A 
ATOM     32  C   UNL A   1      36.657  33.852  29.615  1.00  0.00     0.010 A 
ATOM     33  C   UNL A   1      36.505  32.826  30.560  1.00  0.00    -0.014 A 
BRANCH  33  34
ATOM     34  C   UNL A   1      37.720  32.244  31.190  1.00  0.00     0.031 A 
ATOM     35  C   UNL A   1      38.502  31.190  30.451  1.00  0.00     0.074 A 
ATOM     36  C   UNL A   1      38.075  32.588  32.442  1.00  0.00     0.049 A 
ATOM     37  N   UNL A   1      39.469  30.418  30.877  1.00  0.00    -0.248 NA
ATOM     38  C   UNL A   1      38.118  30.950  29.051  1.00  0.00     0.031 C 
ATOM     39  C   UNL A   1      37.400  33.585  33.271  1.00  0.00     0.029 A 
ATOM     40  N   UNL A   1      39.082  32.113  33.247  1.00  0.00    -0.354 N 
ATOM     41  C   UNL A   1      39.782  29.580  29.814  1.00  0.00     0.074 A 
ATOM     42  C   UNL A   1      38.877  29.912  28.735  1.00  0.00     0.031 C 
ATOM     43  C   UNL A   1      38.011  33.650  34.465  1.00  0.00     0.029 A 
ATOM     44  C   UNL A   1      39.090  32.667  34.505  1.00  0.00     0.049 A 
ATOM     45  H   UNL A   1      39.737  31.438  32.951  1.00  0.00     0.167 HD
ATOM     46  C   UNL A   1      40.743  28.630  29.740  1.00  0.00     0.037 A 
ATOM     47  C   UNL A   1      39.863  32.394  35.574  1.00  0.00     0.037 A 
ATOM     48  C   UNL A   1      41.671  28.334  30.799  1.00  0.00     0.049 A 
ATOM     49  C   UNL A   1      40.924  31.331  35.469  1.00  0.00     0.074 A 
ATOM     50  C   UNL A   1      42.716  27.427  30.801  1.00  0.00     0.029 A 
ATOM     51  N   UNL A   1      41.669  28.946  32.043  1.00  0.00    -0.354 N 
ATOM     52  N   UNL A   1      41.231  30.567  34.449  1.00  0.00    -0.248 NA
ATOM     53  C   UNL A   1      41.747  31.090  36.664  1.00  0.00     0.031 C 
ATOM     54  C   UNL A   1      43.324  27.464  32.061  1.00  0.00     0.029 A 
ATOM     55  C   UNL A   1      42.686  28.428  32.825  1.00  0.00     0.049 A 
ATOM     56  H   UNL A   1      41.036  29.646  32.327  1.00  0.00     0.167 HD
ATOM     57  C   UNL A   1      42.302  29.787  34.864  1.00  0.00     0.074 A 
ATOM     58  C   UNL A   1      42.593  30.167  36.230  1.00  0.00     0.031 C 
ATOM     59  C   UNL A   1      42.983  28.842  34.172  1.00  0.00     0.037 A 
BRANCH  46  60
ATOM     60  C   UNL A   1      40.843  27.836  28.469  1.00  0.00     0.064 A 
ATOM     61  C   UNL A   1      41.645  28.258  27.397  1.00  0.00     0.173 A 
ATOM     62  C   UNL A   1      40.157  26.620  28.337  1.00  0.00     0.173 A 
ATOM     63  F   UNL A   1      42.312  29.419  27.469  1.00  0.00    -0.203 F 
ATOM     64  C   UNL A   1      41.731  27.505  26.229  1.00  0.00     0.198 A 
ATOM     65  C   UNL A   1      40.271  25.854  27.179  1.00  0.00     0.198 A 
ATOM     66  F   UNL A   1      39.383  26.167  29.335  1.00  0.00    -0.203 F 
ATOM     67  F   UNL A   1      42.463  27.953  25.200  1.00  0.00    -0.200 F 
ATOM     68  C   UNL A   1      41.050  26.302  26.123  1.00  0.00     0.200 A 
ATOM     69  F   UNL A   1      39.623  24.684  27.084  1.00  0.00    -0.200 F 
ATOM     70  F   UNL A   1      41.141  25.575  25.000  1.00  0.00    -0.200 F 
ENDBRANCH  46  60
BRANCH  47  71
ATOM     71  C   UNL A   1      39.670  33.151  36.839  1.00  0.00     0.064 A 
ATOM     72  C   UNL A   1      40.471  34.260  37.141  1.00  0.00     0.173 A 
ATOM     73  C   UNL A   1      38.689  32.781  37.771  1.00  0.00     0.173 A 
ATOM     74  F   UNL A   1      41.439  34.637  36.292  1.00  0.00    -0.203 F 
ATOM     75  C   UNL A   1      40.310  34.963  38.333  1.00  0.00     0.198 A 
ATOM     76  C   UNL A   1      38.510  33.501  38.951  1.00  0.00     0.198 A 
ATOM     77  F   UNL A   1      37.895  31.728  37.530  1.00  0.00    -0.203 F 
ATOM     78  F   UNL A   1      41.117  35.994  38.615  1.00  0.00    -0.200 F 
ATOM     79  C   UNL A   1      39.325  34.586  39.235  1.00  0.00     0.200 A 
ATOM     80  F   UNL A   1      37.550  33.141  39.814  1.00  0.00    -0.200 F 
ATOM     81  F   UNL A   1      39.167  35.264  40.379  1.00  0.00    -0.200 F 
ENDBRANCH  47  71
BRANCH  59  82
ATOM     82  C   UNL A   1      44.154  28.192  34.847  1.00  0.00     0.064 A 
ATOM     83  C   UNL A   1      45.432  28.768  34.824  1.00  0.00     0.173 A 
ATOM     84  C   UNL A   1      43.973  27.017  35.594  1.00  0.00     0.173 A 
ATOM     85  F   UNL A   1      45.658  29.883  34.113  1.00  0.00    -0.203 F 
ATOM     86  C   UNL A   1      46.489  28.186  35.520  1.00  0.00     0.198 A 
ATOM     87  C   UNL A   1      45.024  26.453  36.308  1.00  0.00     0.198 A 
ATOM     88  F   UNL A   1      42.767  26.432  35.651  1.00  0.00    -0.203 F 
ATOM     89  F   UNL A   1      47.709  28.737  35.465  1.00  0.00    -0.200 F 
ATOM     90  C   UNL A   1      46.282  27.036  36.268  1.00  0.00     0.200 A 
ATOM     91  F   UNL A   1      44.821  25.350  37.041  1.00  0.00    -0.200 F 
ATOM     92  F   UNL A   1      47.297  26.489  36.951  1.00  0.00    -0.200 F 
ENDBRANCH  59  82
ENDBRANCH  33  34
ENDBRANCH  25  28
ENDBRANCH  23  24
ENDBRANCH  22  23
ENDBRANCH   1  22
TORSDOF 15
ENDMDL
