MODEL 1
REMARK VINA RESULT:     -12.8      0.000      0.000
REMARK SMILES O=C(CCCc1nc(-c2ccc(Cl)c(Cl)c2)c(-c2ccccc2)o1)NCCCNC(=O)c1ccc(-c2c3nc(c(-c4c(F)c(F)c(F)c(F)c4F)c4ccc([nH]4)c(-c4c(F)c(F)c(F)c(F)c4F)c4nc(c(-c5c(F)c(F)c(F)c(F)c5F)c5ccc2[nH]5)C=C4)C=C3)cc1
REMARK SMILES IDX 26 1 25 2 1 3 2 4 3 6 4 7 5 8 6 9 7 10 24 11 8 12 17 13 9 14
REMARK SMILES IDX 10 15 16 16 11 17 14 18 12 19 15 20 13 21 18 22 19 23 23 24
REMARK SMILES IDX 20 25 22 26 21 27 27 28 28 29 29 30 30 31 31 33 32 34 33 35
REMARK SMILES IDX 94 36 34 37 93 38 35 39 36 40 37 41 87 42 38 43 92 44 86 45
REMARK SMILES IDX 88 46 39 47 91 48 85 49 84 50 40 52 72 53 52 54 71 55 53 56
REMARK SMILES IDX 56 57 70 58 89 59 54 60 55 61 69 63 90 64 57 65 41 66 42 67
REMARK SMILES IDX 50 68 43 69 44 70 48 71 51 72 45 73 46 74 49 75 47 76 73 77
REMARK SMILES IDX 74 78 82 79 75 80 76 81 80 82 83 83 77 84 78 85 81 86 79 87
REMARK SMILES IDX 58 88 59 89 67 90 60 91 61 92 65 93 68 94 62 95 63 96 66 97
REMARK SMILES IDX 64 98
REMARK H PARENT 25 5 29 32 88 51 56 62
REMARK Flexibility Score: inf
ROOT
ATOM      1  C   UNL A   1      30.510  32.644  25.088  1.00  0.00     0.117 C 
ENDROOT
BRANCH   1   2
ATOM      2  N   UNL A   1      29.510  32.054  24.221  1.00  0.00    -0.356 N 
ATOM      3  O   UNL A   1      28.961  34.002  23.136  1.00  0.00    -0.275 OA
ATOM      4  C   UNL A   1      28.852  32.788  23.263  1.00  0.00     0.220 C 
ATOM      5  H   UNL A   1      29.295  31.099  24.322  1.00  0.00     0.163 HD
BRANCH   4   6
ATOM      6  C   UNL A   1      28.000  31.952  22.332  1.00  0.00     0.100 C 
BRANCH   6   7
ATOM      7  C   UNL A   1      28.291  30.454  22.475  1.00  0.00     0.020 C 
BRANCH   7   8
ATOM      8  C   UNL A   1      29.466  29.914  21.651  1.00  0.00     0.098 C 
BRANCH   8   9
ATOM      9  C   UNL A   1      30.258  28.895  22.388  1.00  0.00     0.195 A 
ATOM     10  N   UNL A   1      30.430  27.623  22.094  1.00  0.00    -0.213 NA
ATOM     11  O   UNL A   1      30.872  29.307  23.547  1.00  0.00    -0.440 OA
ATOM     12  C   UNL A   1      31.182  27.148  23.137  1.00  0.00     0.117 A 
ATOM     13  C   UNL A   1      31.480  28.170  24.016  1.00  0.00     0.162 A 
BRANCH  12  14
ATOM     14  C   UNL A   1      31.586  25.769  23.276  1.00  0.00     0.006 A 
ATOM     15  C   UNL A   1      30.620  24.779  23.481  1.00  0.00     0.012 A 
ATOM     16  C   UNL A   1      32.937  25.411  23.188  1.00  0.00     0.032 A 
ATOM     17  C   UNL A   1      31.000  23.437  23.565  1.00  0.00     0.023 A 
ATOM     18  C   UNL A   1      33.320  24.070  23.282  1.00  0.00     0.060 A 
ATOM     19  C   UNL A   1      32.349  23.080  23.463  1.00  0.00     0.059 A 
ATOM     20  Cl  UNL A   1      35.005  23.708  23.159  1.00  0.00    -0.083 Cl
ATOM     21  Cl  UNL A   1      32.746  21.401  23.562  1.00  0.00    -0.083 Cl
ENDBRANCH  12  14
BRANCH  13  22
ATOM     22  C   UNL A   1      32.264  28.280  25.232  1.00  0.00     0.020 A 
ATOM     23  C   UNL A   1      33.594  28.712  25.196  1.00  0.00     0.012 A 
ATOM     24  C   UNL A   1      31.661  28.036  26.475  1.00  0.00     0.012 A 
ATOM     25  C   UNL A   1      34.299  28.923  26.385  1.00  0.00     0.001 A 
ATOM     26  C   UNL A   1      32.368  28.240  27.662  1.00  0.00     0.001 A 
ATOM     27  C   UNL A   1      33.684  28.692  27.616  1.00  0.00     0.000 A 
ENDBRANCH  13  22
ENDBRANCH   8   9
ENDBRANCH   7   8
ENDBRANCH   6   7
ENDBRANCH   4   6
ENDBRANCH   1   2
BRANCH   1  28
ATOM     28  C   UNL A   1      30.962  31.692  26.184  1.00  0.00     0.042 C 
BRANCH  28  29
ATOM     29  C   UNL A   1      32.296  32.051  26.829  1.00  0.00     0.118 C 
BRANCH  29  30
ATOM     30  N   UNL A   1      32.395  33.449  27.221  1.00  0.00    -0.352 N 
ATOM     31  C   UNL A   1      33.324  34.066  28.023  1.00  0.00     0.251 C 
ATOM     32  H   UNL A   1      31.694  34.038  26.859  1.00  0.00     0.163 HD
ATOM     33  O   UNL A   1      33.183  35.246  28.331  1.00  0.00    -0.269 OA
BRANCH  31  34
ATOM     34  C   UNL A   1      34.479  33.303  28.550  1.00  0.00     0.039 A 
ATOM     35  C   UNL A   1      35.740  33.903  28.534  1.00  0.00     0.014 A 
ATOM     36  C   UNL A   1      34.325  32.013  29.064  1.00  0.00     0.014 A 
ATOM     37  C   UNL A   1      36.833  33.238  29.097  1.00  0.00     0.010 A 
ATOM     38  C   UNL A   1      35.396  31.386  29.697  1.00  0.00     0.010 A 
ATOM     39  C   UNL A   1      36.662  31.991  29.720  1.00  0.00    -0.014 A 
BRANCH  39  40
ATOM     40  C   UNL A   1      37.797  31.307  30.393  1.00  0.00     0.031 A 
ATOM     41  C   UNL A   1      38.156  31.652  31.811  1.00  0.00     0.074 A 
ATOM     42  C   UNL A   1      38.540  30.413  29.711  1.00  0.00     0.049 A 
ATOM     43  N   UNL A   1      39.147  31.214  32.547  1.00  0.00    -0.248 NA
ATOM     44  C   UNL A   1      37.303  32.644  32.485  1.00  0.00     0.031 C 
ATOM     45  C   UNL A   1      38.322  30.019  28.318  1.00  0.00     0.029 A 
ATOM     46  N   UNL A   1      39.637  29.680  30.095  1.00  0.00    -0.354 N 
ATOM     47  C   UNL A   1      39.041  31.879  33.761  1.00  0.00     0.074 A 
ATOM     48  C   UNL A   1      37.927  32.795  33.644  1.00  0.00     0.031 C 
ATOM     49  C   UNL A   1      39.239  29.101  27.972  1.00  0.00     0.029 A 
ATOM     50  C   UNL A   1      40.135  28.871  29.101  1.00  0.00     0.049 A 
ATOM     51  H   UNL A   1      40.029  29.729  30.996  1.00  0.00     0.167 HD
ATOM     52  C   UNL A   1      39.788  31.723  34.880  1.00  0.00     0.037 A 
ATOM     53  C   UNL A   1      41.200  28.046  29.098  1.00  0.00     0.037 A 
ATOM     54  C   UNL A   1      40.883  30.796  35.001  1.00  0.00     0.049 A 
ATOM     55  C   UNL A   1      42.029  27.911  30.347  1.00  0.00     0.074 A 
ATOM     56  C   UNL A   1      41.666  30.527  36.110  1.00  0.00     0.029 A 
ATOM     57  N   UNL A   1      41.354  29.990  33.974  1.00  0.00    -0.354 N 
ATOM     58  N   UNL A   1      41.879  28.497  31.510  1.00  0.00    -0.248 NA
ATOM     59  C   UNL A   1      43.177  26.993  30.284  1.00  0.00     0.031 C 
ATOM     60  C   UNL A   1      42.646  29.601  35.740  1.00  0.00     0.029 A 
ATOM     61  C   UNL A   1      42.436  29.246  34.417  1.00  0.00     0.049 A 
ATOM     62  H   UNL A   1      40.977  29.954  33.066  1.00  0.00     0.167 HD
ATOM     63  C   UNL A   1      42.887  27.997  32.324  1.00  0.00     0.074 A 
ATOM     64  C   UNL A   1      43.634  27.048  31.527  1.00  0.00     0.031 C 
ATOM     65  C   UNL A   1      43.168  28.297  33.616  1.00  0.00     0.037 A 
BRANCH  52  66
ATOM     66  C   UNL A   1      39.447  32.579  36.067  1.00  0.00     0.064 A 
ATOM     67  C   UNL A   1      40.020  33.846  36.252  1.00  0.00     0.173 A 
ATOM     68  C   UNL A   1      38.507  32.141  37.013  1.00  0.00     0.173 A 
ATOM     69  F   UNL A   1      40.933  34.308  35.385  1.00  0.00    -0.203 F 
ATOM     70  C   UNL A   1      39.691  34.629  37.356  1.00  0.00     0.198 A 
ATOM     71  C   UNL A   1      38.153  32.942  38.097  1.00  0.00     0.198 A 
ATOM     72  F   UNL A   1      37.923  30.940  36.883  1.00  0.00    -0.203 F 
ATOM     73  F   UNL A   1      40.293  35.811  37.541  1.00  0.00    -0.200 F 
ATOM     74  C   UNL A   1      38.752  34.180  38.272  1.00  0.00     0.200 A 
ATOM     75  F   UNL A   1      37.235  32.511  38.974  1.00  0.00    -0.200 F 
ATOM     76  F   UNL A   1      38.431  34.936  39.331  1.00  0.00    -0.200 F 
ENDBRANCH  52  66
BRANCH  53  77
ATOM     77  C   UNL A   1      41.537  27.270  27.875  1.00  0.00     0.064 A 
ATOM     78  C   UNL A   1      41.171  25.923  27.752  1.00  0.00     0.173 A 
ATOM     79  C   UNL A   1      42.246  27.852  26.812  1.00  0.00     0.173 A 
ATOM     80  F   UNL A   1      40.512  25.315  28.750  1.00  0.00    -0.203 F 
ATOM     81  C   UNL A   1      41.521  25.180  26.626  1.00  0.00     0.198 A 
ATOM     82  C   UNL A   1      42.566  27.117  25.674  1.00  0.00     0.198 A 
ATOM     83  F   UNL A   1      42.618  29.139  26.878  1.00  0.00    -0.203 F 
ATOM     84  F   UNL A   1      41.205  23.880  26.560  1.00  0.00    -0.200 F 
ATOM     85  C   UNL A   1      42.214  25.779  25.585  1.00  0.00     0.200 A 
ATOM     86  F   UNL A   1      43.223  27.704  24.663  1.00  0.00    -0.200 F 
ATOM     87  F   UNL A   1      42.548  25.066  24.502  1.00  0.00    -0.200 F 
ENDBRANCH  53  77
BRANCH  65  88
ATOM     88  C   UNL A   1      44.307  27.563  34.266  1.00  0.00     0.064 A 
ATOM     89  C   UNL A   1      45.606  28.094  34.296  1.00  0.00     0.173 A 
ATOM     90  C   UNL A   1      44.086  26.333  34.903  1.00  0.00     0.173 A 
ATOM     91  F   UNL A   1      45.874  29.260  33.689  1.00  0.00    -0.203 F 
ATOM     92  C   UNL A   1      46.645  27.405  34.916  1.00  0.00     0.198 A 
ATOM     93  C   UNL A   1      45.121  25.664  35.551  1.00  0.00     0.198 A 
ATOM     94  F   UNL A   1      42.862  25.785  34.911  1.00  0.00    -0.203 F 
ATOM     95  F   UNL A   1      47.888  27.906  34.888  1.00  0.00    -0.200 F 
ATOM     96  C   UNL A   1      46.401  26.196  35.550  1.00  0.00     0.200 A 
ATOM     97  F   UNL A   1      44.879  24.505  36.178  1.00  0.00    -0.200 F 
ATOM     98  F   UNL A   1      47.401  25.541  36.155  1.00  0.00    -0.200 F 
ENDBRANCH  65  88
ENDBRANCH  39  40
ENDBRANCH  31  34
ENDBRANCH  29  30
ENDBRANCH  28  29
ENDBRANCH   1  28
TORSDOF 15
ENDMDL
MODEL 2
REMARK VINA RESULT:     -12.7      4.370      9.056
REMARK SMILES O=C(CCCc1nc(-c2ccc(Cl)c(Cl)c2)c(-c2ccccc2)o1)NCCCNC(=O)c1ccc(-c2c3nc(c(-c4c(F)c(F)c(F)c(F)c4F)c4ccc([nH]4)c(-c4c(F)c(F)c(F)c(F)c4F)c4nc(c(-c5c(F)c(F)c(F)c(F)c5F)c5ccc2[nH]5)C=C4)C=C3)cc1
REMARK SMILES IDX 26 1 25 2 1 3 2 4 3 6 4 7 5 8 6 9 7 10 24 11 8 12 17 13 9 14
REMARK SMILES IDX 10 15 16 16 11 17 14 18 12 19 15 20 13 21 18 22 19 23 23 24
REMARK SMILES IDX 20 25 22 26 21 27 27 28 28 29 29 30 30 31 31 33 32 34 33 35
REMARK SMILES IDX 94 36 34 37 93 38 35 39 36 40 37 41 87 42 38 43 92 44 86 45
REMARK SMILES IDX 88 46 39 47 91 48 85 49 84 50 40 52 72 53 52 54 71 55 53 56
REMARK SMILES IDX 56 57 70 58 89 59 54 60 55 61 69 63 90 64 57 65 41 66 42 67
REMARK SMILES IDX 50 68 43 69 44 70 48 71 51 72 45 73 46 74 49 75 47 76 73 77
REMARK SMILES IDX 74 78 82 79 75 80 76 81 80 82 83 83 77 84 78 85 81 86 79 87
REMARK SMILES IDX 58 88 59 89 67 90 60 91 61 92 65 93 68 94 62 95 63 96 66 97
REMARK SMILES IDX 64 98
REMARK H PARENT 25 5 29 32 88 51 56 62
REMARK Flexibility Score: inf
ROOT
ATOM      1  C   UNL A   1      35.247  22.993  26.490  1.00  0.00     0.117 C 
ENDROOT
BRANCH   1   2
ATOM      2  N   UNL A   1      34.216  22.403  25.660  1.00  0.00    -0.356 N 
ATOM      3  O   UNL A   1      35.377  20.482  25.175  1.00  0.00    -0.275 OA
ATOM      4  C   UNL A   1      34.351  21.150  25.112  1.00  0.00     0.220 C 
ATOM      5  H   UNL A   1      33.394  22.915  25.483  1.00  0.00     0.163 HD
BRANCH   4   6
ATOM      6  C   UNL A   1      33.092  20.634  24.450  1.00  0.00     0.100 C 
BRANCH   6   7
ATOM      7  C   UNL A   1      32.010  21.715  24.352  1.00  0.00     0.020 C 
BRANCH   7   8
ATOM      8  C   UNL A   1      32.087  22.637  23.129  1.00  0.00     0.098 C 
BRANCH   8   9
ATOM      9  C   UNL A   1      31.727  24.043  23.453  1.00  0.00     0.195 A 
ATOM     10  N   UNL A   1      30.872  24.831  22.837  1.00  0.00    -0.213 NA
ATOM     11  O   UNL A   1      32.386  24.622  24.511  1.00  0.00    -0.440 OA
ATOM     12  C   UNL A   1      30.988  26.022  23.506  1.00  0.00     0.117 A 
ATOM     13  C   UNL A   1      31.888  25.900  24.546  1.00  0.00     0.162 A 
BRANCH  12  14
ATOM     14  C   UNL A   1      30.264  27.220  23.150  1.00  0.00     0.006 A 
ATOM     15  C   UNL A   1      30.919  28.251  22.470  1.00  0.00     0.012 A 
ATOM     16  C   UNL A   1      28.905  27.348  23.463  1.00  0.00     0.032 A 
ATOM     17  C   UNL A   1      30.211  29.390  22.077  1.00  0.00     0.023 A 
ATOM     18  C   UNL A   1      28.198  28.492  23.080  1.00  0.00     0.060 A 
ATOM     19  C   UNL A   1      28.850  29.512  22.379  1.00  0.00     0.059 A 
ATOM     20  Cl  UNL A   1      26.524  28.576  23.499  1.00  0.00    -0.083 Cl
ATOM     21  Cl  UNL A   1      28.034  30.940  21.851  1.00  0.00    -0.083 Cl
ENDBRANCH  12  14
BRANCH  13  22
ATOM     22  C   UNL A   1      32.361  26.778  25.599  1.00  0.00     0.020 A 
ATOM     23  C   UNL A   1      33.677  27.255  25.604  1.00  0.00     0.012 A 
ATOM     24  C   UNL A   1      31.470  27.232  26.583  1.00  0.00     0.012 A 
ATOM     25  C   UNL A   1      34.083  28.191  26.560  1.00  0.00     0.001 A 
ATOM     26  C   UNL A   1      31.878  28.161  27.542  1.00  0.00     0.001 A 
ATOM     27  C   UNL A   1      33.184  28.646  27.524  1.00  0.00     0.000 A 
ENDBRANCH  13  22
ENDBRANCH   8   9
ENDBRANCH   7   8
ENDBRANCH   6   7
ENDBRANCH   4   6
ENDBRANCH   1   2
BRANCH   1  28
ATOM     28  C   UNL A   1      36.031  24.072  25.760  1.00  0.00     0.042 C 
BRANCH  28  29
ATOM     29  C   UNL A   1      37.066  23.548  24.770  1.00  0.00     0.118 C 
BRANCH  29  30
ATOM     30  N   UNL A   1      37.974  22.565  25.343  1.00  0.00    -0.352 N 
ATOM     31  C   UNL A   1      39.043  22.753  26.185  1.00  0.00     0.251 C 
ATOM     32  H   UNL A   1      37.795  21.630  25.091  1.00  0.00     0.163 HD
ATOM     33  O   UNL A   1      39.766  21.805  26.481  1.00  0.00    -0.269 OA
BRANCH  31  34
ATOM     34  C   UNL A   1      39.353  24.103  26.708  1.00  0.00     0.039 A 
ATOM     35  C   UNL A   1      38.949  24.427  28.005  1.00  0.00     0.014 A 
ATOM     36  C   UNL A   1      40.043  25.041  25.936  1.00  0.00     0.014 A 
ATOM     37  C   UNL A   1      39.297  25.664  28.553  1.00  0.00     0.010 A 
ATOM     38  C   UNL A   1      40.459  26.240  26.511  1.00  0.00     0.010 A 
ATOM     39  C   UNL A   1      40.090  26.566  27.825  1.00  0.00    -0.014 A 
BRANCH  39  40
ATOM     40  C   UNL A   1      40.536  27.852  28.422  1.00  0.00     0.031 A 
ATOM     41  C   UNL A   1      41.976  28.050  28.807  1.00  0.00     0.074 A 
ATOM     42  C   UNL A   1      39.635  28.824  28.668  1.00  0.00     0.049 A 
ATOM     43  N   UNL A   1      42.544  29.072  29.397  1.00  0.00    -0.248 NA
ATOM     44  C   UNL A   1      42.895  26.939  28.515  1.00  0.00     0.031 C 
ATOM     45  C   UNL A   1      38.203  28.743  28.379  1.00  0.00     0.029 A 
ATOM     46  N   UNL A   1      39.791  30.070  29.227  1.00  0.00    -0.354 N 
ATOM     47  C   UNL A   1      43.879  28.725  29.553  1.00  0.00     0.074 A 
ATOM     48  C   UNL A   1      44.026  27.375  29.052  1.00  0.00     0.031 C 
ATOM     49  C   UNL A   1      37.615  29.895  28.740  1.00  0.00     0.029 A 
ATOM     50  C   UNL A   1      38.618  30.780  29.325  1.00  0.00     0.049 A 
ATOM     51  H   UNL A   1      40.659  30.420  29.529  1.00  0.00     0.167 HD
ATOM     52  C   UNL A   1      44.896  29.471  30.046  1.00  0.00     0.037 A 
ATOM     53  C   UNL A   1      38.377  32.002  29.838  1.00  0.00     0.037 A 
ATOM     54  C   UNL A   1      44.752  30.822  30.525  1.00  0.00     0.049 A 
ATOM     55  C   UNL A   1      39.521  32.801  30.403  1.00  0.00     0.074 A 
ATOM     56  C   UNL A   1      45.732  31.679  30.994  1.00  0.00     0.029 A 
ATOM     57  N   UNL A   1      43.549  31.509  30.603  1.00  0.00    -0.354 N 
ATOM     58  N   UNL A   1      40.791  32.487  30.484  1.00  0.00    -0.248 NA
ATOM     59  C   UNL A   1      39.197  34.129  30.944  1.00  0.00     0.031 C 
ATOM     60  C   UNL A   1      45.116  32.864  31.408  1.00  0.00     0.029 A 
ATOM     61  C   UNL A   1      43.760  32.770  31.140  1.00  0.00     0.049 A 
ATOM     62  H   UNL A   1      42.676  31.154  30.320  1.00  0.00     0.167 HD
ATOM     63  C   UNL A   1      41.422  33.587  31.053  1.00  0.00     0.074 A 
ATOM     64  C   UNL A   1      40.396  34.582  31.283  1.00  0.00     0.031 C 
ATOM     65  C   UNL A   1      42.731  33.756  31.357  1.00  0.00     0.037 A 
BRANCH  52  66
ATOM     66  C   UNL A   1      46.259  28.842  30.094  1.00  0.00     0.064 A 
ATOM     67  C   UNL A   1      47.157  28.941  29.019  1.00  0.00     0.173 A 
ATOM     68  C   UNL A   1      46.690  28.164  31.245  1.00  0.00     0.173 A 
ATOM     69  F   UNL A   1      46.792  29.568  27.892  1.00  0.00    -0.203 F 
ATOM     70  C   UNL A   1      48.419  28.357  29.082  1.00  0.00     0.198 A 
ATOM     71  C   UNL A   1      47.966  27.611  31.318  1.00  0.00     0.198 A 
ATOM     72  F   UNL A   1      45.875  28.044  32.305  1.00  0.00    -0.203 F 
ATOM     73  F   UNL A   1      49.236  28.416  28.023  1.00  0.00    -0.200 F 
ATOM     74  C   UNL A   1      48.825  27.699  30.234  1.00  0.00     0.200 A 
ATOM     75  F   UNL A   1      48.362  26.988  32.437  1.00  0.00    -0.200 F 
ATOM     76  F   UNL A   1      50.043  27.142  30.295  1.00  0.00    -0.200 F 
ENDBRANCH  52  66
BRANCH  53  77
ATOM     77  C   UNL A   1      36.997  32.556  29.827  1.00  0.00     0.064 A 
ATOM     78  C   UNL A   1      36.521  33.288  28.731  1.00  0.00     0.173 A 
ATOM     79  C   UNL A   1      36.130  32.380  30.918  1.00  0.00     0.173 A 
ATOM     80  F   UNL A   1      37.318  33.502  27.673  1.00  0.00    -0.203 F 
ATOM     81  C   UNL A   1      35.243  33.843  28.734  1.00  0.00     0.198 A 
ATOM     82  C   UNL A   1      34.842  32.908  30.906  1.00  0.00     0.198 A 
ATOM     83  F   UNL A   1      36.535  31.685  31.991  1.00  0.00    -0.203 F 
ATOM     84  F   UNL A   1      34.835  34.584  27.695  1.00  0.00    -0.200 F 
ATOM     85  C   UNL A   1      34.402  33.649  29.819  1.00  0.00     0.200 A 
ATOM     86  F   UNL A   1      34.028  32.705  31.951  1.00  0.00    -0.200 F 
ATOM     87  F   UNL A   1      33.173  34.181  29.822  1.00  0.00    -0.200 F 
ENDBRANCH  53  77
BRANCH  65  88
ATOM     88  C   UNL A   1      43.143  35.081  31.934  1.00  0.00     0.064 A 
ATOM     89  C   UNL A   1      43.613  36.126  31.124  1.00  0.00     0.173 A 
ATOM     90  C   UNL A   1      43.027  35.321  33.312  1.00  0.00     0.173 A 
ATOM     91  F   UNL A   1      43.758  35.944  29.803  1.00  0.00    -0.203 F 
ATOM     92  C   UNL A   1      43.977  37.351  31.676  1.00  0.00     0.198 A 
ATOM     93  C   UNL A   1      43.358  36.559  33.856  1.00  0.00     0.198 A 
ATOM     94  F   UNL A   1      42.574  34.359  34.130  1.00  0.00    -0.203 F 
ATOM     95  F   UNL A   1      44.472  38.317  30.891  1.00  0.00    -0.200 F 
ATOM     96  C   UNL A   1      43.840  37.570  33.040  1.00  0.00     0.200 A 
ATOM     97  F   UNL A   1      43.209  36.774  35.170  1.00  0.00    -0.200 F 
ATOM     98  F   UNL A   1      44.181  38.753  33.567  1.00  0.00    -0.200 F 
ENDBRANCH  65  88
ENDBRANCH  39  40
ENDBRANCH  31  34
ENDBRANCH  29  30
ENDBRANCH  28  29
ENDBRANCH   1  28
TORSDOF 15
ENDMDL
MODEL 3
REMARK VINA RESULT:     -12.7      4.521      7.690
REMARK SMILES O=C(CCCc1nc(-c2ccc(Cl)c(Cl)c2)c(-c2ccccc2)o1)NCCCNC(=O)c1ccc(-c2c3nc(c(-c4c(F)c(F)c(F)c(F)c4F)c4ccc([nH]4)c(-c4c(F)c(F)c(F)c(F)c4F)c4nc(c(-c5c(F)c(F)c(F)c(F)c5F)c5ccc2[nH]5)C=C4)C=C3)cc1
REMARK SMILES IDX 26 1 25 2 1 3 2 4 3 6 4 7 5 8 6 9 7 10 24 11 8 12 17 13 9 14
REMARK SMILES IDX 10 15 16 16 11 17 14 18 12 19 15 20 13 21 18 22 19 23 23 24
REMARK SMILES IDX 20 25 22 26 21 27 27 28 28 29 29 30 30 31 31 33 32 34 33 35
REMARK SMILES IDX 94 36 34 37 93 38 35 39 36 40 37 41 87 42 38 43 92 44 86 45
REMARK SMILES IDX 88 46 39 47 91 48 85 49 84 50 40 52 72 53 52 54 71 55 53 56
REMARK SMILES IDX 56 57 70 58 89 59 54 60 55 61 69 63 90 64 57 65 41 66 42 67
REMARK SMILES IDX 50 68 43 69 44 70 48 71 51 72 45 73 46 74 49 75 47 76 73 77
REMARK SMILES IDX 74 78 82 79 75 80 76 81 80 82 83 83 77 84 78 85 81 86 79 87
REMARK SMILES IDX 58 88 59 89 67 90 60 91 61 92 65 93 68 94 62 95 63 96 66 97
REMARK SMILES IDX 64 98
REMARK H PARENT 25 5 29 32 88 51 56 62
REMARK Flexibility Score: inf
ROOT
ATOM      1  C   UNL A   1      33.999  34.594  29.525  1.00  0.00     0.117 C 
ENDROOT
BRANCH   1   2
ATOM      2  N   UNL A   1      33.928  35.078  30.889  1.00  0.00    -0.356 N 
ATOM      3  O   UNL A   1      32.651  36.926  30.416  1.00  0.00    -0.275 OA
ATOM      4  C   UNL A   1      33.198  36.191  31.230  1.00  0.00     0.220 C 
ATOM      5  H   UNL A   1      34.419  34.595  31.593  1.00  0.00     0.163 HD
BRANCH   4   6
ATOM      6  C   UNL A   1      33.086  36.416  32.722  1.00  0.00     0.100 C 
BRANCH   6   7
ATOM      7  C   UNL A   1      34.415  36.160  33.443  1.00  0.00     0.020 C 
BRANCH   7   8
ATOM      8  C   UNL A   1      34.567  34.787  34.109  1.00  0.00     0.098 C 
BRANCH   8   9
ATOM      9  C   UNL A   1      35.765  34.050  33.629  1.00  0.00     0.195 A 
ATOM     10  N   UNL A   1      36.280  32.932  34.094  1.00  0.00    -0.213 NA
ATOM     11  O   UNL A   1      36.456  34.611  32.580  1.00  0.00    -0.440 OA
ATOM     12  C   UNL A   1      37.403  32.749  33.330  1.00  0.00     0.117 A 
ATOM     13  C   UNL A   1      37.507  33.751  32.386  1.00  0.00     0.162 A 
BRANCH  12  14
ATOM     14  C   UNL A   1      38.331  31.658  33.512  1.00  0.00     0.006 A 
ATOM     15  C   UNL A   1      39.519  31.866  34.219  1.00  0.00     0.012 A 
ATOM     16  C   UNL A   1      38.042  30.386  33.002  1.00  0.00     0.032 A 
ATOM     17  C   UNL A   1      40.396  30.802  34.443  1.00  0.00     0.023 A 
ATOM     18  C   UNL A   1      38.923  29.323  33.215  1.00  0.00     0.060 A 
ATOM     19  C   UNL A   1      40.100  29.529  33.944  1.00  0.00     0.059 A 
ATOM     20  Cl  UNL A   1      38.495  27.783  32.558  1.00  0.00    -0.083 Cl
ATOM     21  Cl  UNL A   1      41.222  28.256  34.268  1.00  0.00    -0.083 Cl
ENDBRANCH  12  14
BRANCH  13  22
ATOM     22  C   UNL A   1      38.424  34.043  31.300  1.00  0.00     0.020 A 
ATOM     23  C   UNL A   1      38.028  33.903  29.965  1.00  0.00     0.012 A 
ATOM     24  C   UNL A   1      39.698  34.559  31.581  1.00  0.00     0.012 A 
ATOM     25  C   UNL A   1      38.883  34.299  28.932  1.00  0.00     0.001 A 
ATOM     26  C   UNL A   1      40.553  34.947  30.549  1.00  0.00     0.001 A 
ATOM     27  C   UNL A   1      40.141  34.824  29.224  1.00  0.00     0.000 A 
ENDBRANCH  13  22
ENDBRANCH   8   9
ENDBRANCH   7   8
ENDBRANCH   6   7
ENDBRANCH   4   6
ENDBRANCH   1   2
BRANCH   1  28
ATOM     28  C   UNL A   1      34.480  33.153  29.445  1.00  0.00     0.042 C 
BRANCH  28  29
ATOM     29  C   UNL A   1      34.729  32.642  28.031  1.00  0.00     0.118 C 
BRANCH  29  30
ATOM     30  N   UNL A   1      34.068  31.378  27.744  1.00  0.00    -0.352 N 
ATOM     31  C   UNL A   1      34.592  30.108  27.713  1.00  0.00     0.251 C 
ATOM     32  H   UNL A   1      33.106  31.441  27.544  1.00  0.00     0.163 HD
ATOM     33  O   UNL A   1      33.898  29.165  27.342  1.00  0.00    -0.269 OA
BRANCH  31  34
ATOM     34  C   UNL A   1      36.006  29.874  28.089  1.00  0.00     0.039 A 
ATOM     35  C   UNL A   1      36.287  29.396  29.371  1.00  0.00     0.014 A 
ATOM     36  C   UNL A   1      37.046  30.114  27.188  1.00  0.00     0.014 A 
ATOM     37  C   UNL A   1      37.604  29.092  29.725  1.00  0.00     0.010 A 
ATOM     38  C   UNL A   1      38.346  29.734  27.514  1.00  0.00     0.010 A 
ATOM     39  C   UNL A   1      38.640  29.220  28.786  1.00  0.00    -0.014 A 
BRANCH  39  40
ATOM     40  C   UNL A   1      40.034  28.826  29.122  1.00  0.00     0.031 A 
ATOM     41  C   UNL A   1      40.915  29.755  29.910  1.00  0.00     0.074 A 
ATOM     42  C   UNL A   1      40.525  27.655  28.672  1.00  0.00     0.049 A 
ATOM     43  N   UNL A   1      42.173  29.619  30.247  1.00  0.00    -0.248 NA
ATOM     44  C   UNL A   1      40.308  31.019  30.358  1.00  0.00     0.031 C 
ATOM     45  C   UNL A   1      39.788  26.682  27.864  1.00  0.00     0.029 A 
ATOM     46  N   UNL A   1      41.768  27.087  28.822  1.00  0.00    -0.354 N 
ATOM     47  C   UNL A   1      42.508  30.778  30.935  1.00  0.00     0.074 A 
ATOM     48  C   UNL A   1      41.341  31.632  30.916  1.00  0.00     0.031 C 
ATOM     49  C   UNL A   1      40.582  25.629  27.610  1.00  0.00     0.029 A 
ATOM     50  C   UNL A   1      41.896  25.869  28.199  1.00  0.00     0.049 A 
ATOM     51  H   UNL A   1      42.496  27.512  29.329  1.00  0.00     0.167 HD
ATOM     52  C   UNL A   1      43.675  31.091  31.547  1.00  0.00     0.037 A 
ATOM     53  C   UNL A   1      42.957  25.043  28.104  1.00  0.00     0.037 A 
ATOM     54  C   UNL A   1      44.829  30.230  31.582  1.00  0.00     0.049 A 
ATOM     55  C   UNL A   1      44.249  25.427  28.773  1.00  0.00     0.074 A 
ATOM     56  C   UNL A   1      46.038  30.435  32.223  1.00  0.00     0.029 A 
ATOM     57  N   UNL A   1      44.918  29.001  30.944  1.00  0.00    -0.354 N 
ATOM     58  N   UNL A   1      44.533  26.496  29.477  1.00  0.00    -0.248 NA
ATOM     59  C   UNL A   1      45.370  24.484  28.637  1.00  0.00     0.031 C 
ATOM     60  C   UNL A   1      46.880  29.358  31.926  1.00  0.00     0.029 A 
ATOM     61  C   UNL A   1      46.174  28.452  31.152  1.00  0.00     0.049 A 
ATOM     62  H   UNL A   1      44.198  28.583  30.420  1.00  0.00     0.167 HD
ATOM     63  C   UNL A   1      45.849  26.341  29.894  1.00  0.00     0.074 A 
ATOM     64  C   UNL A   1      46.303  25.067  29.378  1.00  0.00     0.031 C 
ATOM     65  C   UNL A   1      46.612  27.178  30.638  1.00  0.00     0.037 A 
BRANCH  52  66
ATOM     66  C   UNL A   1      43.764  32.425  32.231  1.00  0.00     0.064 A 
ATOM     67  C   UNL A   1      43.627  32.553  33.623  1.00  0.00     0.173 A 
ATOM     68  C   UNL A   1      44.027  33.588  31.491  1.00  0.00     0.173 A 
ATOM     69  F   UNL A   1      43.364  31.475  34.376  1.00  0.00    -0.203 F 
ATOM     70  C   UNL A   1      43.717  33.797  34.242  1.00  0.00     0.198 A 
ATOM     71  C   UNL A   1      44.151  34.826  32.118  1.00  0.00     0.198 A 
ATOM     72  F   UNL A   1      44.172  33.525  30.158  1.00  0.00    -0.203 F 
ATOM     73  F   UNL A   1      43.528  33.900  35.564  1.00  0.00    -0.200 F 
ATOM     74  C   UNL A   1      43.987  34.930  33.490  1.00  0.00     0.200 A 
ATOM     75  F   UNL A   1      44.426  35.919  31.391  1.00  0.00    -0.200 F 
ATOM     76  F   UNL A   1      44.080  36.127  34.089  1.00  0.00    -0.200 F 
ENDBRANCH  52  66
BRANCH  53  77
ATOM     77  C   UNL A   1      42.839  23.762  27.358  1.00  0.00     0.064 A 
ATOM     78  C   UNL A   1      42.329  22.612  27.977  1.00  0.00     0.173 A 
ATOM     79  C   UNL A   1      43.247  23.655  26.019  1.00  0.00     0.173 A 
ATOM     80  F   UNL A   1      41.946  22.657  29.261  1.00  0.00    -0.203 F 
ATOM     81  C   UNL A   1      42.256  21.399  27.294  1.00  0.00     0.198 A 
ATOM     82  C   UNL A   1      43.143  22.450  25.330  1.00  0.00     0.198 A 
ATOM     83  F   UNL A   1      43.739  24.726  25.380  1.00  0.00    -0.203 F 
ATOM     84  F   UNL A   1      41.816  20.303  27.927  1.00  0.00    -0.200 F 
ATOM     85  C   UNL A   1      42.657  21.320  25.970  1.00  0.00     0.200 A 
ATOM     86  F   UNL A   1      43.519  22.382  24.044  1.00  0.00    -0.200 F 
ATOM     87  F   UNL A   1      42.585  20.155  25.313  1.00  0.00    -0.200 F 
ENDBRANCH  53  77
BRANCH  65  88
ATOM     88  C   UNL A   1      48.006  26.729  30.977  1.00  0.00     0.064 A 
ATOM     89  C   UNL A   1      49.098  27.020  30.146  1.00  0.00     0.173 A 
ATOM     90  C   UNL A   1      48.256  26.034  32.170  1.00  0.00     0.173 A 
ATOM     91  F   UNL A   1      48.911  27.668  28.986  1.00  0.00    -0.203 F 
ATOM     92  C   UNL A   1      50.384  26.607  30.484  1.00  0.00     0.198 A 
ATOM     93  C   UNL A   1      49.549  25.654  32.522  1.00  0.00     0.198 A 
ATOM     94  F   UNL A   1      47.249  25.739  33.006  1.00  0.00    -0.203 F 
ATOM     95  F   UNL A   1      51.405  26.850  29.650  1.00  0.00    -0.200 F 
ATOM     96  C   UNL A   1      50.610  25.933  31.675  1.00  0.00     0.200 A 
ATOM     97  F   UNL A   1      49.766  25.018  33.682  1.00  0.00    -0.200 F 
ATOM     98  F   UNL A   1      51.850  25.547  32.003  1.00  0.00    -0.200 F 
ENDBRANCH  65  88
ENDBRANCH  39  40
ENDBRANCH  31  34
ENDBRANCH  29  30
ENDBRANCH  28  29
ENDBRANCH   1  28
TORSDOF 15
ENDMDL
