MODEL 1
REMARK VINA RESULT:     -11.9      0.000      0.000
REMARK SMILES C/C(=C/C[NH+]1C[C@@H](C)[C@H](C)C1)C(=O)NCCCNC(=O)c1ccc(-c2c3nc(c(-c4c(F)c(F)c(F)c(F)c4F)c4ccc([nH]4)c(-c4c(F)c(F)c(F)c(F)c4F)c4nc(c(-c5c(F)c(F)c(F)c(F)c5F)c5ccc2[nH]5)C=C4)C=C3)cc1
REMARK SMILES IDX 16 1 15 2 14 3 12 4 13 5 2 7 1 8 3 9 4 10 5 11 6 12 11 13
REMARK SMILES IDX 7 15 9 16 8 17 10 18 17 19 18 20 19 21 20 23 21 24 22 25
REMARK SMILES IDX 83 26 23 27 82 28 24 29 25 30 26 31 76 32 27 33 81 34 75 35
REMARK SMILES IDX 77 36 28 37 80 38 74 39 73 40 29 42 61 43 41 44 60 45 42 46
REMARK SMILES IDX 45 47 59 48 78 49 43 50 44 51 58 53 79 54 46 55 30 56 31 57
REMARK SMILES IDX 39 58 32 59 33 60 37 61 40 62 34 63 35 64 38 65 36 66 62 67
REMARK SMILES IDX 63 68 71 69 64 70 65 71 69 72 72 73 66 74 67 75 70 76 68 77
REMARK SMILES IDX 47 78 48 79 56 80 49 81 50 82 54 83 57 84 51 85 52 86 55 87
REMARK SMILES IDX 53 88
REMARK H PARENT 14 6 5 14 18 22 77 41 45 52
REMARK Flexibility Score: inf
ROOT
ATOM      1  C   UNL A   1      31.457  32.178  26.544  1.00  0.00     0.042 C 
ENDROOT
BRANCH   1   2
ATOM      2  C   UNL A   1      31.598  30.655  26.531  1.00  0.00     0.118 C 
BRANCH   2   3
ATOM      3  N   UNL A   1      32.282  30.154  25.356  1.00  0.00    -0.352 N 
ATOM      4  C   UNL A   1      33.078  29.146  24.961  1.00  0.00     0.246 C 
ATOM      5  O   UNL A   1      33.234  29.136  23.729  1.00  0.00    -0.270 OA
ATOM      6  H   UNL A   1      32.105  30.751  24.594  1.00  0.00     0.163 HD
BRANCH   4   7
ATOM      7  C   UNL A   1      33.790  28.074  25.762  1.00  0.00     0.015 C 
ATOM      8  C   UNL A   1      34.729  28.748  26.761  1.00  0.00     0.050 C 
ATOM      9  C   UNL A   1      33.748  26.723  25.827  1.00  0.00     0.042 C 
BRANCH   9  10
ATOM     10  C   UNL A   1      32.877  25.734  25.148  1.00  0.00     0.291 C 
BRANCH  10  11
ATOM     11  N   UNL A   1      33.471  24.413  24.958  1.00  0.00    -0.331 N 
ATOM     12  C   UNL A   1      34.519  24.414  23.930  1.00  0.00     0.266 C 
ATOM     13  C   UNL A   1      34.156  23.960  26.183  1.00  0.00     0.266 C 
ATOM     14  H   UNL A   1      32.692  23.809  24.695  1.00  0.00     0.348 HD
ATOM     15  C   UNL A   1      35.250  23.100  24.199  1.00  0.00     0.049 C 
ATOM     16  C   UNL A   1      35.230  22.973  25.729  1.00  0.00     0.049 C 
ATOM     17  C   UNL A   1      36.665  23.093  23.638  1.00  0.00     0.014 C 
ATOM     18  C   UNL A   1      34.944  21.551  26.194  1.00  0.00     0.014 C 
ENDBRANCH  10  11
ENDBRANCH   9  10
ENDBRANCH   4   7
ENDBRANCH   2   3
ENDBRANCH   1   2
BRANCH   1  19
ATOM     19  C   UNL A   1      32.585  32.863  27.295  1.00  0.00     0.118 C 
BRANCH  19  20
ATOM     20  N   UNL A   1      32.307  34.233  27.699  1.00  0.00    -0.352 N 
ATOM     21  C   UNL A   1      32.977  35.007  28.624  1.00  0.00     0.251 C 
ATOM     22  H   UNL A   1      31.541  34.663  27.255  1.00  0.00     0.163 HD
ATOM     23  O   UNL A   1      32.582  36.135  28.880  1.00  0.00    -0.269 OA
BRANCH  21  24
ATOM     24  C   UNL A   1      34.140  34.442  29.350  1.00  0.00     0.039 A 
ATOM     25  C   UNL A   1      33.915  33.709  30.519  1.00  0.00     0.014 A 
ATOM     26  C   UNL A   1      35.438  34.586  28.860  1.00  0.00     0.014 A 
ATOM     27  C   UNL A   1      34.980  33.053  31.141  1.00  0.00     0.010 A 
ATOM     28  C   UNL A   1      36.473  33.842  29.409  1.00  0.00     0.010 A 
ATOM     29  C   UNL A   1      36.258  33.073  30.562  1.00  0.00    -0.014 A 
BRANCH  29  30
ATOM     30  C   UNL A   1      37.396  32.318  31.142  1.00  0.00     0.031 A 
ATOM     31  C   UNL A   1      37.898  32.663  32.516  1.00  0.00     0.074 A 
ATOM     32  C   UNL A   1      38.031  31.390  30.399  1.00  0.00     0.049 A 
ATOM     33  N   UNL A   1      38.938  32.200  33.163  1.00  0.00    -0.248 NA
ATOM     34  C   UNL A   1      37.158  33.706  33.244  1.00  0.00     0.031 C 
ATOM     35  C   UNL A   1      37.678  31.015  29.030  1.00  0.00     0.029 A 
ATOM     36  N   UNL A   1      39.114  30.600  30.690  1.00  0.00    -0.354 N 
ATOM     37  C   UNL A   1      38.990  32.913  34.353  1.00  0.00     0.074 A 
ATOM     38  C   UNL A   1      37.926  33.891  34.307  1.00  0.00     0.031 C 
ATOM     39  C   UNL A   1      38.499  30.038  28.615  1.00  0.00     0.029 A 
ATOM     40  C   UNL A   1      39.462  29.747  29.672  1.00  0.00     0.049 A 
ATOM     41  H   UNL A   1      39.596  30.641  31.548  1.00  0.00     0.167 HD
ATOM     42  C   UNL A   1      39.827  32.747  35.404  1.00  0.00     0.037 A 
ATOM     43  C   UNL A   1      40.446  28.830  29.605  1.00  0.00     0.037 A 
ATOM     44  C   UNL A   1      40.858  31.745  35.455  1.00  0.00     0.049 A 
ATOM     45  C   UNL A   1      41.355  28.651  30.790  1.00  0.00     0.074 A 
ATOM     46  C   UNL A   1      41.718  31.440  36.494  1.00  0.00     0.029 A 
ATOM     47  N   UNL A   1      41.164  30.879  34.414  1.00  0.00    -0.354 N 
ATOM     48  N   UNL A   1      41.352  29.282  31.938  1.00  0.00    -0.248 NA
ATOM     49  C   UNL A   1      42.400  27.626  30.669  1.00  0.00     0.031 C 
ATOM     50  C   UNL A   1      42.573  30.417  36.066  1.00  0.00     0.029 A 
ATOM     51  C   UNL A   1      42.212  30.051  34.779  1.00  0.00     0.049 A 
ATOM     52  H   UNL A   1      40.703  30.857  33.544  1.00  0.00     0.167 HD
ATOM     53  C   UNL A   1      42.372  28.714  32.690  1.00  0.00     0.074 A 
ATOM     54  C   UNL A   1      42.965  27.678  31.867  1.00  0.00     0.031 C 
ATOM     55  C   UNL A   1      42.781  29.021  33.946  1.00  0.00     0.037 A 
BRANCH  42  56
ATOM     56  C   UNL A   1      39.649  33.672  36.577  1.00  0.00     0.064 A 
ATOM     57  C   UNL A   1      38.867  33.313  37.687  1.00  0.00     0.173 A 
ATOM     58  C   UNL A   1      40.252  34.938  36.586  1.00  0.00     0.173 A 
ATOM     59  F   UNL A   1      38.257  32.118  37.725  1.00  0.00    -0.203 F 
ATOM     60  C   UNL A   1      38.650  34.206  38.733  1.00  0.00     0.198 A 
ATOM     61  C   UNL A   1      40.064  35.816  37.652  1.00  0.00     0.198 A 
ATOM     62  F   UNL A   1      41.015  35.333  35.556  1.00  0.00    -0.203 F 
ATOM     63  F   UNL A   1      37.835  33.869  39.742  1.00  0.00    -0.200 F 
ATOM     64  C   UNL A   1      39.252  35.455  38.717  1.00  0.00     0.200 A 
ATOM     65  F   UNL A   1      40.656  37.017  37.641  1.00  0.00    -0.200 F 
ATOM     66  F   UNL A   1      39.038  36.316  39.720  1.00  0.00    -0.200 F 
ENDBRANCH  42  56
BRANCH  43  67
ATOM     67  C   UNL A   1      40.576  27.975  28.398  1.00  0.00     0.064 A 
ATOM     68  C   UNL A   1      41.352  28.395  27.308  1.00  0.00     0.173 A 
ATOM     69  C   UNL A   1      39.959  26.719  28.313  1.00  0.00     0.173 A 
ATOM     70  F   UNL A   1      41.948  29.596  27.337  1.00  0.00    -0.203 F 
ATOM     71  C   UNL A   1      41.497  27.598  26.175  1.00  0.00     0.198 A 
ATOM     72  C   UNL A   1      40.125  25.911  27.189  1.00  0.00     0.198 A 
ATOM     73  F   UNL A   1      39.213  26.266  29.331  1.00  0.00    -0.203 F 
ATOM     74  F   UNL A   1      42.218  28.039  25.136  1.00  0.00    -0.200 F 
ATOM     75  C   UNL A   1      40.889  26.353  26.119  1.00  0.00     0.200 A 
ATOM     76  F   UNL A   1      39.549  24.701  27.144  1.00  0.00    -0.200 F 
ATOM     77  F   UNL A   1      41.037  25.580  25.034  1.00  0.00    -0.200 F 
ENDBRANCH  43  67
BRANCH  55  78
ATOM     78  C   UNL A   1      43.897  28.201  34.521  1.00  0.00     0.064 A 
ATOM     79  C   UNL A   1      45.234  28.618  34.446  1.00  0.00     0.173 A 
ATOM     80  C   UNL A   1      43.619  27.002  35.197  1.00  0.00     0.173 A 
ATOM     81  F   UNL A   1      45.551  29.750  33.797  1.00  0.00    -0.203 F 
ATOM     82  C   UNL A   1      46.254  27.853  35.003  1.00  0.00     0.198 A 
ATOM     83  C   UNL A   1      44.639  26.255  35.779  1.00  0.00     0.198 A 
ATOM     84  F   UNL A   1      42.356  26.562  35.301  1.00  0.00    -0.203 F 
ATOM     85  F   UNL A   1      47.529  28.246  34.877  1.00  0.00    -0.200 F 
ATOM     86  C   UNL A   1      45.955  26.677  35.675  1.00  0.00     0.200 A 
ATOM     87  F   UNL A   1      44.346  25.127  36.440  1.00  0.00    -0.200 F 
ATOM     88  F   UNL A   1      46.938  25.945  36.218  1.00  0.00    -0.200 F 
ENDBRANCH  55  78
ENDBRANCH  29  30
ENDBRANCH  21  24
ENDBRANCH  19  20
ENDBRANCH   1  19
TORSDOF 12
ENDMDL
MODEL 2
REMARK VINA RESULT:     -11.8      1.851      8.087
REMARK SMILES C/C(=C/C[NH+]1C[C@@H](C)[C@H](C)C1)C(=O)NCCCNC(=O)c1ccc(-c2c3nc(c(-c4c(F)c(F)c(F)c(F)c4F)c4ccc([nH]4)c(-c4c(F)c(F)c(F)c(F)c4F)c4nc(c(-c5c(F)c(F)c(F)c(F)c5F)c5ccc2[nH]5)C=C4)C=C3)cc1
REMARK SMILES IDX 16 1 15 2 14 3 12 4 13 5 2 7 1 8 3 9 4 10 5 11 6 12 11 13
REMARK SMILES IDX 7 15 9 16 8 17 10 18 17 19 18 20 19 21 20 23 21 24 22 25
REMARK SMILES IDX 83 26 23 27 82 28 24 29 25 30 26 31 76 32 27 33 81 34 75 35
REMARK SMILES IDX 77 36 28 37 80 38 74 39 73 40 29 42 61 43 41 44 60 45 42 46
REMARK SMILES IDX 45 47 59 48 78 49 43 50 44 51 58 53 79 54 46 55 30 56 31 57
REMARK SMILES IDX 39 58 32 59 33 60 37 61 40 62 34 63 35 64 38 65 36 66 62 67
REMARK SMILES IDX 63 68 71 69 64 70 65 71 69 72 72 73 66 74 67 75 70 76 68 77
REMARK SMILES IDX 47 78 48 79 56 80 49 81 50 82 54 83 57 84 51 85 52 86 55 87
REMARK SMILES IDX 53 88
REMARK H PARENT 14 6 5 14 18 22 77 41 45 52
REMARK Flexibility Score: inf
ROOT
ATOM      1  C   UNL A   1      31.841  31.951  26.884  1.00  0.00     0.042 C 
ENDROOT
BRANCH   1   2
ATOM      2  C   UNL A   1      32.369  30.605  26.383  1.00  0.00     0.118 C 
BRANCH   2   3
ATOM      3  N   UNL A   1      31.811  29.472  27.091  1.00  0.00    -0.352 N 
ATOM      4  C   UNL A   1      31.461  28.189  26.900  1.00  0.00     0.246 C 
ATOM      5  O   UNL A   1      31.168  27.625  27.967  1.00  0.00    -0.270 OA
ATOM      6  H   UNL A   1      31.626  29.727  28.024  1.00  0.00     0.163 HD
BRANCH   4   7
ATOM      7  C   UNL A   1      31.365  27.367  25.629  1.00  0.00     0.015 C 
ATOM      8  C   UNL A   1      31.025  25.925  26.000  1.00  0.00     0.050 C 
ATOM      9  C   UNL A   1      31.456  27.619  24.303  1.00  0.00     0.042 C 
BRANCH   9  10
ATOM     10  C   UNL A   1      31.618  28.887  23.553  1.00  0.00     0.291 C 
BRANCH  10  11
ATOM     11  N   UNL A   1      30.388  29.430  22.981  1.00  0.00    -0.331 N 
ATOM     12  C   UNL A   1      29.302  28.441  22.949  1.00  0.00     0.266 C 
ATOM     13  C   UNL A   1      29.860  30.530  23.810  1.00  0.00     0.266 C 
ATOM     14  H   UNL A   1      30.644  29.732  22.041  1.00  0.00     0.348 HD
ATOM     15  C   UNL A   1      28.067  29.312  22.727  1.00  0.00     0.049 C 
ATOM     16  C   UNL A   1      28.356  30.579  23.543  1.00  0.00     0.049 C 
ATOM     17  C   UNL A   1      26.781  28.624  23.166  1.00  0.00     0.014 C 
ATOM     18  C   UNL A   1      27.938  31.851  22.817  1.00  0.00     0.014 C 
ENDBRANCH  10  11
ENDBRANCH   9  10
ENDBRANCH   4   7
ENDBRANCH   2   3
ENDBRANCH   1   2
BRANCH   1  19
ATOM     19  C   UNL A   1      32.953  32.902  27.288  1.00  0.00     0.118 C 
BRANCH  19  20
ATOM     20  N   UNL A   1      32.509  34.227  27.692  1.00  0.00    -0.352 N 
ATOM     21  C   UNL A   1      33.030  35.045  28.674  1.00  0.00     0.251 C 
ATOM     22  H   UNL A   1      31.735  34.586  27.202  1.00  0.00     0.163 HD
ATOM     23  O   UNL A   1      32.504  36.120  28.918  1.00  0.00    -0.269 OA
BRANCH  21  24
ATOM     24  C   UNL A   1      34.193  34.585  29.471  1.00  0.00     0.039 A 
ATOM     25  C   UNL A   1      33.963  33.958  30.699  1.00  0.00     0.014 A 
ATOM     26  C   UNL A   1      35.497  34.722  28.994  1.00  0.00     0.014 A 
ATOM     27  C   UNL A   1      35.033  33.395  31.400  1.00  0.00     0.010 A 
ATOM     28  C   UNL A   1      36.540  34.064  29.630  1.00  0.00     0.010 A 
ATOM     29  C   UNL A   1      36.323  33.400  30.846  1.00  0.00    -0.014 A 
BRANCH  29  30
ATOM     30  C   UNL A   1      37.468  32.737  31.515  1.00  0.00     0.031 A 
ATOM     31  C   UNL A   1      38.177  31.600  30.833  1.00  0.00     0.074 A 
ATOM     32  C   UNL A   1      37.809  33.095  32.769  1.00  0.00     0.049 A 
ATOM     33  N   UNL A   1      39.128  30.821  31.283  1.00  0.00    -0.248 NA
ATOM     34  C   UNL A   1      37.721  31.262  29.475  1.00  0.00     0.031 C 
ATOM     35  C   UNL A   1      37.154  34.138  33.559  1.00  0.00     0.029 A 
ATOM     36  N   UNL A   1      38.787  32.614  33.601  1.00  0.00    -0.354 N 
ATOM     37  C   UNL A   1      39.359  29.890  30.279  1.00  0.00     0.074 A 
ATOM     38  C   UNL A   1      38.400  30.152  29.229  1.00  0.00     0.031 C 
ATOM     39  C   UNL A   1      37.775  34.248  34.743  1.00  0.00     0.029 A 
ATOM     40  C   UNL A   1      38.843  33.257  34.813  1.00  0.00     0.049 A 
ATOM     41  H   UNL A   1      39.391  31.876  33.354  1.00  0.00     0.167 HD
ATOM     42  C   UNL A   1      40.308  28.925  30.221  1.00  0.00     0.037 A 
ATOM     43  C   UNL A   1      39.670  33.068  35.859  1.00  0.00     0.037 A 
ATOM     44  C   UNL A   1      41.282  28.699  31.255  1.00  0.00     0.049 A 
ATOM     45  C   UNL A   1      40.726  32.002  35.768  1.00  0.00     0.074 A 
ATOM     46  C   UNL A   1      42.330  27.797  31.273  1.00  0.00     0.029 A 
ATOM     47  N   UNL A   1      41.325  29.389  32.459  1.00  0.00    -0.354 N 
ATOM     48  N   UNL A   1      40.983  31.173  34.787  1.00  0.00    -0.248 NA
ATOM     49  C   UNL A   1      41.611  31.850  36.930  1.00  0.00     0.031 C 
ATOM     50  C   UNL A   1      42.983  27.914  32.506  1.00  0.00     0.029 A 
ATOM     51  C   UNL A   1      42.373  28.922  33.235  1.00  0.00     0.049 A 
ATOM     52  H   UNL A   1      40.703  30.106  32.721  1.00  0.00     0.167 HD
ATOM     53  C   UNL A   1      42.076  30.421  35.196  1.00  0.00     0.074 A 
ATOM     54  C   UNL A   1      42.439  30.902  36.515  1.00  0.00     0.031 C 
ATOM     55  C   UNL A   1      42.720  29.423  34.542  1.00  0.00     0.037 A 
BRANCH  42  56
ATOM     56  C   UNL A   1      40.327  28.055  28.996  1.00  0.00     0.064 A 
ATOM     57  C   UNL A   1      39.628  26.838  28.944  1.00  0.00     0.173 A 
ATOM     58  C   UNL A   1      41.066  28.431  27.864  1.00  0.00     0.173 A 
ATOM     59  F   UNL A   1      38.914  26.423  30.003  1.00  0.00    -0.203 F 
ATOM     60  C   UNL A   1      39.713  26.006  27.830  1.00  0.00     0.198 A 
ATOM     61  C   UNL A   1      41.119  27.614  26.737  1.00  0.00     0.198 A 
ATOM     62  F   UNL A   1      41.749  29.585  27.854  1.00  0.00    -0.203 F 
ATOM     63  F   UNL A   1      39.101  24.814  27.838  1.00  0.00    -0.200 F 
ATOM     64  C   UNL A   1      40.455  26.396  26.726  1.00  0.00     0.200 A 
ATOM     65  F   UNL A   1      41.826  27.997  25.665  1.00  0.00    -0.200 F 
ATOM     66  F   UNL A   1      40.541  25.592  25.658  1.00  0.00    -0.200 F 
ENDBRANCH  42  56
BRANCH  43  67
ATOM     67  C   UNL A   1      39.568  33.952  37.049  1.00  0.00     0.064 A 
ATOM     68  C   UNL A   1      40.201  35.203  37.063  1.00  0.00     0.173 A 
ATOM     69  C   UNL A   1      38.822  33.586  38.178  1.00  0.00     0.173 A 
ATOM     70  F   UNL A   1      40.939  35.590  36.012  1.00  0.00    -0.203 F 
ATOM     71  C   UNL A   1      40.102  36.049  38.165  1.00  0.00     0.198 A 
ATOM     72  C   UNL A   1      38.703  34.445  39.270  1.00  0.00     0.198 A 
ATOM     73  F   UNL A   1      38.190  32.404  38.212  1.00  0.00    -0.203 F 
ATOM     74  F   UNL A   1      40.744  37.226  38.163  1.00  0.00    -0.200 F 
ATOM     75  C   UNL A   1      39.347  35.673  39.265  1.00  0.00     0.200 A 
ATOM     76  F   UNL A   1      37.959  34.085  40.325  1.00  0.00    -0.200 F 
ATOM     77  F   UNL A   1      39.242  36.492  40.320  1.00  0.00    -0.200 F 
ENDBRANCH  43  67
BRANCH  55  78
ATOM     78  C   UNL A   1      43.908  28.812  35.225  1.00  0.00     0.064 A 
ATOM     79  C   UNL A   1      45.205  29.309  35.033  1.00  0.00     0.173 A 
ATOM     80  C   UNL A   1      43.738  27.742  36.118  1.00  0.00     0.173 A 
ATOM     81  F   UNL A   1      45.420  30.320  34.178  1.00  0.00    -0.203 F 
ATOM     82  C   UNL A   1      46.292  28.740  35.691  1.00  0.00     0.198 A 
ATOM     83  C   UNL A   1      44.823  27.196  36.797  1.00  0.00     0.198 A 
ATOM     84  F   UNL A   1      42.515  27.235  36.340  1.00  0.00    -0.203 F 
ATOM     85  F   UNL A   1      47.529  29.200  35.456  1.00  0.00    -0.200 F 
ATOM     86  C   UNL A   1      46.099  27.691  36.577  1.00  0.00     0.200 A 
ATOM     87  F   UNL A   1      44.633  26.192  37.663  1.00  0.00    -0.200 F 
ATOM     88  F   UNL A   1      47.147  27.151  37.216  1.00  0.00    -0.200 F 
ENDBRANCH  55  78
ENDBRANCH  29  30
ENDBRANCH  21  24
ENDBRANCH  19  20
ENDBRANCH   1  19
TORSDOF 12
ENDMDL
MODEL 3
REMARK VINA RESULT:     -11.8      5.905     10.058
REMARK SMILES C/C(=C/C[NH+]1C[C@@H](C)[C@H](C)C1)C(=O)NCCCNC(=O)c1ccc(-c2c3nc(c(-c4c(F)c(F)c(F)c(F)c4F)c4ccc([nH]4)c(-c4c(F)c(F)c(F)c(F)c4F)c4nc(c(-c5c(F)c(F)c(F)c(F)c5F)c5ccc2[nH]5)C=C4)C=C3)cc1
REMARK SMILES IDX 16 1 15 2 14 3 12 4 13 5 2 7 1 8 3 9 4 10 5 11 6 12 11 13
REMARK SMILES IDX 7 15 9 16 8 17 10 18 17 19 18 20 19 21 20 23 21 24 22 25
REMARK SMILES IDX 83 26 23 27 82 28 24 29 25 30 26 31 76 32 27 33 81 34 75 35
REMARK SMILES IDX 77 36 28 37 80 38 74 39 73 40 29 42 61 43 41 44 60 45 42 46
REMARK SMILES IDX 45 47 59 48 78 49 43 50 44 51 58 53 79 54 46 55 30 56 31 57
REMARK SMILES IDX 39 58 32 59 33 60 37 61 40 62 34 63 35 64 38 65 36 66 62 67
REMARK SMILES IDX 63 68 71 69 64 70 65 71 69 72 72 73 66 74 67 75 70 76 68 77
REMARK SMILES IDX 47 78 48 79 56 80 49 81 50 82 54 83 57 84 51 85 52 86 55 87
REMARK SMILES IDX 53 88
REMARK H PARENT 14 6 5 14 18 22 77 41 45 52
REMARK Flexibility Score: inf
ROOT
ATOM      1  C   UNL A   1      37.697  20.285  25.005  1.00  0.00     0.042 C 
ENDROOT
BRANCH   1   2
ATOM      2  C   UNL A   1      36.775  21.507  25.008  1.00  0.00     0.118 C 
BRANCH   2   3
ATOM      3  N   UNL A   1      35.929  21.581  26.182  1.00  0.00    -0.352 N 
ATOM      4  C   UNL A   1      34.634  21.564  26.539  1.00  0.00     0.246 C 
ATOM      5  O   UNL A   1      34.495  21.498  27.772  1.00  0.00    -0.270 OA
ATOM      6  H   UNL A   1      36.490  21.676  26.985  1.00  0.00     0.163 HD
BRANCH   4   7
ATOM      7  C   UNL A   1      33.374  21.622  25.699  1.00  0.00     0.015 C 
ATOM      8  C   UNL A   1      32.602  22.891  26.056  1.00  0.00     0.050 C 
ATOM      9  C   UNL A   1      32.829  20.871  24.715  1.00  0.00     0.042 C 
BRANCH   9  10
ATOM     10  C   UNL A   1      33.335  19.676  23.997  1.00  0.00     0.291 C 
BRANCH  10  11
ATOM     11  N   UNL A   1      33.735  18.562  24.853  1.00  0.00    -0.331 N 
ATOM     12  C   UNL A   1      32.610  17.675  25.178  1.00  0.00     0.266 C 
ATOM     13  C   UNL A   1      34.705  17.689  24.165  1.00  0.00     0.266 C 
ATOM     14  H   UNL A   1      34.120  18.997  25.690  1.00  0.00     0.348 HD
ATOM     15  C   UNL A   1      33.314  16.420  25.690  1.00  0.00     0.049 C 
ATOM     16  C   UNL A   1      34.563  16.309  24.804  1.00  0.00     0.049 C 
ATOM     17  C   UNL A   1      32.434  15.181  25.605  1.00  0.00     0.014 C 
ATOM     18  C   UNL A   1      35.803  15.903  25.589  1.00  0.00     0.014 C 
ENDBRANCH  10  11
ENDBRANCH   9  10
ENDBRANCH   4   7
ENDBRANCH   2   3
ENDBRANCH   1   2
BRANCH   1  19
ATOM     19  C   UNL A   1      38.992  20.529  25.759  1.00  0.00     0.118 C 
BRANCH  19  20
ATOM     20  N   UNL A   1      39.903  19.394  25.794  1.00  0.00    -0.352 N 
ATOM     21  C   UNL A   1      41.254  19.386  26.071  1.00  0.00     0.251 C 
ATOM     22  H   UNL A   1      39.501  18.519  25.593  1.00  0.00     0.163 HD
ATOM     23  O   UNL A   1      41.885  18.342  26.014  1.00  0.00    -0.269 OA
BRANCH  21  24
ATOM     24  C   UNL A   1      41.947  20.661  26.380  1.00  0.00     0.039 A 
ATOM     25  C   UNL A   1      42.349  21.483  25.322  1.00  0.00     0.014 A 
ATOM     26  C   UNL A   1      42.157  21.071  27.696  1.00  0.00     0.014 A 
ATOM     27  C   UNL A   1      42.878  22.748  25.591  1.00  0.00     0.010 A 
ATOM     28  C   UNL A   1      42.573  22.368  27.960  1.00  0.00     0.010 A 
ATOM     29  C   UNL A   1      42.947  23.220  26.911  1.00  0.00    -0.014 A 
BRANCH  29  30
ATOM     30  C   UNL A   1      43.419  24.589  27.233  1.00  0.00     0.031 A 
ATOM     31  C   UNL A   1      42.463  25.591  27.816  1.00  0.00     0.074 A 
ATOM     32  C   UNL A   1      44.677  24.954  26.916  1.00  0.00     0.049 A 
ATOM     33  N   UNL A   1      42.643  26.863  28.072  1.00  0.00    -0.248 NA
ATOM     34  C   UNL A   1      41.102  25.111  28.106  1.00  0.00     0.031 C 
ATOM     35  C   UNL A   1      45.676  24.090  26.287  1.00  0.00     0.029 A 
ATOM     36  N   UNL A   1      45.326  26.152  27.072  1.00  0.00    -0.354 N 
ATOM     37  C   UNL A   1      41.417  27.334  28.522  1.00  0.00     0.074 A 
ATOM     38  C   UNL A   1      40.482  26.234  28.434  1.00  0.00     0.031 C 
ATOM     39  C   UNL A   1      46.824  24.771  26.151  1.00  0.00     0.029 A 
ATOM     40  C   UNL A   1      46.630  26.131  26.643  1.00  0.00     0.049 A 
ATOM     41  H   UNL A   1      44.897  26.952  27.455  1.00  0.00     0.167 HD
ATOM     42  C   UNL A   1      41.105  28.562  29.000  1.00  0.00     0.037 A 
ATOM     43  C   UNL A   1      47.564  27.101  26.653  1.00  0.00     0.037 A 
ATOM     44  C   UNL A   1      42.053  29.637  29.120  1.00  0.00     0.049 A 
ATOM     45  C   UNL A   1      47.201  28.454  27.202  1.00  0.00     0.074 A 
ATOM     46  C   UNL A   1      41.866  30.900  29.652  1.00  0.00     0.029 A 
ATOM     47  N   UNL A   1      43.374  29.570  28.699  1.00  0.00    -0.354 N 
ATOM     48  N   UNL A   1      46.059  28.869  27.691  1.00  0.00    -0.248 NA
ATOM     49  C   UNL A   1      48.262  29.469  27.204  1.00  0.00     0.031 C 
ATOM     50  C   UNL A   1      43.064  31.611  29.516  1.00  0.00     0.029 A 
ATOM     51  C   UNL A   1      44.011  30.776  28.945  1.00  0.00     0.049 A 
ATOM     52  H   UNL A   1      43.797  28.782  28.288  1.00  0.00     0.167 HD
ATOM     53  C   UNL A   1      46.267  30.183  28.087  1.00  0.00     0.074 A 
ATOM     54  C   UNL A   1      47.653  30.491  27.790  1.00  0.00     0.031 C 
ATOM     55  C   UNL A   1      45.394  31.056  28.647  1.00  0.00     0.037 A 
BRANCH  42  56
ATOM     56  C   UNL A   1      39.682  28.792  29.426  1.00  0.00     0.064 A 
ATOM     57  C   UNL A   1      38.722  29.314  28.543  1.00  0.00     0.173 A 
ATOM     58  C   UNL A   1      39.273  28.503  30.737  1.00  0.00     0.173 A 
ATOM     59  F   UNL A   1      39.061  29.619  27.281  1.00  0.00    -0.203 F 
ATOM     60  C   UNL A   1      37.426  29.590  28.971  1.00  0.00     0.198 A 
ATOM     61  C   UNL A   1      37.965  28.745  31.151  1.00  0.00     0.198 A 
ATOM     62  F   UNL A   1      40.145  27.997  31.622  1.00  0.00    -0.203 F 
ATOM     63  F   UNL A   1      36.553  30.163  28.131  1.00  0.00    -0.200 F 
ATOM     64  C   UNL A   1      37.047  29.302  30.273  1.00  0.00     0.200 A 
ATOM     65  F   UNL A   1      37.597  28.455  32.406  1.00  0.00    -0.200 F 
ATOM     66  F   UNL A   1      35.802  29.574  30.686  1.00  0.00    -0.200 F 
ENDBRANCH  42  56
BRANCH  43  67
ATOM     67  C   UNL A   1      48.942  26.804  26.186  1.00  0.00     0.064 A 
ATOM     68  C   UNL A   1      49.882  26.235  27.057  1.00  0.00     0.173 A 
ATOM     69  C   UNL A   1      49.344  27.051  24.866  1.00  0.00     0.173 A 
ATOM     70  F   UNL A   1      49.549  25.995  28.334  1.00  0.00    -0.203 F 
ATOM     71  C   UNL A   1      51.174  25.936  26.630  1.00  0.00     0.198 A 
ATOM     72  C   UNL A   1      50.629  26.728  24.433  1.00  0.00     0.198 A 
ATOM     73  F   UNL A   1      48.481  27.585  23.990  1.00  0.00    -0.203 F 
ATOM     74  F   UNL A   1      52.061  25.423  27.494  1.00  0.00    -0.200 F 
ATOM     75  C   UNL A   1      51.545  26.176  25.316  1.00  0.00     0.200 A 
ATOM     76  F   UNL A   1      50.979  26.946  23.157  1.00  0.00    -0.200 F 
ATOM     77  F   UNL A   1      52.783  25.878  24.902  1.00  0.00    -0.200 F 
ENDBRANCH  43  67
BRANCH  55  78
ATOM     78  C   UNL A   1      45.920  32.413  29.009  1.00  0.00     0.064 A 
ATOM     79  C   UNL A   1      45.846  33.495  28.119  1.00  0.00     0.173 A 
ATOM     80  C   UNL A   1      46.465  32.645  30.282  1.00  0.00     0.173 A 
ATOM     81  F   UNL A   1      45.348  33.320  26.885  1.00  0.00    -0.203 F 
ATOM     82  C   UNL A   1      46.322  34.751  28.481  1.00  0.00     0.198 A 
ATOM     83  C   UNL A   1      46.912  33.910  30.651  1.00  0.00     0.198 A 
ATOM     84  F   UNL A   1      46.552  31.644  31.172  1.00  0.00    -0.203 F 
ATOM     85  F   UNL A   1      46.287  35.758  27.597  1.00  0.00    -0.200 F 
ATOM     86  C   UNL A   1      46.847  34.959  29.747  1.00  0.00     0.200 A 
ATOM     87  F   UNL A   1      47.405  34.112  31.880  1.00  0.00    -0.200 F 
ATOM     88  F   UNL A   1      47.298  36.173  30.097  1.00  0.00    -0.200 F 
ENDBRANCH  55  78
ENDBRANCH  29  30
ENDBRANCH  21  24
ENDBRANCH  19  20
ENDBRANCH   1  19
TORSDOF 12
ENDMDL
