MODEL 1
REMARK VINA RESULT:     -12.4      0.000      0.000
REMARK SMILES CCN(Cc1ccccn1)c1nc(C)cc(C)c1C(=O)NCCCNC(=O)c1ccc(-c2c3nc(c(-c4c(F)c(F)c(F)c(F)c4F)c4ccc([nH]4)c(-c4c(F)c(F)c(F)c(F)c4F)c4nc(c(-c5c(F)c(F)c(F)c(F)c5F)c5ccc2[nH]5)C=C4)C=C3)cc1
REMARK SMILES IDX 22 1 21 2 19 3 20 4 18 6 11 7 12 8 13 9 16 10 14 11 15 12
REMARK SMILES IDX 17 13 3 14 2 15 1 16 4 17 5 18 6 19 10 20 7 21 9 22 8 23
REMARK SMILES IDX 23 24 24 25 25 26 26 27 27 29 28 30 29 31 90 32 30 33 89 34
REMARK SMILES IDX 31 35 32 36 33 37 83 38 34 39 88 40 82 41 84 42 35 43 87 44
REMARK SMILES IDX 81 45 80 46 36 48 68 49 48 50 67 51 49 52 52 53 66 54 85 55
REMARK SMILES IDX 50 56 51 57 65 59 86 60 53 61 37 62 38 63 46 64 39 65 40 66
REMARK SMILES IDX 44 67 47 68 41 69 42 70 45 71 43 72 69 73 70 74 78 75 71 76
REMARK SMILES IDX 72 77 76 78 79 79 73 80 74 81 77 82 75 83 54 84 55 85 63 86
REMARK SMILES IDX 56 87 57 88 61 89 64 90 58 91 59 92 62 93 60 94
REMARK H PARENT 21 5 25 28 84 47 52 58
REMARK Flexibility Score: inf
ROOT
ATOM      1  C   UNL A   1      33.978  26.416  25.669  1.00  0.00     0.118 C 
ENDROOT
BRANCH   1   2
ATOM      2  N   UNL A   1      33.388  25.163  25.254  1.00  0.00    -0.352 N 
ATOM      3  C   UNL A   1      33.642  24.006  25.953  1.00  0.00     0.255 C 
ATOM      4  O   UNL A   1      32.941  23.711  26.915  1.00  0.00    -0.269 OA
ATOM      5  H   UNL A   1      32.800  25.138  24.465  1.00  0.00     0.163 HD
BRANCH   3   6
ATOM      6  C   UNL A   1      34.680  23.081  25.433  1.00  0.00     0.085 A 
ATOM      7  C   UNL A   1      34.244  21.934  24.745  1.00  0.00     0.142 A 
ATOM      8  N   UNL A   1      35.105  20.921  24.491  1.00  0.00    -0.235 NA
ATOM      9  C   UNL A   1      36.371  20.969  24.939  1.00  0.00     0.040 A 
ATOM     10  C   UNL A   1      36.045  23.185  25.790  1.00  0.00    -0.033 A 
ATOM     11  C   UNL A   1      37.161  19.700  24.859  1.00  0.00     0.067 C 
ATOM     12  C   UNL A   1      36.887  22.095  25.542  1.00  0.00     0.028 A 
ATOM     13  C   UNL A   1      36.673  24.359  26.474  1.00  0.00     0.045 C 
BRANCH   7  14
ATOM     14  N   UNL A   1      32.937  21.735  24.306  1.00  0.00    -0.350 N 
BRANCH  14  15
ATOM     15  C   UNL A   1      32.627  21.958  22.898  1.00  0.00     0.115 C 
ATOM     16  C   UNL A   1      33.323  23.188  22.339  1.00  0.00     0.027 C 
ENDBRANCH  14  15
BRANCH  14  17
ATOM     17  C   UNL A   1      32.167  20.704  25.035  1.00  0.00     0.174 C 
BRANCH  17  18
ATOM     18  C   UNL A   1      32.460  19.237  24.711  1.00  0.00     0.060 A 
ATOM     19  C   UNL A   1      32.628  18.778  23.403  1.00  0.00     0.026 A 
ATOM     20  N   UNL A   1      32.550  18.390  25.774  1.00  0.00    -0.259 NA
ATOM     21  C   UNL A   1      32.987  17.450  23.181  1.00  0.00     0.004 A 
ATOM     22  C   UNL A   1      32.893  17.106  25.529  1.00  0.00     0.111 A 
ATOM     23  C   UNL A   1      33.132  16.596  24.265  1.00  0.00     0.020 A 
ENDBRANCH  17  18
ENDBRANCH  14  17
ENDBRANCH   7  14
ENDBRANCH   3   6
ENDBRANCH   1   2
BRANCH   1  24
ATOM     24  C   UNL A   1      33.003  27.566  25.479  1.00  0.00     0.042 C 
BRANCH  24  25
ATOM     25  C   UNL A   1      33.729  28.857  25.152  1.00  0.00     0.118 C 
BRANCH  25  26
ATOM     26  N   UNL A   1      33.033  30.018  25.701  1.00  0.00    -0.352 N 
ATOM     27  C   UNL A   1      33.321  30.772  26.813  1.00  0.00     0.251 C 
ATOM     28  H   UNL A   1      32.236  30.302  25.197  1.00  0.00     0.163 HD
ATOM     29  O   UNL A   1      32.503  31.561  27.258  1.00  0.00    -0.269 OA
BRANCH  27  30
ATOM     30  C   UNL A   1      34.630  30.603  27.470  1.00  0.00     0.039 A 
ATOM     31  C   UNL A   1      35.494  31.694  27.577  1.00  0.00     0.014 A 
ATOM     32  C   UNL A   1      34.983  29.360  27.998  1.00  0.00     0.014 A 
ATOM     33  C   UNL A   1      36.689  31.556  28.286  1.00  0.00     0.010 A 
ATOM     34  C   UNL A   1      36.108  29.255  28.796  1.00  0.00     0.010 A 
ATOM     35  C   UNL A   1      36.981  30.347  28.935  1.00  0.00    -0.014 A 
BRANCH  35  36
ATOM     36  C   UNL A   1      38.210  30.143  29.735  1.00  0.00     0.031 A 
ATOM     37  C   UNL A   1      39.273  29.225  29.203  1.00  0.00     0.074 A 
ATOM     38  C   UNL A   1      38.307  30.668  30.970  1.00  0.00     0.049 A 
ATOM     39  N   UNL A   1      40.307  28.707  29.814  1.00  0.00    -0.248 NA
ATOM     40  C   UNL A   1      39.116  28.786  27.806  1.00  0.00     0.031 C 
ATOM     41  C   UNL A   1      37.326  31.554  31.598  1.00  0.00     0.029 A 
ATOM     42  N   UNL A   1      39.274  30.507  31.930  1.00  0.00    -0.354 N 
ATOM     43  C   UNL A   1      40.894  27.855  28.889  1.00  0.00     0.074 A 
ATOM     44  C   UNL A   1      40.068  27.874  27.703  1.00  0.00     0.031 C 
ATOM     45  C   UNL A   1      37.752  31.875  32.831  1.00  0.00     0.029 A 
ATOM     46  C   UNL A   1      39.003  31.175  33.099  1.00  0.00     0.049 A 
ATOM     47  H   UNL A   1      40.084  29.964  31.793  1.00  0.00     0.167 HD
ATOM     48  C   UNL A   1      42.037  27.139  29.011  1.00  0.00     0.037 A 
ATOM     49  C   UNL A   1      39.685  31.198  34.260  1.00  0.00     0.037 A 
ATOM     50  C   UNL A   1      42.868  27.162  30.184  1.00  0.00     0.049 A 
ATOM     51  C   UNL A   1      40.943  30.379  34.381  1.00  0.00     0.074 A 
ATOM     52  C   UNL A   1      44.072  26.519  30.404  1.00  0.00     0.029 A 
ATOM     53  N   UNL A   1      42.576  27.877  31.337  1.00  0.00    -0.354 N 
ATOM     54  N   UNL A   1      41.515  29.604  33.493  1.00  0.00    -0.248 NA
ATOM     55  C   UNL A   1      41.647  30.437  35.669  1.00  0.00     0.031 C 
ATOM     56  C   UNL A   1      44.489  26.812  31.705  1.00  0.00     0.029 A 
ATOM     57  C   UNL A   1      43.573  27.681  32.279  1.00  0.00     0.049 A 
ATOM     58  H   UNL A   1      41.779  28.440  31.468  1.00  0.00     0.167 HD
ATOM     59  C   UNL A   1      42.666  29.116  34.095  1.00  0.00     0.074 A 
ATOM     60  C   UNL A   1      42.710  29.680  35.428  1.00  0.00     0.031 C 
ATOM     61  C   UNL A   1      43.607  28.281  33.589  1.00  0.00     0.037 A 
BRANCH  48  62
ATOM     62  C   UNL A   1      42.442  26.282  27.846  1.00  0.00     0.064 A 
ATOM     63  C   UNL A   1      43.369  26.724  26.889  1.00  0.00     0.173 A 
ATOM     64  C   UNL A   1      41.887  25.004  27.674  1.00  0.00     0.173 A 
ATOM     65  F   UNL A   1      43.920  27.943  26.997  1.00  0.00    -0.203 F 
ATOM     66  C   UNL A   1      43.688  25.944  25.782  1.00  0.00     0.198 A 
ATOM     67  C   UNL A   1      42.237  24.210  26.586  1.00  0.00     0.198 A 
ATOM     68  F   UNL A   1      40.999  24.527  28.560  1.00  0.00    -0.203 F 
ATOM     69  F   UNL A   1      44.518  26.422  24.845  1.00  0.00    -0.200 F 
ATOM     70  C   UNL A   1      43.126  24.685  25.634  1.00  0.00     0.200 A 
ATOM     71  F   UNL A   1      41.704  22.988  26.451  1.00  0.00    -0.200 F 
ATOM     72  F   UNL A   1      43.431  23.936  24.566  1.00  0.00    -0.200 F 
ENDBRANCH  48  62
BRANCH  49  73
ATOM     73  C   UNL A   1      39.215  32.053  35.379  1.00  0.00     0.064 A 
ATOM     74  C   UNL A   1      38.430  31.510  36.406  1.00  0.00     0.173 A 
ATOM     75  C   UNL A   1      39.543  33.415  35.460  1.00  0.00     0.173 A 
ATOM     76  F   UNL A   1      38.077  30.217  36.363  1.00  0.00    -0.203 F 
ATOM     77  C   UNL A   1      37.978  32.297  37.462  1.00  0.00     0.198 A 
ATOM     78  C   UNL A   1      39.112  34.195  36.531  1.00  0.00     0.198 A 
ATOM     79  F   UNL A   1      40.298  33.982  34.508  1.00  0.00    -0.203 F 
ATOM     80  F   UNL A   1      37.197  31.760  38.409  1.00  0.00    -0.200 F 
ATOM     81  C   UNL A   1      38.325  33.638  37.528  1.00  0.00     0.200 A 
ATOM     82  F   UNL A   1      39.463  35.488  36.600  1.00  0.00    -0.200 F 
ATOM     83  F   UNL A   1      37.895  34.394  38.547  1.00  0.00    -0.200 F 
ENDBRANCH  49  73
BRANCH  61  84
ATOM     84  C   UNL A   1      44.800  27.980  34.445  1.00  0.00     0.064 A 
ATOM     85  C   UNL A   1      45.929  28.810  34.458  1.00  0.00     0.173 A 
ATOM     86  C   UNL A   1      44.773  26.887  35.325  1.00  0.00     0.173 A 
ATOM     87  F   UNL A   1      46.007  29.858  33.624  1.00  0.00    -0.203 F 
ATOM     88  C   UNL A   1      46.993  28.552  35.318  1.00  0.00     0.198 A 
ATOM     89  C   UNL A   1      45.825  26.649  36.202  1.00  0.00     0.198 A 
ATOM     90  F   UNL A   1      43.711  26.067  35.353  1.00  0.00    -0.203 F 
ATOM     91  F   UNL A   1      48.077  29.340  35.295  1.00  0.00    -0.200 F 
ATOM     92  C   UNL A   1      46.936  27.480  36.196  1.00  0.00     0.200 A 
ATOM     93  F   UNL A   1      45.761  25.621  37.062  1.00  0.00    -0.200 F 
ATOM     94  F   UNL A   1      47.952  27.246  37.037  1.00  0.00    -0.200 F 
ENDBRANCH  61  84
ENDBRANCH  35  36
ENDBRANCH  27  30
ENDBRANCH  25  26
ENDBRANCH  24  25
ENDBRANCH   1  24
TORSDOF 14
ENDMDL
MODEL 2
REMARK VINA RESULT:     -12.3      1.279      3.138
REMARK SMILES CCN(Cc1ccccn1)c1nc(C)cc(C)c1C(=O)NCCCNC(=O)c1ccc(-c2c3nc(c(-c4c(F)c(F)c(F)c(F)c4F)c4ccc([nH]4)c(-c4c(F)c(F)c(F)c(F)c4F)c4nc(c(-c5c(F)c(F)c(F)c(F)c5F)c5ccc2[nH]5)C=C4)C=C3)cc1
REMARK SMILES IDX 22 1 21 2 19 3 20 4 18 6 11 7 12 8 13 9 16 10 14 11 15 12
REMARK SMILES IDX 17 13 3 14 2 15 1 16 4 17 5 18 6 19 10 20 7 21 9 22 8 23
REMARK SMILES IDX 23 24 24 25 25 26 26 27 27 29 28 30 29 31 90 32 30 33 89 34
REMARK SMILES IDX 31 35 32 36 33 37 83 38 34 39 88 40 82 41 84 42 35 43 87 44
REMARK SMILES IDX 81 45 80 46 36 48 68 49 48 50 67 51 49 52 52 53 66 54 85 55
REMARK SMILES IDX 50 56 51 57 65 59 86 60 53 61 37 62 38 63 46 64 39 65 40 66
REMARK SMILES IDX 44 67 47 68 41 69 42 70 45 71 43 72 69 73 70 74 78 75 71 76
REMARK SMILES IDX 72 77 76 78 79 79 73 80 74 81 77 82 75 83 54 84 55 85 63 86
REMARK SMILES IDX 56 87 57 88 61 89 64 90 58 91 59 92 62 93 60 94
REMARK H PARENT 21 5 25 28 84 47 52 58
REMARK Flexibility Score: inf
ROOT
ATOM      1  C   UNL A   1      32.193  26.541  26.386  1.00  0.00     0.118 C 
ENDROOT
BRANCH   1   2
ATOM      2  N   UNL A   1      33.221  25.560  26.122  1.00  0.00    -0.352 N 
ATOM      3  C   UNL A   1      33.479  25.146  24.835  1.00  0.00     0.255 C 
ATOM      4  O   UNL A   1      34.273  25.773  24.143  1.00  0.00    -0.269 OA
ATOM      5  H   UNL A   1      33.740  25.183  26.869  1.00  0.00     0.163 HD
BRANCH   3   6
ATOM      6  C   UNL A   1      32.881  23.869  24.372  1.00  0.00     0.085 A 
ATOM      7  C   UNL A   1      33.649  22.700  24.520  1.00  0.00     0.142 A 
ATOM      8  N   UNL A   1      33.293  21.562  23.878  1.00  0.00    -0.235 NA
ATOM      9  C   UNL A   1      32.237  21.546  23.046  1.00  0.00     0.040 A 
ATOM     10  C   UNL A   1      31.697  23.814  23.598  1.00  0.00    -0.033 A 
ATOM     11  C   UNL A   1      32.088  20.340  22.173  1.00  0.00     0.067 C 
ATOM     12  C   UNL A   1      31.394  22.628  22.921  1.00  0.00     0.028 A 
ATOM     13  C   UNL A   1      30.748  24.953  23.389  1.00  0.00     0.045 C 
BRANCH   7  14
ATOM     14  N   UNL A   1      34.808  22.617  25.287  1.00  0.00    -0.350 N 
BRANCH  14  15
ATOM     15  C   UNL A   1      34.805  21.777  26.479  1.00  0.00     0.115 C 
ATOM     16  C   UNL A   1      34.084  22.430  27.646  1.00  0.00     0.027 C 
ENDBRANCH  14  15
BRANCH  14  17
ATOM     17  C   UNL A   1      36.079  22.770  24.545  1.00  0.00     0.174 C 
BRANCH  17  18
ATOM     18  C   UNL A   1      37.370  22.880  25.360  1.00  0.00     0.060 A 
ATOM     19  C   UNL A   1      37.719  24.040  26.054  1.00  0.00     0.026 A 
ATOM     20  N   UNL A   1      38.170  21.779  25.375  1.00  0.00    -0.259 NA
ATOM     21  C   UNL A   1      38.860  24.045  26.854  1.00  0.00     0.004 A 
ATOM     22  C   UNL A   1      39.274  21.814  26.155  1.00  0.00     0.111 A 
ATOM     23  C   UNL A   1      39.650  22.907  26.915  1.00  0.00     0.020 A 
ENDBRANCH  17  18
ENDBRANCH  14  17
ENDBRANCH   7  14
ENDBRANCH   3   6
ENDBRANCH   1   2
BRANCH   1  24
ATOM     24  C   UNL A   1      32.358  27.756  25.489  1.00  0.00     0.042 C 
BRANCH  24  25
ATOM     25  C   UNL A   1      33.464  28.665  25.989  1.00  0.00     0.118 C 
BRANCH  25  26
ATOM     26  N   UNL A   1      32.986  30.031  26.190  1.00  0.00    -0.352 N 
ATOM     27  C   UNL A   1      33.449  31.010  27.036  1.00  0.00     0.251 C 
ATOM     28  H   UNL A   1      32.215  30.288  25.636  1.00  0.00     0.163 HD
ATOM     29  O   UNL A   1      32.788  32.015  27.246  1.00  0.00    -0.269 OA
BRANCH  27  30
ATOM     30  C   UNL A   1      34.752  30.822  27.700  1.00  0.00     0.039 A 
ATOM     31  C   UNL A   1      35.634  31.899  27.806  1.00  0.00     0.014 A 
ATOM     32  C   UNL A   1      35.083  29.576  28.234  1.00  0.00     0.014 A 
ATOM     33  C   UNL A   1      36.823  31.744  28.521  1.00  0.00     0.010 A 
ATOM     34  C   UNL A   1      36.203  29.455  29.036  1.00  0.00     0.010 A 
ATOM     35  C   UNL A   1      37.093  30.532  29.175  1.00  0.00    -0.014 A 
BRANCH  35  36
ATOM     36  C   UNL A   1      38.316  30.312  29.981  1.00  0.00     0.031 A 
ATOM     37  C   UNL A   1      39.411  29.459  29.410  1.00  0.00     0.074 A 
ATOM     38  C   UNL A   1      38.379  30.759  31.248  1.00  0.00     0.049 A 
ATOM     39  N   UNL A   1      40.450  28.931  30.004  1.00  0.00    -0.248 NA
ATOM     40  C   UNL A   1      39.287  29.105  27.986  1.00  0.00     0.031 C 
ATOM     41  C   UNL A   1      37.365  31.577  31.915  1.00  0.00     0.029 A 
ATOM     42  N   UNL A   1      39.336  30.564  32.212  1.00  0.00    -0.354 N 
ATOM     43  C   UNL A   1      41.075  28.155  29.037  1.00  0.00     0.074 A 
ATOM     44  C   UNL A   1      40.266  28.228  27.841  1.00  0.00     0.031 C 
ATOM     45  C   UNL A   1      37.763  31.830  33.172  1.00  0.00     0.029 A 
ATOM     46  C   UNL A   1      39.030  31.148  33.416  1.00  0.00     0.049 A 
ATOM     47  H   UNL A   1      40.163  30.053  32.055  1.00  0.00     0.167 HD
ATOM     48  C   UNL A   1      42.236  27.465  29.132  1.00  0.00     0.037 A 
ATOM     49  C   UNL A   1      39.693  31.116  34.587  1.00  0.00     0.037 A 
ATOM     50  C   UNL A   1      43.048  27.435  30.318  1.00  0.00     0.049 A 
ATOM     51  C   UNL A   1      40.971  30.326  34.677  1.00  0.00     0.074 A 
ATOM     52  C   UNL A   1      44.267  26.813  30.516  1.00  0.00     0.029 A 
ATOM     53  N   UNL A   1      42.720  28.068  31.509  1.00  0.00    -0.354 N 
ATOM     54  N   UNL A   1      41.578  29.624  33.751  1.00  0.00    -0.248 NA
ATOM     55  C   UNL A   1      41.654  30.320  35.978  1.00  0.00     0.031 C 
ATOM     56  C   UNL A   1      44.656  27.033  31.841  1.00  0.00     0.029 A 
ATOM     57  C   UNL A   1      43.707  27.839  32.453  1.00  0.00     0.049 A 
ATOM     58  H   UNL A   1      41.905  28.599  31.661  1.00  0.00     0.167 HD
ATOM     59  C   UNL A   1      42.733  29.130  34.341  1.00  0.00     0.074 A 
ATOM     60  C   UNL A   1      42.741  29.609  35.707  1.00  0.00     0.031 C 
ATOM     61  C   UNL A   1      43.704  28.355  33.798  1.00  0.00     0.037 A 
BRANCH  48  62
ATOM     62  C   UNL A   1      42.681  26.695  27.922  1.00  0.00     0.064 A 
ATOM     63  C   UNL A   1      42.394  25.329  27.768  1.00  0.00     0.173 A 
ATOM     64  C   UNL A   1      43.416  27.326  26.906  1.00  0.00     0.173 A 
ATOM     65  F   UNL A   1      41.707  24.673  28.716  1.00  0.00    -0.203 F 
ATOM     66  C   UNL A   1      42.865  24.615  26.671  1.00  0.00     0.198 A 
ATOM     67  C   UNL A   1      43.853  26.616  25.791  1.00  0.00     0.198 A 
ATOM     68  F   UNL A   1      43.716  28.630  26.997  1.00  0.00    -0.203 F 
ATOM     69  F   UNL A   1      42.642  23.297  26.586  1.00  0.00    -0.200 F 
ATOM     70  C   UNL A   1      43.590  25.259  25.680  1.00  0.00     0.200 A 
ATOM     71  F   UNL A   1      44.542  27.243  24.827  1.00  0.00    -0.200 F 
ATOM     72  F   UNL A   1      44.046  24.570  24.626  1.00  0.00    -0.200 F 
ENDBRANCH  48  62
BRANCH  49  73
ATOM     73  C   UNL A   1      39.182  31.885  35.751  1.00  0.00     0.064 A 
ATOM     74  C   UNL A   1      39.601  33.205  35.968  1.00  0.00     0.173 A 
ATOM     75  C   UNL A   1      38.264  31.335  36.657  1.00  0.00     0.173 A 
ATOM     76  F   UNL A   1      40.492  33.768  35.137  1.00  0.00    -0.203 F 
ATOM     77  C   UNL A   1      39.135  33.941  37.054  1.00  0.00     0.198 A 
ATOM     78  C   UNL A   1      37.778  32.081  37.729  1.00  0.00     0.198 A 
ATOM     79  F   UNL A   1      37.824  30.080  36.491  1.00  0.00    -0.203 F 
ATOM     80  F   UNL A   1      39.583  35.187  37.258  1.00  0.00    -0.200 F 
ATOM     81  C   UNL A   1      38.218  33.381  37.931  1.00  0.00     0.200 A 
ATOM     82  F   UNL A   1      36.879  31.543  38.566  1.00  0.00    -0.200 F 
ATOM     83  F   UNL A   1      37.765  34.091  38.973  1.00  0.00    -0.200 F 
ENDBRANCH  49  73
BRANCH  61  84
ATOM     84  C   UNL A   1      44.893  28.032  34.653  1.00  0.00     0.064 A 
ATOM     85  C   UNL A   1      46.002  28.886  34.731  1.00  0.00     0.173 A 
ATOM     86  C   UNL A   1      44.880  26.891  35.469  1.00  0.00     0.173 A 
ATOM     87  F   UNL A   1      46.066  29.982  33.959  1.00  0.00    -0.203 F 
ATOM     88  C   UNL A   1      47.060  28.603  35.590  1.00  0.00     0.198 A 
ATOM     89  C   UNL A   1      45.926  26.626  36.347  1.00  0.00     0.198 A 
ATOM     90  F   UNL A   1      43.838  26.046  35.434  1.00  0.00    -0.203 F 
ATOM     91  F   UNL A   1      48.125  29.416  35.628  1.00  0.00    -0.200 F 
ATOM     92  C   UNL A   1      47.017  27.481  36.405  1.00  0.00     0.200 A 
ATOM     93  F   UNL A   1      45.874  25.550  37.145  1.00  0.00    -0.200 F 
ATOM     94  F   UNL A   1      48.027  27.223  37.246  1.00  0.00    -0.200 F 
ENDBRANCH  61  84
ENDBRANCH  35  36
ENDBRANCH  27  30
ENDBRANCH  25  26
ENDBRANCH  24  25
ENDBRANCH   1  24
TORSDOF 14
ENDMDL
MODEL 3
REMARK VINA RESULT:     -12.2      4.485      9.503
REMARK SMILES CCN(Cc1ccccn1)c1nc(C)cc(C)c1C(=O)NCCCNC(=O)c1ccc(-c2c3nc(c(-c4c(F)c(F)c(F)c(F)c4F)c4ccc([nH]4)c(-c4c(F)c(F)c(F)c(F)c4F)c4nc(c(-c5c(F)c(F)c(F)c(F)c5F)c5ccc2[nH]5)C=C4)C=C3)cc1
REMARK SMILES IDX 22 1 21 2 19 3 20 4 18 6 11 7 12 8 13 9 16 10 14 11 15 12
REMARK SMILES IDX 17 13 3 14 2 15 1 16 4 17 5 18 6 19 10 20 7 21 9 22 8 23
REMARK SMILES IDX 23 24 24 25 25 26 26 27 27 29 28 30 29 31 90 32 30 33 89 34
REMARK SMILES IDX 31 35 32 36 33 37 83 38 34 39 88 40 82 41 84 42 35 43 87 44
REMARK SMILES IDX 81 45 80 46 36 48 68 49 48 50 67 51 49 52 52 53 66 54 85 55
REMARK SMILES IDX 50 56 51 57 65 59 86 60 53 61 37 62 38 63 46 64 39 65 40 66
REMARK SMILES IDX 44 67 47 68 41 69 42 70 45 71 43 72 69 73 70 74 78 75 71 76
REMARK SMILES IDX 72 77 76 78 79 79 73 80 74 81 77 82 75 83 54 84 55 85 63 86
REMARK SMILES IDX 56 87 57 88 61 89 64 90 58 91 59 92 62 93 60 94
REMARK H PARENT 21 5 25 28 84 47 52 58
REMARK Flexibility Score: inf
ROOT
ATOM      1  C   UNL A   1      36.507  20.190  25.116  1.00  0.00     0.118 C 
ENDROOT
BRANCH   1   2
ATOM      2  N   UNL A   1      36.221  21.266  26.038  1.00  0.00    -0.352 N 
ATOM      3  C   UNL A   1      34.928  21.687  26.243  1.00  0.00     0.255 C 
ATOM      4  O   UNL A   1      34.236  21.133  27.090  1.00  0.00    -0.269 OA
ATOM      5  H   UNL A   1      36.959  21.702  26.523  1.00  0.00     0.163 HD
BRANCH   3   6
ATOM      6  C   UNL A   1      34.455  22.892  25.516  1.00  0.00     0.085 A 
ATOM      7  C   UNL A   1      33.248  22.789  24.802  1.00  0.00     0.142 A 
ATOM      8  N   UNL A   1      32.901  23.741  23.903  1.00  0.00    -0.235 NA
ATOM      9  C   UNL A   1      33.728  24.766  23.639  1.00  0.00     0.040 A 
ATOM     10  C   UNL A   1      35.262  24.039  25.330  1.00  0.00    -0.033 A 
ATOM     11  C   UNL A   1      33.398  25.605  22.444  1.00  0.00     0.067 C 
ATOM     12  C   UNL A   1      34.883  24.974  24.361  1.00  0.00     0.028 A 
ATOM     13  C   UNL A   1      36.543  24.321  26.051  1.00  0.00     0.045 C 
BRANCH   7  14
ATOM     14  N   UNL A   1      32.351  21.731  24.930  1.00  0.00    -0.350 N 
BRANCH  14  15
ATOM     15  C   UNL A   1      31.134  21.931  25.709  1.00  0.00     0.115 C 
ATOM     16  C   UNL A   1      31.265  23.072  26.704  1.00  0.00     0.027 C 
ENDBRANCH  14  15
BRANCH  14  17
ATOM     17  C   UNL A   1      32.301  20.792  23.788  1.00  0.00     0.174 C 
BRANCH  17  18
ATOM     18  C   UNL A   1      32.543  19.309  24.076  1.00  0.00     0.060 A 
ATOM     19  C   UNL A   1      32.887  18.398  23.075  1.00  0.00     0.026 A 
ATOM     20  N   UNL A   1      32.405  18.915  25.372  1.00  0.00    -0.259 NA
ATOM     21  C   UNL A   1      33.187  17.082  23.417  1.00  0.00     0.004 A 
ATOM     22  C   UNL A   1      32.697  17.630  25.674  1.00  0.00     0.111 A 
ATOM     23  C   UNL A   1      33.100  16.688  24.744  1.00  0.00     0.020 A 
ENDBRANCH  17  18
ENDBRANCH  14  17
ENDBRANCH   7  14
ENDBRANCH   3   6
ENDBRANCH   1   2
BRANCH   1  24
ATOM     24  C   UNL A   1      37.945  20.257  24.630  1.00  0.00     0.042 C 
BRANCH  24  25
ATOM     25  C   UNL A   1      38.907  20.481  25.781  1.00  0.00     0.118 C 
BRANCH  25  26
ATOM     26  N   UNL A   1      39.855  19.378  25.910  1.00  0.00    -0.352 N 
ATOM     27  C   UNL A   1      41.221  19.403  26.051  1.00  0.00     0.251 C 
ATOM     28  H   UNL A   1      39.453  18.479  25.892  1.00  0.00     0.163 HD
ATOM     29  O   UNL A   1      41.881  18.386  25.910  1.00  0.00    -0.269 OA
BRANCH  27  30
ATOM     30  C   UNL A   1      41.882  20.683  26.363  1.00  0.00     0.039 A 
ATOM     31  C   UNL A   1      42.135  21.597  25.337  1.00  0.00     0.014 A 
ATOM     32  C   UNL A   1      42.230  20.980  27.681  1.00  0.00     0.014 A 
ATOM     33  C   UNL A   1      42.670  22.848  25.649  1.00  0.00     0.010 A 
ATOM     34  C   UNL A   1      42.652  22.258  28.003  1.00  0.00     0.010 A 
ATOM     35  C   UNL A   1      42.891  23.199  26.989  1.00  0.00    -0.014 A 
BRANCH  35  36
ATOM     36  C   UNL A   1      43.420  24.522  27.393  1.00  0.00     0.031 A 
ATOM     37  C   UNL A   1      42.467  25.537  27.957  1.00  0.00     0.074 A 
ATOM     38  C   UNL A   1      44.699  24.847  27.135  1.00  0.00     0.049 A 
ATOM     39  N   UNL A   1      42.637  26.819  28.154  1.00  0.00    -0.248 NA
ATOM     40  C   UNL A   1      41.118  25.050  28.293  1.00  0.00     0.031 C 
ATOM     41  C   UNL A   1      45.707  23.950  26.568  1.00  0.00     0.029 A 
ATOM     42  N   UNL A   1      45.364  26.036  27.295  1.00  0.00    -0.354 N 
ATOM     43  C   UNL A   1      41.409  27.292  28.596  1.00  0.00     0.074 A 
ATOM     44  C   UNL A   1      40.488  26.178  28.575  1.00  0.00     0.031 C 
ATOM     45  C   UNL A   1      46.868  24.615  26.447  1.00  0.00     0.029 A 
ATOM     46  C   UNL A   1      46.670  25.996  26.874  1.00  0.00     0.049 A 
ATOM     47  H   UNL A   1      44.943  26.841  27.674  1.00  0.00     0.167 HD
ATOM     48  C   UNL A   1      41.087  28.541  29.006  1.00  0.00     0.037 A 
ATOM     49  C   UNL A   1      47.593  26.975  26.823  1.00  0.00     0.037 A 
ATOM     50  C   UNL A   1      42.025  29.629  29.057  1.00  0.00     0.049 A 
ATOM     51  C   UNL A   1      47.208  28.362  27.265  1.00  0.00     0.074 A 
ATOM     52  C   UNL A   1      41.827  30.922  29.502  1.00  0.00     0.029 A 
ATOM     53  N   UNL A   1      43.350  29.540  28.652  1.00  0.00    -0.354 N 
ATOM     54  N   UNL A   1      46.056  28.797  27.716  1.00  0.00    -0.248 NA
ATOM     55  C   UNL A   1      48.250  29.394  27.187  1.00  0.00     0.031 C 
ATOM     56  C   UNL A   1      43.020  31.629  29.327  1.00  0.00     0.029 A 
ATOM     57  C   UNL A   1      43.979  30.762  28.824  1.00  0.00     0.049 A 
ATOM     58  H   UNL A   1      43.779  28.729  28.295  1.00  0.00     0.167 HD
ATOM     59  C   UNL A   1      46.246  30.138  28.017  1.00  0.00     0.074 A 
ATOM     60  C   UNL A   1      47.623  30.448  27.693  1.00  0.00     0.031 C 
ATOM     61  C   UNL A   1      45.361  31.033  28.522  1.00  0.00     0.037 A 
BRANCH  48  62
ATOM     62  C   UNL A   1      39.665  28.782  29.428  1.00  0.00     0.064 A 
ATOM     63  C   UNL A   1      38.699  29.263  28.529  1.00  0.00     0.173 A 
ATOM     64  C   UNL A   1      39.263  28.542  30.751  1.00  0.00     0.173 A 
ATOM     65  F   UNL A   1      39.033  29.523  27.256  1.00  0.00    -0.203 F 
ATOM     66  C   UNL A   1      37.402  29.540  28.948  1.00  0.00     0.198 A 
ATOM     67  C   UNL A   1      37.953  28.784  31.158  1.00  0.00     0.198 A 
ATOM     68  F   UNL A   1      40.142  28.078  31.652  1.00  0.00    -0.203 F 
ATOM     69  F   UNL A   1      36.521  30.069  28.089  1.00  0.00    -0.200 F 
ATOM     70  C   UNL A   1      37.028  29.295  30.261  1.00  0.00     0.200 A 
ATOM     71  F   UNL A   1      37.590  28.534  32.423  1.00  0.00    -0.200 F 
ATOM     72  F   UNL A   1      35.779  29.565  30.664  1.00  0.00    -0.200 F 
ENDBRANCH  48  62
BRANCH  49  73
ATOM     73  C   UNL A   1      48.975  26.669  26.375  1.00  0.00     0.064 A 
ATOM     74  C   UNL A   1      49.920  26.166  27.280  1.00  0.00     0.173 A 
ATOM     75  C   UNL A   1      49.381  26.854  25.045  1.00  0.00     0.173 A 
ATOM     76  F   UNL A   1      49.582  25.988  28.567  1.00  0.00    -0.203 F 
ATOM     77  C   UNL A   1      51.221  25.875  26.879  1.00  0.00     0.198 A 
ATOM     78  C   UNL A   1      50.677  26.538  24.638  1.00  0.00     0.198 A 
ATOM     79  F   UNL A   1      48.515  27.325  24.137  1.00  0.00    -0.203 F 
ATOM     80  F   UNL A   1      52.113  25.432  27.775  1.00  0.00    -0.200 F 
ATOM     81  C   UNL A   1      51.598  26.055  25.556  1.00  0.00     0.200 A 
ATOM     82  F   UNL A   1      51.033  26.699  23.356  1.00  0.00    -0.200 F 
ATOM     83  F   UNL A   1      52.848  25.769  25.169  1.00  0.00    -0.200 F 
ENDBRANCH  49  73
BRANCH  61  84
ATOM     84  C   UNL A   1      45.866  32.412  28.825  1.00  0.00     0.064 A 
ATOM     85  C   UNL A   1      45.765  33.457  27.896  1.00  0.00     0.173 A 
ATOM     86  C   UNL A   1      46.380  32.707  30.097  1.00  0.00     0.173 A 
ATOM     87  F   UNL A   1      45.294  33.221  26.662  1.00  0.00    -0.203 F 
ATOM     88  C   UNL A   1      46.171  34.746  28.228  1.00  0.00     0.198 A 
ATOM     89  C   UNL A   1      46.758  34.002  30.434  1.00  0.00     0.198 A 
ATOM     90  F   UNL A   1      46.490  31.741  31.023  1.00  0.00    -0.203 F 
ATOM     91  F   UNL A   1      46.096  35.726  27.316  1.00  0.00    -0.200 F 
ATOM     92  C   UNL A   1      46.655  35.021  29.499  1.00  0.00     0.200 A 
ATOM     93  F   UNL A   1      47.210  34.268  31.668  1.00  0.00    -0.200 F 
ATOM     94  F   UNL A   1      47.025  36.267  29.822  1.00  0.00    -0.200 F 
ENDBRANCH  61  84
ENDBRANCH  35  36
ENDBRANCH  27  30
ENDBRANCH  25  26
ENDBRANCH  24  25
ENDBRANCH   1  24
TORSDOF 14
ENDMDL
