MODEL 1
REMARK VINA RESULT:     -11.6      0.000      0.000
REMARK SMILES CC[C@@](C)(NS(=O)(=O)Cc1ccccc1)C(=O)NCCCNC(=O)c1ccc(-c2c3nc(c(-c4c(F)c(F)c(F)c(F)c4F)c4ccc([nH]4)c(-c4c(F)c(F)c(F)c(F)c4F)c4nc(c(-c5c(F)c(F)c(F)c(F)c5F)c5ccc2[nH]5)C=C4)C=C3)cc1
REMARK SMILES IDX 19 1 18 2 16 3 17 4 3 6 4 7 2 8 1 9 5 10 6 12 7 13 8 14 9 15
REMARK SMILES IDX 10 16 11 17 15 18 12 19 14 20 13 21 20 22 21 23 22 24 23 25
REMARK SMILES IDX 24 27 25 28 26 29 87 30 27 31 86 32 28 33 29 34 30 35 80 36
REMARK SMILES IDX 31 37 85 38 79 39 81 40 32 41 84 42 78 43 77 44 33 46 65 47
REMARK SMILES IDX 45 48 64 49 46 50 49 51 63 52 82 53 47 54 48 55 62 57 83 58
REMARK SMILES IDX 50 59 34 60 35 61 43 62 36 63 37 64 41 65 44 66 38 67 39 68
REMARK SMILES IDX 42 69 40 70 66 71 67 72 75 73 68 74 69 75 73 76 76 77 70 78
REMARK SMILES IDX 71 79 74 80 72 81 51 82 52 83 60 84 53 85 54 86 58 87 61 88
REMARK SMILES IDX 55 89 56 90 59 91 57 92
REMARK H PARENT 18 5 5 11 22 26 81 45 49 56
REMARK Flexibility Score: inf
ROOT
ATOM      1  C   UNL A   1      31.845  27.723  26.911  1.00  0.00     0.117 C 
ENDROOT
BRANCH   1   2
ATOM      2  N   UNL A   1      31.278  26.376  26.890  1.00  0.00    -0.354 N 
ATOM      3  C   UNL A   1      30.916  25.448  25.966  1.00  0.00     0.240 C 
ATOM      4  O   UNL A   1      30.432  24.428  26.481  1.00  0.00    -0.273 OA
ATOM      5  H   UNL A   1      31.113  26.049  27.803  1.00  0.00     0.163 HD
BRANCH   3   6
ATOM      6  C   UNL A   1      30.976  25.587  24.417  1.00  0.00     0.108 C 
ATOM      7  C   UNL A   1      32.338  26.011  23.864  1.00  0.00     0.040 C 
BRANCH   6   8
ATOM      8  C   UNL A   1      30.630  24.181  23.783  1.00  0.00     0.030 C 
ATOM      9  C   UNL A   1      31.771  23.384  23.166  1.00  0.00     0.006 C 
ENDBRANCH   6   8
BRANCH   6  10
ATOM     10  N   UNL A   1      29.873  26.430  23.869  1.00  0.00    -0.200 NA
ATOM     11  H   UNL A   1      29.213  26.528  24.641  1.00  0.00     0.142 HD
BRANCH  10  12
ATOM     12  S   UNL A   1      29.992  27.939  23.223  1.00  0.00     0.216 S 
ATOM     13  O   UNL A   1      30.703  28.748  24.190  1.00  0.00    -0.212 OA
ATOM     14  O   UNL A   1      30.581  27.744  21.917  1.00  0.00    -0.212 OA
BRANCH  12  15
ATOM     15  C   UNL A   1      28.330  28.588  23.034  1.00  0.00     0.189 C 
BRANCH  15  16
ATOM     16  C   UNL A   1      28.135  29.991  22.522  1.00  0.00    -0.032 A 
ATOM     17  C   UNL A   1      28.228  31.031  23.472  1.00  0.00     0.005 A 
ATOM     18  C   UNL A   1      28.069  30.344  21.173  1.00  0.00     0.005 A 
ATOM     19  C   UNL A   1      28.265  32.372  23.087  1.00  0.00     0.000 A 
ATOM     20  C   UNL A   1      28.095  31.688  20.786  1.00  0.00     0.000 A 
ATOM     21  C   UNL A   1      28.204  32.699  21.738  1.00  0.00     0.000 A 
ENDBRANCH  15  16
ENDBRANCH  12  15
ENDBRANCH  10  12
ENDBRANCH   6  10
ENDBRANCH   3   6
ENDBRANCH   1   2
BRANCH   1  22
ATOM     22  C   UNL A   1      33.383  27.784  26.864  1.00  0.00     0.042 C 
BRANCH  22  23
ATOM     23  C   UNL A   1      34.004  28.886  26.004  1.00  0.00     0.118 C 
BRANCH  23  24
ATOM     24  N   UNL A   1      33.816  30.198  26.587  1.00  0.00    -0.352 N 
ATOM     25  C   UNL A   1      34.512  30.791  27.614  1.00  0.00     0.251 C 
ATOM     26  H   UNL A   1      33.093  30.738  26.195  1.00  0.00     0.163 HD
ATOM     27  O   UNL A   1      34.044  31.778  28.174  1.00  0.00    -0.269 OA
BRANCH  25  28
ATOM     28  C   UNL A   1      35.826  30.260  28.053  1.00  0.00     0.039 A 
ATOM     29  C   UNL A   1      35.938  29.710  29.334  1.00  0.00     0.014 A 
ATOM     30  C   UNL A   1      36.966  30.385  27.251  1.00  0.00     0.014 A 
ATOM     31  C   UNL A   1      37.179  29.268  29.804  1.00  0.00     0.010 A 
ATOM     32  C   UNL A   1      38.197  29.898  27.702  1.00  0.00     0.010 A 
ATOM     33  C   UNL A   1      38.321  29.349  28.990  1.00  0.00    -0.014 A 
BRANCH  33  34
ATOM     34  C   UNL A   1      39.651  28.889  29.479  1.00  0.00     0.031 A 
ATOM     35  C   UNL A   1      40.436  29.732  30.449  1.00  0.00     0.074 A 
ATOM     36  C   UNL A   1      40.177  27.736  29.023  1.00  0.00     0.049 A 
ATOM     37  N   UNL A   1      41.641  29.546  30.927  1.00  0.00    -0.248 NA
ATOM     38  C   UNL A   1      39.784  30.958  30.933  1.00  0.00     0.031 C 
ATOM     39  C   UNL A   1      39.528  26.831  28.076  1.00  0.00     0.029 A 
ATOM     40  N   UNL A   1      41.385  27.134  29.284  1.00  0.00    -0.354 N 
ATOM     41  C   UNL A   1      41.896  30.632  31.755  1.00  0.00     0.074 A 
ATOM     42  C   UNL A   1      40.738  31.497  31.680  1.00  0.00     0.031 C 
ATOM     43  C   UNL A   1      40.338  25.787  27.839  1.00  0.00     0.029 A 
ATOM     44  C   UNL A   1      41.583  25.969  28.582  1.00  0.00     0.049 A 
ATOM     45  H   UNL A   1      42.046  27.504  29.912  1.00  0.00     0.167 HD
ATOM     46  C   UNL A   1      42.988  30.879  32.518  1.00  0.00     0.037 A 
ATOM     47  C   UNL A   1      42.654  25.152  28.527  1.00  0.00     0.037 A 
ATOM     48  C   UNL A   1      44.136  30.011  32.602  1.00  0.00     0.049 A 
ATOM     49  C   UNL A   1      43.874  25.472  29.349  1.00  0.00     0.074 A 
ATOM     50  C   UNL A   1      45.271  30.156  33.380  1.00  0.00     0.029 A 
ATOM     51  N   UNL A   1      44.296  28.841  31.874  1.00  0.00    -0.354 N 
ATOM     52  N   UNL A   1      44.082  26.475  30.166  1.00  0.00    -0.248 NA
ATOM     53  C   UNL A   1      45.010  24.543  29.246  1.00  0.00     0.031 C 
ATOM     54  C   UNL A   1      46.145  29.107  33.079  1.00  0.00     0.029 A 
ATOM     55  C   UNL A   1      45.525  28.269  32.166  1.00  0.00     0.049 A 
ATOM     56  H   UNL A   1      43.636  28.471  31.245  1.00  0.00     0.167 HD
ATOM     57  C   UNL A   1      45.347  26.278  30.703  1.00  0.00     0.074 A 
ATOM     58  C   UNL A   1      45.862  25.057  30.122  1.00  0.00     0.031 C 
ATOM     59  C   UNL A   1      46.019  27.039  31.601  1.00  0.00     0.037 A 
BRANCH  46  60
ATOM     60  C   UNL A   1      43.007  32.149  33.323  1.00  0.00     0.064 A 
ATOM     61  C   UNL A   1      42.513  32.201  34.636  1.00  0.00     0.173 A 
ATOM     62  C   UNL A   1      43.572  33.320  32.791  1.00  0.00     0.173 A 
ATOM     63  F   UNL A   1      41.958  31.113  35.190  1.00  0.00    -0.203 F 
ATOM     64  C   UNL A   1      42.554  33.382  35.373  1.00  0.00     0.198 A 
ATOM     65  C   UNL A   1      43.643  34.490  33.544  1.00  0.00     0.198 A 
ATOM     66  F   UNL A   1      44.071  33.325  31.546  1.00  0.00    -0.203 F 
ATOM     67  F   UNL A   1      42.029  33.419  36.605  1.00  0.00    -0.200 F 
ATOM     68  C   UNL A   1      43.125  34.523  34.829  1.00  0.00     0.200 A 
ATOM     69  F   UNL A   1      44.213  35.585  33.024  1.00  0.00    -0.200 F 
ATOM     70  F   UNL A   1      43.173  35.656  35.543  1.00  0.00    -0.200 F 
ENDBRANCH  46  60
BRANCH  47  71
ATOM     71  C   UNL A   1      42.620  23.942  27.661  1.00  0.00     0.064 A 
ATOM     72  C   UNL A   1      42.250  22.693  28.179  1.00  0.00     0.173 A 
ATOM     73  C   UNL A   1      42.967  24.006  26.303  1.00  0.00     0.173 A 
ATOM     74  F   UNL A   1      41.931  22.575  29.476  1.00  0.00    -0.203 F 
ATOM     75  C   UNL A   1      42.251  21.552  27.379  1.00  0.00     0.198 A 
ATOM     76  C   UNL A   1      42.937  22.870  25.497  1.00  0.00     0.198 A 
ATOM     77  F   UNL A   1      43.329  25.177  25.757  1.00  0.00    -0.203 F 
ATOM     78  F   UNL A   1      41.944  20.362  27.913  1.00  0.00    -0.200 F 
ATOM     79  C   UNL A   1      42.588  21.642  26.038  1.00  0.00     0.200 A 
ATOM     80  F   UNL A   1      43.251  22.965  24.197  1.00  0.00    -0.200 F 
ATOM     81  F   UNL A   1      42.586  20.545  25.268  1.00  0.00    -0.200 F 
ENDBRANCH  47  71
BRANCH  59  82
ATOM     82  C   UNL A   1      47.361  26.551  32.069  1.00  0.00     0.064 A 
ATOM     83  C   UNL A   1      47.493  25.620  33.109  1.00  0.00     0.173 A 
ATOM     84  C   UNL A   1      48.529  26.971  31.413  1.00  0.00     0.173 A 
ATOM     85  F   UNL A   1      46.409  25.197  33.778  1.00  0.00    -0.203 F 
ATOM     86  C   UNL A   1      48.745  25.140  33.486  1.00  0.00     0.198 A 
ATOM     87  C   UNL A   1      49.776  26.465  31.771  1.00  0.00     0.198 A 
ATOM     88  F   UNL A   1      48.459  27.856  30.407  1.00  0.00    -0.203 F 
ATOM     89  F   UNL A   1      48.851  24.279  34.508  1.00  0.00    -0.200 F 
ATOM     90  C   UNL A   1      49.883  25.554  32.809  1.00  0.00     0.200 A 
ATOM     91  F   UNL A   1      50.872  26.853  31.103  1.00  0.00    -0.200 F 
ATOM     92  F   UNL A   1      51.085  25.075  33.161  1.00  0.00    -0.200 F 
ENDBRANCH  59  82
ENDBRANCH  33  34
ENDBRANCH  25  28
ENDBRANCH  23  24
ENDBRANCH  22  23
ENDBRANCH   1  22
TORSDOF 15
ENDMDL
MODEL 2
REMARK VINA RESULT:     -11.6      3.113      8.504
REMARK SMILES CC[C@@](C)(NS(=O)(=O)Cc1ccccc1)C(=O)NCCCNC(=O)c1ccc(-c2c3nc(c(-c4c(F)c(F)c(F)c(F)c4F)c4ccc([nH]4)c(-c4c(F)c(F)c(F)c(F)c4F)c4nc(c(-c5c(F)c(F)c(F)c(F)c5F)c5ccc2[nH]5)C=C4)C=C3)cc1
REMARK SMILES IDX 19 1 18 2 16 3 17 4 3 6 4 7 2 8 1 9 5 10 6 12 7 13 8 14 9 15
REMARK SMILES IDX 10 16 11 17 15 18 12 19 14 20 13 21 20 22 21 23 22 24 23 25
REMARK SMILES IDX 24 27 25 28 26 29 87 30 27 31 86 32 28 33 29 34 30 35 80 36
REMARK SMILES IDX 31 37 85 38 79 39 81 40 32 41 84 42 78 43 77 44 33 46 65 47
REMARK SMILES IDX 45 48 64 49 46 50 49 51 63 52 82 53 47 54 48 55 62 57 83 58
REMARK SMILES IDX 50 59 34 60 35 61 43 62 36 63 37 64 41 65 44 66 38 67 39 68
REMARK SMILES IDX 42 69 40 70 66 71 67 72 75 73 68 74 69 75 73 76 76 77 70 78
REMARK SMILES IDX 71 79 74 80 72 81 51 82 52 83 60 84 53 85 54 86 58 87 61 88
REMARK SMILES IDX 55 89 56 90 59 91 57 92
REMARK H PARENT 18 5 5 11 22 26 81 45 49 56
REMARK Flexibility Score: inf
ROOT
ATOM      1  C   UNL A   1      31.403  30.682  25.847  1.00  0.00     0.117 C 
ENDROOT
BRANCH   1   2
ATOM      2  N   UNL A   1      32.699  30.029  26.020  1.00  0.00    -0.354 N 
ATOM      3  C   UNL A   1      33.258  28.815  25.778  1.00  0.00     0.240 C 
ATOM      4  O   UNL A   1      34.438  28.750  26.155  1.00  0.00    -0.273 OA
ATOM      5  H   UNL A   1      33.351  30.643  26.428  1.00  0.00     0.163 HD
BRANCH   3   6
ATOM      6  C   UNL A   1      32.559  27.557  25.184  1.00  0.00     0.108 C 
ATOM      7  C   UNL A   1      33.425  26.734  24.228  1.00  0.00     0.040 C 
BRANCH   6   8
ATOM      8  C   UNL A   1      32.149  26.610  26.380  1.00  0.00     0.030 C 
ATOM      9  C   UNL A   1      31.050  25.587  26.127  1.00  0.00     0.006 C 
ENDBRANCH   6   8
BRANCH   6  10
ATOM     10  N   UNL A   1      31.224  27.866  24.589  1.00  0.00    -0.200 NA
ATOM     11  H   UNL A   1      30.916  28.712  25.067  1.00  0.00     0.142 HD
BRANCH  10  12
ATOM     12  S   UNL A   1      30.870  28.125  23.003  1.00  0.00     0.216 S 
ATOM     13  O   UNL A   1      31.768  29.164  22.543  1.00  0.00    -0.212 OA
ATOM     14  O   UNL A   1      30.944  26.821  22.382  1.00  0.00    -0.212 OA
BRANCH  12  15
ATOM     15  C   UNL A   1      29.185  28.733  22.909  1.00  0.00     0.189 C 
BRANCH  15  16
ATOM     16  C   UNL A   1      28.936  30.179  22.567  1.00  0.00    -0.032 A 
ATOM     17  C   UNL A   1      28.501  30.453  21.251  1.00  0.00     0.005 A 
ATOM     18  C   UNL A   1      28.912  31.224  23.493  1.00  0.00     0.005 A 
ATOM     19  C   UNL A   1      28.049  31.720  20.880  1.00  0.00     0.000 A 
ATOM     20  C   UNL A   1      28.469  32.497  23.118  1.00  0.00     0.000 A 
ATOM     21  C   UNL A   1      28.028  32.743  21.820  1.00  0.00     0.000 A 
ENDBRANCH  15  16
ENDBRANCH  12  15
ENDBRANCH  10  12
ENDBRANCH   6  10
ENDBRANCH   3   6
ENDBRANCH   1   2
BRANCH   1  22
ATOM     22  C   UNL A   1      31.280  32.071  26.501  1.00  0.00     0.042 C 
BRANCH  22  23
ATOM     23  C   UNL A   1      32.507  32.591  27.251  1.00  0.00     0.118 C 
BRANCH  23  24
ATOM     24  N   UNL A   1      32.399  34.004  27.553  1.00  0.00    -0.352 N 
ATOM     25  C   UNL A   1      33.016  34.719  28.551  1.00  0.00     0.251 C 
ATOM     26  H   UNL A   1      31.804  34.520  26.963  1.00  0.00     0.163 HD
ATOM     27  O   UNL A   1      32.596  35.835  28.846  1.00  0.00    -0.269 OA
BRANCH  25  28
ATOM     28  C   UNL A   1      34.187  34.168  29.275  1.00  0.00     0.039 A 
ATOM     29  C   UNL A   1      35.468  34.398  28.762  1.00  0.00     0.014 A 
ATOM     30  C   UNL A   1      34.028  33.350  30.399  1.00  0.00     0.014 A 
ATOM     31  C   UNL A   1      36.586  33.830  29.382  1.00  0.00     0.010 A 
ATOM     32  C   UNL A   1      35.150  32.822  31.046  1.00  0.00     0.010 A 
ATOM     33  C   UNL A   1      36.441  33.043  30.537  1.00  0.00    -0.014 A 
BRANCH  33  34
ATOM     34  C   UNL A   1      37.622  32.426  31.203  1.00  0.00     0.031 A 
ATOM     35  C   UNL A   1      38.380  31.314  30.527  1.00  0.00     0.074 A 
ATOM     36  C   UNL A   1      37.992  32.831  32.433  1.00  0.00     0.049 A 
ATOM     37  N   UNL A   1      39.379  30.597  30.975  1.00  0.00    -0.248 NA
ATOM     38  C   UNL A   1      37.944  30.950  29.170  1.00  0.00     0.031 C 
ATOM     39  C   UNL A   1      37.339  33.889  33.203  1.00  0.00     0.029 A 
ATOM     40  N   UNL A   1      38.998  32.391  33.259  1.00  0.00    -0.354 N 
ATOM     41  C   UNL A   1      39.683  29.691  29.965  1.00  0.00     0.074 A 
ATOM     42  C   UNL A   1      38.733  29.921  28.898  1.00  0.00     0.031 C 
ATOM     43  C   UNL A   1      37.964  34.023  34.384  1.00  0.00     0.029 A 
ATOM     44  C   UNL A   1      39.032  33.030  34.475  1.00  0.00     0.049 A 
ATOM     45  H   UNL A   1      39.634  31.684  33.003  1.00  0.00     0.167 HD
ATOM     46  C   UNL A   1      40.671  28.764  29.926  1.00  0.00     0.037 A 
ATOM     47  C   UNL A   1      39.821  32.827  35.550  1.00  0.00     0.037 A 
ATOM     48  C   UNL A   1      41.624  28.546  30.984  1.00  0.00     0.049 A 
ATOM     49  C   UNL A   1      40.882  31.759  35.498  1.00  0.00     0.074 A 
ATOM     50  C   UNL A   1      42.687  27.660  31.018  1.00  0.00     0.029 A 
ATOM     51  N   UNL A   1      41.623  29.215  32.200  1.00  0.00    -0.354 N 
ATOM     52  N   UNL A   1      41.191  30.945  34.519  1.00  0.00    -0.248 NA
ATOM     53  C   UNL A   1      41.709  31.584  36.702  1.00  0.00     0.031 C 
ATOM     54  C   UNL A   1      43.292  27.748  32.275  1.00  0.00     0.029 A 
ATOM     55  C   UNL A   1      42.651  28.740  33.000  1.00  0.00     0.049 A 
ATOM     56  H   UNL A   1      40.988  29.922  32.456  1.00  0.00     0.167 HD
ATOM     57  C   UNL A   1      42.269  30.194  34.969  1.00  0.00     0.074 A 
ATOM     58  C   UNL A   1      42.564  30.649  36.311  1.00  0.00     0.031 C 
ATOM     59  C   UNL A   1      42.954  29.218  34.325  1.00  0.00     0.037 A 
BRANCH  46  60
ATOM     60  C   UNL A   1      40.771  27.900  28.699  1.00  0.00     0.064 A 
ATOM     61  C   UNL A   1      41.609  28.237  27.624  1.00  0.00     0.173 A 
ATOM     62  C   UNL A   1      40.057  26.694  28.619  1.00  0.00     0.173 A 
ATOM     63  F   UNL A   1      42.309  29.380  27.647  1.00  0.00    -0.203 F 
ATOM     64  C   UNL A   1      41.703  27.415  26.503  1.00  0.00     0.198 A 
ATOM     65  C   UNL A   1      40.180  25.858  27.511  1.00  0.00     0.198 A 
ATOM     66  F   UNL A   1      39.251  26.317  29.622  1.00  0.00    -0.203 F 
ATOM     67  F   UNL A   1      42.469  27.784  25.467  1.00  0.00    -0.200 F 
ATOM     68  C   UNL A   1      40.994  26.224  26.451  1.00  0.00     0.200 A 
ATOM     69  F   UNL A   1      39.510  24.699  27.472  1.00  0.00    -0.200 F 
ATOM     70  F   UNL A   1      41.093  25.430  25.376  1.00  0.00    -0.200 F 
ENDBRANCH  46  60
BRANCH  47  71
ATOM     71  C   UNL A   1      39.640  33.657  36.770  1.00  0.00     0.064 A 
ATOM     72  C   UNL A   1      38.815  33.229  37.820  1.00  0.00     0.173 A 
ATOM     73  C   UNL A   1      40.275  34.901  36.909  1.00  0.00     0.173 A 
ATOM     74  F   UNL A   1      38.167  32.058  37.726  1.00  0.00    -0.203 F 
ATOM     75  C   UNL A   1      38.615  34.020  38.949  1.00  0.00     0.198 A 
ATOM     76  C   UNL A   1      40.100  35.677  38.053  1.00  0.00     0.198 A 
ATOM     77  F   UNL A   1      41.075  35.358  35.934  1.00  0.00    -0.203 F 
ATOM     78  F   UNL A   1      37.780  33.609  39.913  1.00  0.00    -0.200 F 
ATOM     79  C   UNL A   1      39.262  35.240  39.068  1.00  0.00     0.200 A 
ATOM     80  F   UNL A   1      40.739  36.849  38.169  1.00  0.00    -0.200 F 
ATOM     81  F   UNL A   1      39.072  36.000  40.156  1.00  0.00    -0.200 F 
ENDBRANCH  47  71
BRANCH  59  82
ATOM     82  C   UNL A   1      44.136  28.610  35.028  1.00  0.00     0.064 A 
ATOM     83  C   UNL A   1      45.418  29.172  34.947  1.00  0.00     0.173 A 
ATOM     84  C   UNL A   1      43.961  27.488  35.853  1.00  0.00     0.173 A 
ATOM     85  F   UNL A   1      45.640  30.237  34.162  1.00  0.00    -0.203 F 
ATOM     86  C   UNL A   1      46.485  28.623  35.655  1.00  0.00     0.198 A 
ATOM     87  C   UNL A   1      45.023  26.961  36.584  1.00  0.00     0.198 A 
ATOM     88  F   UNL A   1      42.753  26.915  35.971  1.00  0.00    -0.203 F 
ATOM     89  F   UNL A   1      47.710  29.154  35.534  1.00  0.00    -0.200 F 
ATOM     90  C   UNL A   1      46.284  27.526  36.480  1.00  0.00     0.200 A 
ATOM     91  F   UNL A   1      44.823  25.913  37.394  1.00  0.00    -0.200 F 
ATOM     92  F   UNL A   1      47.309  27.012  37.174  1.00  0.00    -0.200 F 
ENDBRANCH  59  82
ENDBRANCH  33  34
ENDBRANCH  25  28
ENDBRANCH  23  24
ENDBRANCH  22  23
ENDBRANCH   1  22
TORSDOF 15
ENDMDL
MODEL 3
REMARK VINA RESULT:     -11.6      5.062      8.948
REMARK SMILES CC[C@@](C)(NS(=O)(=O)Cc1ccccc1)C(=O)NCCCNC(=O)c1ccc(-c2c3nc(c(-c4c(F)c(F)c(F)c(F)c4F)c4ccc([nH]4)c(-c4c(F)c(F)c(F)c(F)c4F)c4nc(c(-c5c(F)c(F)c(F)c(F)c5F)c5ccc2[nH]5)C=C4)C=C3)cc1
REMARK SMILES IDX 19 1 18 2 16 3 17 4 3 6 4 7 2 8 1 9 5 10 6 12 7 13 8 14 9 15
REMARK SMILES IDX 10 16 11 17 15 18 12 19 14 20 13 21 20 22 21 23 22 24 23 25
REMARK SMILES IDX 24 27 25 28 26 29 87 30 27 31 86 32 28 33 29 34 30 35 80 36
REMARK SMILES IDX 31 37 85 38 79 39 81 40 32 41 84 42 78 43 77 44 33 46 65 47
REMARK SMILES IDX 45 48 64 49 46 50 49 51 63 52 82 53 47 54 48 55 62 57 83 58
REMARK SMILES IDX 50 59 34 60 35 61 43 62 36 63 37 64 41 65 44 66 38 67 39 68
REMARK SMILES IDX 42 69 40 70 66 71 67 72 75 73 68 74 69 75 73 76 76 77 70 78
REMARK SMILES IDX 71 79 74 80 72 81 51 82 52 83 60 84 53 85 54 86 58 87 61 88
REMARK SMILES IDX 55 89 56 90 59 91 57 92
REMARK H PARENT 18 5 5 11 22 26 81 45 49 56
REMARK Flexibility Score: inf
ROOT
ATOM      1  C   UNL A   1      36.895  20.469  24.948  1.00  0.00     0.117 C 
ENDROOT
BRANCH   1   2
ATOM      2  N   UNL A   1      36.965  21.593  24.017  1.00  0.00    -0.354 N 
ATOM      3  C   UNL A   1      36.193  22.650  23.652  1.00  0.00     0.240 C 
ATOM      4  O   UNL A   1      36.710  23.328  22.751  1.00  0.00    -0.273 OA
ATOM      5  H   UNL A   1      37.809  21.580  23.511  1.00  0.00     0.163 HD
BRANCH   3   6
ATOM      6  C   UNL A   1      34.773  23.007  24.180  1.00  0.00     0.108 C 
ATOM      7  C   UNL A   1      34.753  23.722  25.533  1.00  0.00     0.040 C 
BRANCH   6   8
ATOM      8  C   UNL A   1      34.085  23.968  23.131  1.00  0.00     0.030 C 
ATOM      9  C   UNL A   1      33.277  23.328  22.011  1.00  0.00     0.006 C 
ENDBRANCH   6   8
BRANCH   6  10
ATOM     10  N   UNL A   1      33.840  21.842  24.159  1.00  0.00    -0.200 NA
ATOM     11  H   UNL A   1      34.422  21.047  23.894  1.00  0.00     0.142 HD
BRANCH  10  12
ATOM     12  S   UNL A   1      32.905  21.285  25.394  1.00  0.00     0.216 S 
ATOM     13  O   UNL A   1      33.791  21.072  26.520  1.00  0.00    -0.212 OA
ATOM     14  O   UNL A   1      31.839  22.253  25.526  1.00  0.00    -0.212 OA
BRANCH  12  15
ATOM     15  C   UNL A   1      32.216  19.707  24.892  1.00  0.00     0.189 C 
BRANCH  15  16
ATOM     16  C   UNL A   1      33.060  18.463  24.994  1.00  0.00    -0.032 A 
ATOM     17  C   UNL A   1      32.527  17.396  25.752  1.00  0.00     0.005 A 
ATOM     18  C   UNL A   1      34.214  18.219  24.246  1.00  0.00     0.005 A 
ATOM     19  C   UNL A   1      33.120  16.132  25.751  1.00  0.00     0.000 A 
ATOM     20  C   UNL A   1      34.814  16.956  24.255  1.00  0.00     0.000 A 
ATOM     21  C   UNL A   1      34.264  15.912  24.995  1.00  0.00     0.000 A 
ENDBRANCH  15  16
ENDBRANCH  12  15
ENDBRANCH  10  12
ENDBRANCH   6  10
ENDBRANCH   3   6
ENDBRANCH   1   2
BRANCH   1  22
ATOM     22  C   UNL A   1      38.157  19.587  25.001  1.00  0.00     0.042 C 
BRANCH  22  23
ATOM     23  C   UNL A   1      39.233  19.984  26.014  1.00  0.00     0.118 C 
BRANCH  23  24
ATOM     24  N   UNL A   1      40.322  19.030  26.049  1.00  0.00    -0.352 N 
ATOM     25  C   UNL A   1      41.675  19.270  26.038  1.00  0.00     0.251 C 
ATOM     26  H   UNL A   1      40.057  18.083  26.084  1.00  0.00     0.163 HD
ATOM     27  O   UNL A   1      42.452  18.355  25.780  1.00  0.00    -0.269 OA
BRANCH  25  28
ATOM     28  C   UNL A   1      42.215  20.618  26.341  1.00  0.00     0.039 A 
ATOM     29  C   UNL A   1      42.327  21.016  27.677  1.00  0.00     0.014 A 
ATOM     30  C   UNL A   1      42.522  21.525  25.320  1.00  0.00     0.014 A 
ATOM     31  C   UNL A   1      42.764  22.308  27.992  1.00  0.00     0.010 A 
ATOM     32  C   UNL A   1      43.005  22.799  25.636  1.00  0.00     0.010 A 
ATOM     33  C   UNL A   1      43.117  23.210  26.975  1.00  0.00    -0.014 A 
BRANCH  33  34
ATOM     34  C   UNL A   1      43.576  24.591  27.295  1.00  0.00     0.031 A 
ATOM     35  C   UNL A   1      42.603  25.612  27.821  1.00  0.00     0.074 A 
ATOM     36  C   UNL A   1      44.857  24.945  27.075  1.00  0.00     0.049 A 
ATOM     37  N   UNL A   1      42.789  26.883  28.080  1.00  0.00    -0.248 NA
ATOM     38  C   UNL A   1      41.230  25.146  28.072  1.00  0.00     0.031 C 
ATOM     39  C   UNL A   1      45.899  24.057  26.561  1.00  0.00     0.029 A 
ATOM     40  N   UNL A   1      45.499  26.149  27.243  1.00  0.00    -0.354 N 
ATOM     41  C   UNL A   1      41.561  27.368  28.512  1.00  0.00     0.074 A 
ATOM     42  C   UNL A   1      40.625  26.267  28.437  1.00  0.00     0.031 C 
ATOM     43  C   UNL A   1      47.050  24.742  26.461  1.00  0.00     0.029 A 
ATOM     44  C   UNL A   1      46.819  26.128  26.861  1.00  0.00     0.049 A 
ATOM     45  H   UNL A   1      45.054  26.950  27.602  1.00  0.00     0.167 HD
ATOM     46  C   UNL A   1      41.246  28.614  28.944  1.00  0.00     0.037 A 
ATOM     47  C   UNL A   1      47.733  27.117  26.818  1.00  0.00     0.037 A 
ATOM     48  C   UNL A   1      42.182  29.706  29.030  1.00  0.00     0.049 A 
ATOM     49  C   UNL A   1      47.346  28.504  27.260  1.00  0.00     0.074 A 
ATOM     50  C   UNL A   1      41.966  30.992  29.496  1.00  0.00     0.029 A 
ATOM     51  N   UNL A   1      43.509  29.643  28.633  1.00  0.00    -0.354 N 
ATOM     52  N   UNL A   1      46.196  28.938  27.714  1.00  0.00    -0.248 NA
ATOM     53  C   UNL A   1      48.387  29.541  27.189  1.00  0.00     0.031 C 
ATOM     54  C   UNL A   1      43.144  31.724  29.324  1.00  0.00     0.029 A 
ATOM     55  C   UNL A   1      44.116  30.876  28.818  1.00  0.00     0.049 A 
ATOM     56  H   UNL A   1      43.955  28.842  28.274  1.00  0.00     0.167 HD
ATOM     57  C   UNL A   1      46.384  30.279  28.020  1.00  0.00     0.074 A 
ATOM     58  C   UNL A   1      47.762  30.591  27.703  1.00  0.00     0.031 C 
ATOM     59  C   UNL A   1      45.495  31.170  28.523  1.00  0.00     0.037 A 
BRANCH  46  60
ATOM     60  C   UNL A   1      39.822  28.874  29.351  1.00  0.00     0.064 A 
ATOM     61  C   UNL A   1      39.382  28.678  30.670  1.00  0.00     0.173 A 
ATOM     62  C   UNL A   1      38.896  29.372  28.421  1.00  0.00     0.173 A 
ATOM     63  F   UNL A   1      40.223  28.198  31.598  1.00  0.00    -0.203 F 
ATOM     64  C   UNL A   1      38.063  28.941  31.033  1.00  0.00     0.198 A 
ATOM     65  C   UNL A   1      37.587  29.667  28.796  1.00  0.00     0.198 A 
ATOM     66  F   UNL A   1      39.264  29.590  27.150  1.00  0.00    -0.203 F 
ATOM     67  F   UNL A   1      37.654  28.696  32.286  1.00  0.00    -0.200 F 
ATOM     68  C   UNL A   1      37.169  29.441  30.098  1.00  0.00     0.200 A 
ATOM     69  F   UNL A   1      36.731  30.168  27.896  1.00  0.00    -0.200 F 
ATOM     70  F   UNL A   1      35.903  29.703  30.451  1.00  0.00    -0.200 F 
ENDBRANCH  46  60
BRANCH  47  71
ATOM     71  C   UNL A   1      49.113  26.832  26.340  1.00  0.00     0.064 A 
ATOM     72  C   UNL A   1      49.461  27.005  24.993  1.00  0.00     0.173 A 
ATOM     73  C   UNL A   1      50.108  26.369  27.215  1.00  0.00     0.173 A 
ATOM     74  F   UNL A   1      48.540  27.424  24.113  1.00  0.00    -0.203 F 
ATOM     75  C   UNL A   1      50.742  26.705  24.535  1.00  0.00     0.198 A 
ATOM     76  C   UNL A   1      51.398  26.099  26.762  1.00  0.00     0.198 A 
ATOM     77  F   UNL A   1      49.828  26.186  28.513  1.00  0.00    -0.203 F 
ATOM     78  F   UNL A   1      51.032  26.829  23.233  1.00  0.00    -0.200 F 
ATOM     79  C   UNL A   1      51.711  26.259  25.420  1.00  0.00     0.200 A 
ATOM     80  F   UNL A   1      52.334  25.681  27.624  1.00  0.00    -0.200 F 
ATOM     81  F   UNL A   1      52.944  25.973  24.980  1.00  0.00    -0.200 F 
ENDBRANCH  47  71
BRANCH  59  82
ATOM     82  C   UNL A   1      45.989  32.556  28.828  1.00  0.00     0.064 A 
ATOM     83  C   UNL A   1      45.897  33.601  27.897  1.00  0.00     0.173 A 
ATOM     84  C   UNL A   1      46.495  32.856  30.103  1.00  0.00     0.173 A 
ATOM     85  F   UNL A   1      45.433  33.364  26.661  1.00  0.00    -0.203 F 
ATOM     86  C   UNL A   1      46.309  34.890  28.225  1.00  0.00     0.198 A 
ATOM     87  C   UNL A   1      46.876  34.153  30.438  1.00  0.00     0.198 A 
ATOM     88  F   UNL A   1      46.599  31.895  31.034  1.00  0.00    -0.203 F 
ATOM     89  F   UNL A   1      46.247  35.865  27.307  1.00  0.00    -0.200 F 
ATOM     90  C   UNL A   1      46.787  35.167  29.498  1.00  0.00     0.200 A 
ATOM     91  F   UNL A   1      47.321  34.422  31.674  1.00  0.00    -0.200 F 
ATOM     92  F   UNL A   1      47.165  36.413  29.817  1.00  0.00    -0.200 F 
ENDBRANCH  59  82
ENDBRANCH  33  34
ENDBRANCH  25  28
ENDBRANCH  23  24
ENDBRANCH  22  23
ENDBRANCH   1  22
TORSDOF 15
ENDMDL
