MODEL 1
REMARK VINA RESULT:     -11.7      0.000      0.000
REMARK SMILES CC[N@@H+]([C@@H]1CSCC(C)(C)C1)[C@@H]1COC[C@@H]1C(=O)NCCCNC(=O)c1ccc(-c2c3nc(c(-c4c(F)c(F)c(F)c(F)c4F)c4ccc([nH]4)c(-c4c(F)c(F)c(F)c(F)c4F)c4nc(c(-c5c(F)c(F)c(F)c(F)c5F)c5ccc2[nH]5)C=C4)C=C3)cc1
REMARK SMILES IDX 21 1 20 2 19 3 17 4 18 5 16 7 12 8 13 9 14 10 15 11 3 12
REMARK SMILES IDX 2 14 1 15 4 16 5 17 11 18 6 19 8 20 7 21 9 22 10 23 22 24
REMARK SMILES IDX 23 25 24 26 25 28 26 29 27 30 88 31 28 32 87 33 29 34 30 35
REMARK SMILES IDX 31 36 81 37 32 38 86 39 80 40 82 41 33 42 85 43 79 44 78 45
REMARK SMILES IDX 34 47 66 48 46 49 65 50 47 51 50 52 64 53 83 54 48 55 49 56
REMARK SMILES IDX 63 58 84 59 51 60 35 61 36 62 44 63 37 64 38 65 42 66 45 67
REMARK SMILES IDX 39 68 40 69 43 70 41 71 67 72 68 73 76 74 69 75 70 76 74 77
REMARK SMILES IDX 77 78 71 79 72 80 75 81 73 82 52 83 53 84 61 85 54 86 55 87
REMARK SMILES IDX 59 88 62 89 56 90 57 91 60 92 58 93
REMARK H PARENT 19 6 3 13 23 27 82 46 50 57
REMARK Flexibility Score: inf
ROOT
ATOM      1  C   UNL A   1      31.332  32.136  26.534  1.00  0.00     0.042 C 
ENDROOT
BRANCH   1   2
ATOM      2  C   UNL A   1      31.387  30.627  26.313  1.00  0.00     0.117 C 
BRANCH   2   3
ATOM      3  N   UNL A   1      32.261  30.299  25.200  1.00  0.00    -0.356 N 
ATOM      4  C   UNL A   1      32.227  29.279  24.292  1.00  0.00     0.231 C 
ATOM      5  O   UNL A   1      33.169  29.221  23.498  1.00  0.00    -0.274 OA
ATOM      6  H   UNL A   1      33.013  30.923  25.076  1.00  0.00     0.163 HD
BRANCH   4   7
ATOM      7  C   UNL A   1      31.067  28.291  24.258  1.00  0.00     0.164 C 
ATOM      8  C   UNL A   1      31.379  26.864  23.771  1.00  0.00     0.225 C 
ATOM      9  C   UNL A   1      31.338  27.076  22.245  1.00  0.00     0.226 C 
ATOM     10  O   UNL A   1      30.254  27.981  22.000  1.00  0.00    -0.374 OA
ATOM     11  C   UNL A   1      30.058  28.756  23.194  1.00  0.00     0.180 C 
BRANCH   8  12
ATOM     12  N   UNL A   1      32.487  26.041  24.268  1.00  0.00    -0.327 N 
ATOM     13  H   UNL A   1      33.216  26.671  23.933  1.00  0.00     0.348 HD
BRANCH  12  14
ATOM     14  C   UNL A   1      32.616  25.948  25.737  1.00  0.00     0.259 C 
ATOM     15  C   UNL A   1      33.697  26.850  26.322  1.00  0.00     0.071 C 
ENDBRANCH  12  14
BRANCH  12  16
ATOM     16  C   UNL A   1      32.909  24.808  23.556  1.00  0.00     0.194 C 
ATOM     17  C   UNL A   1      32.085  23.576  23.999  1.00  0.00     0.134 C 
ATOM     18  C   UNL A   1      34.406  24.478  23.280  1.00  0.00     0.073 C 
ATOM     19  S   UNL A   1      32.845  22.602  25.316  1.00  0.00    -0.155 SA
ATOM     20  C   UNL A   1      35.200  23.402  24.061  1.00  0.00    -0.021 C 
ATOM     21  C   UNL A   1      34.357  22.171  24.422  1.00  0.00     0.076 C 
ATOM     22  C   UNL A   1      35.855  24.011  25.313  1.00  0.00     0.012 C 
ATOM     23  C   UNL A   1      36.351  22.924  23.134  1.00  0.00     0.012 C 
ENDBRANCH  12  16
ENDBRANCH   8  12
ENDBRANCH   4   7
ENDBRANCH   2   3
ENDBRANCH   1   2
BRANCH   1  24
ATOM     24  C   UNL A   1      32.660  32.788  26.876  1.00  0.00     0.118 C 
BRANCH  24  25
ATOM     25  N   UNL A   1      32.485  34.060  27.564  1.00  0.00    -0.352 N 
ATOM     26  C   UNL A   1      33.073  34.622  28.673  1.00  0.00     0.251 C 
ATOM     27  H   UNL A   1      31.803  34.637  27.149  1.00  0.00     0.163 HD
ATOM     28  O   UNL A   1      32.563  35.645  29.128  1.00  0.00    -0.269 OA
BRANCH  26  29
ATOM     29  C   UNL A   1      34.265  34.050  29.356  1.00  0.00     0.039 A 
ATOM     30  C   UNL A   1      34.058  33.089  30.359  1.00  0.00     0.014 A 
ATOM     31  C   UNL A   1      35.568  34.473  29.111  1.00  0.00     0.014 A 
ATOM     32  C   UNL A   1      35.141  32.533  31.056  1.00  0.00     0.010 A 
ATOM     33  C   UNL A   1      36.653  33.829  29.708  1.00  0.00     0.010 A 
ATOM     34  C   UNL A   1      36.457  32.870  30.709  1.00  0.00    -0.014 A 
BRANCH  34  35
ATOM     35  C   UNL A   1      37.637  32.280  31.402  1.00  0.00     0.031 A 
ATOM     36  C   UNL A   1      38.400  31.144  30.765  1.00  0.00     0.074 A 
ATOM     37  C   UNL A   1      37.984  32.707  32.634  1.00  0.00     0.049 A 
ATOM     38  N   UNL A   1      39.365  30.407  31.258  1.00  0.00    -0.248 NA
ATOM     39  C   UNL A   1      37.996  30.757  29.403  1.00  0.00     0.031 C 
ATOM     40  C   UNL A   1      37.310  33.768  33.382  1.00  0.00     0.029 A 
ATOM     41  N   UNL A   1      38.982  32.289  33.480  1.00  0.00    -0.354 N 
ATOM     42  C   UNL A   1      39.655  29.458  30.285  1.00  0.00     0.074 A 
ATOM     43  C   UNL A   1      38.724  29.670  29.199  1.00  0.00     0.031 C 
ATOM     44  C   UNL A   1      37.927  33.934  34.564  1.00  0.00     0.029 A 
ATOM     45  C   UNL A   1      39.006  32.959  34.680  1.00  0.00     0.049 A 
ATOM     46  H   UNL A   1      39.620  31.575  33.250  1.00  0.00     0.167 HD
ATOM     47  C   UNL A   1      40.626  28.514  30.280  1.00  0.00     0.037 A 
ATOM     48  C   UNL A   1      39.798  32.798  35.758  1.00  0.00     0.037 A 
ATOM     49  C   UNL A   1      41.580  28.334  31.342  1.00  0.00     0.049 A 
ATOM     50  C   UNL A   1      40.869  31.739  35.732  1.00  0.00     0.074 A 
ATOM     51  C   UNL A   1      42.646  27.453  31.405  1.00  0.00     0.029 A 
ATOM     52  N   UNL A   1      41.586  29.053  32.529  1.00  0.00    -0.354 N 
ATOM     53  N   UNL A   1      41.169  30.889  34.780  1.00  0.00    -0.248 NA
ATOM     54  C   UNL A   1      41.711  31.619  36.930  1.00  0.00     0.031 C 
ATOM     55  C   UNL A   1      43.262  27.600  32.652  1.00  0.00     0.029 A 
ATOM     56  C   UNL A   1      42.621  28.617  33.341  1.00  0.00     0.049 A 
ATOM     57  H   UNL A   1      40.949  29.766  32.760  1.00  0.00     0.167 HD
ATOM     58  C   UNL A   1      42.253  30.158  35.248  1.00  0.00     0.074 A 
ATOM     59  C   UNL A   1      42.567  30.674  36.565  1.00  0.00     0.031 C 
ATOM     60  C   UNL A   1      42.929  29.151  34.644  1.00  0.00     0.037 A 
BRANCH  47  61
ATOM     61  C   UNL A   1      40.711  27.601  29.087  1.00  0.00     0.064 A 
ATOM     62  C   UNL A   1      39.850  26.504  28.933  1.00  0.00     0.173 A 
ATOM     63  C   UNL A   1      41.641  27.849  28.066  1.00  0.00     0.173 A 
ATOM     64  F   UNL A   1      38.948  26.214  29.883  1.00  0.00    -0.203 F 
ATOM     65  C   UNL A   1      39.943  25.668  27.822  1.00  0.00     0.198 A 
ATOM     66  C   UNL A   1      41.706  27.034  26.939  1.00  0.00     0.198 A 
ATOM     67  F   UNL A   1      42.484  28.890  28.155  1.00  0.00    -0.203 F 
ATOM     68  F   UNL A   1      39.150  24.592  27.728  1.00  0.00    -0.200 F 
ATOM     69  C   UNL A   1      40.865  25.939  26.823  1.00  0.00     0.200 A 
ATOM     70  F   UNL A   1      42.588  27.305  25.967  1.00  0.00    -0.200 F 
ATOM     71  F   UNL A   1      40.947  25.137  25.751  1.00  0.00    -0.200 F 
ENDBRANCH  47  61
BRANCH  48  72
ATOM     72  C   UNL A   1      39.621  33.672  36.949  1.00  0.00     0.064 A 
ATOM     73  C   UNL A   1      38.800  33.278  38.015  1.00  0.00     0.173 A 
ATOM     74  C   UNL A   1      40.261  34.916  37.046  1.00  0.00     0.173 A 
ATOM     75  F   UNL A   1      38.149  32.107  37.961  1.00  0.00    -0.203 F 
ATOM     76  C   UNL A   1      38.606  34.105  39.119  1.00  0.00     0.198 A 
ATOM     77  C   UNL A   1      40.092  35.728  38.166  1.00  0.00     0.198 A 
ATOM     78  F   UNL A   1      41.063  35.338  36.057  1.00  0.00    -0.203 F 
ATOM     79  F   UNL A   1      37.776  33.726  40.100  1.00  0.00    -0.200 F 
ATOM     80  C   UNL A   1      39.258  35.326  39.198  1.00  0.00     0.200 A 
ATOM     81  F   UNL A   1      40.738  36.900  38.245  1.00  0.00    -0.200 F 
ATOM     82  F   UNL A   1      39.076  36.119  40.263  1.00  0.00    -0.200 F 
ENDBRANCH  48  72
BRANCH  60  83
ATOM     83  C   UNL A   1      44.103  28.566  35.374  1.00  0.00     0.064 A 
ATOM     84  C   UNL A   1      45.390  29.112  35.262  1.00  0.00     0.173 A 
ATOM     85  C   UNL A   1      43.924  27.475  36.240  1.00  0.00     0.173 A 
ATOM     86  F   UNL A   1      45.615  30.146  34.438  1.00  0.00    -0.203 F 
ATOM     87  C   UNL A   1      46.459  28.572  35.973  1.00  0.00     0.198 A 
ATOM     88  C   UNL A   1      44.990  26.961  36.973  1.00  0.00     0.198 A 
ATOM     89  F   UNL A   1      42.712  26.920  36.389  1.00  0.00    -0.203 F 
ATOM     90  F   UNL A   1      47.689  29.081  35.814  1.00  0.00    -0.200 F 
ATOM     91  C   UNL A   1      46.257  27.504  36.834  1.00  0.00     0.200 A 
ATOM     92  F   UNL A   1      44.788  25.940  37.817  1.00  0.00    -0.200 F 
ATOM     93  F   UNL A   1      47.285  26.996  37.526  1.00  0.00    -0.200 F 
ENDBRANCH  60  83
ENDBRANCH  34  35
ENDBRANCH  26  29
ENDBRANCH  24  25
ENDBRANCH   1  24
TORSDOF 13
ENDMDL
MODEL 2
REMARK VINA RESULT:     -11.7      5.655     11.130
REMARK SMILES CC[N@@H+]([C@@H]1CSCC(C)(C)C1)[C@@H]1COC[C@@H]1C(=O)NCCCNC(=O)c1ccc(-c2c3nc(c(-c4c(F)c(F)c(F)c(F)c4F)c4ccc([nH]4)c(-c4c(F)c(F)c(F)c(F)c4F)c4nc(c(-c5c(F)c(F)c(F)c(F)c5F)c5ccc2[nH]5)C=C4)C=C3)cc1
REMARK SMILES IDX 21 1 20 2 19 3 17 4 18 5 16 7 12 8 13 9 14 10 15 11 3 12
REMARK SMILES IDX 2 14 1 15 4 16 5 17 11 18 6 19 8 20 7 21 9 22 10 23 22 24
REMARK SMILES IDX 23 25 24 26 25 28 26 29 27 30 88 31 28 32 87 33 29 34 30 35
REMARK SMILES IDX 31 36 81 37 32 38 86 39 80 40 82 41 33 42 85 43 79 44 78 45
REMARK SMILES IDX 34 47 66 48 46 49 65 50 47 51 50 52 64 53 83 54 48 55 49 56
REMARK SMILES IDX 63 58 84 59 51 60 35 61 36 62 44 63 37 64 38 65 42 66 45 67
REMARK SMILES IDX 39 68 40 69 43 70 41 71 67 72 68 73 76 74 69 75 70 76 74 77
REMARK SMILES IDX 77 78 71 79 72 80 75 81 73 82 52 83 53 84 61 85 54 86 55 87
REMARK SMILES IDX 59 88 62 89 56 90 57 91 60 92 58 93
REMARK H PARENT 19 6 3 13 23 27 82 46 50 57
REMARK Flexibility Score: inf
ROOT
ATOM      1  C   UNL A   1      38.029  19.388  25.001  1.00  0.00     0.042 C 
ENDROOT
BRANCH   1   2
ATOM      2  C   UNL A   1      36.896  20.327  24.598  1.00  0.00     0.117 C 
BRANCH   2   3
ATOM      3  N   UNL A   1      36.096  20.698  25.753  1.00  0.00    -0.356 N 
ATOM      4  C   UNL A   1      34.829  21.199  25.855  1.00  0.00     0.231 C 
ATOM      5  O   UNL A   1      34.446  21.493  26.990  1.00  0.00    -0.274 OA
ATOM      6  H   UNL A   1      36.547  20.564  26.619  1.00  0.00     0.163 HD
BRANCH   4   7
ATOM      7  C   UNL A   1      33.941  21.355  24.626  1.00  0.00     0.164 C 
ATOM      8  C   UNL A   1      32.845  22.434  24.689  1.00  0.00     0.225 C 
ATOM      9  C   UNL A   1      31.754  21.676  25.471  1.00  0.00     0.226 C 
ATOM     10  O   UNL A   1      31.778  20.330  24.980  1.00  0.00    -0.374 OA
ATOM     11  C   UNL A   1      33.096  20.080  24.467  1.00  0.00     0.180 C 
BRANCH   8  12
ATOM     12  N   UNL A   1      33.071  23.825  25.101  1.00  0.00    -0.327 N 
ATOM     13  H   UNL A   1      33.337  23.587  26.056  1.00  0.00     0.348 HD
BRANCH  12  14
ATOM     14  C   UNL A   1      34.220  24.506  24.472  1.00  0.00     0.259 C 
ATOM     15  C   UNL A   1      35.444  24.619  25.375  1.00  0.00     0.071 C 
ENDBRANCH  12  14
BRANCH  12  16
ATOM     16  C   UNL A   1      31.934  24.732  25.401  1.00  0.00     0.194 C 
ATOM     17  C   UNL A   1      31.222  25.209  24.114  1.00  0.00     0.134 C 
ATOM     18  C   UNL A   1      32.017  25.831  26.501  1.00  0.00     0.073 C 
ATOM     19  S   UNL A   1      31.808  26.796  23.480  1.00  0.00    -0.155 SA
ATOM     20  C   UNL A   1      32.167  27.341  26.188  1.00  0.00    -0.021 C 
ATOM     21  C   UNL A   1      31.390  27.781  24.939  1.00  0.00     0.076 C 
ATOM     22  C   UNL A   1      33.652  27.730  26.083  1.00  0.00     0.012 C 
ATOM     23  C   UNL A   1      31.580  28.116  27.399  1.00  0.00     0.012 C 
ENDBRANCH  12  16
ENDBRANCH   8  12
ENDBRANCH   4   7
ENDBRANCH   2   3
ENDBRANCH   1   2
BRANCH   1  24
ATOM     24  C   UNL A   1      39.021  19.963  25.996  1.00  0.00     0.118 C 
BRANCH  24  25
ATOM     25  N   UNL A   1      40.263  19.203  26.033  1.00  0.00    -0.352 N 
ATOM     26  C   UNL A   1      41.588  19.563  26.110  1.00  0.00     0.251 C 
ATOM     27  H   UNL A   1      40.125  18.228  25.994  1.00  0.00     0.163 HD
ATOM     28  O   UNL A   1      42.427  18.683  25.920  1.00  0.00    -0.269 OA
BRANCH  26  29
ATOM     29  C   UNL A   1      42.054  20.950  26.383  1.00  0.00     0.039 A 
ATOM     30  C   UNL A   1      42.368  21.297  27.707  1.00  0.00     0.014 A 
ATOM     31  C   UNL A   1      42.118  21.944  25.411  1.00  0.00     0.014 A 
ATOM     32  C   UNL A   1      42.786  22.596  28.030  1.00  0.00     0.010 A 
ATOM     33  C   UNL A   1      42.659  23.197  25.705  1.00  0.00     0.010 A 
ATOM     34  C   UNL A   1      42.975  23.552  27.022  1.00  0.00    -0.014 A 
BRANCH  34  35
ATOM     35  C   UNL A   1      43.448  24.934  27.317  1.00  0.00     0.031 A 
ATOM     36  C   UNL A   1      42.505  25.944  27.926  1.00  0.00     0.074 A 
ATOM     37  C   UNL A   1      44.696  25.312  26.971  1.00  0.00     0.049 A 
ATOM     38  N   UNL A   1      42.677  27.227  28.134  1.00  0.00    -0.248 NA
ATOM     39  C   UNL A   1      41.173  25.453  28.318  1.00  0.00     0.031 C 
ATOM     40  C   UNL A   1      45.696  24.452  26.340  1.00  0.00     0.029 A 
ATOM     41  N   UNL A   1      45.330  26.525  27.089  1.00  0.00    -0.354 N 
ATOM     42  C   UNL A   1      41.472  27.694  28.645  1.00  0.00     0.074 A 
ATOM     43  C   UNL A   1      40.557  26.574  28.659  1.00  0.00     0.031 C 
ATOM     44  C   UNL A   1      46.824  25.154  26.148  1.00  0.00     0.029 A 
ATOM     45  C   UNL A   1      46.613  26.527  26.594  1.00  0.00     0.049 A 
ATOM     46  H   UNL A   1      44.907  27.319  27.490  1.00  0.00     0.167 HD
ATOM     47  C   UNL A   1      41.162  28.935  29.092  1.00  0.00     0.037 A 
ATOM     48  C   UNL A   1      47.513  27.526  26.498  1.00  0.00     0.037 A 
ATOM     49  C   UNL A   1      42.088  30.036  29.120  1.00  0.00     0.049 A 
ATOM     50  C   UNL A   1      47.144  28.898  26.996  1.00  0.00     0.074 A 
ATOM     51  C   UNL A   1      41.895  31.314  29.615  1.00  0.00     0.029 A 
ATOM     52  N   UNL A   1      43.387  29.988  28.634  1.00  0.00    -0.354 N 
ATOM     53  N   UNL A   1      46.022  29.311  27.533  1.00  0.00    -0.248 NA
ATOM     54  C   UNL A   1      48.171  29.943  26.879  1.00  0.00     0.031 C 
ATOM     55  C   UNL A   1      43.057  32.055  29.379  1.00  0.00     0.029 A 
ATOM     56  C   UNL A   1      43.998  31.222  28.794  1.00  0.00     0.049 A 
ATOM     57  H   UNL A   1      43.811  29.196  28.233  1.00  0.00     0.167 HD
ATOM     58  C   UNL A   1      46.216  30.649  27.846  1.00  0.00     0.074 A 
ATOM     59  C   UNL A   1      47.570  30.977  27.452  1.00  0.00     0.031 C 
ATOM     60  C   UNL A   1      45.352  31.528  28.409  1.00  0.00     0.037 A 
BRANCH  47  61
ATOM     61  C   UNL A   1      39.763  29.171  29.591  1.00  0.00     0.064 A 
ATOM     62  C   UNL A   1      38.718  29.523  28.724  1.00  0.00     0.173 A 
ATOM     63  C   UNL A   1      39.456  29.007  30.951  1.00  0.00     0.173 A 
ATOM     64  F   UNL A   1      38.956  29.702  27.416  1.00  0.00    -0.203 F 
ATOM     65  C   UNL A   1      37.427  29.738  29.204  1.00  0.00     0.198 A 
ATOM     66  C   UNL A   1      38.157  29.187  31.422  1.00  0.00     0.198 A 
ATOM     67  F   UNL A   1      40.414  28.663  31.826  1.00  0.00    -0.203 F 
ATOM     68  F   UNL A   1      36.459  30.132  28.364  1.00  0.00    -0.200 F 
ATOM     69  C   UNL A   1      37.147  29.563  30.550  1.00  0.00     0.200 A 
ATOM     70  F   UNL A   1      37.885  29.002  32.720  1.00  0.00    -0.200 F 
ATOM     71  F   UNL A   1      35.903  29.763  31.008  1.00  0.00    -0.200 F 
ENDBRANCH  47  61
BRANCH  48  72
ATOM     72  C   UNL A   1      48.857  27.262  25.919  1.00  0.00     0.064 A 
ATOM     73  C   UNL A   1      49.082  27.372  24.539  1.00  0.00     0.173 A 
ATOM     74  C   UNL A   1      49.943  26.890  26.726  1.00  0.00     0.173 A 
ATOM     75  F   UNL A   1      48.071  27.703  23.721  1.00  0.00    -0.203 F 
ATOM     76  C   UNL A   1      50.331  27.097  23.987  1.00  0.00     0.198 A 
ATOM     77  C   UNL A   1      51.200  26.648  26.177  1.00  0.00     0.198 A 
ATOM     78  F   UNL A   1      49.784  26.777  28.053  1.00  0.00    -0.203 F 
ATOM     79  F   UNL A   1      50.503  27.161  22.660  1.00  0.00    -0.200 F 
ATOM     80  C   UNL A   1      51.391  26.742  24.807  1.00  0.00     0.200 A 
ATOM     81  F   UNL A   1      52.226  26.321  26.975  1.00  0.00    -0.200 F 
ATOM     82  F   UNL A   1      52.595  26.484  24.276  1.00  0.00    -0.200 F 
ENDBRANCH  48  72
BRANCH  60  83
ATOM     83  C   UNL A   1      45.853  32.918  28.678  1.00  0.00     0.064 A 
ATOM     84  C   UNL A   1      46.525  33.246  29.865  1.00  0.00     0.173 A 
ATOM     85  C   UNL A   1      45.703  33.923  27.708  1.00  0.00     0.173 A 
ATOM     86  F   UNL A   1      46.681  32.326  30.827  1.00  0.00    -0.203 F 
ATOM     87  C   UNL A   1      47.008  34.534  30.080  1.00  0.00     0.198 A 
ATOM     88  C   UNL A   1      46.217  35.200  27.915  1.00  0.00     0.198 A 
ATOM     89  F   UNL A   1      45.075  33.660  26.552  1.00  0.00    -0.203 F 
ATOM     90  F   UNL A   1      47.605  34.837  31.241  1.00  0.00    -0.200 F 
ATOM     91  C   UNL A   1      46.862  35.507  29.102  1.00  0.00     0.200 A 
ATOM     92  F   UNL A   1      46.090  36.132  26.961  1.00  0.00    -0.200 F 
ATOM     93  F   UNL A   1      47.339  36.741  29.307  1.00  0.00    -0.200 F 
ENDBRANCH  60  83
ENDBRANCH  34  35
ENDBRANCH  26  29
ENDBRANCH  24  25
ENDBRANCH   1  24
TORSDOF 13
ENDMDL
MODEL 3
REMARK VINA RESULT:     -11.7      5.746     11.224
REMARK SMILES CC[N@@H+]([C@@H]1CSCC(C)(C)C1)[C@@H]1COC[C@@H]1C(=O)NCCCNC(=O)c1ccc(-c2c3nc(c(-c4c(F)c(F)c(F)c(F)c4F)c4ccc([nH]4)c(-c4c(F)c(F)c(F)c(F)c4F)c4nc(c(-c5c(F)c(F)c(F)c(F)c5F)c5ccc2[nH]5)C=C4)C=C3)cc1
REMARK SMILES IDX 21 1 20 2 19 3 17 4 18 5 16 7 12 8 13 9 14 10 15 11 3 12
REMARK SMILES IDX 2 14 1 15 4 16 5 17 11 18 6 19 8 20 7 21 9 22 10 23 22 24
REMARK SMILES IDX 23 25 24 26 25 28 26 29 27 30 88 31 28 32 87 33 29 34 30 35
REMARK SMILES IDX 31 36 81 37 32 38 86 39 80 40 82 41 33 42 85 43 79 44 78 45
REMARK SMILES IDX 34 47 66 48 46 49 65 50 47 51 50 52 64 53 83 54 48 55 49 56
REMARK SMILES IDX 63 58 84 59 51 60 35 61 36 62 44 63 37 64 38 65 42 66 45 67
REMARK SMILES IDX 39 68 40 69 43 70 41 71 67 72 68 73 76 74 69 75 70 76 74 77
REMARK SMILES IDX 77 78 71 79 72 80 75 81 73 82 52 83 53 84 61 85 54 86 55 87
REMARK SMILES IDX 59 88 62 89 56 90 57 91 60 92 58 93
REMARK H PARENT 19 6 3 13 23 27 82 46 50 57
REMARK Flexibility Score: inf
ROOT
ATOM      1  C   UNL A   1      38.053  19.485  24.999  1.00  0.00     0.042 C 
ENDROOT
BRANCH   1   2
ATOM      2  C   UNL A   1      36.942  20.461  24.626  1.00  0.00     0.117 C 
BRANCH   2   3
ATOM      3  N   UNL A   1      36.112  20.766  25.779  1.00  0.00    -0.356 N 
ATOM      4  C   UNL A   1      34.825  21.212  25.877  1.00  0.00     0.231 C 
ATOM      5  O   UNL A   1      34.415  21.458  27.014  1.00  0.00    -0.274 OA
ATOM      6  H   UNL A   1      36.557  20.627  26.647  1.00  0.00     0.163 HD
BRANCH   4   7
ATOM      7  C   UNL A   1      33.947  21.365  24.640  1.00  0.00     0.164 C 
ATOM      8  C   UNL A   1      32.853  22.448  24.690  1.00  0.00     0.225 C 
ATOM      9  C   UNL A   1      31.754  21.697  25.467  1.00  0.00     0.226 C 
ATOM     10  O   UNL A   1      31.778  20.349  24.982  1.00  0.00    -0.374 OA
ATOM     11  C   UNL A   1      33.099  20.092  24.480  1.00  0.00     0.180 C 
BRANCH   8  12
ATOM     12  N   UNL A   1      33.081  23.840  25.097  1.00  0.00    -0.327 N 
ATOM     13  H   UNL A   1      33.342  23.605  26.055  1.00  0.00     0.348 HD
BRANCH  12  14
ATOM     14  C   UNL A   1      34.235  24.516  24.472  1.00  0.00     0.259 C 
ATOM     15  C   UNL A   1      35.458  24.620  25.377  1.00  0.00     0.071 C 
ENDBRANCH  12  14
BRANCH  12  16
ATOM     16  C   UNL A   1      31.945  24.751  25.388  1.00  0.00     0.194 C 
ATOM     17  C   UNL A   1      31.254  25.243  24.096  1.00  0.00     0.134 C 
ATOM     18  C   UNL A   1      32.016  25.840  26.500  1.00  0.00     0.073 C 
ATOM     19  S   UNL A   1      31.858  26.832  23.485  1.00  0.00    -0.155 SA
ATOM     20  C   UNL A   1      32.180  27.351  26.202  1.00  0.00    -0.021 C 
ATOM     21  C   UNL A   1      31.424  27.806  24.946  1.00  0.00     0.076 C 
ATOM     22  C   UNL A   1      33.668  27.733  26.123  1.00  0.00     0.012 C 
ATOM     23  C   UNL A   1      31.579  28.119  27.412  1.00  0.00     0.012 C 
ENDBRANCH  12  16
ENDBRANCH   8  12
ENDBRANCH   4   7
ENDBRANCH   2   3
ENDBRANCH   1   2
BRANCH   1  24
ATOM     24  C   UNL A   1      39.070  20.013  25.995  1.00  0.00     0.118 C 
BRANCH  24  25
ATOM     25  N   UNL A   1      40.280  19.203  26.025  1.00  0.00    -0.352 N 
ATOM     26  C   UNL A   1      41.617  19.507  26.123  1.00  0.00     0.251 C 
ATOM     27  H   UNL A   1      40.103  18.236  25.961  1.00  0.00     0.163 HD
ATOM     28  O   UNL A   1      42.422  18.599  25.920  1.00  0.00    -0.269 OA
BRANCH  26  29
ATOM     29  C   UNL A   1      42.135  20.868  26.435  1.00  0.00     0.039 A 
ATOM     30  C   UNL A   1      42.278  21.782  25.379  1.00  0.00     0.014 A 
ATOM     31  C   UNL A   1      42.560  21.256  27.703  1.00  0.00     0.014 A 
ATOM     32  C   UNL A   1      42.786  23.069  25.607  1.00  0.00     0.010 A 
ATOM     33  C   UNL A   1      42.939  22.575  27.956  1.00  0.00     0.010 A 
ATOM     34  C   UNL A   1      43.086  23.494  26.909  1.00  0.00    -0.014 A 
BRANCH  34  35
ATOM     35  C   UNL A   1      43.597  24.863  27.200  1.00  0.00     0.031 A 
ATOM     36  C   UNL A   1      42.667  25.918  27.749  1.00  0.00     0.074 A 
ATOM     37  C   UNL A   1      44.873  25.188  26.905  1.00  0.00     0.049 A 
ATOM     38  N   UNL A   1      42.878  27.197  27.943  1.00  0.00    -0.248 NA
ATOM     39  C   UNL A   1      41.302  25.485  28.088  1.00  0.00     0.031 C 
ATOM     40  C   UNL A   1      45.867  24.279  26.335  1.00  0.00     0.029 A 
ATOM     41  N   UNL A   1      45.547  26.378  27.031  1.00  0.00    -0.354 N 
ATOM     42  C   UNL A   1      41.671  27.719  28.391  1.00  0.00     0.074 A 
ATOM     43  C   UNL A   1      40.713  26.635  28.382  1.00  0.00     0.031 C 
ATOM     44  C   UNL A   1      47.028  24.936  26.183  1.00  0.00     0.029 A 
ATOM     45  C   UNL A   1      46.850  26.323  26.595  1.00  0.00     0.049 A 
ATOM     46  H   UNL A   1      45.137  27.194  27.399  1.00  0.00     0.167 HD
ATOM     47  C   UNL A   1      41.388  28.979  28.801  1.00  0.00     0.037 A 
ATOM     48  C   UNL A   1      47.790  27.286  26.522  1.00  0.00     0.037 A 
ATOM     49  C   UNL A   1      42.353  30.045  28.852  1.00  0.00     0.049 A 
ATOM     50  C   UNL A   1      47.452  28.680  26.980  1.00  0.00     0.074 A 
ATOM     51  C   UNL A   1      42.187  31.338  29.317  1.00  0.00     0.029 A 
ATOM     52  N   UNL A   1      43.670  29.939  28.427  1.00  0.00    -0.354 N 
ATOM     53  N   UNL A   1      46.323  29.144  27.458  1.00  0.00    -0.248 NA
ATOM     54  C   UNL A   1      48.522  29.684  26.891  1.00  0.00     0.031 C 
ATOM     55  C   UNL A   1      43.386  32.031  29.121  1.00  0.00     0.029 A 
ATOM     56  C   UNL A   1      44.319  31.152  28.593  1.00  0.00     0.049 A 
ATOM     57  H   UNL A   1      44.081  29.124  28.059  1.00  0.00     0.167 HD
ATOM     58  C   UNL A   1      46.554  30.480  27.757  1.00  0.00     0.074 A 
ATOM     59  C   UNL A   1      47.936  30.750  27.419  1.00  0.00     0.031 C 
ATOM     60  C   UNL A   1      45.700  31.401  28.265  1.00  0.00     0.037 A 
BRANCH  47  61
ATOM     61  C   UNL A   1      39.978  29.276  29.233  1.00  0.00     0.064 A 
ATOM     62  C   UNL A   1      39.595  29.239  30.582  1.00  0.00     0.173 A 
ATOM     63  C   UNL A   1      39.006  29.638  28.288  1.00  0.00     0.173 A 
ATOM     64  F   UNL A   1      40.480  28.890  31.527  1.00  0.00    -0.203 F 
ATOM     65  C   UNL A   1      38.284  29.516  30.965  1.00  0.00     0.198 A 
ATOM     66  C   UNL A   1      37.705  29.951  28.677  1.00  0.00     0.198 A 
ATOM     67  F   UNL A   1      39.317  29.699  26.984  1.00  0.00    -0.203 F 
ATOM     68  F   UNL A   1      37.928  29.416  32.253  1.00  0.00    -0.200 F 
ATOM     69  C   UNL A   1      37.344  29.879  30.013  1.00  0.00     0.200 A 
ATOM     70  F   UNL A   1      36.802  30.316  27.758  1.00  0.00    -0.200 F 
ATOM     71  F   UNL A   1      36.085  30.153  30.385  1.00  0.00    -0.200 F 
ENDBRANCH  47  61
BRANCH  48  72
ATOM     72  C   UNL A   1      49.148  26.961  26.009  1.00  0.00     0.064 A 
ATOM     73  C   UNL A   1      49.454  27.092  24.647  1.00  0.00     0.173 A 
ATOM     74  C   UNL A   1      50.165  26.510  26.863  1.00  0.00     0.173 A 
ATOM     75  F   UNL A   1      48.510  27.500  23.786  1.00  0.00    -0.203 F 
ATOM     76  C   UNL A   1      50.715  26.762  24.156  1.00  0.00     0.198 A 
ATOM     77  C   UNL A   1      51.436  26.210  26.376  1.00  0.00     0.198 A 
ATOM     78  F   UNL A   1      49.928  26.373  28.176  1.00  0.00    -0.203 F 
ATOM     79  F   UNL A   1      50.964  26.848  22.842  1.00  0.00    -0.200 F 
ATOM     80  C   UNL A   1      51.708  26.327  25.021  1.00  0.00     0.200 A 
ATOM     81  F   UNL A   1      52.397  25.807  27.218  1.00  0.00    -0.200 F 
ATOM     82  F   UNL A   1      52.922  26.015  24.549  1.00  0.00    -0.200 F 
ENDBRANCH  48  72
BRANCH  60  83
ATOM     83  C   UNL A   1      46.241  32.776  28.532  1.00  0.00     0.064 A 
ATOM     84  C   UNL A   1      46.858  33.105  29.748  1.00  0.00     0.173 A 
ATOM     85  C   UNL A   1      46.186  33.763  27.535  1.00  0.00     0.173 A 
ATOM     86  F   UNL A   1      46.923  32.202  30.737  1.00  0.00    -0.203 F 
ATOM     87  C   UNL A   1      47.380  34.378  29.963  1.00  0.00     0.198 A 
ATOM     88  C   UNL A   1      46.739  35.023  27.743  1.00  0.00     0.198 A 
ATOM     89  F   UNL A   1      45.613  33.498  26.351  1.00  0.00    -0.203 F 
ATOM     90  F   UNL A   1      47.923  34.684  31.150  1.00  0.00    -0.200 F 
ATOM     91  C   UNL A   1      47.328  35.332  28.958  1.00  0.00     0.200 A 
ATOM     92  F   UNL A   1      46.703  35.938  26.764  1.00  0.00    -0.200 F 
ATOM     93  F   UNL A   1      47.843  36.552  29.164  1.00  0.00    -0.200 F 
ENDBRANCH  60  83
ENDBRANCH  34  35
ENDBRANCH  26  29
ENDBRANCH  24  25
ENDBRANCH   1  24
TORSDOF 13
ENDMDL
