MODEL 1
REMARK VINA RESULT:     -10.6      0.000      0.000
REMARK SMILES C[C@H](CNS(=O)(=O)CCC(=O)NCCCNC(=O)c1ccc(-c2c3nc(c(-c4c(F)c(F)c(F)c(F)c4F)c4ccc([nH]4)c(-c4c(F)c(F)c(F)c(F)c4F)c4nc(c(-c5c(F)c(F)c(F)c(F)c5F)c5ccc2[nH]5)C=C4)C=C3)cc1)c1ccccc1
REMARK SMILES IDX 10 1 11 2 12 3 9 5 8 6 5 7 6 8 7 9 4 10 3 12 2 13 1 14 82 15
REMARK SMILES IDX 83 16 87 17 84 18 86 19 85 20 13 21 14 22 15 23 16 24 17 25
REMARK SMILES IDX 18 27 19 28 20 29 81 30 21 31 80 32 22 33 23 34 24 35 74 36
REMARK SMILES IDX 25 37 79 38 73 39 75 40 26 41 78 42 72 43 71 44 27 46 59 47
REMARK SMILES IDX 39 48 58 49 40 50 43 51 57 52 76 53 41 54 42 55 56 57 77 58
REMARK SMILES IDX 44 59 28 60 29 61 37 62 30 63 31 64 35 65 38 66 32 67 33 68
REMARK SMILES IDX 36 69 34 70 60 71 61 72 69 73 62 74 63 75 67 76 70 77 64 78
REMARK SMILES IDX 65 79 68 80 66 81 45 82 46 83 54 84 47 85 48 86 52 87 55 88
REMARK SMILES IDX 49 89 50 90 53 91 51 92
REMARK H PARENT 12 4 4 11 16 26 75 45 43 56
REMARK Flexibility Score: inf
ROOT
ATOM      1  C   UNL A   1      32.931  36.656  30.853  1.00  0.00     0.221 C 
ATOM      2  O   UNL A   1      32.911  37.858  31.124  1.00  0.00    -0.275 OA
ATOM      3  N   UNL A   1      33.042  36.304  29.538  1.00  0.00    -0.356 N 
ATOM      4  H   UNL A   1      32.931  37.054  28.910  1.00  0.00     0.163 HD
ENDROOT
BRANCH   1   5
ATOM      5  C   UNL A   1      32.718  35.637  31.942  1.00  0.00     0.117 C 
BRANCH   5   6
ATOM      6  C   UNL A   1      34.049  35.151  32.506  1.00  0.00     0.164 C 
BRANCH   6   7
ATOM      7  S   UNL A   1      34.062  33.404  32.877  1.00  0.00     0.212 S 
ATOM      8  O   UNL A   1      34.513  32.688  31.709  1.00  0.00    -0.212 OA
ATOM      9  O   UNL A   1      32.787  33.094  33.491  1.00  0.00    -0.212 OA
BRANCH   7  10
ATOM     10  N   UNL A   1      35.249  33.248  34.063  1.00  0.00    -0.215 NA
ATOM     11  H   UNL A   1      35.304  34.139  34.556  1.00  0.00     0.141 HD
BRANCH  10  12
ATOM     12  C   UNL A   1      36.620  32.899  33.628  1.00  0.00     0.106 C 
BRANCH  12  13
ATOM     13  C   UNL A   1      37.555  34.132  33.495  1.00  0.00     0.031 C 
ATOM     14  C   UNL A   1      38.393  34.346  34.765  1.00  0.00     0.014 C 
BRANCH  13  15
ATOM     15  C   UNL A   1      38.355  34.270  32.200  1.00  0.00    -0.044 A 
ATOM     16  C   UNL A   1      39.741  34.491  32.179  1.00  0.00     0.004 A 
ATOM     17  C   UNL A   1      37.718  34.009  30.972  1.00  0.00     0.004 A 
ATOM     18  C   UNL A   1      40.469  34.400  30.988  1.00  0.00     0.000 A 
ATOM     19  C   UNL A   1      38.446  33.903  29.786  1.00  0.00     0.000 A 
ATOM     20  C   UNL A   1      39.828  34.077  29.799  1.00  0.00     0.000 A 
ENDBRANCH  13  15
ENDBRANCH  12  13
ENDBRANCH  10  12
ENDBRANCH   7  10
ENDBRANCH   6   7
ENDBRANCH   5   6
ENDBRANCH   1   5
BRANCH   3  21
ATOM     21  C   UNL A   1      33.295  35.017  28.890  1.00  0.00     0.117 C 
BRANCH  21  22
ATOM     22  C   UNL A   1      34.738  34.492  28.959  1.00  0.00     0.042 C 
BRANCH  22  23
ATOM     23  C   UNL A   1      35.169  33.403  27.976  1.00  0.00     0.118 C 
BRANCH  23  24
ATOM     24  N   UNL A   1      34.175  32.358  27.825  1.00  0.00    -0.352 N 
ATOM     25  C   UNL A   1      34.371  30.995  27.832  1.00  0.00     0.251 C 
ATOM     26  H   UNL A   1      33.246  32.661  27.704  1.00  0.00     0.163 HD
ATOM     27  O   UNL A   1      33.474  30.240  27.474  1.00  0.00    -0.269 OA
BRANCH  25  28
ATOM     28  C   UNL A   1      35.659  30.432  28.298  1.00  0.00     0.039 A 
ATOM     29  C   UNL A   1      36.776  30.422  27.460  1.00  0.00     0.014 A 
ATOM     30  C   UNL A   1      35.736  29.834  29.551  1.00  0.00     0.014 A 
ATOM     31  C   UNL A   1      37.989  29.863  27.905  1.00  0.00     0.010 A 
ATOM     32  C   UNL A   1      36.952  29.299  29.986  1.00  0.00     0.010 A 
ATOM     33  C   UNL A   1      38.112  29.322  29.197  1.00  0.00    -0.014 A 
BRANCH  33  34
ATOM     34  C   UNL A   1      39.422  28.830  29.752  1.00  0.00     0.031 A 
ATOM     35  C   UNL A   1      40.107  29.511  30.923  1.00  0.00     0.074 A 
ATOM     36  C   UNL A   1      40.081  27.818  29.142  1.00  0.00     0.049 A 
ATOM     37  N   UNL A   1      41.272  29.250  31.474  1.00  0.00    -0.248 NA
ATOM     38  C   UNL A   1      39.421  30.664  31.523  1.00  0.00     0.031 C 
ATOM     39  C   UNL A   1      39.640  27.128  27.929  1.00  0.00     0.029 A 
ATOM     40  N   UNL A   1      41.273  27.197  29.451  1.00  0.00    -0.354 N 
ATOM     41  C   UNL A   1      41.458  30.212  32.462  1.00  0.00     0.074 A 
ATOM     42  C   UNL A   1      40.331  31.116  32.373  1.00  0.00     0.031 C 
ATOM     43  C   UNL A   1      40.511  26.150  27.632  1.00  0.00     0.029 A 
ATOM     44  C   UNL A   1      41.599  26.161  28.605  1.00  0.00     0.049 A 
ATOM     45  H   UNL A   1      41.839  27.469  30.209  1.00  0.00     0.167 HD
ATOM     46  C   UNL A   1      42.440  30.315  33.395  1.00  0.00     0.037 A 
ATOM     47  C   UNL A   1      42.646  25.310  28.607  1.00  0.00     0.037 A 
ATOM     48  C   UNL A   1      43.542  29.397  33.537  1.00  0.00     0.049 A 
ATOM     49  C   UNL A   1      43.709  25.425  29.672  1.00  0.00     0.074 A 
ATOM     50  C   UNL A   1      44.532  29.379  34.506  1.00  0.00     0.029 A 
ATOM     51  N   UNL A   1      43.797  28.327  32.693  1.00  0.00    -0.354 N 
ATOM     52  N   UNL A   1      43.801  26.271  30.666  1.00  0.00    -0.248 NA
ATOM     53  C   UNL A   1      44.812  24.452  29.616  1.00  0.00     0.031 C 
ATOM     54  C   UNL A   1      45.407  28.326  34.228  1.00  0.00     0.029 A 
ATOM     55  C   UNL A   1      44.931  27.651  33.118  1.00  0.00     0.049 A 
ATOM     56  H   UNL A   1      43.255  28.085  31.909  1.00  0.00     0.167 HD
ATOM     57  C   UNL A   1      44.936  25.902  31.378  1.00  0.00     0.074 A 
ATOM     58  C   UNL A   1      45.495  24.746  30.712  1.00  0.00     0.031 C 
ATOM     59  C   UNL A   1      45.468  26.475  32.484  1.00  0.00     0.037 A 
BRANCH  46  60
ATOM     60  C   UNL A   1      42.344  31.437  34.396  1.00  0.00     0.064 A 
ATOM     61  C   UNL A   1      42.909  32.695  34.134  1.00  0.00     0.173 A 
ATOM     62  C   UNL A   1      41.615  31.286  35.587  1.00  0.00     0.173 A 
ATOM     63  F   UNL A   1      43.611  32.899  33.009  1.00  0.00    -0.203 F 
ATOM     64  C   UNL A   1      42.781  33.746  35.040  1.00  0.00     0.198 A 
ATOM     65  C   UNL A   1      41.456  32.350  36.472  1.00  0.00     0.198 A 
ATOM     66  F   UNL A   1      41.034  30.114  35.882  1.00  0.00    -0.203 F 
ATOM     67  F   UNL A   1      43.375  34.920  34.787  1.00  0.00    -0.200 F 
ATOM     68  C   UNL A   1      42.047  33.576  36.202  1.00  0.00     0.200 A 
ATOM     69  F   UNL A   1      40.724  32.193  37.584  1.00  0.00    -0.200 F 
ATOM     70  F   UNL A   1      41.910  34.592  37.065  1.00  0.00    -0.200 F 
ENDBRANCH  46  60
BRANCH  47  71
ATOM     71  C   UNL A   1      42.737  24.221  27.593  1.00  0.00     0.064 A 
ATOM     72  C   UNL A   1      42.299  22.923  27.899  1.00  0.00     0.173 A 
ATOM     73  C   UNL A   1      43.316  24.431  26.333  1.00  0.00     0.173 A 
ATOM     74  F   UNL A   1      41.761  22.665  29.100  1.00  0.00    -0.203 F 
ATOM     75  C   UNL A   1      42.481  21.869  27.005  1.00  0.00     0.198 A 
ATOM     76  C   UNL A   1      43.461  23.383  25.425  1.00  0.00     0.198 A 
ATOM     77  F   UNL A   1      43.746  25.653  25.986  1.00  0.00    -0.203 F 
ATOM     78  F   UNL A   1      42.127  20.626  27.360  1.00  0.00    -0.200 F 
ATOM     79  C   UNL A   1      43.059  22.101  25.768  1.00  0.00     0.200 A 
ATOM     80  F   UNL A   1      44.007  23.613  24.223  1.00  0.00    -0.200 F 
ATOM     81  F   UNL A   1      43.245  21.085  24.913  1.00  0.00    -0.200 F 
ENDBRANCH  47  71
BRANCH  59  82
ATOM     82  C   UNL A   1      46.677  25.828  33.101  1.00  0.00     0.064 A 
ATOM     83  C   UNL A   1      46.570  24.834  34.084  1.00  0.00     0.173 A 
ATOM     84  C   UNL A   1      47.965  26.182  32.667  1.00  0.00     0.173 A 
ATOM     85  F   UNL A   1      45.366  24.466  34.545  1.00  0.00    -0.203 F 
ATOM     86  C   UNL A   1      47.707  24.238  34.630  1.00  0.00     0.198 A 
ATOM     87  C   UNL A   1      49.098  25.561  33.189  1.00  0.00     0.198 A 
ATOM     88  F   UNL A   1      48.128  27.122  31.723  1.00  0.00    -0.203 F 
ATOM     89  F   UNL A   1      47.581  23.328  35.605  1.00  0.00    -0.200 F 
ATOM     90  C   UNL A   1      48.968  24.596  34.176  1.00  0.00     0.200 A 
ATOM     91  F   UNL A   1      50.313  25.896  32.736  1.00  0.00    -0.200 F 
ATOM     92  F   UNL A   1      50.058  24.014  34.694  1.00  0.00    -0.200 F 
ENDBRANCH  59  82
ENDBRANCH  33  34
ENDBRANCH  25  28
ENDBRANCH  23  24
ENDBRANCH  22  23
ENDBRANCH  21  22
ENDBRANCH   3  21
TORSDOF 16
ENDMDL
MODEL 2
REMARK VINA RESULT:     -10.1      7.325     15.045
REMARK SMILES C[C@H](CNS(=O)(=O)CCC(=O)NCCCNC(=O)c1ccc(-c2c3nc(c(-c4c(F)c(F)c(F)c(F)c4F)c4ccc([nH]4)c(-c4c(F)c(F)c(F)c(F)c4F)c4nc(c(-c5c(F)c(F)c(F)c(F)c5F)c5ccc2[nH]5)C=C4)C=C3)cc1)c1ccccc1
REMARK SMILES IDX 10 1 11 2 12 3 9 5 8 6 5 7 6 8 7 9 4 10 3 12 2 13 1 14 82 15
REMARK SMILES IDX 83 16 87 17 84 18 86 19 85 20 13 21 14 22 15 23 16 24 17 25
REMARK SMILES IDX 18 27 19 28 20 29 81 30 21 31 80 32 22 33 23 34 24 35 74 36
REMARK SMILES IDX 25 37 79 38 73 39 75 40 26 41 78 42 72 43 71 44 27 46 59 47
REMARK SMILES IDX 39 48 58 49 40 50 43 51 57 52 76 53 41 54 42 55 56 57 77 58
REMARK SMILES IDX 44 59 28 60 29 61 37 62 30 63 31 64 35 65 38 66 32 67 33 68
REMARK SMILES IDX 36 69 34 70 60 71 61 72 69 73 62 74 63 75 67 76 70 77 64 78
REMARK SMILES IDX 65 79 68 80 66 81 45 82 46 83 54 84 47 85 48 86 52 87 55 88
REMARK SMILES IDX 49 89 50 90 53 91 51 92
REMARK H PARENT 12 4 4 11 16 26 75 45 43 56
REMARK Flexibility Score: inf
ROOT
ATOM      1  C   UNL A   1      45.868  19.148  37.327  1.00  0.00     0.221 C 
ATOM      2  O   UNL A   1      45.134  18.166  37.194  1.00  0.00    -0.275 OA
ATOM      3  N   UNL A   1      45.744  20.160  36.418  1.00  0.00    -0.356 N 
ATOM      4  H   UNL A   1      45.184  19.935  35.640  1.00  0.00     0.163 HD
ENDROOT
BRANCH   1   5
ATOM      5  C   UNL A   1      46.936  19.150  38.389  1.00  0.00     0.117 C 
BRANCH   5   6
ATOM      6  C   UNL A   1      46.390  19.667  39.714  1.00  0.00     0.164 C 
BRANCH   6   7
ATOM      7  S   UNL A   1      46.166  18.382  40.935  1.00  0.00     0.212 S 
ATOM      8  O   UNL A   1      46.562  18.896  42.223  1.00  0.00    -0.212 OA
ATOM      9  O   UNL A   1      46.772  17.181  40.398  1.00  0.00    -0.212 OA
BRANCH   7  10
ATOM     10  N   UNL A   1      44.499  18.139  40.971  1.00  0.00    -0.215 NA
ATOM     11  H   UNL A   1      44.099  18.866  41.564  1.00  0.00     0.141 HD
BRANCH  10  12
ATOM     12  C   UNL A   1      44.001  16.838  41.472  1.00  0.00     0.106 C 
BRANCH  12  13
ATOM     13  C   UNL A   1      42.908  16.208  40.564  1.00  0.00     0.031 C 
ATOM     14  C   UNL A   1      43.408  16.025  39.123  1.00  0.00     0.014 C 
BRANCH  13  15
ATOM     15  C   UNL A   1      42.153  14.998  41.113  1.00  0.00    -0.044 A 
ATOM     16  C   UNL A   1      41.705  13.946  40.300  1.00  0.00     0.004 A 
ATOM     17  C   UNL A   1      42.031  14.841  42.507  1.00  0.00     0.004 A 
ATOM     18  C   UNL A   1      41.209  12.762  40.856  1.00  0.00     0.000 A 
ATOM     19  C   UNL A   1      41.551  13.655  43.063  1.00  0.00     0.000 A 
ATOM     20  C   UNL A   1      41.160  12.606  42.236  1.00  0.00     0.000 A 
ENDBRANCH  13  15
ENDBRANCH  12  13
ENDBRANCH  10  12
ENDBRANCH   7  10
ENDBRANCH   6   7
ENDBRANCH   5   6
ENDBRANCH   1   5
BRANCH   3  21
ATOM     21  C   UNL A   1      46.287  21.517  36.388  1.00  0.00     0.117 C 
BRANCH  21  22
ATOM     22  C   UNL A   1      46.754  22.035  35.018  1.00  0.00     0.042 C 
BRANCH  22  23
ATOM     23  C   UNL A   1      47.479  23.380  34.951  1.00  0.00     0.118 C 
BRANCH  23  24
ATOM     24  N   UNL A   1      47.693  23.967  36.260  1.00  0.00    -0.352 N 
ATOM     25  C   UNL A   1      47.240  25.180  36.728  1.00  0.00     0.251 C 
ATOM     26  H   UNL A   1      48.228  23.432  36.890  1.00  0.00     0.163 HD
ATOM     27  O   UNL A   1      47.682  25.642  37.774  1.00  0.00    -0.269 OA
BRANCH  25  28
ATOM     28  C   UNL A   1      46.195  25.920  35.985  1.00  0.00     0.039 A 
ATOM     29  C   UNL A   1      46.510  27.093  35.293  1.00  0.00     0.014 A 
ATOM     30  C   UNL A   1      44.874  25.492  36.043  1.00  0.00     0.014 A 
ATOM     31  C   UNL A   1      45.504  27.801  34.609  1.00  0.00     0.010 A 
ATOM     32  C   UNL A   1      43.888  26.196  35.344  1.00  0.00     0.010 A 
ATOM     33  C   UNL A   1      44.174  27.344  34.590  1.00  0.00    -0.014 A 
BRANCH  33  34
ATOM     34  C   UNL A   1      43.098  28.005  33.769  1.00  0.00     0.031 A 
ATOM     35  C   UNL A   1      42.917  27.708  32.292  1.00  0.00     0.074 A 
ATOM     36  C   UNL A   1      42.325  28.971  34.315  1.00  0.00     0.049 A 
ATOM     37  N   UNL A   1      42.082  28.246  31.430  1.00  0.00    -0.248 NA
ATOM     38  C   UNL A   1      43.823  26.718  31.691  1.00  0.00     0.031 C 
ATOM     39  C   UNL A   1      42.440  29.479  35.683  1.00  0.00     0.029 A 
ATOM     40  N   UNL A   1      41.291  29.712  33.781  1.00  0.00    -0.354 N 
ATOM     41  C   UNL A   1      42.376  27.673  30.197  1.00  0.00     0.074 A 
ATOM     42  C   UNL A   1      43.524  26.817  30.403  1.00  0.00     0.031 C 
ATOM     43  C   UNL A   1      41.486  30.399  35.897  1.00  0.00     0.029 A 
ATOM     44  C   UNL A   1      40.710  30.584  34.675  1.00  0.00     0.049 A 
ATOM     45  H   UNL A   1      40.994  29.625  32.847  1.00  0.00     0.167 HD
ATOM     46  C   UNL A   1      41.728  27.797  29.009  1.00  0.00     0.037 A 
ATOM     47  C   UNL A   1      39.670  31.431  34.538  1.00  0.00     0.037 A 
ATOM     48  C   UNL A   1      40.551  28.600  28.792  1.00  0.00     0.049 A 
ATOM     49  C   UNL A   1      38.946  31.530  33.217  1.00  0.00     0.074 A 
ATOM     50  C   UNL A   1      39.783  28.714  27.644  1.00  0.00     0.029 A 
ATOM     51  N   UNL A   1      39.963  29.419  29.744  1.00  0.00    -0.354 N 
ATOM     52  N   UNL A   1      39.170  30.890  32.098  1.00  0.00    -0.248 NA
ATOM     53  C   UNL A   1      37.812  32.467  33.150  1.00  0.00     0.031 C 
ATOM     54  C   UNL A   1      38.756  29.631  27.887  1.00  0.00     0.029 A 
ATOM     55  C   UNL A   1      38.848  30.044  29.204  1.00  0.00     0.049 A 
ATOM     56  H   UNL A   1      40.288  29.539  30.664  1.00  0.00     0.167 HD
ATOM     57  C   UNL A   1      38.180  31.308  31.215  1.00  0.00     0.074 A 
ATOM     58  C   UNL A   1      37.344  32.245  31.931  1.00  0.00     0.031 C 
ATOM     59  C   UNL A   1      37.988  30.946  29.924  1.00  0.00     0.037 A 
BRANCH  46  60
ATOM     60  C   UNL A   1      42.238  26.992  27.841  1.00  0.00     0.064 A 
ATOM     61  C   UNL A   1      41.697  25.733  27.536  1.00  0.00     0.173 A 
ATOM     62  C   UNL A   1      43.212  27.511  26.973  1.00  0.00     0.173 A 
ATOM     63  F   UNL A   1      40.758  25.191  28.327  1.00  0.00    -0.203 F 
ATOM     64  C   UNL A   1      42.136  25.009  26.430  1.00  0.00     0.198 A 
ATOM     65  C   UNL A   1      43.621  26.801  25.846  1.00  0.00     0.198 A 
ATOM     66  F   UNL A   1      43.750  28.718  27.201  1.00  0.00    -0.203 F 
ATOM     67  F   UNL A   1      41.639  23.788  26.192  1.00  0.00    -0.200 F 
ATOM     68  C   UNL A   1      43.090  25.547  25.581  1.00  0.00     0.200 A 
ATOM     69  F   UNL A   1      44.525  27.332  25.011  1.00  0.00    -0.200 F 
ATOM     70  F   UNL A   1      43.500  24.856  24.508  1.00  0.00    -0.200 F 
ENDBRANCH  46  60
BRANCH  47  71
ATOM     71  C   UNL A   1      39.194  32.239  35.698  1.00  0.00     0.064 A 
ATOM     72  C   UNL A   1      39.672  33.543  35.902  1.00  0.00     0.173 A 
ATOM     73  C   UNL A   1      38.313  31.713  36.652  1.00  0.00     0.173 A 
ATOM     74  F   UNL A   1      40.536  34.083  35.030  1.00  0.00    -0.203 F 
ATOM     75  C   UNL A   1      39.326  34.269  37.041  1.00  0.00     0.198 A 
ATOM     76  C   UNL A   1      37.937  32.456  37.771  1.00  0.00     0.198 A 
ATOM     77  F   UNL A   1      37.821  30.474  36.503  1.00  0.00    -0.203 F 
ATOM     78  F   UNL A   1      39.863  35.479  37.248  1.00  0.00    -0.200 F 
ATOM     79  C   UNL A   1      38.456  33.726  37.972  1.00  0.00     0.200 A 
ATOM     80  F   UNL A   1      37.085  31.934  38.663  1.00  0.00    -0.200 F 
ATOM     81  F   UNL A   1      38.133  34.419  39.073  1.00  0.00    -0.200 F 
ENDBRANCH  47  71
BRANCH  59  82
ATOM     82  C   UNL A   1      36.787  31.501  29.209  1.00  0.00     0.064 A 
ATOM     83  C   UNL A   1      35.660  30.715  28.924  1.00  0.00     0.173 A 
ATOM     84  C   UNL A   1      36.748  32.856  28.841  1.00  0.00     0.173 A 
ATOM     85  F   UNL A   1      35.647  29.412  29.241  1.00  0.00    -0.203 F 
ATOM     86  C   UNL A   1      34.553  31.257  28.273  1.00  0.00     0.198 A 
ATOM     87  C   UNL A   1      35.626  33.402  28.222  1.00  0.00     0.198 A 
ATOM     88  F   UNL A   1      37.794  33.657  29.096  1.00  0.00    -0.203 F 
ATOM     89  F   UNL A   1      33.510  30.474  27.964  1.00  0.00    -0.200 F 
ATOM     90  C   UNL A   1      34.533  32.601  27.931  1.00  0.00     0.200 A 
ATOM     91  F   UNL A   1      35.604  34.705  27.909  1.00  0.00    -0.200 F 
ATOM     92  F   UNL A   1      33.464  33.122  27.315  1.00  0.00    -0.200 F 
ENDBRANCH  59  82
ENDBRANCH  33  34
ENDBRANCH  25  28
ENDBRANCH  23  24
ENDBRANCH  22  23
ENDBRANCH  21  22
ENDBRANCH   3  21
TORSDOF 16
ENDMDL
MODEL 3
REMARK VINA RESULT:     -10.0      4.112      7.199
REMARK SMILES C[C@H](CNS(=O)(=O)CCC(=O)NCCCNC(=O)c1ccc(-c2c3nc(c(-c4c(F)c(F)c(F)c(F)c4F)c4ccc([nH]4)c(-c4c(F)c(F)c(F)c(F)c4F)c4nc(c(-c5c(F)c(F)c(F)c(F)c5F)c5ccc2[nH]5)C=C4)C=C3)cc1)c1ccccc1
REMARK SMILES IDX 10 1 11 2 12 3 9 5 8 6 5 7 6 8 7 9 4 10 3 12 2 13 1 14 82 15
REMARK SMILES IDX 83 16 87 17 84 18 86 19 85 20 13 21 14 22 15 23 16 24 17 25
REMARK SMILES IDX 18 27 19 28 20 29 81 30 21 31 80 32 22 33 23 34 24 35 74 36
REMARK SMILES IDX 25 37 79 38 73 39 75 40 26 41 78 42 72 43 71 44 27 46 59 47
REMARK SMILES IDX 39 48 58 49 40 50 43 51 57 52 76 53 41 54 42 55 56 57 77 58
REMARK SMILES IDX 44 59 28 60 29 61 37 62 30 63 31 64 35 65 38 66 32 67 33 68
REMARK SMILES IDX 36 69 34 70 60 71 61 72 69 73 62 74 63 75 67 76 70 77 64 78
REMARK SMILES IDX 65 79 68 80 66 81 45 82 46 83 54 84 47 85 48 86 52 87 55 88
REMARK SMILES IDX 49 89 50 90 53 91 51 92
REMARK H PARENT 12 4 4 11 16 26 75 45 43 56
REMARK Flexibility Score: inf
ROOT
ATOM      1  C   UNL A   1      31.250  24.254  26.539  1.00  0.00     0.221 C 
ATOM      2  O   UNL A   1      30.380  23.720  27.230  1.00  0.00    -0.275 OA
ATOM      3  N   UNL A   1      31.291  25.619  26.511  1.00  0.00    -0.356 N 
ATOM      4  H   UNL A   1      30.509  26.052  26.925  1.00  0.00     0.163 HD
ENDROOT
BRANCH   1   5
ATOM      5  C   UNL A   1      32.145  23.407  25.671  1.00  0.00     0.117 C 
BRANCH   5   6
ATOM      6  C   UNL A   1      31.466  22.094  25.300  1.00  0.00     0.164 C 
BRANCH   6   7
ATOM      7  S   UNL A   1      32.611  20.837  24.753  1.00  0.00     0.212 S 
ATOM      8  O   UNL A   1      32.718  20.905  23.316  1.00  0.00    -0.212 OA
ATOM      9  O   UNL A   1      32.230  19.604  25.410  1.00  0.00    -0.212 OA
BRANCH   7  10
ATOM     10  N   UNL A   1      34.089  21.322  25.400  1.00  0.00    -0.215 NA
ATOM     11  H   UNL A   1      34.152  22.334  25.287  1.00  0.00     0.141 HD
BRANCH  10  12
ATOM     12  C   UNL A   1      35.322  20.736  24.826  1.00  0.00     0.106 C 
BRANCH  12  13
ATOM     13  C   UNL A   1      36.333  21.803  24.324  1.00  0.00     0.031 C 
ATOM     14  C   UNL A   1      35.637  22.901  23.506  1.00  0.00     0.014 C 
BRANCH  13  15
ATOM     15  C   UNL A   1      37.348  22.337  25.334  1.00  0.00    -0.044 A 
ATOM     16  C   UNL A   1      38.504  21.631  25.700  1.00  0.00     0.004 A 
ATOM     17  C   UNL A   1      37.213  23.656  25.808  1.00  0.00     0.004 A 
ATOM     18  C   UNL A   1      39.511  22.237  26.460  1.00  0.00     0.000 A 
ATOM     19  C   UNL A   1      38.224  24.266  26.552  1.00  0.00     0.000 A 
ATOM     20  C   UNL A   1      39.384  23.561  26.859  1.00  0.00     0.000 A 
ENDBRANCH  13  15
ENDBRANCH  12  13
ENDBRANCH  10  12
ENDBRANCH   7  10
ENDBRANCH   6   7
ENDBRANCH   5   6
ENDBRANCH   1   5
BRANCH   3  21
ATOM     21  C   UNL A   1      32.281  26.556  25.982  1.00  0.00     0.117 C 
BRANCH  21  22
ATOM     22  C   UNL A   1      32.007  28.048  26.229  1.00  0.00     0.042 C 
BRANCH  22  23
ATOM     23  C   UNL A   1      33.086  29.063  25.850  1.00  0.00     0.118 C 
BRANCH  23  24
ATOM     24  N   UNL A   1      32.685  30.433  26.112  1.00  0.00    -0.352 N 
ATOM     25  C   UNL A   1      33.201  31.301  27.047  1.00  0.00     0.251 C 
ATOM     26  H   UNL A   1      31.955  30.782  25.553  1.00  0.00     0.163 HD
ATOM     27  O   UNL A   1      32.619  32.348  27.305  1.00  0.00    -0.269 OA
BRANCH  25  28
ATOM     28  C   UNL A   1      34.479  30.989  27.727  1.00  0.00     0.039 A 
ATOM     29  C   UNL A   1      35.433  31.987  27.942  1.00  0.00     0.014 A 
ATOM     30  C   UNL A   1      34.769  29.676  28.081  1.00  0.00     0.014 A 
ATOM     31  C   UNL A   1      36.654  31.675  28.568  1.00  0.00     0.010 A 
ATOM     32  C   UNL A   1      35.979  29.384  28.718  1.00  0.00     0.010 A 
ATOM     33  C   UNL A   1      36.937  30.368  29.004  1.00  0.00    -0.014 A 
BRANCH  33  34
ATOM     34  C   UNL A   1      38.176  30.022  29.787  1.00  0.00     0.031 A 
ATOM     35  C   UNL A   1      38.420  30.558  31.185  1.00  0.00     0.074 A 
ATOM     36  C   UNL A   1      39.164  29.300  29.211  1.00  0.00     0.049 A 
ATOM     37  N   UNL A   1      39.469  30.409  31.965  1.00  0.00    -0.248 NA
ATOM     38  C   UNL A   1      37.376  31.415  31.768  1.00  0.00     0.031 C 
ATOM     39  C   UNL A   1      39.162  28.809  27.832  1.00  0.00     0.029 A 
ATOM     40  N   UNL A   1      40.372  28.860  29.709  1.00  0.00    -0.354 N 
ATOM     41  C   UNL A   1      39.214  31.161  33.107  1.00  0.00     0.074 A 
ATOM     42  C   UNL A   1      37.956  31.839  32.881  1.00  0.00     0.031 C 
ATOM     43  C   UNL A   1      40.277  28.092  27.614  1.00  0.00     0.029 A 
ATOM     44  C   UNL A   1      41.100  28.102  28.819  1.00  0.00     0.049 A 
ATOM     45  H   UNL A   1      40.686  29.067  30.619  1.00  0.00     0.167 HD
ATOM     46  C   UNL A   1      39.924  31.247  34.262  1.00  0.00     0.037 A 
ATOM     47  C   UNL A   1      42.289  27.478  28.951  1.00  0.00     0.037 A 
ATOM     48  C   UNL A   1      41.150  30.539  34.531  1.00  0.00     0.049 A 
ATOM     49  C   UNL A   1      43.045  27.563  30.254  1.00  0.00     0.074 A 
ATOM     50  C   UNL A   1      41.887  30.503  35.704  1.00  0.00     0.029 A 
ATOM     51  N   UNL A   1      41.818  29.735  33.620  1.00  0.00    -0.354 N 
ATOM     52  N   UNL A   1      42.725  28.184  31.360  1.00  0.00    -0.248 NA
ATOM     53  C   UNL A   1      44.328  26.843  30.325  1.00  0.00     0.031 C 
ATOM     54  C   UNL A   1      43.020  29.711  35.492  1.00  0.00     0.029 A 
ATOM     55  C   UNL A   1      42.959  29.207  34.205  1.00  0.00     0.049 A 
ATOM     56  H   UNL A   1      41.526  29.566  32.696  1.00  0.00     0.167 HD
ATOM     57  C   UNL A   1      43.737  27.891  32.268  1.00  0.00     0.074 A 
ATOM     58  C   UNL A   1      44.674  27.024  31.590  1.00  0.00     0.031 C 
ATOM     59  C   UNL A   1      43.875  28.310  33.549  1.00  0.00     0.037 A 
BRANCH  46  60
ATOM     60  C   UNL A   1      39.362  32.098  35.372  1.00  0.00     0.064 A 
ATOM     61  C   UNL A   1      38.546  31.543  36.371  1.00  0.00     0.173 A 
ATOM     62  C   UNL A   1      39.704  33.455  35.490  1.00  0.00     0.173 A 
ATOM     63  F   UNL A   1      38.192  30.250  36.313  1.00  0.00    -0.203 F 
ATOM     64  C   UNL A   1      38.064  32.320  37.422  1.00  0.00     0.198 A 
ATOM     65  C   UNL A   1      39.252  34.219  36.563  1.00  0.00     0.198 A 
ATOM     66  F   UNL A   1      40.499  34.035  34.578  1.00  0.00    -0.203 F 
ATOM     67  F   UNL A   1      37.245  31.776  38.332  1.00  0.00    -0.200 F 
ATOM     68  C   UNL A   1      38.425  33.654  37.523  1.00  0.00     0.200 A 
ATOM     69  F   UNL A   1      39.623  35.503  36.675  1.00  0.00    -0.200 F 
ATOM     70  F   UNL A   1      37.975  34.396  38.544  1.00  0.00    -0.200 F 
ENDBRANCH  46  60
BRANCH  47  71
ATOM     71  C   UNL A   1      42.842  26.660  27.833  1.00  0.00     0.064 A 
ATOM     72  C   UNL A   1      43.601  27.261  26.818  1.00  0.00     0.173 A 
ATOM     73  C   UNL A   1      42.574  25.288  27.719  1.00  0.00     0.173 A 
ATOM     74  F   UNL A   1      43.864  28.575  26.868  1.00  0.00    -0.203 F 
ATOM     75  C   UNL A   1      44.029  26.534  25.708  1.00  0.00     0.198 A 
ATOM     76  C   UNL A   1      43.037  24.554  26.627  1.00  0.00     0.198 A 
ATOM     77  F   UNL A   1      41.858  24.662  28.664  1.00  0.00    -0.203 F 
ATOM     78  F   UNL A   1      44.682  27.154  24.716  1.00  0.00    -0.200 F 
ATOM     79  C   UNL A   1      43.749  25.180  25.616  1.00  0.00     0.200 A 
ATOM     80  F   UNL A   1      42.776  23.242  26.547  1.00  0.00    -0.200 F 
ATOM     81  F   UNL A   1      44.150  24.483  24.543  1.00  0.00    -0.200 F 
ENDBRANCH  47  71
BRANCH  59  82
ATOM     82  C   UNL A   1      45.039  27.783  34.341  1.00  0.00     0.064 A 
ATOM     83  C   UNL A   1      46.217  28.524  34.518  1.00  0.00     0.173 A 
ATOM     84  C   UNL A   1      44.956  26.529  34.969  1.00  0.00     0.173 A 
ATOM     85  F   UNL A   1      46.356  29.721  33.930  1.00  0.00    -0.203 F 
ATOM     86  C   UNL A   1      47.277  28.019  35.269  1.00  0.00     0.198 A 
ATOM     87  C   UNL A   1      46.003  26.043  35.748  1.00  0.00     0.198 A 
ATOM     88  F   UNL A   1      43.850  25.780  34.841  1.00  0.00    -0.203 F 
ATOM     89  F   UNL A   1      48.412  28.723  35.380  1.00  0.00    -0.200 F 
ATOM     90  C   UNL A   1      47.166  26.784  35.891  1.00  0.00     0.200 A 
ATOM     91  F   UNL A   1      45.886  24.857  36.361  1.00  0.00    -0.200 F 
ATOM     92  F   UNL A   1      48.182  26.306  36.621  1.00  0.00    -0.200 F 
ENDBRANCH  59  82
ENDBRANCH  33  34
ENDBRANCH  25  28
ENDBRANCH  23  24
ENDBRANCH  22  23
ENDBRANCH  21  22
ENDBRANCH   3  21
TORSDOF 16
ENDMDL
