MODEL 1
REMARK VINA RESULT:     -11.1      0.000      0.000
REMARK SMILES CCCC1(CCC)C[NH+]([C@H]2CCC[C@@H](C(=O)NCCCNC(=O)c3ccc(-c4c5nc(c(-c6c(F)c(F)c(F)c(F)c6F)c6ccc([nH]6)c(-c6c(F)c(F)c(F)c(F)c6F)c6nc(c(-c7c(F)c(F)c(F)c(F)c7F)c7ccc4[nH]7)C=C6)C=C5)cc3)C2)C1
REMARK SMILES IDX 18 1 17 2 15 3 16 4 14 6 10 7 11 8 87 9 12 10 13 11 9 12
REMARK SMILES IDX 4 13 8 14 88 15 3 17 2 18 1 19 5 20 6 21 7 22 19 23 20 24
REMARK SMILES IDX 21 25 22 26 23 28 24 29 25 30 86 31 26 32 85 33 27 34 28 35
REMARK SMILES IDX 29 36 79 37 30 38 84 39 78 40 80 41 31 42 83 43 77 44 76 45
REMARK SMILES IDX 32 47 64 48 44 49 63 50 45 51 48 52 62 53 81 54 46 55 47 56
REMARK SMILES IDX 61 58 82 59 49 60 33 61 34 62 42 63 35 64 36 65 40 66 43 67
REMARK SMILES IDX 37 68 38 69 41 70 39 71 65 72 66 73 74 74 67 75 68 76 72 77
REMARK SMILES IDX 75 78 69 79 70 80 73 81 71 82 50 83 51 84 59 85 52 86 53 87
REMARK SMILES IDX 57 88 60 89 54 90 55 91 58 92 56 93
REMARK H PARENT 17 5 9 16 21 27 80 46 48 57
REMARK Flexibility Score: inf
ROOT
ATOM      1  C   UNL A   1      34.582  23.695  26.418  1.00  0.00     0.117 C 
ENDROOT
BRANCH   1   2
ATOM      2  N   UNL A   1      33.050  24.060  26.409  1.00  0.00    -0.356 N 
ATOM      3  C   UNL A   1      31.730  23.839  26.058  1.00  0.00     0.223 C 
ATOM      4  O   UNL A   1      30.923  24.558  26.678  1.00  0.00    -0.275 OA
ATOM      5  H   UNL A   1      33.011  24.891  26.934  1.00  0.00     0.163 HD
BRANCH   3   6
ATOM      6  C   UNL A   1      31.038  22.869  25.033  1.00  0.00     0.084 C 
ATOM      7  C   UNL A   1      31.864  24.308  23.225  1.00  0.00     0.184 C 
ATOM      8  C   UNL A   1      33.078  23.076  23.271  1.00  0.00     0.065 C 
ATOM      9  C   UNL A   1      30.721  23.402  23.622  1.00  0.00     0.078 C 
ATOM     10  C   UNL A   1      33.197  22.013  24.421  1.00  0.00     0.007 C 
ATOM     11  C   UNL A   1      31.855  21.602  24.953  1.00  0.00     0.014 C 
BRANCH   7  12
ATOM     12  N   UNL A   1      31.681  25.535  24.088  1.00  0.00    -0.331 N 
ATOM     13  C   UNL A   1      31.433  27.521  24.949  1.00  0.00     0.068 C 
ATOM     14  C   UNL A   1      32.524  26.699  24.154  1.00  0.00     0.275 C 
ATOM     15  C   UNL A   1      30.488  26.417  24.217  1.00  0.00     0.275 C 
ATOM     16  H   UNL A   1      31.812  24.725  24.693  1.00  0.00     0.348 HD
BRANCH  13  17
ATOM     17  C   UNL A   1      31.843  27.547  26.474  1.00  0.00     0.018 C 
BRANCH  17  18
ATOM     18  C   UNL A   1      32.286  28.854  27.141  1.00  0.00    -0.002 C 
ATOM     19  C   UNL A   1      33.782  29.023  27.297  1.00  0.00     0.004 C 
ENDBRANCH  17  18
ENDBRANCH  13  17
BRANCH  13  20
ATOM     20  C   UNL A   1      31.539  28.969  24.370  1.00  0.00     0.018 C 
BRANCH  20  21
ATOM     21  C   UNL A   1      30.236  29.603  23.877  1.00  0.00    -0.002 C 
ATOM     22  C   UNL A   1      30.059  29.578  22.352  1.00  0.00     0.004 C 
ENDBRANCH  20  21
ENDBRANCH  13  20
ENDBRANCH   7  12
ENDBRANCH   3   6
ENDBRANCH   1   2
BRANCH   1  23
ATOM     23  C   UNL A   1      35.946  24.265  25.712  1.00  0.00     0.042 C 
BRANCH  23  24
ATOM     24  C   UNL A   1      37.048  23.613  24.781  1.00  0.00     0.118 C 
BRANCH  24  25
ATOM     25  N   UNL A   1      37.921  22.616  25.349  1.00  0.00    -0.352 N 
ATOM     26  C   UNL A   1      38.922  22.740  26.293  1.00  0.00     0.251 C 
ATOM     27  H   UNL A   1      37.782  21.701  25.011  1.00  0.00     0.163 HD
ATOM     28  O   UNL A   1      39.492  21.738  26.695  1.00  0.00    -0.269 OA
BRANCH  26  29
ATOM     29  C   UNL A   1      39.397  24.059  26.788  1.00  0.00     0.039 A 
ATOM     30  C   UNL A   1      38.967  24.443  28.062  1.00  0.00     0.014 A 
ATOM     31  C   UNL A   1      40.066  24.986  25.982  1.00  0.00     0.014 A 
ATOM     32  C   UNL A   1      39.272  25.714  28.560  1.00  0.00     0.010 A 
ATOM     33  C   UNL A   1      40.397  26.256  26.490  1.00  0.00     0.010 A 
ATOM     34  C   UNL A   1      40.029  26.616  27.795  1.00  0.00    -0.014 A 
BRANCH  34  35
ATOM     35  C   UNL A   1      40.542  27.858  28.434  1.00  0.00     0.031 A 
ATOM     36  C   UNL A   1      42.000  28.048  28.738  1.00  0.00     0.074 A 
ATOM     37  C   UNL A   1      39.644  28.818  28.734  1.00  0.00     0.049 A 
ATOM     38  N   UNL A   1      42.613  29.094  29.232  1.00  0.00    -0.248 NA
ATOM     39  C   UNL A   1      42.884  26.907  28.465  1.00  0.00     0.031 C 
ATOM     40  C   UNL A   1      38.200  28.702  28.504  1.00  0.00     0.029 A 
ATOM     41  N   UNL A   1      39.790  30.070  29.272  1.00  0.00    -0.354 N 
ATOM     42  C   UNL A   1      43.953  28.739  29.335  1.00  0.00     0.074 A 
ATOM     43  C   UNL A   1      44.055  27.365  28.889  1.00  0.00     0.031 C 
ATOM     44  C   UNL A   1      37.602  29.849  28.853  1.00  0.00     0.029 A 
ATOM     45  C   UNL A   1      38.608  30.768  29.369  1.00  0.00     0.049 A 
ATOM     46  H   UNL A   1      40.657  30.435  29.563  1.00  0.00     0.167 HD
ATOM     47  C   UNL A   1      44.995  29.500  29.754  1.00  0.00     0.037 A 
ATOM     48  C   UNL A   1      38.368  32.015  29.818  1.00  0.00     0.037 A 
ATOM     49  C   UNL A   1      44.854  30.867  30.197  1.00  0.00     0.049 A 
ATOM     50  C   UNL A   1      39.541  32.832  30.284  1.00  0.00     0.074 A 
ATOM     51  C   UNL A   1      45.832  31.755  30.605  1.00  0.00     0.029 A 
ATOM     52  N   UNL A   1      43.640  31.537  30.300  1.00  0.00    -0.354 N 
ATOM     53  N   UNL A   1      40.813  32.511  30.306  1.00  0.00    -0.248 NA
ATOM     54  C   UNL A   1      39.252  34.181  30.782  1.00  0.00     0.031 C 
ATOM     55  C   UNL A   1      45.205  32.937  31.014  1.00  0.00     0.029 A 
ATOM     56  C   UNL A   1      43.840  32.815  30.797  1.00  0.00     0.049 A 
ATOM     57  H   UNL A   1      42.764  31.158  30.055  1.00  0.00     0.167 HD
ATOM     58  C   UNL A   1      41.480  33.624  30.793  1.00  0.00     0.074 A 
ATOM     59  C   UNL A   1      40.471  34.636  31.035  1.00  0.00     0.031 C 
ATOM     60  C   UNL A   1      42.806  33.797  31.023  1.00  0.00     0.037 A 
BRANCH  47  61
ATOM     61  C   UNL A   1      46.361  28.865  29.784  1.00  0.00     0.064 A 
ATOM     62  C   UNL A   1      46.849  28.205  30.924  1.00  0.00     0.173 A 
ATOM     63  C   UNL A   1      47.196  28.911  28.655  1.00  0.00     0.173 A 
ATOM     64  F   UNL A   1      46.099  28.129  32.033  1.00  0.00    -0.203 F 
ATOM     65  C   UNL A   1      48.134  27.662  30.950  1.00  0.00     0.198 A 
ATOM     66  C   UNL A   1      48.467  28.338  28.674  1.00  0.00     0.198 A 
ATOM     67  F   UNL A   1      46.783  29.514  27.532  1.00  0.00    -0.203 F 
ATOM     68  F   UNL A   1      48.598  27.098  32.073  1.00  0.00    -0.200 F 
ATOM     69  C   UNL A   1      48.941  27.727  29.824  1.00  0.00     0.200 A 
ATOM     70  F   UNL A   1      49.239  28.388  27.580  1.00  0.00    -0.200 F 
ATOM     71  F   UNL A   1      50.177  27.210  29.852  1.00  0.00    -0.200 F 
ENDBRANCH  47  61
BRANCH  48  72
ATOM     72  C   UNL A   1      36.985  32.566  29.806  1.00  0.00     0.064 A 
ATOM     73  C   UNL A   1      36.133  32.408  30.910  1.00  0.00     0.173 A 
ATOM     74  C   UNL A   1      36.486  33.277  28.703  1.00  0.00     0.173 A 
ATOM     75  F   UNL A   1      36.554  31.728  31.987  1.00  0.00    -0.203 F 
ATOM     76  C   UNL A   1      34.836  32.920  30.903  1.00  0.00     0.198 A 
ATOM     77  C   UNL A   1      35.200  33.816  28.709  1.00  0.00     0.198 A 
ATOM     78  F   UNL A   1      37.258  33.468  27.623  1.00  0.00    -0.203 F 
ATOM     79  F   UNL A   1      34.032  32.718  31.956  1.00  0.00    -0.200 F 
ATOM     80  C   UNL A   1      34.373  33.630  29.806  1.00  0.00     0.200 A 
ATOM     81  F   UNL A   1      34.765  34.519  27.655  1.00  0.00    -0.200 F 
ATOM     82  F   UNL A   1      33.130  34.130  29.804  1.00  0.00    -0.200 F 
ENDBRANCH  48  72
BRANCH  60  83
ATOM     83  C   UNL A   1      43.233  35.142  31.535  1.00  0.00     0.064 A 
ATOM     84  C   UNL A   1      43.651  36.162  30.668  1.00  0.00     0.173 A 
ATOM     85  C   UNL A   1      43.186  35.424  32.909  1.00  0.00     0.173 A 
ATOM     86  F   UNL A   1      43.731  35.937  29.348  1.00  0.00    -0.203 F 
ATOM     87  C   UNL A   1      44.034  37.406  31.161  1.00  0.00     0.198 A 
ATOM     88  C   UNL A   1      43.533  36.680  33.394  1.00  0.00     0.198 A 
ATOM     89  F   UNL A   1      42.788  34.483  33.779  1.00  0.00    -0.203 F 
ATOM     90  F   UNL A   1      44.484  38.347  30.321  1.00  0.00    -0.200 F 
ATOM     91  C   UNL A   1      43.965  37.667  32.521  1.00  0.00     0.200 A 
ATOM     92  F   UNL A   1      43.448  36.935  34.707  1.00  0.00    -0.200 F 
ATOM     93  F   UNL A   1      44.324  38.869  32.993  1.00  0.00    -0.200 F 
ENDBRANCH  60  83
ENDBRANCH  34  35
ENDBRANCH  26  29
ENDBRANCH  24  25
ENDBRANCH  23  24
ENDBRANCH   1  23
TORSDOF 15
ENDMDL
MODEL 2
REMARK VINA RESULT:     -11.0      3.912      8.816
REMARK SMILES CCCC1(CCC)C[NH+]([C@H]2CCC[C@@H](C(=O)NCCCNC(=O)c3ccc(-c4c5nc(c(-c6c(F)c(F)c(F)c(F)c6F)c6ccc([nH]6)c(-c6c(F)c(F)c(F)c(F)c6F)c6nc(c(-c7c(F)c(F)c(F)c(F)c7F)c7ccc4[nH]7)C=C6)C=C5)cc3)C2)C1
REMARK SMILES IDX 18 1 17 2 15 3 16 4 14 6 10 7 11 8 87 9 12 10 13 11 9 12
REMARK SMILES IDX 4 13 8 14 88 15 3 17 2 18 1 19 5 20 6 21 7 22 19 23 20 24
REMARK SMILES IDX 21 25 22 26 23 28 24 29 25 30 86 31 26 32 85 33 27 34 28 35
REMARK SMILES IDX 29 36 79 37 30 38 84 39 78 40 80 41 31 42 83 43 77 44 76 45
REMARK SMILES IDX 32 47 64 48 44 49 63 50 45 51 48 52 62 53 81 54 46 55 47 56
REMARK SMILES IDX 61 58 82 59 49 60 33 61 34 62 42 63 35 64 36 65 40 66 43 67
REMARK SMILES IDX 37 68 38 69 41 70 39 71 65 72 66 73 74 74 67 75 68 76 72 77
REMARK SMILES IDX 75 78 69 79 70 80 73 81 71 82 50 83 51 84 59 85 52 86 53 87
REMARK SMILES IDX 57 88 60 89 54 90 55 91 58 92 56 93
REMARK H PARENT 17 5 9 16 21 27 80 46 48 57
REMARK Flexibility Score: inf
ROOT
ATOM      1  C   UNL A   1      32.832  27.392  22.616  1.00  0.00     0.117 C 
ENDROOT
BRANCH   1   2
ATOM      2  N   UNL A   1      32.465  25.917  23.027  1.00  0.00    -0.356 N 
ATOM      3  C   UNL A   1      31.617  24.954  23.544  1.00  0.00     0.223 C 
ATOM      4  O   UNL A   1      31.999  23.787  23.330  1.00  0.00    -0.275 OA
ATOM      5  H   UNL A   1      33.271  25.406  22.787  1.00  0.00     0.163 HD
BRANCH   3   6
ATOM      6  C   UNL A   1      30.271  25.029  24.351  1.00  0.00     0.084 C 
ATOM      7  C   UNL A   1      31.564  25.780  26.297  1.00  0.00     0.184 C 
ATOM      8  C   UNL A   1      31.023  27.286  25.636  1.00  0.00     0.065 C 
ATOM      9  C   UNL A   1      30.338  24.994  25.891  1.00  0.00     0.078 C 
ATOM     10  C   UNL A   1      30.354  27.426  24.223  1.00  0.00     0.007 C 
ATOM     11  C   UNL A   1      29.501  26.239  23.879  1.00  0.00     0.014 C 
BRANCH   7  12
ATOM     12  N   UNL A   1      32.722  24.896  25.897  1.00  0.00    -0.331 N 
ATOM     13  C   UNL A   1      34.570  23.759  25.699  1.00  0.00     0.068 C 
ATOM     14  C   UNL A   1      34.103  25.267  25.745  1.00  0.00     0.275 C 
ATOM     15  C   UNL A   1      33.157  23.602  26.492  1.00  0.00     0.275 C 
ATOM     16  H   UNL A   1      32.054  24.930  25.127  1.00  0.00     0.348 HD
BRANCH  13  17
ATOM     17  C   UNL A   1      34.853  23.371  24.194  1.00  0.00     0.018 C 
BRANCH  17  18
ATOM     18  C   UNL A   1      35.095  21.910  23.797  1.00  0.00    -0.002 C 
ATOM     19  C   UNL A   1      34.274  20.892  24.560  1.00  0.00     0.004 C 
ENDBRANCH  17  18
ENDBRANCH  13  17
BRANCH  13  20
ATOM     20  C   UNL A   1      35.918  23.744  26.490  1.00  0.00     0.018 C 
BRANCH  20  21
ATOM     21  C   UNL A   1      37.199  23.772  25.652  1.00  0.00    -0.002 C 
ATOM     22  C   UNL A   1      38.461  24.151  26.440  1.00  0.00     0.004 C 
ENDBRANCH  20  21
ENDBRANCH  13  20
ENDBRANCH   7  12
ENDBRANCH   3   6
ENDBRANCH   1   2
BRANCH   1  23
ATOM     23  C   UNL A   1      33.613  28.660  23.300  1.00  0.00     0.042 C 
BRANCH  23  24
ATOM     24  C   UNL A   1      33.974  29.043  24.793  1.00  0.00     0.118 C 
BRANCH  24  25
ATOM     25  N   UNL A   1      33.123  29.980  25.483  1.00  0.00    -0.352 N 
ATOM     26  C   UNL A   1      33.373  30.761  26.596  1.00  0.00     0.251 C 
ATOM     27  H   UNL A   1      32.220  30.078  25.102  1.00  0.00     0.163 HD
ATOM     28  O   UNL A   1      32.524  31.553  26.972  1.00  0.00    -0.269 OA
BRANCH  26  29
ATOM     29  C   UNL A   1      34.608  30.621  27.411  1.00  0.00     0.039 A 
ATOM     30  C   UNL A   1      34.748  29.435  28.139  1.00  0.00     0.014 A 
ATOM     31  C   UNL A   1      35.505  31.671  27.631  1.00  0.00     0.014 A 
ATOM     32  C   UNL A   1      35.821  29.267  29.020  1.00  0.00     0.010 A 
ATOM     33  C   UNL A   1      36.601  31.495  28.497  1.00  0.00     0.010 A 
ATOM     34  C   UNL A   1      36.782  30.279  29.173  1.00  0.00    -0.014 A 
BRANCH  34  35
ATOM     35  C   UNL A   1      38.034  29.985  29.924  1.00  0.00     0.031 A 
ATOM     36  C   UNL A   1      38.264  30.504  31.313  1.00  0.00     0.074 A 
ATOM     37  C   UNL A   1      38.963  29.228  29.306  1.00  0.00     0.049 A 
ATOM     38  N   UNL A   1      39.269  30.284  32.123  1.00  0.00    -0.248 NA
ATOM     39  C   UNL A   1      37.237  31.401  31.861  1.00  0.00     0.031 C 
ATOM     40  C   UNL A   1      38.836  28.710  27.941  1.00  0.00     0.029 A 
ATOM     41  N   UNL A   1      40.176  28.748  29.727  1.00  0.00    -0.354 N 
ATOM     42  C   UNL A   1      39.001  31.017  33.273  1.00  0.00     0.074 A 
ATOM     43  C   UNL A   1      37.758  31.720  33.039  1.00  0.00     0.031 C 
ATOM     44  C   UNL A   1      39.900  27.948  27.654  1.00  0.00     0.029 A 
ATOM     45  C   UNL A   1      40.806  27.953  28.796  1.00  0.00     0.049 A 
ATOM     46  H   UNL A   1      40.561  28.951  30.610  1.00  0.00     0.167 HD
ATOM     47  C   UNL A   1      39.728  31.081  34.418  1.00  0.00     0.037 A 
ATOM     48  C   UNL A   1      41.980  27.298  28.862  1.00  0.00     0.037 A 
ATOM     49  C   UNL A   1      40.968  30.369  34.613  1.00  0.00     0.049 A 
ATOM     50  C   UNL A   1      42.767  27.395  30.140  1.00  0.00     0.074 A 
ATOM     51  C   UNL A   1      41.775  30.319  35.735  1.00  0.00     0.029 A 
ATOM     52  N   UNL A   1      41.587  29.589  33.642  1.00  0.00    -0.354 N 
ATOM     53  N   UNL A   1      42.467  28.030  31.248  1.00  0.00    -0.248 NA
ATOM     54  C   UNL A   1      44.050  26.685  30.182  1.00  0.00     0.031 C 
ATOM     55  C   UNL A   1      42.910  29.561  35.422  1.00  0.00     0.029 A 
ATOM     56  C   UNL A   1      42.781  29.080  34.127  1.00  0.00     0.049 A 
ATOM     57  H   UNL A   1      41.228  29.422  32.740  1.00  0.00     0.167 HD
ATOM     58  C   UNL A   1      43.507  27.776  32.129  1.00  0.00     0.074 A 
ATOM     59  C   UNL A   1      44.436  26.910  31.430  1.00  0.00     0.031 C 
ATOM     60  C   UNL A   1      43.682  28.218  33.400  1.00  0.00     0.037 A 
BRANCH  47  61
ATOM     61  C   UNL A   1      39.220  31.971  35.523  1.00  0.00     0.064 A 
ATOM     62  C   UNL A   1      39.552  33.334  35.592  1.00  0.00     0.173 A 
ATOM     63  C   UNL A   1      38.382  31.456  36.527  1.00  0.00     0.173 A 
ATOM     64  F   UNL A   1      40.349  33.882  34.664  1.00  0.00    -0.203 F 
ATOM     65  C   UNL A   1      39.110  34.132  36.647  1.00  0.00     0.198 A 
ATOM     66  C   UNL A   1      37.915  32.265  37.561  1.00  0.00     0.198 A 
ATOM     67  F   UNL A   1      38.018  30.166  36.508  1.00  0.00    -0.203 F 
ATOM     68  F   UNL A   1      39.499  35.412  36.725  1.00  0.00    -0.200 F 
ATOM     69  C   UNL A   1      38.289  33.598  37.629  1.00  0.00     0.200 A 
ATOM     70  F   UNL A   1      37.110  31.751  38.501  1.00  0.00    -0.200 F 
ATOM     71  F   UNL A   1      37.871  34.364  38.646  1.00  0.00    -0.200 F 
ENDBRANCH  47  61
BRANCH  48  72
ATOM     72  C   UNL A   1      42.449  26.474  27.714  1.00  0.00     0.064 A 
ATOM     73  C   UNL A   1      43.373  26.981  26.788  1.00  0.00     0.173 A 
ATOM     74  C   UNL A   1      42.000  25.157  27.523  1.00  0.00     0.173 A 
ATOM     75  F   UNL A   1      43.826  28.237  26.915  1.00  0.00    -0.203 F 
ATOM     76  C   UNL A   1      43.812  26.215  25.709  1.00  0.00     0.198 A 
ATOM     77  C   UNL A   1      42.465  24.380  26.462  1.00  0.00     0.198 A 
ATOM     78  F   UNL A   1      41.124  24.615  28.382  1.00  0.00    -0.203 F 
ATOM     79  F   UNL A   1      44.664  26.741  24.818  1.00  0.00    -0.200 F 
ATOM     80  C   UNL A   1      43.364  24.912  25.551  1.00  0.00     0.200 A 
ATOM     81  F   UNL A   1      42.045  23.115  26.327  1.00  0.00    -0.200 F 
ATOM     82  F   UNL A   1      43.794  24.172  24.520  1.00  0.00    -0.200 F 
ENDBRANCH  48  72
BRANCH  60  83
ATOM     83  C   UNL A   1      44.912  27.742  34.116  1.00  0.00     0.064 A 
ATOM     84  C   UNL A   1      44.925  26.543  34.842  1.00  0.00     0.173 A 
ATOM     85  C   UNL A   1      46.103  28.481  34.042  1.00  0.00     0.173 A 
ATOM     86  F   UNL A   1      43.807  25.810  34.958  1.00  0.00    -0.203 F 
ATOM     87  C   UNL A   1      46.079  26.114  35.492  1.00  0.00     0.198 A 
ATOM     88  C   UNL A   1      47.264  28.030  34.662  1.00  0.00     0.198 A 
ATOM     89  F   UNL A   1      46.143  29.633  33.356  1.00  0.00    -0.203 F 
ATOM     90  F   UNL A   1      46.054  24.994  36.227  1.00  0.00    -0.200 F 
ATOM     91  C   UNL A   1      47.248  26.852  35.393  1.00  0.00     0.200 A 
ATOM     92  F   UNL A   1      48.397  28.736  34.549  1.00  0.00    -0.200 F 
ATOM     93  F   UNL A   1      48.361  26.432  36.011  1.00  0.00    -0.200 F 
ENDBRANCH  60  83
ENDBRANCH  34  35
ENDBRANCH  26  29
ENDBRANCH  24  25
ENDBRANCH  23  24
ENDBRANCH   1  23
TORSDOF 15
ENDMDL
MODEL 3
REMARK VINA RESULT:     -11.0      3.260      8.734
REMARK SMILES CCCC1(CCC)C[NH+]([C@H]2CCC[C@@H](C(=O)NCCCNC(=O)c3ccc(-c4c5nc(c(-c6c(F)c(F)c(F)c(F)c6F)c6ccc([nH]6)c(-c6c(F)c(F)c(F)c(F)c6F)c6nc(c(-c7c(F)c(F)c(F)c(F)c7F)c7ccc4[nH]7)C=C6)C=C5)cc3)C2)C1
REMARK SMILES IDX 18 1 17 2 15 3 16 4 14 6 10 7 11 8 87 9 12 10 13 11 9 12
REMARK SMILES IDX 4 13 8 14 88 15 3 17 2 18 1 19 5 20 6 21 7 22 19 23 20 24
REMARK SMILES IDX 21 25 22 26 23 28 24 29 25 30 86 31 26 32 85 33 27 34 28 35
REMARK SMILES IDX 29 36 79 37 30 38 84 39 78 40 80 41 31 42 83 43 77 44 76 45
REMARK SMILES IDX 32 47 64 48 44 49 63 50 45 51 48 52 62 53 81 54 46 55 47 56
REMARK SMILES IDX 61 58 82 59 49 60 33 61 34 62 42 63 35 64 36 65 40 66 43 67
REMARK SMILES IDX 37 68 38 69 41 70 39 71 65 72 66 73 74 74 67 75 68 76 72 77
REMARK SMILES IDX 75 78 69 79 70 80 73 81 71 82 50 83 51 84 59 85 52 86 53 87
REMARK SMILES IDX 57 88 60 89 54 90 55 91 58 92 56 93
REMARK H PARENT 17 5 9 16 21 27 80 46 48 57
REMARK Flexibility Score: inf
ROOT
ATOM      1  C   UNL A   1      33.915  27.730  24.399  1.00  0.00     0.117 C 
ENDROOT
BRANCH   1   2
ATOM      2  N   UNL A   1      33.618  26.503  23.457  1.00  0.00    -0.356 N 
ATOM      3  C   UNL A   1      32.801  25.743  22.640  1.00  0.00     0.223 C 
ATOM      4  O   UNL A   1      33.416  24.883  21.980  1.00  0.00    -0.275 OA
ATOM      5  H   UNL A   1      34.473  26.015  23.442  1.00  0.00     0.163 HD
BRANCH   3   6
ATOM      6  C   UNL A   1      31.251  25.738  22.375  1.00  0.00     0.084 C 
ATOM      7  C   UNL A   1      30.963  24.575  24.517  1.00  0.00     0.184 C 
ATOM      8  C   UNL A   1      30.681  26.220  24.974  1.00  0.00     0.065 C 
ATOM      9  C   UNL A   1      30.384  24.708  23.126  1.00  0.00     0.078 C 
ATOM     10  C   UNL A   1      30.984  27.447  24.042  1.00  0.00     0.007 C 
ATOM     11  C   UNL A   1      30.728  27.137  22.596  1.00  0.00     0.014 C 
BRANCH   7  12
ATOM     12  N   UNL A   1      32.259  23.825  24.309  1.00  0.00    -0.331 N 
ATOM     13  C   UNL A   1      33.969  22.476  24.324  1.00  0.00     0.068 C 
ATOM     14  C   UNL A   1      33.255  23.498  25.294  1.00  0.00     0.275 C 
ATOM     15  C   UNL A   1      32.476  22.494  23.677  1.00  0.00     0.275 C 
ATOM     16  H   UNL A   1      32.286  24.685  23.762  1.00  0.00     0.348 HD
BRANCH  13  17
ATOM     17  C   UNL A   1      35.260  23.171  23.733  1.00  0.00     0.018 C 
BRANCH  17  18
ATOM     18  C   UNL A   1      36.640  22.899  24.342  1.00  0.00    -0.002 C 
ATOM     19  C   UNL A   1      36.984  23.733  25.558  1.00  0.00     0.004 C 
ENDBRANCH  17  18
ENDBRANCH  13  17
BRANCH  13  20
ATOM     20  C   UNL A   1      34.407  21.298  25.253  1.00  0.00     0.018 C 
BRANCH  20  21
ATOM     21  C   UNL A   1      34.425  19.904  24.622  1.00  0.00    -0.002 C 
ATOM     22  C   UNL A   1      33.191  19.049  24.946  1.00  0.00     0.004 C 
ENDBRANCH  20  21
ENDBRANCH  13  20
ENDBRANCH   7  12
ENDBRANCH   3   6
ENDBRANCH   1   2
BRANCH   1  23
ATOM     23  C   UNL A   1      34.268  27.958  25.982  1.00  0.00     0.042 C 
BRANCH  23  24
ATOM     24  C   UNL A   1      33.436  28.483  27.222  1.00  0.00     0.118 C 
BRANCH  24  25
ATOM     25  N   UNL A   1      33.396  29.903  27.467  1.00  0.00    -0.352 N 
ATOM     26  C   UNL A   1      34.387  30.762  27.901  1.00  0.00     0.251 C 
ATOM     27  H   UNL A   1      32.523  30.329  27.299  1.00  0.00     0.163 HD
ATOM     28  O   UNL A   1      34.155  31.959  27.966  1.00  0.00    -0.269 OA
BRANCH  26  29
ATOM     29  C   UNL A   1      35.712  30.282  28.373  1.00  0.00     0.039 A 
ATOM     30  C   UNL A   1      36.743  30.255  27.428  1.00  0.00     0.014 A 
ATOM     31  C   UNL A   1      35.913  29.688  29.623  1.00  0.00     0.014 A 
ATOM     32  C   UNL A   1      37.990  29.712  27.755  1.00  0.00     0.010 A 
ATOM     33  C   UNL A   1      37.175  29.165  29.963  1.00  0.00     0.010 A 
ATOM     34  C   UNL A   1      38.230  29.203  29.041  1.00  0.00    -0.014 A 
BRANCH  34  35
ATOM     35  C   UNL A   1      39.623  28.856  29.436  1.00  0.00     0.031 A 
ATOM     36  C   UNL A   1      40.423  29.727  30.361  1.00  0.00     0.074 A 
ATOM     37  C   UNL A   1      40.147  27.721  28.931  1.00  0.00     0.049 A 
ATOM     38  N   UNL A   1      41.621  29.532  30.851  1.00  0.00    -0.248 NA
ATOM     39  C   UNL A   1      39.802  30.991  30.779  1.00  0.00     0.031 C 
ATOM     40  C   UNL A   1      39.450  26.832  27.996  1.00  0.00     0.029 A 
ATOM     41  N   UNL A   1      41.356  27.107  29.128  1.00  0.00    -0.354 N 
ATOM     42  C   UNL A   1      41.902  30.648  31.631  1.00  0.00     0.074 A 
ATOM     43  C   UNL A   1      40.764  31.534  31.515  1.00  0.00     0.031 C 
ATOM     44  C   UNL A   1      40.221  25.767  27.738  1.00  0.00     0.029 A 
ATOM     45  C   UNL A   1      41.482  25.913  28.455  1.00  0.00     0.049 A 
ATOM     46  H   UNL A   1      42.067  27.483  29.696  1.00  0.00     0.167 HD
ATOM     47  C   UNL A   1      43.007  30.895  32.379  1.00  0.00     0.037 A 
ATOM     48  C   UNL A   1      42.500  25.032  28.427  1.00  0.00     0.037 A 
ATOM     49  C   UNL A   1      44.127  29.989  32.466  1.00  0.00     0.049 A 
ATOM     50  C   UNL A   1      43.715  25.337  29.259  1.00  0.00     0.074 A 
ATOM     51  C   UNL A   1      45.283  30.103  33.217  1.00  0.00     0.029 A 
ATOM     52  N   UNL A   1      44.230  28.797  31.756  1.00  0.00    -0.354 N 
ATOM     53  N   UNL A   1      43.937  26.359  30.051  1.00  0.00    -0.248 NA
ATOM     54  C   UNL A   1      44.816  24.370  29.200  1.00  0.00     0.031 C 
ATOM     55  C   UNL A   1      46.110  29.015  32.914  1.00  0.00     0.029 A 
ATOM     56  C   UNL A   1      45.442  28.183  32.026  1.00  0.00     0.049 A 
ATOM     57  H   UNL A   1      43.541  28.441  31.150  1.00  0.00     0.167 HD
ATOM     58  C   UNL A   1      45.190  26.148  30.606  1.00  0.00     0.074 A 
ATOM     59  C   UNL A   1      45.669  24.887  30.074  1.00  0.00     0.031 C 
ATOM     60  C   UNL A   1      45.885  26.924  31.476  1.00  0.00     0.037 A 
BRANCH  47  61
ATOM     61  C   UNL A   1      43.071  32.202  33.127  1.00  0.00     0.064 A 
ATOM     62  C   UNL A   1      42.601  32.326  34.445  1.00  0.00     0.173 A 
ATOM     63  C   UNL A   1      43.613  33.347  32.522  1.00  0.00     0.173 A 
ATOM     64  F   UNL A   1      42.071  31.268  35.076  1.00  0.00    -0.203 F 
ATOM     65  C   UNL A   1      42.625  33.554  35.107  1.00  0.00     0.198 A 
ATOM     66  C   UNL A   1      43.666  34.565  33.198  1.00  0.00     0.198 A 
ATOM     67  F   UNL A   1      44.091  33.290  31.270  1.00  0.00    -0.203 F 
ATOM     68  F   UNL A   1      42.108  33.659  36.339  1.00  0.00    -0.200 F 
ATOM     69  C   UNL A   1      43.160  34.672  34.484  1.00  0.00     0.200 A 
ATOM     70  F   UNL A   1      44.198  35.640  32.600  1.00  0.00    -0.200 F 
ATOM     71  F   UNL A   1      43.177  35.852  35.119  1.00  0.00    -0.200 F 
ENDBRANCH  47  61
BRANCH  48  72
ATOM     72  C   UNL A   1      42.393  23.782  27.627  1.00  0.00     0.064 A 
ATOM     73  C   UNL A   1      42.806  23.741  26.287  1.00  0.00     0.173 A 
ATOM     74  C   UNL A   1      41.891  22.593  28.183  1.00  0.00     0.173 A 
ATOM     75  F   UNL A   1      43.283  24.850  25.701  1.00  0.00    -0.203 F 
ATOM     76  C   UNL A   1      42.705  22.573  25.531  1.00  0.00     0.198 A 
ATOM     77  C   UNL A   1      41.820  21.418  27.437  1.00  0.00     0.198 A 
ATOM     78  F   UNL A   1      41.490  22.568  29.462  1.00  0.00    -0.203 F 
ATOM     79  F   UNL A   1      43.070  22.577  24.242  1.00  0.00    -0.200 F 
ATOM     80  C   UNL A   1      42.219  21.410  26.109  1.00  0.00     0.200 A 
ATOM     81  F   UNL A   1      41.370  20.291  28.006  1.00  0.00    -0.200 F 
ATOM     82  F   UNL A   1      42.131  20.286  25.386  1.00  0.00    -0.200 F 
ENDBRANCH  48  72
BRANCH  60  83
ATOM     83  C   UNL A   1      47.222  26.407  31.922  1.00  0.00     0.064 A 
ATOM     84  C   UNL A   1      47.351  25.549  33.023  1.00  0.00     0.173 A 
ATOM     85  C   UNL A   1      48.384  26.748  31.211  1.00  0.00     0.173 A 
ATOM     86  F   UNL A   1      46.273  25.209  33.746  1.00  0.00    -0.203 F 
ATOM     87  C   UNL A   1      48.599  25.073  33.415  1.00  0.00     0.198 A 
ATOM     88  C   UNL A   1      49.623  26.240  31.583  1.00  0.00     0.198 A 
ATOM     89  F   UNL A   1      48.312  27.561  30.147  1.00  0.00    -0.203 F 
ATOM     90  F   UNL A   1      48.707  24.301  34.505  1.00  0.00    -0.200 F 
ATOM     91  C   UNL A   1      49.731  25.411  32.689  1.00  0.00     0.200 A 
ATOM     92  F   UNL A   1      50.714  26.553  30.870  1.00  0.00    -0.200 F 
ATOM     93  F   UNL A   1      50.931  24.943  33.062  1.00  0.00    -0.200 F 
ENDBRANCH  60  83
ENDBRANCH  34  35
ENDBRANCH  26  29
ENDBRANCH  24  25
ENDBRANCH  23  24
ENDBRANCH   1  23
TORSDOF 15
ENDMDL
