MODEL 1
REMARK VINA RESULT:     -12.8      0.000      0.000
REMARK SMILES O=C(/C=C/c1ccc(Br)cc1-n1ccnc1)NCCCNC(=O)c1ccc(-c2c3nc(c(-c4c(F)c(F)c(F)c(F)c4F)c4ccc([nH]4)c(-c4c(F)c(F)c(F)c(F)c4F)c4nc(c(-c5c(F)c(F)c(F)c(F)c5F)c5ccc2[nH]5)C=C4)C=C3)cc1
REMARK SMILES IDX 19 1 18 2 17 3 1 4 2 5 3 7 4 8 5 9 6 10 11 11 7 12 10 13
REMARK SMILES IDX 8 14 9 15 12 16 13 17 16 18 14 19 15 20 20 21 21 22 22 23
REMARK SMILES IDX 23 25 24 26 25 27 86 28 26 29 85 30 27 31 28 32 29 33 79 34
REMARK SMILES IDX 30 35 84 36 78 37 80 38 31 39 83 40 77 41 76 42 32 44 64 45
REMARK SMILES IDX 44 46 63 47 45 48 48 49 62 50 81 51 46 52 47 53 61 55 82 56
REMARK SMILES IDX 49 57 33 58 34 59 42 60 35 61 36 62 40 63 43 64 37 65 38 66
REMARK SMILES IDX 41 67 39 68 65 69 66 70 74 71 67 72 68 73 72 74 75 75 69 76
REMARK SMILES IDX 70 77 73 78 71 79 50 80 51 81 59 82 52 83 53 84 57 85 60 86
REMARK SMILES IDX 54 87 55 88 58 89 56 90
REMARK H PARENT 17 6 21 24 80 43 48 54
REMARK Flexibility Score: inf
ROOT
ATOM      1  C   UNL A   1      37.755  21.739  25.268  1.00  0.00     0.042 C 
ENDROOT
BRANCH   1   2
ATOM      2  C   UNL A   1      36.287  21.830  25.698  1.00  0.00     0.118 C 
BRANCH   2   3
ATOM      3  N   UNL A   1      35.737  23.180  25.665  1.00  0.00    -0.352 N 
ATOM      4  O   UNL A   1      33.537  22.533  25.667  1.00  0.00    -0.270 OA
ATOM      5  C   UNL A   1      34.386  23.418  25.695  1.00  0.00     0.244 C 
ATOM      6  H   UNL A   1      36.355  23.945  25.620  1.00  0.00     0.163 HD
BRANCH   5   7
ATOM      7  C   UNL A   1      33.931  24.837  25.782  1.00  0.00     0.072 C 
ATOM      8  C   UNL A   1      32.686  25.292  25.597  1.00  0.00     0.016 C 
BRANCH   8   9
ATOM      9  C   UNL A   1      32.288  26.700  25.777  1.00  0.00    -0.001 A 
ATOM     10  C   UNL A   1      31.996  27.218  27.045  1.00  0.00     0.011 A 
ATOM     11  C   UNL A   1      32.348  27.601  24.700  1.00  0.00     0.055 A 
ATOM     12  C   UNL A   1      31.785  28.592  27.224  1.00  0.00     0.016 A 
ATOM     13  C   UNL A   1      32.202  28.980  24.877  1.00  0.00     0.043 A 
ATOM     14  C   UNL A   1      31.903  29.466  26.144  1.00  0.00     0.020 A 
ATOM     15  Br  UNL A   1      31.639  31.322  26.392  1.00  0.00    -0.051 Br
BRANCH  11  16
ATOM     16  N   UNL A   1      32.541  27.109  23.402  1.00  0.00    -0.306 N 
ATOM     17  C   UNL A   1      31.744  26.222  22.725  1.00  0.00     0.113 A 
ATOM     18  C   UNL A   1      33.670  27.279  22.656  1.00  0.00     0.204 A 
ATOM     19  C   UNL A   1      32.416  25.942  21.560  1.00  0.00     0.131 A 
ATOM     20  N   UNL A   1      33.631  26.567  21.552  1.00  0.00    -0.245 NA
ENDBRANCH  11  16
ENDBRANCH   8   9
ENDBRANCH   5   7
ENDBRANCH   2   3
ENDBRANCH   1   2
BRANCH   1  21
ATOM     21  C   UNL A   1      38.688  22.598  26.109  1.00  0.00     0.118 C 
BRANCH  21  22
ATOM     22  N   UNL A   1      40.077  22.111  26.172  1.00  0.00    -0.352 N 
ATOM     23  C   UNL A   1      41.266  22.834  26.263  1.00  0.00     0.251 C 
ATOM     24  H   UNL A   1      40.180  21.132  26.143  1.00  0.00     0.163 HD
ATOM     25  O   UNL A   1      42.332  22.322  25.978  1.00  0.00    -0.269 OA
BRANCH  23  26
ATOM     26  C   UNL A   1      41.217  24.235  26.736  1.00  0.00     0.039 A 
ATOM     27  C   UNL A   1      40.441  25.239  26.140  1.00  0.00     0.014 A 
ATOM     28  C   UNL A   1      41.977  24.532  27.849  1.00  0.00     0.014 A 
ATOM     29  C   UNL A   1      40.444  26.521  26.706  1.00  0.00     0.010 A 
ATOM     30  C   UNL A   1      41.696  25.648  28.570  1.00  0.00     0.010 A 
ATOM     31  C   UNL A   1      41.100  26.713  27.927  1.00  0.00    -0.014 A 
BRANCH  31  32
ATOM     32  C   UNL A   1      41.144  27.959  28.682  1.00  0.00     0.031 A 
ATOM     33  C   UNL A   1      42.219  28.874  28.227  1.00  0.00     0.074 A 
ATOM     34  C   UNL A   1      40.089  28.365  29.436  1.00  0.00     0.049 A 
ATOM     35  N   UNL A   1      43.269  29.249  28.879  1.00  0.00    -0.248 NA
ATOM     36  C   UNL A   1      42.229  29.274  26.807  1.00  0.00     0.031 C 
ATOM     37  C   UNL A   1      38.809  27.677  29.672  1.00  0.00     0.029 A 
ATOM     38  N   UNL A   1      39.892  29.552  30.082  1.00  0.00    -0.354 N 
ATOM     39  C   UNL A   1      43.947  30.112  28.021  1.00  0.00     0.074 A 
ATOM     40  C   UNL A   1      43.421  29.863  26.708  1.00  0.00     0.031 C 
ATOM     41  C   UNL A   1      37.915  28.537  30.220  1.00  0.00     0.029 A 
ATOM     42  C   UNL A   1      38.576  29.797  30.489  1.00  0.00     0.049 A 
ATOM     43  H   UNL A   1      40.624  30.189  30.249  1.00  0.00     0.167 HD
ATOM     44  C   UNL A   1      44.639  31.180  28.508  1.00  0.00     0.037 A 
ATOM     45  C   UNL A   1      38.088  30.978  30.966  1.00  0.00     0.037 A 
ATOM     46  C   UNL A   1      44.871  31.027  29.925  1.00  0.00     0.049 A 
ATOM     47  C   UNL A   1      39.254  31.792  31.376  1.00  0.00     0.074 A 
ATOM     48  C   UNL A   1      45.499  30.079  30.712  1.00  0.00     0.029 A 
ATOM     49  N   UNL A   1      44.062  31.736  30.781  1.00  0.00    -0.354 N 
ATOM     50  N   UNL A   1      40.016  31.482  32.387  1.00  0.00    -0.248 NA
ATOM     51  C   UNL A   1      39.858  32.639  30.359  1.00  0.00     0.031 C 
ATOM     52  C   UNL A   1      44.666  29.943  31.862  1.00  0.00     0.029 A 
ATOM     53  C   UNL A   1      43.634  30.875  31.759  1.00  0.00     0.049 A 
ATOM     54  H   UNL A   1      43.830  32.689  30.706  1.00  0.00     0.167 HD
ATOM     55  C   UNL A   1      41.302  31.713  31.928  1.00  0.00     0.074 A 
ATOM     56  C   UNL A   1      41.142  32.482  30.693  1.00  0.00     0.031 C 
ATOM     57  C   UNL A   1      42.356  30.993  32.413  1.00  0.00     0.037 A 
BRANCH  44  58
ATOM     58  C   UNL A   1      44.737  32.528  27.818  1.00  0.00     0.064 A 
ATOM     59  C   UNL A   1      45.917  32.829  27.105  1.00  0.00     0.173 A 
ATOM     60  C   UNL A   1      43.884  33.630  28.053  1.00  0.00     0.173 A 
ATOM     61  F   UNL A   1      46.806  31.867  26.817  1.00  0.00    -0.203 F 
ATOM     62  C   UNL A   1      46.260  34.139  26.756  1.00  0.00     0.198 A 
ATOM     63  C   UNL A   1      44.206  34.927  27.655  1.00  0.00     0.198 A 
ATOM     64  F   UNL A   1      42.757  33.541  28.764  1.00  0.00    -0.203 F 
ATOM     65  F   UNL A   1      47.455  34.386  26.205  1.00  0.00    -0.200 F 
ATOM     66  C   UNL A   1      45.410  35.188  27.041  1.00  0.00     0.200 A 
ATOM     67  F   UNL A   1      43.367  35.932  27.951  1.00  0.00    -0.200 F 
ATOM     68  F   UNL A   1      45.764  36.450  26.769  1.00  0.00    -0.200 F 
ENDBRANCH  44  58
BRANCH  45  69
ATOM     69  C   UNL A   1      36.779  31.627  30.697  1.00  0.00     0.064 A 
ATOM     70  C   UNL A   1      35.943  32.135  31.703  1.00  0.00     0.173 A 
ATOM     71  C   UNL A   1      36.485  32.049  29.391  1.00  0.00     0.173 A 
ATOM     72  F   UNL A   1      36.226  31.902  32.992  1.00  0.00    -0.203 F 
ATOM     73  C   UNL A   1      34.843  32.958  31.401  1.00  0.00     0.198 A 
ATOM     74  C   UNL A   1      35.380  32.844  29.082  1.00  0.00     0.198 A 
ATOM     75  F   UNL A   1      37.357  31.812  28.410  1.00  0.00    -0.203 F 
ATOM     76  F   UNL A   1      34.097  33.471  32.388  1.00  0.00    -0.200 F 
ATOM     77  C   UNL A   1      34.553  33.296  30.088  1.00  0.00     0.200 A 
ATOM     78  F   UNL A   1      35.160  33.211  27.811  1.00  0.00    -0.200 F 
ATOM     79  F   UNL A   1      33.518  34.096  29.796  1.00  0.00    -0.200 F 
ENDBRANCH  45  69
BRANCH  57  80
ATOM     80  C   UNL A   1      42.102  30.091  33.589  1.00  0.00     0.064 A 
ATOM     81  C   UNL A   1      41.758  28.730  33.485  1.00  0.00     0.173 A 
ATOM     82  C   UNL A   1      42.370  30.586  34.869  1.00  0.00     0.173 A 
ATOM     83  F   UNL A   1      41.578  28.154  32.293  1.00  0.00    -0.203 F 
ATOM     84  C   UNL A   1      41.654  27.916  34.612  1.00  0.00     0.198 A 
ATOM     85  C   UNL A   1      42.298  29.765  35.991  1.00  0.00     0.198 A 
ATOM     86  F   UNL A   1      42.753  31.862  35.025  1.00  0.00    -0.203 F 
ATOM     87  F   UNL A   1      41.319  26.624  34.483  1.00  0.00    -0.200 F 
ATOM     88  C   UNL A   1      41.933  28.434  35.865  1.00  0.00     0.200 A 
ATOM     89  F   UNL A   1      42.616  30.259  37.195  1.00  0.00    -0.200 F 
ATOM     90  F   UNL A   1      41.877  27.645  36.947  1.00  0.00    -0.200 F 
ENDBRANCH  57  80
ENDBRANCH  31  32
ENDBRANCH  23  26
ENDBRANCH  21  22
ENDBRANCH   1  21
TORSDOF 12
ENDMDL
MODEL 2
REMARK VINA RESULT:     -12.8      1.203      1.756
REMARK SMILES O=C(/C=C/c1ccc(Br)cc1-n1ccnc1)NCCCNC(=O)c1ccc(-c2c3nc(c(-c4c(F)c(F)c(F)c(F)c4F)c4ccc([nH]4)c(-c4c(F)c(F)c(F)c(F)c4F)c4nc(c(-c5c(F)c(F)c(F)c(F)c5F)c5ccc2[nH]5)C=C4)C=C3)cc1
REMARK SMILES IDX 19 1 18 2 17 3 1 4 2 5 3 7 4 8 5 9 6 10 11 11 7 12 10 13
REMARK SMILES IDX 8 14 9 15 12 16 13 17 16 18 14 19 15 20 20 21 21 22 22 23
REMARK SMILES IDX 23 25 24 26 25 27 86 28 26 29 85 30 27 31 28 32 29 33 79 34
REMARK SMILES IDX 30 35 84 36 78 37 80 38 31 39 83 40 77 41 76 42 32 44 64 45
REMARK SMILES IDX 44 46 63 47 45 48 48 49 62 50 81 51 46 52 47 53 61 55 82 56
REMARK SMILES IDX 49 57 33 58 34 59 42 60 35 61 36 62 40 63 43 64 37 65 38 66
REMARK SMILES IDX 41 67 39 68 65 69 66 70 74 71 67 72 68 73 72 74 75 75 69 76
REMARK SMILES IDX 70 77 73 78 71 79 50 80 51 81 59 82 52 83 53 84 57 85 60 86
REMARK SMILES IDX 54 87 55 88 58 89 56 90
REMARK H PARENT 17 6 21 24 80 43 48 54
REMARK Flexibility Score: inf
ROOT
ATOM      1  C   UNL A   1      36.613  22.060  24.240  1.00  0.00     0.042 C 
ENDROOT
BRANCH   1   2
ATOM      2  C   UNL A   1      35.179  21.861  24.743  1.00  0.00     0.118 C 
BRANCH   2   3
ATOM      3  N   UNL A   1      34.442  23.101  24.952  1.00  0.00    -0.352 N 
ATOM      4  O   UNL A   1      33.798  22.628  27.102  1.00  0.00    -0.270 OA
ATOM      5  C   UNL A   1      33.840  23.400  26.149  1.00  0.00     0.244 C 
ATOM      6  H   UNL A   1      34.373  23.745  24.210  1.00  0.00     0.163 HD
BRANCH   5   7
ATOM      7  C   UNL A   1      33.216  24.748  26.297  1.00  0.00     0.072 C 
ATOM      8  C   UNL A   1      33.627  25.887  25.728  1.00  0.00     0.016 C 
BRANCH   8   9
ATOM      9  C   UNL A   1      32.916  27.173  25.853  1.00  0.00    -0.001 A 
ATOM     10  C   UNL A   1      32.720  27.779  27.099  1.00  0.00     0.011 A 
ATOM     11  C   UNL A   1      32.555  27.902  24.707  1.00  0.00     0.055 A 
ATOM     12  C   UNL A   1      32.194  29.075  27.189  1.00  0.00     0.016 A 
ATOM     13  C   UNL A   1      32.090  29.218  24.780  1.00  0.00     0.043 A 
ATOM     14  C   UNL A   1      31.896  29.792  26.031  1.00  0.00     0.020 A 
ATOM     15  Br  UNL A   1      31.207  31.549  26.153  1.00  0.00    -0.051 Br
BRANCH  11  16
ATOM     16  N   UNL A   1      32.645  27.293  23.448  1.00  0.00    -0.306 N 
ATOM     17  C   UNL A   1      31.803  26.345  22.924  1.00  0.00     0.113 A 
ATOM     18  C   UNL A   1      33.707  27.396  22.597  1.00  0.00     0.204 A 
ATOM     19  C   UNL A   1      32.379  25.961  21.737  1.00  0.00     0.131 A 
ATOM     20  N   UNL A   1      33.583  26.585  21.571  1.00  0.00    -0.245 NA
ENDBRANCH  11  16
ENDBRANCH   8   9
ENDBRANCH   5   7
ENDBRANCH   2   3
ENDBRANCH   1   2
BRANCH   1  21
ATOM     21  C   UNL A   1      37.520  22.751  25.248  1.00  0.00     0.118 C 
BRANCH  21  22
ATOM     22  N   UNL A   1      38.430  21.846  25.971  1.00  0.00    -0.352 N 
ATOM     23  C   UNL A   1      39.589  22.143  26.688  1.00  0.00     0.251 C 
ATOM     24  H   UNL A   1      38.185  20.893  25.942  1.00  0.00     0.163 HD
ATOM     25  O   UNL A   1      40.402  21.277  26.947  1.00  0.00    -0.269 OA
BRANCH  23  26
ATOM     26  C   UNL A   1      39.808  23.531  27.152  1.00  0.00     0.039 A 
ATOM     27  C   UNL A   1      38.853  24.554  27.049  1.00  0.00     0.014 A 
ATOM     28  C   UNL A   1      41.028  23.795  27.739  1.00  0.00     0.014 A 
ATOM     29  C   UNL A   1      39.162  25.820  27.566  1.00  0.00     0.010 A 
ATOM     30  C   UNL A   1      41.167  24.892  28.527  1.00  0.00     0.010 A 
ATOM     31  C   UNL A   1      40.346  25.976  28.294  1.00  0.00    -0.014 A 
BRANCH  31  32
ATOM     32  C   UNL A   1      40.784  27.200  28.952  1.00  0.00     0.031 A 
ATOM     33  C   UNL A   1      41.989  27.795  28.324  1.00  0.00     0.074 A 
ATOM     34  C   UNL A   1      39.959  27.890  29.783  1.00  0.00     0.049 A 
ATOM     35  N   UNL A   1      43.170  27.920  28.835  1.00  0.00    -0.248 NA
ATOM     36  C   UNL A   1      41.928  28.122  26.886  1.00  0.00     0.031 C 
ATOM     37  C   UNL A   1      38.588  27.557  30.200  1.00  0.00     0.029 A 
ATOM     38  N   UNL A   1      40.139  29.113  30.363  1.00  0.00    -0.354 N 
ATOM     39  C   UNL A   1      43.931  28.549  27.852  1.00  0.00     0.074 A 
ATOM     40  C   UNL A   1      43.207  28.386  26.623  1.00  0.00     0.031 C 
ATOM     41  C   UNL A   1      38.004  28.637  30.777  1.00  0.00     0.029 A 
ATOM     42  C   UNL A   1      38.981  29.699  30.887  1.00  0.00     0.049 A 
ATOM     43  H   UNL A   1      41.019  29.552  30.407  1.00  0.00     0.167 HD
ATOM     44  C   UNL A   1      44.918  29.427  28.188  1.00  0.00     0.037 A 
ATOM     45  C   UNL A   1      38.859  30.983  31.330  1.00  0.00     0.037 A 
ATOM     46  C   UNL A   1      45.272  29.279  29.581  1.00  0.00     0.049 A 
ATOM     47  C   UNL A   1      40.230  31.493  31.558  1.00  0.00     0.074 A 
ATOM     48  C   UNL A   1      45.736  28.236  30.360  1.00  0.00     0.029 A 
ATOM     49  N   UNL A   1      44.770  30.203  30.465  1.00  0.00    -0.354 N 
ATOM     50  N   UNL A   1      41.007  31.043  32.502  1.00  0.00    -0.248 NA
ATOM     51  C   UNL A   1      40.897  32.119  30.426  1.00  0.00     0.031 C 
ATOM     52  C   UNL A   1      45.039  28.361  31.598  1.00  0.00     0.029 A 
ATOM     53  C   UNL A   1      44.264  29.518  31.540  1.00  0.00     0.049 A 
ATOM     54  H   UNL A   1      44.772  31.180  30.349  1.00  0.00     0.167 HD
ATOM     55  C   UNL A   1      42.247  30.923  31.896  1.00  0.00     0.074 A 
ATOM     56  C   UNL A   1      42.133  31.657  30.634  1.00  0.00     0.031 C 
ATOM     57  C   UNL A   1      43.141  29.982  32.316  1.00  0.00     0.037 A 
BRANCH  44  58
ATOM     58  C   UNL A   1      45.261  30.677  27.400  1.00  0.00     0.064 A 
ATOM     59  C   UNL A   1      46.610  30.896  27.050  1.00  0.00     0.173 A 
ATOM     60  C   UNL A   1      44.410  31.792  27.225  1.00  0.00     0.173 A 
ATOM     61  F   UNL A   1      47.516  29.914  27.168  1.00  0.00    -0.203 F 
ATOM     62  C   UNL A   1      47.082  32.154  26.663  1.00  0.00     0.198 A 
ATOM     63  C   UNL A   1      44.876  33.031  26.787  1.00  0.00     0.198 A 
ATOM     64  F   UNL A   1      43.118  31.783  27.564  1.00  0.00    -0.203 F 
ATOM     65  F   UNL A   1      48.395  32.341  26.477  1.00  0.00    -0.200 F 
ATOM     66  C   UNL A   1      46.217  33.224  26.543  1.00  0.00     0.200 A 
ATOM     67  F   UNL A   1      44.018  34.057  26.687  1.00  0.00    -0.200 F 
ATOM     68  F   UNL A   1      46.674  34.444  26.238  1.00  0.00    -0.200 F 
ENDBRANCH  44  58
BRANCH  45  69
ATOM     69  C   UNL A   1      37.727  31.930  31.156  1.00  0.00     0.064 A 
ATOM     70  C   UNL A   1      37.387  32.516  29.928  1.00  0.00     0.173 A 
ATOM     71  C   UNL A   1      36.751  32.015  32.161  1.00  0.00     0.173 A 
ATOM     72  F   UNL A   1      38.192  32.366  28.867  1.00  0.00    -0.203 F 
ATOM     73  C   UNL A   1      36.172  33.201  29.750  1.00  0.00     0.198 A 
ATOM     74  C   UNL A   1      35.555  32.716  32.000  1.00  0.00     0.198 A 
ATOM     75  F   UNL A   1      36.886  31.290  33.273  1.00  0.00    -0.203 F 
ATOM     76  F   UNL A   1      35.853  33.702  28.549  1.00  0.00    -0.200 F 
ATOM     77  C   UNL A   1      35.266  33.316  30.793  1.00  0.00     0.200 A 
ATOM     78  F   UNL A   1      34.666  32.755  33.003  1.00  0.00    -0.200 F 
ATOM     79  F   UNL A   1      34.098  33.950  30.623  1.00  0.00    -0.200 F 
ENDBRANCH  45  69
BRANCH  57  80
ATOM     80  C   UNL A   1      42.815  29.221  33.572  1.00  0.00     0.064 A 
ATOM     81  C   UNL A   1      42.101  28.009  33.602  1.00  0.00     0.173 A 
ATOM     82  C   UNL A   1      43.383  29.658  34.772  1.00  0.00     0.173 A 
ATOM     83  F   UNL A   1      41.606  27.472  32.483  1.00  0.00    -0.203 F 
ATOM     84  C   UNL A   1      41.935  27.290  34.785  1.00  0.00     0.198 A 
ATOM     85  C   UNL A   1      43.246  28.923  35.946  1.00  0.00     0.198 A 
ATOM     86  F   UNL A   1      44.119  30.780  34.794  1.00  0.00    -0.203 F 
ATOM     87  F   UNL A   1      41.244  26.140  34.785  1.00  0.00    -0.200 F 
ATOM     88  C   UNL A   1      42.516  27.745  35.955  1.00  0.00     0.200 A 
ATOM     89  F   UNL A   1      43.850  29.344  37.065  1.00  0.00    -0.200 F 
ATOM     90  F   UNL A   1      42.397  27.036  37.087  1.00  0.00    -0.200 F 
ENDBRANCH  57  80
ENDBRANCH  31  32
ENDBRANCH  23  26
ENDBRANCH  21  22
ENDBRANCH   1  21
TORSDOF 12
ENDMDL
MODEL 3
REMARK VINA RESULT:     -12.7      3.500      8.827
REMARK SMILES O=C(/C=C/c1ccc(Br)cc1-n1ccnc1)NCCCNC(=O)c1ccc(-c2c3nc(c(-c4c(F)c(F)c(F)c(F)c4F)c4ccc([nH]4)c(-c4c(F)c(F)c(F)c(F)c4F)c4nc(c(-c5c(F)c(F)c(F)c(F)c5F)c5ccc2[nH]5)C=C4)C=C3)cc1
REMARK SMILES IDX 19 1 18 2 17 3 1 4 2 5 3 7 4 8 5 9 6 10 11 11 7 12 10 13
REMARK SMILES IDX 8 14 9 15 12 16 13 17 16 18 14 19 15 20 20 21 21 22 22 23
REMARK SMILES IDX 23 25 24 26 25 27 86 28 26 29 85 30 27 31 28 32 29 33 79 34
REMARK SMILES IDX 30 35 84 36 78 37 80 38 31 39 83 40 77 41 76 42 32 44 64 45
REMARK SMILES IDX 44 46 63 47 45 48 48 49 62 50 81 51 46 52 47 53 61 55 82 56
REMARK SMILES IDX 49 57 33 58 34 59 42 60 35 61 36 62 40 63 43 64 37 65 38 66
REMARK SMILES IDX 41 67 39 68 65 69 66 70 74 71 67 72 68 73 72 74 75 75 69 76
REMARK SMILES IDX 70 77 73 78 71 79 50 80 51 81 59 82 52 83 53 84 57 85 60 86
REMARK SMILES IDX 54 87 55 88 58 89 56 90
REMARK H PARENT 17 6 21 24 80 43 48 54
REMARK Flexibility Score: inf
ROOT
ATOM      1  C   UNL A   1      33.275  30.501  27.230  1.00  0.00     0.042 C 
ENDROOT
BRANCH   1   2
ATOM      2  C   UNL A   1      33.319  29.823  25.857  1.00  0.00     0.118 C 
BRANCH   2   3
ATOM      3  N   UNL A   1      33.935  28.502  25.862  1.00  0.00    -0.352 N 
ATOM      4  O   UNL A   1      31.966  27.329  25.958  1.00  0.00    -0.270 OA
ATOM      5  C   UNL A   1      33.190  27.349  25.870  1.00  0.00     0.244 C 
ATOM      6  H   UNL A   1      34.917  28.434  25.861  1.00  0.00     0.163 HD
BRANCH   5   7
ATOM      7  C   UNL A   1      33.915  26.050  25.751  1.00  0.00     0.072 C 
ATOM      8  C   UNL A   1      33.750  25.125  24.798  1.00  0.00     0.016 C 
BRANCH   8   9
ATOM      9  C   UNL A   1      34.559  23.896  24.694  1.00  0.00    -0.001 A 
ATOM     10  C   UNL A   1      35.819  23.904  24.085  1.00  0.00     0.011 A 
ATOM     11  C   UNL A   1      34.153  22.719  25.345  1.00  0.00     0.055 A 
ATOM     12  C   UNL A   1      36.647  22.774  24.141  1.00  0.00     0.016 A 
ATOM     13  C   UNL A   1      34.995  21.609  25.463  1.00  0.00     0.043 A 
ATOM     14  C   UNL A   1      36.237  21.640  24.841  1.00  0.00     0.020 A 
ATOM     15  Br  UNL A   1      37.364  20.125  24.934  1.00  0.00    -0.051 Br
BRANCH  11  16
ATOM     16  N   UNL A   1      32.861  22.639  25.881  1.00  0.00    -0.306 N 
ATOM     17  C   UNL A   1      31.690  22.438  25.196  1.00  0.00     0.113 A 
ATOM     18  C   UNL A   1      32.521  22.947  27.166  1.00  0.00     0.204 A 
ATOM     19  C   UNL A   1      30.692  22.579  26.128  1.00  0.00     0.131 A 
ATOM     20  N   UNL A   1      31.218  22.942  27.335  1.00  0.00    -0.245 NA
ENDBRANCH  11  16
ENDBRANCH   8   9
ENDBRANCH   5   7
ENDBRANCH   2   3
ENDBRANCH   1   2
BRANCH   1  21
ATOM     21  C   UNL A   1      34.585  31.168  27.620  1.00  0.00     0.118 C 
BRANCH  21  22
ATOM     22  N   UNL A   1      34.495  32.052  28.795  1.00  0.00    -0.352 N 
ATOM     23  C   UNL A   1      35.161  31.970  30.018  1.00  0.00     0.251 C 
ATOM     24  H   UNL A   1      33.873  32.810  28.705  1.00  0.00     0.163 HD
ATOM     25  O   UNL A   1      34.749  32.565  30.995  1.00  0.00    -0.269 OA
BRANCH  23  26
ATOM     26  C   UNL A   1      36.397  31.161  30.107  1.00  0.00     0.039 A 
ATOM     27  C   UNL A   1      36.416  29.762  30.198  1.00  0.00     0.014 A 
ATOM     28  C   UNL A   1      37.588  31.857  30.071  1.00  0.00     0.014 A 
ATOM     29  C   UNL A   1      37.653  29.103  30.233  1.00  0.00     0.010 A 
ATOM     30  C   UNL A   1      38.734  31.202  29.754  1.00  0.00     0.010 A 
ATOM     31  C   UNL A   1      38.816  29.852  30.024  1.00  0.00    -0.014 A 
BRANCH  31  32
ATOM     32  C   UNL A   1      40.171  29.318  29.962  1.00  0.00     0.031 A 
ATOM     33  C   UNL A   1      40.775  29.116  31.302  1.00  0.00     0.074 A 
ATOM     34  C   UNL A   1      40.648  28.731  28.833  1.00  0.00     0.049 A 
ATOM     35  N   UNL A   1      41.785  29.735  31.818  1.00  0.00    -0.248 NA
ATOM     36  C   UNL A   1      40.056  28.254  32.261  1.00  0.00     0.031 C 
ATOM     37  C   UNL A   1      39.981  28.564  27.533  1.00  0.00     0.029 A 
ATOM     38  N   UNL A   1      41.817  28.053  28.637  1.00  0.00    -0.354 N 
ATOM     39  C   UNL A   1      41.957  29.171  33.080  1.00  0.00     0.074 A 
ATOM     40  C   UNL A   1      40.727  28.496  33.386  1.00  0.00     0.031 C 
ATOM     41  C   UNL A   1      40.660  27.668  26.775  1.00  0.00     0.029 A 
ATOM     42  C   UNL A   1      41.870  27.283  27.471  1.00  0.00     0.049 A 
ATOM     43  H   UNL A   1      42.568  28.103  29.272  1.00  0.00     0.167 HD
ATOM     44  C   UNL A   1      43.202  29.029  33.617  1.00  0.00     0.037 A 
ATOM     45  C   UNL A   1      42.832  26.370  27.152  1.00  0.00     0.037 A 
ATOM     46  C   UNL A   1      44.153  29.856  32.913  1.00  0.00     0.049 A 
ATOM     47  C   UNL A   1      43.997  26.649  28.022  1.00  0.00     0.074 A 
ATOM     48  C   UNL A   1      44.262  31.211  32.657  1.00  0.00     0.029 A 
ATOM     49  N   UNL A   1      44.972  29.243  31.995  1.00  0.00    -0.354 N 
ATOM     50  N   UNL A   1      44.720  27.728  27.915  1.00  0.00    -0.248 NA
ATOM     51  C   UNL A   1      44.026  25.987  29.317  1.00  0.00     0.031 C 
ATOM     52  C   UNL A   1      44.723  31.296  31.310  1.00  0.00     0.029 A 
ATOM     53  C   UNL A   1      44.958  30.001  30.853  1.00  0.00     0.049 A 
ATOM     54  H   UNL A   1      45.477  28.410  32.132  1.00  0.00     0.167 HD
ATOM     55  C   UNL A   1      44.935  28.126  29.224  1.00  0.00     0.074 A 
ATOM     56  C   UNL A   1      44.535  26.984  30.047  1.00  0.00     0.031 C 
ATOM     57  C   UNL A   1      45.110  29.444  29.532  1.00  0.00     0.037 A 
BRANCH  44  58
ATOM     58  C   UNL A   1      43.637  27.857  34.478  1.00  0.00     0.064 A 
ATOM     59  C   UNL A   1      43.584  26.562  33.919  1.00  0.00     0.173 A 
ATOM     60  C   UNL A   1      43.821  27.896  35.878  1.00  0.00     0.173 A 
ATOM     61  F   UNL A   1      43.416  26.393  32.599  1.00  0.00    -0.203 F 
ATOM     62  C   UNL A   1      43.604  25.411  34.711  1.00  0.00     0.198 A 
ATOM     63  C   UNL A   1      43.894  26.742  36.659  1.00  0.00     0.198 A 
ATOM     64  F   UNL A   1      43.832  29.031  36.581  1.00  0.00    -0.203 F 
ATOM     65  F   UNL A   1      43.410  24.213  34.144  1.00  0.00    -0.200 F 
ATOM     66  C   UNL A   1      43.748  25.501  36.081  1.00  0.00     0.200 A 
ATOM     67  F   UNL A   1      44.025  26.856  37.989  1.00  0.00    -0.200 F 
ATOM     68  F   UNL A   1      43.700  24.406  36.849  1.00  0.00    -0.200 F 
ENDBRANCH  44  58
BRANCH  45  69
ATOM     69  C   UNL A   1      42.683  25.041  26.503  1.00  0.00     0.064 A 
ATOM     70  C   UNL A   1      43.477  24.609  25.431  1.00  0.00     0.173 A 
ATOM     71  C   UNL A   1      41.953  24.040  27.162  1.00  0.00     0.173 A 
ATOM     72  F   UNL A   1      44.315  25.464  24.828  1.00  0.00    -0.203 F 
ATOM     73  C   UNL A   1      43.479  23.267  25.010  1.00  0.00     0.198 A 
ATOM     74  C   UNL A   1      41.931  22.712  26.733  1.00  0.00     0.198 A 
ATOM     75  F   UNL A   1      41.363  24.314  28.326  1.00  0.00    -0.203 F 
ATOM     76  F   UNL A   1      44.290  22.875  24.018  1.00  0.00    -0.200 F 
ATOM     77  C   UNL A   1      42.690  22.324  25.651  1.00  0.00     0.200 A 
ATOM     78  F   UNL A   1      41.211  21.807  27.412  1.00  0.00    -0.200 F 
ATOM     79  F   UNL A   1      42.704  21.040  25.267  1.00  0.00    -0.200 F 
ENDBRANCH  45  69
BRANCH  57  80
ATOM     80  C   UNL A   1      45.258  30.414  28.393  1.00  0.00     0.064 A 
ATOM     81  C   UNL A   1      44.195  31.143  27.829  1.00  0.00     0.173 A 
ATOM     82  C   UNL A   1      46.549  30.730  27.960  1.00  0.00     0.173 A 
ATOM     83  F   UNL A   1      42.940  30.970  28.253  1.00  0.00    -0.203 F 
ATOM     84  C   UNL A   1      44.414  32.116  26.855  1.00  0.00     0.198 A 
ATOM     85  C   UNL A   1      46.771  31.725  27.012  1.00  0.00     0.198 A 
ATOM     86  F   UNL A   1      47.607  30.104  28.500  1.00  0.00    -0.203 F 
ATOM     87  F   UNL A   1      43.380  32.792  26.331  1.00  0.00    -0.200 F 
ATOM     88  C   UNL A   1      45.704  32.412  26.454  1.00  0.00     0.200 A 
ATOM     89  F   UNL A   1      48.025  32.040  26.663  1.00  0.00    -0.200 F 
ATOM     90  F   UNL A   1      45.924  33.377  25.549  1.00  0.00    -0.200 F 
ENDBRANCH  57  80
ENDBRANCH  31  32
ENDBRANCH  23  26
ENDBRANCH  21  22
ENDBRANCH   1  21
TORSDOF 12
ENDMDL
