MODEL 1
REMARK VINA RESULT:     -12.0      0.000      0.000
REMARK SMILES CC[C@H](C)[C@@H](Nc1ccc(Cl)c(Br)c1)C(=O)NCCCNC(=O)c1ccc(-c2c3nc(c(-c4c(F)c(F)c(F)c(F)c4F)c4ccc([nH]4)c(-c4c(F)c(F)c(F)c(F)c4F)c4nc(c(-c5c(F)c(F)c(F)c(F)c5F)c5ccc2[nH]5)C=C4)C=C3)cc1
REMARK SMILES IDX 19 1 18 2 17 3 15 4 16 5 5 7 3 8 4 9 2 10 1 11 6 12 7 14
REMARK SMILES IDX 8 15 14 16 9 17 12 18 10 19 13 20 11 21 20 22 21 23 22 24
REMARK SMILES IDX 23 26 24 27 25 28 86 29 26 30 85 31 27 32 28 33 29 34 79 35
REMARK SMILES IDX 30 36 84 37 78 38 80 39 31 40 83 41 77 42 76 43 32 45 64 46
REMARK SMILES IDX 44 47 63 48 45 49 48 50 62 51 81 52 46 53 47 54 61 56 82 57
REMARK SMILES IDX 49 58 33 59 34 60 42 61 35 62 36 63 40 64 43 65 37 66 38 67
REMARK SMILES IDX 41 68 39 69 65 70 66 71 74 72 67 73 68 74 72 75 75 76 69 77
REMARK SMILES IDX 70 78 73 79 71 80 50 81 51 82 59 83 52 84 53 85 57 86 60 87
REMARK SMILES IDX 54 88 55 89 58 90 56 91
REMARK H PARENT 17 6 6 13 21 25 80 44 48 55
REMARK Flexibility Score: inf
ROOT
ATOM      1  C   UNL A   1      31.656  31.901  26.668  1.00  0.00     0.042 C 
ENDROOT
BRANCH   1   2
ATOM      2  C   UNL A   1      31.924  30.413  26.588  1.00  0.00     0.117 C 
BRANCH   2   3
ATOM      3  N   UNL A   1      32.661  30.048  25.391  1.00  0.00    -0.354 N 
ATOM      4  C   UNL A   1      32.286  29.246  24.352  1.00  0.00     0.242 C 
ATOM      5  O   UNL A   1      33.039  29.205  23.373  1.00  0.00    -0.273 OA
ATOM      6  H   UNL A   1      33.563  30.437  25.319  1.00  0.00     0.163 HD
BRANCH   4   7
ATOM      7  C   UNL A   1      30.997  28.383  24.402  1.00  0.00     0.171 C 
BRANCH   7   8
ATOM      8  C   UNL A   1      29.972  28.932  23.357  1.00  0.00     0.018 C 
ATOM      9  C   UNL A   1      28.741  28.031  23.190  1.00  0.00     0.010 C 
BRANCH   8  10
ATOM     10  C   UNL A   1      29.519  30.390  23.638  1.00  0.00     0.002 C 
ATOM     11  C   UNL A   1      28.066  30.696  23.301  1.00  0.00     0.004 C 
ENDBRANCH   8  10
ENDBRANCH   7   8
BRANCH   7  12
ATOM     12  N   UNL A   1      31.243  26.934  24.196  1.00  0.00    -0.373 N 
ATOM     13  H   UNL A   1      31.080  26.585  23.290  1.00  0.00     0.161 HD
BRANCH  12  14
ATOM     14  C   UNL A   1      31.676  26.020  25.140  1.00  0.00     0.036 A 
ATOM     15  C   UNL A   1      33.020  25.770  25.424  1.00  0.00     0.027 A 
ATOM     16  C   UNL A   1      30.718  25.162  25.706  1.00  0.00     0.043 A 
ATOM     17  C   UNL A   1      33.404  24.655  26.178  1.00  0.00     0.024 A 
ATOM     18  C   UNL A   1      31.094  24.035  26.448  1.00  0.00     0.038 A 
ATOM     19  C   UNL A   1      32.445  23.771  26.671  1.00  0.00     0.055 A 
ATOM     20  Br  UNL A   1      29.707  22.878  27.037  1.00  0.00    -0.049 Br
ATOM     21  Cl  UNL A   1      32.999  22.368  27.509  1.00  0.00    -0.083 Cl
ENDBRANCH  12  14
ENDBRANCH   7  12
ENDBRANCH   4   7
ENDBRANCH   2   3
ENDBRANCH   1   2
BRANCH   1  22
ATOM     22  C   UNL A   1      32.761  32.671  27.371  1.00  0.00     0.118 C 
BRANCH  22  23
ATOM     23  N   UNL A   1      32.414  34.063  27.636  1.00  0.00    -0.352 N 
ATOM     24  C   UNL A   1      32.959  34.947  28.537  1.00  0.00     0.251 C 
ATOM     25  H   UNL A   1      31.680  34.423  27.087  1.00  0.00     0.163 HD
ATOM     26  O   UNL A   1      32.444  36.045  28.724  1.00  0.00    -0.269 OA
BRANCH  24  27
ATOM     27  C   UNL A   1      34.145  34.546  29.319  1.00  0.00     0.039 A 
ATOM     28  C   UNL A   1      35.426  34.700  28.785  1.00  0.00     0.014 A 
ATOM     29  C   UNL A   1      33.969  33.948  30.568  1.00  0.00     0.014 A 
ATOM     30  C   UNL A   1      36.497  34.059  29.390  1.00  0.00     0.010 A 
ATOM     31  C   UNL A   1      35.068  33.398  31.229  1.00  0.00     0.010 A 
ATOM     32  C   UNL A   1      36.329  33.391  30.612  1.00  0.00    -0.014 A 
BRANCH  32  33
ATOM     33  C   UNL A   1      37.475  32.659  31.208  1.00  0.00     0.031 A 
ATOM     34  C   UNL A   1      37.938  32.969  32.605  1.00  0.00     0.074 A 
ATOM     35  C   UNL A   1      38.056  31.665  30.511  1.00  0.00     0.049 A 
ATOM     36  N   UNL A   1      38.940  32.459  33.278  1.00  0.00    -0.248 NA
ATOM     37  C   UNL A   1      37.179  33.987  33.347  1.00  0.00     0.031 C 
ATOM     38  C   UNL A   1      37.670  31.245  29.162  1.00  0.00     0.029 A 
ATOM     39  N   UNL A   1      39.071  30.807  30.849  1.00  0.00    -0.354 N 
ATOM     40  C   UNL A   1      38.949  33.113  34.502  1.00  0.00     0.074 A 
ATOM     41  C   UNL A   1      37.867  34.073  34.477  1.00  0.00     0.031 C 
ATOM     42  C   UNL A   1      38.396  30.173  28.813  1.00  0.00     0.029 A 
ATOM     43  C   UNL A   1      39.348  29.878  29.878  1.00  0.00     0.049 A 
ATOM     44  H   UNL A   1      39.555  30.854  31.706  1.00  0.00     0.167 HD
ATOM     45  C   UNL A   1      39.781  32.923  35.555  1.00  0.00     0.037 A 
ATOM     46  C   UNL A   1      40.280  28.909  29.839  1.00  0.00     0.037 A 
ATOM     47  C   UNL A   1      40.838  31.945  35.588  1.00  0.00     0.049 A 
ATOM     48  C   UNL A   1      41.222  28.755  30.995  1.00  0.00     0.074 A 
ATOM     49  C   UNL A   1      41.728  31.669  36.610  1.00  0.00     0.029 A 
ATOM     50  N   UNL A   1      41.142  31.077  34.548  1.00  0.00    -0.354 N 
ATOM     51  N   UNL A   1      41.249  29.407  32.131  1.00  0.00    -0.248 NA
ATOM     52  C   UNL A   1      42.277  27.743  30.854  1.00  0.00     0.031 C 
ATOM     53  C   UNL A   1      42.593  30.657  36.176  1.00  0.00     0.029 A 
ATOM     54  C   UNL A   1      42.216  30.276  34.898  1.00  0.00     0.049 A 
ATOM     55  H   UNL A   1      40.662  31.036  33.688  1.00  0.00     0.167 HD
ATOM     56  C   UNL A   1      42.326  28.895  32.839  1.00  0.00     0.074 A 
ATOM     57  C   UNL A   1      42.908  27.853  32.016  1.00  0.00     0.031 C 
ATOM     58  C   UNL A   1      42.796  29.262  34.056  1.00  0.00     0.037 A 
BRANCH  45  59
ATOM     59  C   UNL A   1      39.593  33.804  36.755  1.00  0.00     0.064 A 
ATOM     60  C   UNL A   1      38.798  33.410  37.842  1.00  0.00     0.173 A 
ATOM     61  C   UNL A   1      40.243  35.045  36.834  1.00  0.00     0.173 A 
ATOM     62  F   UNL A   1      38.141  32.240  37.809  1.00  0.00    -0.203 F 
ATOM     63  C   UNL A   1      38.642  34.237  38.953  1.00  0.00     0.198 A 
ATOM     64  C   UNL A   1      40.106  35.857  37.957  1.00  0.00     0.198 A 
ATOM     65  F   UNL A   1      41.018  35.467  35.824  1.00  0.00    -0.203 F 
ATOM     66  F   UNL A   1      37.842  33.859  39.960  1.00  0.00    -0.200 F 
ATOM     67  C   UNL A   1      39.301  35.455  39.012  1.00  0.00     0.200 A 
ATOM     68  F   UNL A   1      40.750  37.031  38.017  1.00  0.00    -0.200 F 
ATOM     69  F   UNL A   1      39.152  36.247  40.084  1.00  0.00    -0.200 F 
ENDBRANCH  45  59
BRANCH  46  70
ATOM     70  C   UNL A   1      40.359  28.025  28.651  1.00  0.00     0.064 A 
ATOM     71  C   UNL A   1      41.109  28.399  27.529  1.00  0.00     0.173 A 
ATOM     72  C   UNL A   1      39.734  26.769  28.635  1.00  0.00     0.173 A 
ATOM     73  F   UNL A   1      41.707  29.598  27.493  1.00  0.00    -0.203 F 
ATOM     74  C   UNL A   1      41.235  27.546  26.435  1.00  0.00     0.198 A 
ATOM     75  C   UNL A   1      39.882  25.908  27.551  1.00  0.00     0.198 A 
ATOM     76  F   UNL A   1      39.009  26.367  29.688  1.00  0.00    -0.203 F 
ATOM     77  F   UNL A   1      41.943  27.933  25.366  1.00  0.00    -0.200 F 
ATOM     78  C   UNL A   1      40.631  26.297  26.451  1.00  0.00     0.200 A 
ATOM     79  F   UNL A   1      39.311  24.696  27.578  1.00  0.00    -0.200 F 
ATOM     80  F   UNL A   1      40.771  25.469  25.407  1.00  0.00    -0.200 F 
ENDBRANCH  46  70
BRANCH  58  81
ATOM     81  C   UNL A   1      44.009  28.539  34.561  1.00  0.00     0.064 A 
ATOM     82  C   UNL A   1      45.298  29.048  34.347  1.00  0.00     0.173 A 
ATOM     83  C   UNL A   1      43.881  27.350  35.292  1.00  0.00     0.173 A 
ATOM     84  F   UNL A   1      45.471  30.174  33.639  1.00  0.00    -0.203 F 
ATOM     85  C   UNL A   1      46.419  28.379  34.831  1.00  0.00     0.198 A 
ATOM     86  C   UNL A   1      45.002  26.697  35.795  1.00  0.00     0.198 A 
ATOM     87  F   UNL A   1      42.668  26.827  35.525  1.00  0.00    -0.203 F 
ATOM     88  F   UNL A   1      47.644  28.861  34.580  1.00  0.00    -0.200 F 
ATOM     89  C   UNL A   1      46.269  27.209  35.560  1.00  0.00     0.200 A 
ATOM     90  F   UNL A   1      44.857  25.571  36.507  1.00  0.00    -0.200 F 
ATOM     91  F   UNL A   1      47.349  26.568  36.028  1.00  0.00    -0.200 F 
ENDBRANCH  58  81
ENDBRANCH  32  33
ENDBRANCH  24  27
ENDBRANCH  22  23
ENDBRANCH   1  22
TORSDOF 14
ENDMDL
MODEL 2
REMARK VINA RESULT:     -12.0      0.171      1.991
REMARK SMILES CC[C@H](C)[C@@H](Nc1ccc(Cl)c(Br)c1)C(=O)NCCCNC(=O)c1ccc(-c2c3nc(c(-c4c(F)c(F)c(F)c(F)c4F)c4ccc([nH]4)c(-c4c(F)c(F)c(F)c(F)c4F)c4nc(c(-c5c(F)c(F)c(F)c(F)c5F)c5ccc2[nH]5)C=C4)C=C3)cc1
REMARK SMILES IDX 19 1 18 2 17 3 15 4 16 5 5 7 3 8 4 9 2 10 1 11 6 12 7 14
REMARK SMILES IDX 8 15 14 16 9 17 12 18 10 19 13 20 11 21 20 22 21 23 22 24
REMARK SMILES IDX 23 26 24 27 25 28 86 29 26 30 85 31 27 32 28 33 29 34 79 35
REMARK SMILES IDX 30 36 84 37 78 38 80 39 31 40 83 41 77 42 76 43 32 45 64 46
REMARK SMILES IDX 44 47 63 48 45 49 48 50 62 51 81 52 46 53 47 54 61 56 82 57
REMARK SMILES IDX 49 58 33 59 34 60 42 61 35 62 36 63 40 64 43 65 37 66 38 67
REMARK SMILES IDX 41 68 39 69 65 70 66 71 74 72 67 73 68 74 72 75 75 76 69 77
REMARK SMILES IDX 70 78 73 79 71 80 50 81 51 82 59 83 52 84 53 85 57 86 60 87
REMARK SMILES IDX 54 88 55 89 58 90 56 91
REMARK H PARENT 17 6 6 13 21 25 80 44 48 55
REMARK Flexibility Score: inf
ROOT
ATOM      1  C   UNL A   1      31.731  31.851  26.731  1.00  0.00     0.042 C 
ENDROOT
BRANCH   1   2
ATOM      2  C   UNL A   1      32.046  30.375  26.609  1.00  0.00     0.117 C 
BRANCH   2   3
ATOM      3  N   UNL A   1      32.822  30.073  25.419  1.00  0.00    -0.354 N 
ATOM      4  C   UNL A   1      32.512  29.265  24.362  1.00  0.00     0.242 C 
ATOM      5  O   UNL A   1      33.282  29.284  23.396  1.00  0.00    -0.273 OA
ATOM      6  H   UNL A   1      33.700  30.515  25.367  1.00  0.00     0.163 HD
BRANCH   4   7
ATOM      7  C   UNL A   1      31.276  28.326  24.379  1.00  0.00     0.171 C 
BRANCH   7   8
ATOM      8  C   UNL A   1      30.233  28.834  23.332  1.00  0.00     0.018 C 
ATOM      9  C   UNL A   1      29.024  27.901  23.184  1.00  0.00     0.010 C 
BRANCH   8  10
ATOM     10  C   UNL A   1      29.746  30.284  23.592  1.00  0.00     0.002 C 
ATOM     11  C   UNL A   1      28.253  30.514  23.402  1.00  0.00     0.004 C 
ENDBRANCH   8  10
ENDBRANCH   7   8
BRANCH   7  12
ATOM     12  N   UNL A   1      31.612  26.899  24.149  1.00  0.00    -0.373 N 
ATOM     13  H   UNL A   1      31.555  26.578  23.220  1.00  0.00     0.161 HD
BRANCH  12  14
ATOM     14  C   UNL A   1      31.993  25.969  25.099  1.00  0.00     0.036 A 
ATOM     15  C   UNL A   1      33.320  25.649  25.388  1.00  0.00     0.027 A 
ATOM     16  C   UNL A   1      30.989  25.166  25.668  1.00  0.00     0.043 A 
ATOM     17  C   UNL A   1      33.643  24.519  26.149  1.00  0.00     0.024 A 
ATOM     18  C   UNL A   1      31.302  24.026  26.418  1.00  0.00     0.038 A 
ATOM     19  C   UNL A   1      32.637  23.691  26.645  1.00  0.00     0.055 A 
ATOM     20  Br  UNL A   1      29.854  22.949  27.010  1.00  0.00    -0.049 Br
ATOM     21  Cl  UNL A   1      33.113  22.265  27.492  1.00  0.00    -0.083 Cl
ENDBRANCH  12  14
ENDBRANCH   7  12
ENDBRANCH   4   7
ENDBRANCH   2   3
ENDBRANCH   1   2
BRANCH   1  22
ATOM     22  C   UNL A   1      32.844  32.648  27.389  1.00  0.00     0.118 C 
BRANCH  22  23
ATOM     23  N   UNL A   1      32.479  34.034  27.658  1.00  0.00    -0.352 N 
ATOM     24  C   UNL A   1      33.012  34.923  28.561  1.00  0.00     0.251 C 
ATOM     25  H   UNL A   1      31.741  34.386  27.110  1.00  0.00     0.163 HD
ATOM     26  O   UNL A   1      32.483  36.014  28.751  1.00  0.00    -0.269 OA
BRANCH  24  27
ATOM     27  C   UNL A   1      34.204  34.536  29.342  1.00  0.00     0.039 A 
ATOM     28  C   UNL A   1      35.477  34.627  28.776  1.00  0.00     0.014 A 
ATOM     29  C   UNL A   1      34.038  34.012  30.626  1.00  0.00     0.014 A 
ATOM     30  C   UNL A   1      36.544  33.994  29.396  1.00  0.00     0.010 A 
ATOM     31  C   UNL A   1      35.137  33.472  31.296  1.00  0.00     0.010 A 
ATOM     32  C   UNL A   1      36.385  33.398  30.656  1.00  0.00    -0.014 A 
BRANCH  32  33
ATOM     33  C   UNL A   1      37.524  32.671  31.270  1.00  0.00     0.031 A 
ATOM     34  C   UNL A   1      37.968  32.989  32.672  1.00  0.00     0.074 A 
ATOM     35  C   UNL A   1      38.116  31.675  30.586  1.00  0.00     0.049 A 
ATOM     36  N   UNL A   1      38.963  32.484  33.360  1.00  0.00    -0.248 NA
ATOM     37  C   UNL A   1      37.197  34.009  33.400  1.00  0.00     0.031 C 
ATOM     38  C   UNL A   1      37.749  31.249  29.234  1.00  0.00     0.029 A 
ATOM     39  N   UNL A   1      39.128  30.822  30.941  1.00  0.00    -0.354 N 
ATOM     40  C   UNL A   1      38.954  33.144  34.581  1.00  0.00     0.074 A 
ATOM     41  C   UNL A   1      37.871  34.101  34.538  1.00  0.00     0.031 C 
ATOM     42  C   UNL A   1      38.481  30.177  28.899  1.00  0.00     0.029 A 
ATOM     43  C   UNL A   1      39.420  29.889  29.978  1.00  0.00     0.049 A 
ATOM     44  H   UNL A   1      39.601  30.873  31.804  1.00  0.00     0.167 HD
ATOM     45  C   UNL A   1      39.773  32.960  35.646  1.00  0.00     0.037 A 
ATOM     46  C   UNL A   1      40.354  28.921  29.955  1.00  0.00     0.037 A 
ATOM     47  C   UNL A   1      40.831  31.985  35.697  1.00  0.00     0.049 A 
ATOM     48  C   UNL A   1      41.281  28.774  31.125  1.00  0.00     0.074 A 
ATOM     49  C   UNL A   1      41.708  31.715  36.732  1.00  0.00     0.029 A 
ATOM     50  N   UNL A   1      41.150  31.113  34.665  1.00  0.00    -0.354 N 
ATOM     51  N   UNL A   1      41.293  29.432  32.258  1.00  0.00    -0.248 NA
ATOM     52  C   UNL A   1      42.340  27.764  31.002  1.00  0.00     0.031 C 
ATOM     53  C   UNL A   1      42.581  30.703  36.314  1.00  0.00     0.029 A 
ATOM     54  C   UNL A   1      42.222  30.315  35.033  1.00  0.00     0.049 A 
ATOM     55  H   UNL A   1      40.682  31.067  33.800  1.00  0.00     0.167 HD
ATOM     56  C   UNL A   1      42.361  28.925  32.982  1.00  0.00     0.074 A 
ATOM     57  C   UNL A   1      42.956  27.880  32.171  1.00  0.00     0.031 C 
ATOM     58  C   UNL A   1      42.815  29.298  34.203  1.00  0.00     0.037 A 
BRANCH  45  59
ATOM     59  C   UNL A   1      39.568  33.846  36.840  1.00  0.00     0.064 A 
ATOM     60  C   UNL A   1      40.119  35.134  36.906  1.00  0.00     0.173 A 
ATOM     61  C   UNL A   1      38.781  33.413  37.918  1.00  0.00     0.173 A 
ATOM     62  F   UNL A   1      40.894  35.589  35.908  1.00  0.00    -0.203 F 
ATOM     63  C   UNL A   1      39.911  35.947  38.018  1.00  0.00     0.198 A 
ATOM     64  C   UNL A   1      38.553  34.238  39.017  1.00  0.00     0.198 A 
ATOM     65  F   UNL A   1      38.228  32.191  37.904  1.00  0.00    -0.203 F 
ATOM     66  F   UNL A   1      40.484  37.157  38.078  1.00  0.00    -0.200 F 
ATOM     67  C   UNL A   1      39.122  35.501  39.069  1.00  0.00     0.200 A 
ATOM     68  F   UNL A   1      37.785  33.809  40.028  1.00  0.00    -0.200 F 
ATOM     69  F   UNL A   1      38.920  36.287  40.136  1.00  0.00    -0.200 F 
ENDBRANCH  45  59
BRANCH  46  70
ATOM     70  C   UNL A   1      40.450  28.031  28.773  1.00  0.00     0.064 A 
ATOM     71  C   UNL A   1      39.754  26.816  28.733  1.00  0.00     0.173 A 
ATOM     72  C   UNL A   1      41.193  28.401  27.642  1.00  0.00     0.173 A 
ATOM     73  F   UNL A   1      39.048  26.415  29.799  1.00  0.00    -0.203 F 
ATOM     74  C   UNL A   1      39.795  26.005  27.601  1.00  0.00     0.198 A 
ATOM     75  C   UNL A   1      41.212  27.601  26.503  1.00  0.00     0.198 A 
ATOM     76  F   UNL A   1      41.872  29.557  27.633  1.00  0.00    -0.203 F 
ATOM     77  F   UNL A   1      39.136  24.839  27.593  1.00  0.00    -0.200 F 
ATOM     78  C   UNL A   1      40.514  26.402  26.483  1.00  0.00     0.200 A 
ATOM     79  F   UNL A   1      41.894  27.997  25.419  1.00  0.00    -0.200 F 
ATOM     80  F   UNL A   1      40.534  25.632  25.388  1.00  0.00    -0.200 F 
ENDBRANCH  46  70
BRANCH  58  81
ATOM     81  C   UNL A   1      44.022  28.581  34.727  1.00  0.00     0.064 A 
ATOM     82  C   UNL A   1      43.899  27.379  35.441  1.00  0.00     0.173 A 
ATOM     83  C   UNL A   1      45.311  29.077  34.486  1.00  0.00     0.173 A 
ATOM     84  F   UNL A   1      42.686  26.875  35.710  1.00  0.00    -0.203 F 
ATOM     85  C   UNL A   1      45.025  26.711  35.913  1.00  0.00     0.198 A 
ATOM     86  C   UNL A   1      46.435  28.394  34.939  1.00  0.00     0.198 A 
ATOM     87  F   UNL A   1      45.479  30.221  33.805  1.00  0.00    -0.203 F 
ATOM     88  F   UNL A   1      44.884  25.587  36.628  1.00  0.00    -0.200 F 
ATOM     89  C   UNL A   1      46.292  27.215  35.655  1.00  0.00     0.200 A 
ATOM     90  F   UNL A   1      47.659  28.876  34.682  1.00  0.00    -0.200 F 
ATOM     91  F   UNL A   1      47.375  26.568  36.107  1.00  0.00    -0.200 F 
ENDBRANCH  58  81
ENDBRANCH  32  33
ENDBRANCH  24  27
ENDBRANCH  22  23
ENDBRANCH   1  22
TORSDOF 14
ENDMDL
MODEL 3
REMARK VINA RESULT:     -11.9      0.610      7.461
REMARK SMILES CC[C@H](C)[C@@H](Nc1ccc(Cl)c(Br)c1)C(=O)NCCCNC(=O)c1ccc(-c2c3nc(c(-c4c(F)c(F)c(F)c(F)c4F)c4ccc([nH]4)c(-c4c(F)c(F)c(F)c(F)c4F)c4nc(c(-c5c(F)c(F)c(F)c(F)c5F)c5ccc2[nH]5)C=C4)C=C3)cc1
REMARK SMILES IDX 19 1 18 2 17 3 15 4 16 5 5 7 3 8 4 9 2 10 1 11 6 12 7 14
REMARK SMILES IDX 8 15 14 16 9 17 12 18 10 19 13 20 11 21 20 22 21 23 22 24
REMARK SMILES IDX 23 26 24 27 25 28 86 29 26 30 85 31 27 32 28 33 29 34 79 35
REMARK SMILES IDX 30 36 84 37 78 38 80 39 31 40 83 41 77 42 76 43 32 45 64 46
REMARK SMILES IDX 44 47 63 48 45 49 48 50 62 51 81 52 46 53 47 54 61 56 82 57
REMARK SMILES IDX 49 58 33 59 34 60 42 61 35 62 36 63 40 64 43 65 37 66 38 67
REMARK SMILES IDX 41 68 39 69 65 70 66 71 74 72 67 73 68 74 72 75 75 76 69 77
REMARK SMILES IDX 70 78 73 79 71 80 50 81 51 82 59 83 52 84 53 85 57 86 60 87
REMARK SMILES IDX 54 88 55 89 58 90 56 91
REMARK H PARENT 17 6 6 13 21 25 80 44 48 55
REMARK Flexibility Score: inf
ROOT
ATOM      1  C   UNL A   1      31.794  31.643  26.729  1.00  0.00     0.042 C 
ENDROOT
BRANCH   1   2
ATOM      2  C   UNL A   1      32.186  30.204  26.469  1.00  0.00     0.117 C 
BRANCH   2   3
ATOM      3  N   UNL A   1      32.920  30.047  25.227  1.00  0.00    -0.354 N 
ATOM      4  C   UNL A   1      32.757  29.124  24.233  1.00  0.00     0.242 C 
ATOM      5  O   UNL A   1      33.416  29.287  23.200  1.00  0.00    -0.273 OA
ATOM      6  H   UNL A   1      33.640  30.701  25.079  1.00  0.00     0.163 HD
BRANCH   4   7
ATOM      7  C   UNL A   1      31.823  27.895  24.397  1.00  0.00     0.171 C 
BRANCH   7   8
ATOM      8  C   UNL A   1      30.613  28.037  23.417  1.00  0.00     0.018 C 
ATOM      9  C   UNL A   1      29.499  27.015  23.682  1.00  0.00     0.010 C 
BRANCH   8  10
ATOM     10  C   UNL A   1      30.012  29.467  23.374  1.00  0.00     0.002 C 
ATOM     11  C   UNL A   1      29.771  30.030  21.980  1.00  0.00     0.004 C 
ENDBRANCH   8  10
ENDBRANCH   7   8
BRANCH   7  12
ATOM     12  N   UNL A   1      32.513  26.594  24.206  1.00  0.00    -0.373 N 
ATOM     13  H   UNL A   1      32.835  26.397  23.298  1.00  0.00     0.161 HD
BRANCH  12  14
ATOM     14  C   UNL A   1      32.751  25.630  25.169  1.00  0.00     0.036 A 
ATOM     15  C   UNL A   1      34.023  25.162  25.505  1.00  0.00     0.027 A 
ATOM     16  C   UNL A   1      31.643  24.947  25.697  1.00  0.00     0.043 A 
ATOM     17  C   UNL A   1      34.188  24.004  26.275  1.00  0.00     0.024 A 
ATOM     18  C   UNL A   1      31.797  23.780  26.456  1.00  0.00     0.038 A 
ATOM     19  C   UNL A   1      33.076  23.297  26.732  1.00  0.00     0.055 A 
ATOM     20  Br  UNL A   1      30.216  22.874  26.992  1.00  0.00    -0.049 Br
ATOM     21  Cl  UNL A   1      33.357  21.828  27.593  1.00  0.00    -0.083 Cl
ENDBRANCH  12  14
ENDBRANCH   7  12
ENDBRANCH   4   7
ENDBRANCH   2   3
ENDBRANCH   1   2
BRANCH   1  22
ATOM     22  C   UNL A   1      32.895  32.453  27.392  1.00  0.00     0.118 C 
BRANCH  22  23
ATOM     23  N   UNL A   1      32.530  33.848  27.614  1.00  0.00    -0.352 N 
ATOM     24  C   UNL A   1      33.036  34.755  28.515  1.00  0.00     0.251 C 
ATOM     25  H   UNL A   1      31.816  34.191  27.030  1.00  0.00     0.163 HD
ATOM     26  O   UNL A   1      32.509  35.853  28.659  1.00  0.00    -0.269 OA
BRANCH  24  27
ATOM     27  C   UNL A   1      34.195  34.378  29.349  1.00  0.00     0.039 A 
ATOM     28  C   UNL A   1      35.492  34.497  28.847  1.00  0.00     0.014 A 
ATOM     29  C   UNL A   1      33.976  33.837  30.617  1.00  0.00     0.014 A 
ATOM     30  C   UNL A   1      36.539  33.874  29.511  1.00  0.00     0.010 A 
ATOM     31  C   UNL A   1      35.050  33.308  31.334  1.00  0.00     0.010 A 
ATOM     32  C   UNL A   1      36.329  33.262  30.755  1.00  0.00    -0.014 A 
BRANCH  32  33
ATOM     33  C   UNL A   1      37.449  32.547  31.417  1.00  0.00     0.031 A 
ATOM     34  C   UNL A   1      38.205  31.470  30.688  1.00  0.00     0.074 A 
ATOM     35  C   UNL A   1      37.829  32.917  32.654  1.00  0.00     0.049 A 
ATOM     36  N   UNL A   1      39.188  30.715  31.115  1.00  0.00    -0.248 NA
ATOM     37  C   UNL A   1      37.808  31.202  29.297  1.00  0.00     0.031 C 
ATOM     38  C   UNL A   1      37.198  33.974  33.446  1.00  0.00     0.029 A 
ATOM     39  N   UNL A   1      38.853  32.471  33.448  1.00  0.00    -0.354 N 
ATOM     40  C   UNL A   1      39.501  29.867  30.061  1.00  0.00     0.074 A 
ATOM     41  C   UNL A   1      38.594  30.182  28.979  1.00  0.00     0.031 C 
ATOM     42  C   UNL A   1      37.886  34.136  34.586  1.00  0.00     0.029 A 
ATOM     43  C   UNL A   1      38.955  33.146  34.639  1.00  0.00     0.049 A 
ATOM     44  H   UNL A   1      39.456  31.736  33.190  1.00  0.00     0.167 HD
ATOM     45  C   UNL A   1      40.465  28.916  30.000  1.00  0.00     0.037 A 
ATOM     46  C   UNL A   1      39.803  32.974  35.668  1.00  0.00     0.037 A 
ATOM     47  C   UNL A   1      41.387  28.625  31.068  1.00  0.00     0.049 A 
ATOM     48  C   UNL A   1      40.826  31.880  35.597  1.00  0.00     0.074 A 
ATOM     49  C   UNL A   1      42.405  27.689  31.100  1.00  0.00     0.029 A 
ATOM     50  N   UNL A   1      41.403  29.276  32.294  1.00  0.00    -0.354 N 
ATOM     51  N   UNL A   1      41.086  31.055  34.613  1.00  0.00    -0.248 NA
ATOM     52  C   UNL A   1      41.659  31.679  36.789  1.00  0.00     0.031 C 
ATOM     53  C   UNL A   1      43.015  27.749  32.358  1.00  0.00     0.029 A 
ATOM     54  C   UNL A   1      42.403  28.750  33.095  1.00  0.00     0.049 A 
ATOM     55  H   UNL A   1      40.795  30.006  32.554  1.00  0.00     0.167 HD
ATOM     56  C   UNL A   1      42.105  30.231  35.065  1.00  0.00     0.074 A 
ATOM     57  C   UNL A   1      42.439  30.677  36.404  1.00  0.00     0.031 C 
ATOM     58  C   UNL A   1      42.703  29.192  34.434  1.00  0.00     0.037 A 
BRANCH  45  59
ATOM     59  C   UNL A   1      40.562  28.106  28.740  1.00  0.00     0.064 A 
ATOM     60  C   UNL A   1      41.356  28.517  27.659  1.00  0.00     0.173 A 
ATOM     61  C   UNL A   1      39.877  26.887  28.625  1.00  0.00     0.173 A 
ATOM     62  F   UNL A   1      42.018  29.683  27.712  1.00  0.00    -0.203 F 
ATOM     63  C   UNL A   1      41.442  27.747  26.500  1.00  0.00     0.198 A 
ATOM     64  C   UNL A   1      39.986  26.109  27.476  1.00  0.00     0.198 A 
ATOM     65  F   UNL A   1      39.106  26.447  29.631  1.00  0.00    -0.203 F 
ATOM     66  F   UNL A   1      42.172  28.181  25.463  1.00  0.00    -0.200 F 
ATOM     67  C   UNL A   1      40.763  26.541  26.412  1.00  0.00     0.200 A 
ATOM     68  F   UNL A   1      39.335  24.939  27.395  1.00  0.00    -0.200 F 
ATOM     69  F   UNL A   1      40.850  25.802  25.298  1.00  0.00    -0.200 F 
ENDBRANCH  45  59
BRANCH  46  70
ATOM     70  C   UNL A   1      39.699  33.861  36.852  1.00  0.00     0.064 A 
ATOM     71  C   UNL A   1      40.354  35.099  36.878  1.00  0.00     0.173 A 
ATOM     72  C   UNL A   1      38.902  33.517  37.953  1.00  0.00     0.173 A 
ATOM     73  F   UNL A   1      41.143  35.460  35.856  1.00  0.00    -0.203 F 
ATOM     74  C   UNL A   1      40.212  35.962  37.963  1.00  0.00     0.198 A 
ATOM     75  C   UNL A   1      38.740  34.391  39.024  1.00  0.00     0.198 A 
ATOM     76  F   UNL A   1      38.252  32.344  37.970  1.00  0.00    -0.203 F 
ATOM     77  F   UNL A   1      40.863  37.132  37.973  1.00  0.00    -0.200 F 
ATOM     78  C   UNL A   1      39.397  35.613  39.029  1.00  0.00     0.200 A 
ATOM     79  F   UNL A   1      37.939  34.057  40.045  1.00  0.00    -0.200 F 
ATOM     80  F   UNL A   1      39.244  36.453  40.061  1.00  0.00    -0.200 F 
ENDBRANCH  46  70
BRANCH  58  81
ATOM     81  C   UNL A   1      43.769  28.458  35.192  1.00  0.00     0.064 A 
ATOM     82  C   UNL A   1      45.119  28.819  35.078  1.00  0.00     0.173 A 
ATOM     83  C   UNL A   1      43.436  27.412  36.063  1.00  0.00     0.173 A 
ATOM     84  F   UNL A   1      45.487  29.804  34.244  1.00  0.00    -0.203 F 
ATOM     85  C   UNL A   1      46.102  28.143  35.796  1.00  0.00     0.198 A 
ATOM     86  C   UNL A   1      44.418  26.754  36.797  1.00  0.00     0.198 A 
ATOM     87  F   UNL A   1      42.157  27.033  36.208  1.00  0.00    -0.203 F 
ATOM     88  F   UNL A   1      47.390  28.477  35.641  1.00  0.00    -0.200 F 
ATOM     89  C   UNL A   1      45.750  27.116  36.659  1.00  0.00     0.200 A 
ATOM     90  F   UNL A   1      44.077  25.768  37.638  1.00  0.00    -0.200 F 
ATOM     91  F   UNL A   1      46.697  26.469  37.352  1.00  0.00    -0.200 F 
ENDBRANCH  58  81
ENDBRANCH  32  33
ENDBRANCH  24  27
ENDBRANCH  22  23
ENDBRANCH   1  22
TORSDOF 14
ENDMDL
