MODEL 1
REMARK VINA RESULT:     -13.6      0.000      0.000
REMARK SMILES CC(C)CCn1nc(C(=O)NCCCNC(=O)c2ccc(-c3c4nc(c(-c5c(F)c(F)c(F)c(F)c5F)c5ccc([nH]5)c(-c5c(F)c(F)c(F)c(F)c5F)c5nc(c(-c6c(F)c(F)c(F)c(F)c6F)c6ccc3[nH]6)C=C5)C=C4)cc2)c2c1CCN(C(=O)[C@@H]1CCc3nn(C)c(=O)n3C1)C2
REMARK SMILES IDX 12 1 11 2 9 3 10 4 8 6 6 7 7 8 82 9 81 10 83 11 99 12 84 13
REMARK SMILES IDX 85 14 5 15 4 16 2 17 1 18 3 19 86 20 87 21 88 22 89 23 98 24
REMARK SMILES IDX 90 25 97 26 91 27 95 28 92 29 93 30 96 31 94 32 13 33 14 34
REMARK SMILES IDX 15 35 16 36 17 38 18 39 19 40 80 41 20 42 79 43 21 44 22 45
REMARK SMILES IDX 23 46 73 47 24 48 78 49 72 50 74 51 25 52 77 53 71 54 70 55
REMARK SMILES IDX 26 57 58 58 38 59 57 60 39 61 42 62 56 63 75 64 40 65 41 66
REMARK SMILES IDX 55 68 76 69 43 70 27 71 28 72 36 73 29 74 30 75 34 76 37 77
REMARK SMILES IDX 31 78 32 79 35 80 33 81 59 82 60 83 68 84 61 85 62 86 66 87
REMARK SMILES IDX 69 88 63 89 64 90 67 91 65 92 44 93 45 94 53 95 46 96 47 97
REMARK SMILES IDX 51 98 54 99 48 100 49 101 52 102 50 103
REMARK H PARENT 11 5 15 37 74 56 42 67
REMARK Flexibility Score: inf
ROOT
ATOM      1  C   UNL A   1      33.616  30.458  27.136  1.00  0.00     0.118 C 
ENDROOT
BRANCH   1   2
ATOM      2  N   UNL A   1      32.540  29.603  27.650  1.00  0.00    -0.351 N 
ATOM      3  C   UNL A   1      31.735  28.598  27.122  1.00  0.00     0.272 C 
ATOM      4  O   UNL A   1      31.115  27.949  27.970  1.00  0.00    -0.267 OA
ATOM      5  H   UNL A   1      32.338  29.783  28.596  1.00  0.00     0.163 HD
BRANCH   3   6
ATOM      6  C   UNL A   1      31.609  28.294  25.669  1.00  0.00     0.155 A 
ATOM      7  N   UNL A   1      31.085  28.593  23.594  1.00  0.00    -0.268 N 
ATOM      8  N   UNL A   1      31.012  29.169  24.817  1.00  0.00    -0.167 NA
ATOM      9  C   UNL A   1      31.522  27.313  23.666  1.00  0.00     0.046 A 
ATOM     10  C   UNL A   1      32.105  27.213  24.901  1.00  0.00     0.026 A 
ATOM     11  C   UNL A   1      31.519  26.215  22.669  1.00  0.00     0.078 C 
ATOM     12  C   UNL A   1      32.956  26.086  25.260  1.00  0.00     0.159 C 
ATOM     13  C   UNL A   1      31.899  24.923  23.434  1.00  0.00     0.126 C 
ATOM     14  N   UNL A   1      33.127  25.085  24.225  1.00  0.00    -0.338 N 
BRANCH   7  15
ATOM     15  C   UNL A   1      30.923  29.388  22.393  1.00  0.00     0.145 C 
BRANCH  15  16
ATOM     16  C   UNL A   1      29.472  29.664  22.003  1.00  0.00     0.027 C 
BRANCH  16  17
ATOM     17  C   UNL A   1      29.083  31.148  22.089  1.00  0.00    -0.016 C 
ATOM     18  C   UNL A   1      28.109  31.523  20.972  1.00  0.00     0.007 C 
ATOM     19  C   UNL A   1      28.474  31.453  23.456  1.00  0.00     0.007 C 
ENDBRANCH  16  17
ENDBRANCH  15  16
ENDBRANCH   7  15
BRANCH  14  20
ATOM     20  C   UNL A   1      34.181  24.216  24.459  1.00  0.00     0.227 C 
ATOM     21  O   UNL A   1      34.949  23.934  23.523  1.00  0.00    -0.274 OA
BRANCH  20  22
ATOM     22  C   UNL A   1      34.462  23.494  25.778  1.00  0.00     0.099 C 
ATOM     23  C   UNL A   1      35.928  23.122  25.992  1.00  0.00     0.023 C 
ATOM     24  C   UNL A   1      33.511  22.378  26.165  1.00  0.00     0.142 C 
ATOM     25  C   UNL A   1      36.329  21.818  25.327  1.00  0.00     0.078 C 
ATOM     26  N   UNL A   1      33.999  21.081  25.770  1.00  0.00    -0.278 N 
ATOM     27  C   UNL A   1      35.237  20.785  25.323  1.00  0.00     0.133 A 
ATOM     28  C   UNL A   1      33.186  20.044  25.382  1.00  0.00     0.345 A 
ATOM     29  N   UNL A   1      35.330  19.646  24.697  1.00  0.00    -0.155 NA
ATOM     30  N   UNL A   1      34.036  19.158  24.710  1.00  0.00    -0.216 N 
ATOM     31  O   UNL A   1      31.968  20.003  25.448  1.00  0.00    -0.246 OA
ATOM     32  C   UNL A   1      33.580  18.172  23.767  1.00  0.00     0.179 C 
ENDBRANCH  20  22
ENDBRANCH  14  20
ENDBRANCH   3   6
ENDBRANCH   1   2
BRANCH   1  33
ATOM     33  C   UNL A   1      34.998  30.138  27.746  1.00  0.00     0.042 C 
BRANCH  33  34
ATOM     34  C   UNL A   1      36.075  31.165  27.636  1.00  0.00     0.118 C 
BRANCH  34  35
ATOM     35  N   UNL A   1      35.870  32.329  28.510  1.00  0.00    -0.352 N 
ATOM     36  C   UNL A   1      36.175  32.409  29.870  1.00  0.00     0.251 C 
ATOM     37  H   UNL A   1      35.479  33.132  28.096  1.00  0.00     0.163 HD
ATOM     38  O   UNL A   1      35.631  33.203  30.608  1.00  0.00    -0.269 OA
BRANCH  36  39
ATOM     39  C   UNL A   1      37.186  31.457  30.370  1.00  0.00     0.039 A 
ATOM     40  C   UNL A   1      36.882  30.202  30.894  1.00  0.00     0.014 A 
ATOM     41  C   UNL A   1      38.493  31.805  30.094  1.00  0.00     0.014 A 
ATOM     42  C   UNL A   1      37.929  29.290  31.022  1.00  0.00     0.010 A 
ATOM     43  C   UNL A   1      39.344  30.796  29.783  1.00  0.00     0.010 A 
ATOM     44  C   UNL A   1      39.162  29.593  30.418  1.00  0.00    -0.014 A 
BRANCH  44  45
ATOM     45  C   UNL A   1      40.304  28.699  30.400  1.00  0.00     0.031 A 
ATOM     46  C   UNL A   1      40.932  28.486  31.716  1.00  0.00     0.074 A 
ATOM     47  C   UNL A   1      40.699  28.002  29.309  1.00  0.00     0.049 A 
ATOM     48  N   UNL A   1      42.003  29.057  32.146  1.00  0.00    -0.248 NA
ATOM     49  C   UNL A   1      40.218  27.696  32.726  1.00  0.00     0.031 C 
ATOM     50  C   UNL A   1      40.044  27.830  28.001  1.00  0.00     0.029 A 
ATOM     51  N   UNL A   1      41.809  27.231  29.176  1.00  0.00    -0.354 N 
ATOM     52  C   UNL A   1      42.222  28.548  33.416  1.00  0.00     0.074 A 
ATOM     53  C   UNL A   1      41.008  27.870  33.790  1.00  0.00     0.031 C 
ATOM     54  C   UNL A   1      40.657  26.848  27.303  1.00  0.00     0.029 A 
ATOM     55  C   UNL A   1      41.856  26.467  28.019  1.00  0.00     0.049 A 
ATOM     56  H   UNL A   1      42.527  27.217  29.849  1.00  0.00     0.167 HD
ATOM     57  C   UNL A   1      43.481  28.539  33.935  1.00  0.00     0.037 A 
ATOM     58  C   UNL A   1      42.829  25.588  27.674  1.00  0.00     0.037 A 
ATOM     59  C   UNL A   1      44.363  29.386  33.163  1.00  0.00     0.049 A 
ATOM     60  C   UNL A   1      44.042  25.969  28.442  1.00  0.00     0.074 A 
ATOM     61  C   UNL A   1      44.370  30.730  32.841  1.00  0.00     0.029 A 
ATOM     62  N   UNL A   1      45.185  28.782  32.239  1.00  0.00    -0.354 N 
ATOM     63  N   UNL A   1      44.704  27.076  28.237  1.00  0.00    -0.248 NA
ATOM     64  C   UNL A   1      44.222  25.369  29.756  1.00  0.00     0.031 C 
ATOM     65  C   UNL A   1      44.776  30.782  31.473  1.00  0.00     0.029 A 
ATOM     66  C   UNL A   1      45.070  29.481  31.063  1.00  0.00     0.049 A 
ATOM     67  H   UNL A   1      45.754  27.994  32.395  1.00  0.00     0.167 HD
ATOM     68  C   UNL A   1      45.021  27.538  29.506  1.00  0.00     0.074 A 
ATOM     69  C   UNL A   1      44.771  26.405  30.396  1.00  0.00     0.031 C 
ATOM     70  C   UNL A   1      45.174  28.872  29.755  1.00  0.00     0.037 A 
BRANCH  57  71
ATOM     71  C   UNL A   1      44.006  27.497  34.886  1.00  0.00     0.064 A 
ATOM     72  C   UNL A   1      43.931  26.141  34.512  1.00  0.00     0.173 A 
ATOM     73  C   UNL A   1      44.291  27.740  36.246  1.00  0.00     0.173 A 
ATOM     74  F   UNL A   1      43.658  25.796  33.244  1.00  0.00    -0.203 F 
ATOM     75  C   UNL A   1      44.039  25.112  35.448  1.00  0.00     0.198 A 
ATOM     76  C   UNL A   1      44.452  26.708  37.167  1.00  0.00     0.198 A 
ATOM     77  F   UNL A   1      44.312  28.972  36.765  1.00  0.00    -0.203 F 
ATOM     78  F   UNL A   1      43.825  23.844  35.069  1.00  0.00    -0.200 F 
ATOM     79  C   UNL A   1      44.290  25.396  36.777  1.00  0.00     0.200 A 
ATOM     80  F   UNL A   1      44.679  27.006  38.455  1.00  0.00    -0.200 F 
ATOM     81  F   UNL A   1      44.326  24.416  37.689  1.00  0.00    -0.200 F 
ENDBRANCH  57  71
BRANCH  58  82
ATOM     82  C   UNL A   1      42.682  24.286  26.987  1.00  0.00     0.064 A 
ATOM     83  C   UNL A   1      43.141  24.104  25.673  1.00  0.00     0.173 A 
ATOM     84  C   UNL A   1      42.356  23.116  27.703  1.00  0.00     0.173 A 
ATOM     85  F   UNL A   1      43.509  25.162  24.936  1.00  0.00    -0.203 F 
ATOM     86  C   UNL A   1      43.301  22.827  25.122  1.00  0.00     0.198 A 
ATOM     87  C   UNL A   1      42.514  21.845  27.152  1.00  0.00     0.198 A 
ATOM     88  F   UNL A   1      41.973  23.182  28.987  1.00  0.00    -0.203 F 
ATOM     89  F   UNL A   1      43.807  22.692  23.888  1.00  0.00    -0.200 F 
ATOM     90  C   UNL A   1      43.001  21.700  25.866  1.00  0.00     0.200 A 
ATOM     91  F   UNL A   1      42.255  20.760  27.897  1.00  0.00    -0.200 F 
ATOM     92  F   UNL A   1      43.221  20.476  25.364  1.00  0.00    -0.200 F 
ENDBRANCH  58  82
BRANCH  70  93
ATOM     93  C   UNL A   1      45.238  29.805  28.575  1.00  0.00     0.064 A 
ATOM     94  C   UNL A   1      44.113  30.391  27.965  1.00  0.00     0.173 A 
ATOM     95  C   UNL A   1      46.497  30.232  28.134  1.00  0.00     0.173 A 
ATOM     96  F   UNL A   1      42.875  30.116  28.390  1.00  0.00    -0.203 F 
ATOM     97  C   UNL A   1      44.248  31.324  26.937  1.00  0.00     0.198 A 
ATOM     98  C   UNL A   1      46.629  31.191  27.132  1.00  0.00     0.198 A 
ATOM     99  F   UNL A   1      47.609  29.751  28.712  1.00  0.00    -0.203 F 
ATOM    100  F   UNL A   1      43.156  31.858  26.365  1.00  0.00    -0.200 F 
ATOM    101  C   UNL A   1      45.505  31.728  26.527  1.00  0.00     0.200 A 
ATOM    102  F   UNL A   1      47.849  31.613  26.772  1.00  0.00    -0.200 F 
ATOM    103  F   UNL A   1      45.636  32.654  25.565  1.00  0.00    -0.200 F 
ENDBRANCH  70  93
ENDBRANCH  44  45
ENDBRANCH  36  39
ENDBRANCH  34  35
ENDBRANCH  33  34
ENDBRANCH   1  33
TORSDOF 15
ENDMDL
MODEL 2
REMARK VINA RESULT:     -13.5      1.193      2.009
REMARK SMILES CC(C)CCn1nc(C(=O)NCCCNC(=O)c2ccc(-c3c4nc(c(-c5c(F)c(F)c(F)c(F)c5F)c5ccc([nH]5)c(-c5c(F)c(F)c(F)c(F)c5F)c5nc(c(-c6c(F)c(F)c(F)c(F)c6F)c6ccc3[nH]6)C=C5)C=C4)cc2)c2c1CCN(C(=O)[C@@H]1CCc3nn(C)c(=O)n3C1)C2
REMARK SMILES IDX 12 1 11 2 9 3 10 4 8 6 6 7 7 8 82 9 81 10 83 11 99 12 84 13
REMARK SMILES IDX 85 14 5 15 4 16 2 17 1 18 3 19 86 20 87 21 88 22 89 23 98 24
REMARK SMILES IDX 90 25 97 26 91 27 95 28 92 29 93 30 96 31 94 32 13 33 14 34
REMARK SMILES IDX 15 35 16 36 17 38 18 39 19 40 80 41 20 42 79 43 21 44 22 45
REMARK SMILES IDX 23 46 73 47 24 48 78 49 72 50 74 51 25 52 77 53 71 54 70 55
REMARK SMILES IDX 26 57 58 58 38 59 57 60 39 61 42 62 56 63 75 64 40 65 41 66
REMARK SMILES IDX 55 68 76 69 43 70 27 71 28 72 36 73 29 74 30 75 34 76 37 77
REMARK SMILES IDX 31 78 32 79 35 80 33 81 59 82 60 83 68 84 61 85 62 86 66 87
REMARK SMILES IDX 69 88 63 89 64 90 67 91 65 92 44 93 45 94 53 95 46 96 47 97
REMARK SMILES IDX 51 98 54 99 48 100 49 101 52 102 50 103
REMARK H PARENT 11 5 15 37 74 56 42 67
REMARK Flexibility Score: inf
ROOT
ATOM      1  C   UNL A   1      33.878  30.043  27.056  1.00  0.00     0.118 C 
ENDROOT
BRANCH   1   2
ATOM      2  N   UNL A   1      32.756  29.347  27.697  1.00  0.00    -0.351 N 
ATOM      3  C   UNL A   1      31.775  28.453  27.279  1.00  0.00     0.272 C 
ATOM      4  O   UNL A   1      31.164  27.904  28.201  1.00  0.00    -0.267 OA
ATOM      5  H   UNL A   1      32.679  29.563  28.654  1.00  0.00     0.163 HD
BRANCH   3   6
ATOM      6  C   UNL A   1      31.460  28.152  25.854  1.00  0.00     0.155 A 
ATOM      7  N   UNL A   1      30.951  28.528  23.788  1.00  0.00    -0.268 N 
ATOM      8  N   UNL A   1      31.162  29.144  24.975  1.00  0.00    -0.167 NA
ATOM      9  C   UNL A   1      30.908  27.181  23.921  1.00  0.00     0.046 A 
ATOM     10  C   UNL A   1      31.492  26.933  25.135  1.00  0.00     0.026 A 
ATOM     11  C   UNL A   1      30.455  26.114  22.996  1.00  0.00     0.078 C 
ATOM     12  C   UNL A   1      31.908  25.592  25.528  1.00  0.00     0.159 C 
ATOM     13  C   UNL A   1      30.397  24.806  23.823  1.00  0.00     0.126 C 
ATOM     14  N   UNL A   1      31.649  24.553  24.551  1.00  0.00    -0.338 N 
BRANCH   7  15
ATOM     15  C   UNL A   1      31.008  29.276  22.547  1.00  0.00     0.145 C 
BRANCH  15  16
ATOM     16  C   UNL A   1      29.651  29.732  22.015  1.00  0.00     0.027 C 
BRANCH  16  17
ATOM     17  C   UNL A   1      28.607  29.971  23.118  1.00  0.00    -0.016 C 
ATOM     18  C   UNL A   1      28.029  31.382  23.026  1.00  0.00     0.007 C 
ATOM     19  C   UNL A   1      27.495  28.928  23.023  1.00  0.00     0.007 C 
ENDBRANCH  16  17
ENDBRANCH  15  16
ENDBRANCH   7  15
BRANCH  14  20
ATOM     20  C   UNL A   1      32.337  23.375  24.794  1.00  0.00     0.227 C 
ATOM     21  O   UNL A   1      32.623  23.074  25.967  1.00  0.00    -0.274 OA
BRANCH  20  22
ATOM     22  C   UNL A   1      32.857  22.412  23.726  1.00  0.00     0.099 C 
ATOM     23  C   UNL A   1      32.683  20.934  24.071  1.00  0.00     0.023 C 
ATOM     24  C   UNL A   1      34.218  22.719  23.130  1.00  0.00     0.142 C 
ATOM     25  C   UNL A   1      33.793  20.378  24.946  1.00  0.00     0.078 C 
ATOM     26  N   UNL A   1      35.278  21.993  23.782  1.00  0.00    -0.278 N 
ATOM     27  C   UNL A   1      35.141  20.976  24.658  1.00  0.00     0.133 A 
ATOM     28  C   UNL A   1      36.550  22.485  23.950  1.00  0.00     0.345 A 
ATOM     29  N   UNL A   1      36.202  20.730  25.374  1.00  0.00    -0.155 NA
ATOM     30  N   UNL A   1      37.111  21.684  24.952  1.00  0.00    -0.216 N 
ATOM     31  O   UNL A   1      37.011  23.505  23.465  1.00  0.00    -0.246 OA
ATOM     32  C   UNL A   1      38.234  22.081  25.758  1.00  0.00     0.179 C 
ENDBRANCH  20  22
ENDBRANCH  14  20
ENDBRANCH   3   6
ENDBRANCH   1   2
BRANCH   1  33
ATOM     33  C   UNL A   1      33.886  31.564  27.318  1.00  0.00     0.042 C 
BRANCH  33  34
ATOM     34  C   UNL A   1      34.435  32.055  28.616  1.00  0.00     0.118 C 
BRANCH  34  35
ATOM     35  N   UNL A   1      35.416  33.139  28.469  1.00  0.00    -0.352 N 
ATOM     36  C   UNL A   1      36.742  33.122  28.903  1.00  0.00     0.251 C 
ATOM     37  H   UNL A   1      35.108  33.959  28.019  1.00  0.00     0.163 HD
ATOM     38  O   UNL A   1      37.363  34.140  29.125  1.00  0.00    -0.269 OA
BRANCH  36  39
ATOM     39  C   UNL A   1      37.348  31.790  29.101  1.00  0.00     0.039 A 
ATOM     40  C   UNL A   1      37.257  30.749  28.181  1.00  0.00     0.014 A 
ATOM     41  C   UNL A   1      38.202  31.700  30.182  1.00  0.00     0.014 A 
ATOM     42  C   UNL A   1      38.133  29.675  28.338  1.00  0.00     0.010 A 
ATOM     43  C   UNL A   1      39.307  30.929  30.028  1.00  0.00     0.010 A 
ATOM     44  C   UNL A   1      39.192  29.800  29.255  1.00  0.00    -0.014 A 
BRANCH  44  45
ATOM     45  C   UNL A   1      40.222  28.799  29.456  1.00  0.00     0.031 A 
ATOM     46  C   UNL A   1      40.510  28.495  30.868  1.00  0.00     0.074 A 
ATOM     47  C   UNL A   1      40.791  28.092  28.451  1.00  0.00     0.049 A 
ATOM     48  N   UNL A   1      41.502  28.949  31.554  1.00  0.00    -0.248 NA
ATOM     49  C   UNL A   1      39.516  27.757  31.655  1.00  0.00     0.031 C 
ATOM     50  C   UNL A   1      40.440  28.014  27.023  1.00  0.00     0.029 A 
ATOM     51  N   UNL A   1      41.828  27.219  28.538  1.00  0.00    -0.354 N 
ATOM     52  C   UNL A   1      41.378  28.392  32.816  1.00  0.00     0.074 A 
ATOM     53  C   UNL A   1      40.053  27.828  32.877  1.00  0.00     0.031 C 
ATOM     54  C   UNL A   1      41.105  26.993  26.439  1.00  0.00     0.029 A 
ATOM     55  C   UNL A   1      42.069  26.480  27.389  1.00  0.00     0.049 A 
ATOM     56  H   UNL A   1      42.368  27.119  29.355  1.00  0.00     0.167 HD
ATOM     57  C   UNL A   1      42.478  28.248  33.605  1.00  0.00     0.037 A 
ATOM     58  C   UNL A   1      43.011  25.518  27.233  1.00  0.00     0.037 A 
ATOM     59  C   UNL A   1      43.586  29.021  33.090  1.00  0.00     0.049 A 
ATOM     60  C   UNL A   1      44.046  25.760  28.272  1.00  0.00     0.074 A 
ATOM     61  C   UNL A   1      43.788  30.365  32.839  1.00  0.00     0.029 A 
ATOM     62  N   UNL A   1      44.539  28.361  32.350  1.00  0.00    -0.354 N 
ATOM     63  N   UNL A   1      44.835  26.801  28.270  1.00  0.00    -0.248 NA
ATOM     64  C   UNL A   1      43.865  25.115  29.564  1.00  0.00     0.031 C 
ATOM     65  C   UNL A   1      44.499  30.407  31.601  1.00  0.00     0.029 A 
ATOM     66  C   UNL A   1      44.761  29.093  31.210  1.00  0.00     0.049 A 
ATOM     67  H   UNL A   1      44.984  27.517  32.595  1.00  0.00     0.167 HD
ATOM     68  C   UNL A   1      44.893  27.201  29.598  1.00  0.00     0.074 A 
ATOM     69  C   UNL A   1      44.344  26.078  30.357  1.00  0.00     0.031 C 
ATOM     70  C   UNL A   1      45.105  28.508  29.933  1.00  0.00     0.037 A 
BRANCH  57  71
ATOM     71  C   UNL A   1      42.675  27.138  34.603  1.00  0.00     0.064 A 
ATOM     72  C   UNL A   1      42.632  27.448  35.976  1.00  0.00     0.173 A 
ATOM     73  C   UNL A   1      43.199  25.868  34.280  1.00  0.00     0.173 A 
ATOM     74  F   UNL A   1      42.159  28.631  36.395  1.00  0.00    -0.203 F 
ATOM     75  C   UNL A   1      43.160  26.590  36.942  1.00  0.00     0.198 A 
ATOM     76  C   UNL A   1      43.676  24.992  35.251  1.00  0.00     0.198 A 
ATOM     77  F   UNL A   1      43.380  25.468  33.017  1.00  0.00    -0.203 F 
ATOM     78  F   UNL A   1      43.220  26.986  38.221  1.00  0.00    -0.200 F 
ATOM     79  C   UNL A   1      43.691  25.367  36.578  1.00  0.00     0.200 A 
ATOM     80  F   UNL A   1      44.202  23.817  34.876  1.00  0.00    -0.200 F 
ATOM     81  F   UNL A   1      44.261  24.572  37.493  1.00  0.00    -0.200 F 
ENDBRANCH  57  71
BRANCH  58  82
ATOM     82  C   UNL A   1      42.908  24.252  26.473  1.00  0.00     0.064 A 
ATOM     83  C   UNL A   1      43.706  24.019  25.343  1.00  0.00     0.173 A 
ATOM     84  C   UNL A   1      42.239  23.132  27.010  1.00  0.00     0.173 A 
ATOM     85  F   UNL A   1      44.405  25.022  24.794  1.00  0.00    -0.203 F 
ATOM     86  C   UNL A   1      43.857  22.736  24.804  1.00  0.00     0.198 A 
ATOM     87  C   UNL A   1      42.389  21.855  26.469  1.00  0.00     0.198 A 
ATOM     88  F   UNL A   1      41.508  23.241  28.129  1.00  0.00    -0.203 F 
ATOM     89  F   UNL A   1      44.682  22.542  23.764  1.00  0.00    -0.200 F 
ATOM     90  C   UNL A   1      43.210  21.654  25.375  1.00  0.00     0.200 A 
ATOM     91  F   UNL A   1      41.787  20.810  27.056  1.00  0.00    -0.200 F 
ATOM     92  F   UNL A   1      43.410  20.416  24.903  1.00  0.00    -0.200 F 
ENDBRANCH  58  82
BRANCH  70  93
ATOM     93  C   UNL A   1      45.522  29.456  28.841  1.00  0.00     0.064 A 
ATOM     94  C   UNL A   1      44.624  30.201  28.053  1.00  0.00     0.173 A 
ATOM     95  C   UNL A   1      46.887  29.726  28.681  1.00  0.00     0.173 A 
ATOM     96  F   UNL A   1      43.302  30.079  28.210  1.00  0.00    -0.203 F 
ATOM     97  C   UNL A   1      45.079  31.136  27.124  1.00  0.00     0.198 A 
ATOM     98  C   UNL A   1      47.336  30.687  27.778  1.00  0.00     0.198 A 
ATOM     99  F   UNL A   1      47.790  29.087  29.441  1.00  0.00    -0.203 F 
ATOM    100  F   UNL A   1      44.200  31.824  26.377  1.00  0.00    -0.200 F 
ATOM    101  C   UNL A   1      46.434  31.383  26.992  1.00  0.00     0.200 A 
ATOM    102  F   UNL A   1      48.646  30.955  27.690  1.00  0.00    -0.200 F 
ATOM    103  F   UNL A   1      46.870  32.309  26.126  1.00  0.00    -0.200 F 
ENDBRANCH  70  93
ENDBRANCH  44  45
ENDBRANCH  36  39
ENDBRANCH  34  35
ENDBRANCH  33  34
ENDBRANCH   1  33
TORSDOF 15
ENDMDL
MODEL 3
REMARK VINA RESULT:     -13.4      7.271     13.792
REMARK SMILES CC(C)CCn1nc(C(=O)NCCCNC(=O)c2ccc(-c3c4nc(c(-c5c(F)c(F)c(F)c(F)c5F)c5ccc([nH]5)c(-c5c(F)c(F)c(F)c(F)c5F)c5nc(c(-c6c(F)c(F)c(F)c(F)c6F)c6ccc3[nH]6)C=C5)C=C4)cc2)c2c1CCN(C(=O)[C@@H]1CCc3nn(C)c(=O)n3C1)C2
REMARK SMILES IDX 12 1 11 2 9 3 10 4 8 6 6 7 7 8 82 9 81 10 83 11 99 12 84 13
REMARK SMILES IDX 85 14 5 15 4 16 2 17 1 18 3 19 86 20 87 21 88 22 89 23 98 24
REMARK SMILES IDX 90 25 97 26 91 27 95 28 92 29 93 30 96 31 94 32 13 33 14 34
REMARK SMILES IDX 15 35 16 36 17 38 18 39 19 40 80 41 20 42 79 43 21 44 22 45
REMARK SMILES IDX 23 46 73 47 24 48 78 49 72 50 74 51 25 52 77 53 71 54 70 55
REMARK SMILES IDX 26 57 58 58 38 59 57 60 39 61 42 62 56 63 75 64 40 65 41 66
REMARK SMILES IDX 55 68 76 69 43 70 27 71 28 72 36 73 29 74 30 75 34 76 37 77
REMARK SMILES IDX 31 78 32 79 35 80 33 81 59 82 60 83 68 84 61 85 62 86 66 87
REMARK SMILES IDX 69 88 63 89 64 90 67 91 65 92 44 93 45 94 53 95 46 96 47 97
REMARK SMILES IDX 51 98 54 99 48 100 49 101 52 102 50 103
REMARK H PARENT 11 5 15 37 74 56 42 67
REMARK Flexibility Score: inf
ROOT
ATOM      1  C   UNL A   1      45.087  21.777  35.556  1.00  0.00     0.118 C 
ENDROOT
BRANCH   1   2
ATOM      2  N   UNL A   1      45.230  20.377  35.138  1.00  0.00    -0.351 N 
ATOM      3  C   UNL A   1      45.524  19.177  35.778  1.00  0.00     0.272 C 
ATOM      4  O   UNL A   1      45.297  18.171  35.098  1.00  0.00    -0.267 OA
ATOM      5  H   UNL A   1      45.084  20.257  34.173  1.00  0.00     0.163 HD
BRANCH   3   6
ATOM      6  C   UNL A   1      46.061  19.069  37.164  1.00  0.00     0.155 A 
ATOM      7  N   UNL A   1      47.254  19.557  38.898  1.00  0.00    -0.268 N 
ATOM      8  N   UNL A   1      47.017  19.922  37.616  1.00  0.00    -0.167 NA
ATOM      9  C   UNL A   1      46.636  18.393  39.212  1.00  0.00     0.046 A 
ATOM     10  C   UNL A   1      45.683  18.233  38.242  1.00  0.00     0.026 A 
ATOM     11  C   UNL A   1      46.797  17.474  40.365  1.00  0.00     0.078 C 
ATOM     12  C   UNL A   1      44.609  17.257  38.376  1.00  0.00     0.159 C 
ATOM     13  C   UNL A   1      46.011  16.186  40.016  1.00  0.00     0.126 C 
ATOM     14  N   UNL A   1      44.632  16.473  39.594  1.00  0.00    -0.338 N 
BRANCH   7  15
ATOM     15  C   UNL A   1      47.903  20.471  39.818  1.00  0.00     0.145 C 
BRANCH  15  16
ATOM     16  C   UNL A   1      47.373  21.903  39.773  1.00  0.00     0.027 C 
BRANCH  16  17
ATOM     17  C   UNL A   1      45.839  21.992  39.802  1.00  0.00    -0.016 C 
ATOM     18  C   UNL A   1      45.282  21.400  41.096  1.00  0.00     0.007 C 
ATOM     19  C   UNL A   1      45.394  23.445  39.641  1.00  0.00     0.007 C 
ENDBRANCH  16  17
ENDBRANCH  15  16
ENDBRANCH   7  15
BRANCH  14  20
ATOM     20  C   UNL A   1      43.445  15.807  39.851  1.00  0.00     0.227 C 
ATOM     21  O   UNL A   1      43.013  14.997  39.012  1.00  0.00    -0.274 OA
BRANCH  20  22
ATOM     22  C   UNL A   1      42.549  16.024  41.073  1.00  0.00     0.099 C 
ATOM     23  C   UNL A   1      43.300  16.428  42.340  1.00  0.00     0.023 C 
ATOM     24  C   UNL A   1      41.479  14.981  41.332  1.00  0.00     0.142 C 
ATOM     25  C   UNL A   1      43.869  15.252  43.113  1.00  0.00     0.078 C 
ATOM     26  N   UNL A   1      41.906  13.981  42.277  1.00  0.00    -0.278 N 
ATOM     27  C   UNL A   1      43.008  14.022  43.054  1.00  0.00     0.133 A 
ATOM     28  C   UNL A   1      41.512  12.666  42.227  1.00  0.00     0.345 A 
ATOM     29  N   UNL A   1      43.370  12.870  43.544  1.00  0.00    -0.155 NA
ATOM     30  N   UNL A   1      42.441  11.986  43.024  1.00  0.00    -0.216 N 
ATOM     31  O   UNL A   1      40.657  12.183  41.502  1.00  0.00    -0.246 OA
ATOM     32  C   UNL A   1      42.699  10.574  42.924  1.00  0.00     0.179 C 
ENDBRANCH  20  22
ENDBRANCH  14  20
ENDBRANCH   3   6
ENDBRANCH   1   2
BRANCH   1  33
ATOM     33  C   UNL A   1      44.200  22.612  34.607  1.00  0.00     0.042 C 
BRANCH  33  34
ATOM     34  C   UNL A   1      43.106  23.435  35.202  1.00  0.00     0.118 C 
BRANCH  34  35
ATOM     35  N   UNL A   1      43.577  24.408  36.198  1.00  0.00    -0.352 N 
ATOM     36  C   UNL A   1      44.675  25.260  36.071  1.00  0.00     0.251 C 
ATOM     37  H   UNL A   1      43.067  24.465  37.038  1.00  0.00     0.163 HD
ATOM     38  O   UNL A   1      45.247  25.724  37.034  1.00  0.00    -0.269 OA
BRANCH  36  39
ATOM     39  C   UNL A   1      45.120  25.551  34.694  1.00  0.00     0.039 A 
ATOM     40  C   UNL A   1      46.354  25.164  34.176  1.00  0.00     0.014 A 
ATOM     41  C   UNL A   1      44.140  26.061  33.866  1.00  0.00     0.014 A 
ATOM     42  C   UNL A   1      46.512  25.212  32.791  1.00  0.00     0.010 A 
ATOM     43  C   UNL A   1      44.152  25.650  32.574  1.00  0.00     0.010 A 
ATOM     44  C   UNL A   1      45.375  25.423  31.991  1.00  0.00    -0.014 A 
BRANCH  44  45
ATOM     45  C   UNL A   1      45.382  25.411  30.541  1.00  0.00     0.031 A 
ATOM     46  C   UNL A   1      46.416  26.264  29.930  1.00  0.00     0.074 A 
ATOM     47  C   UNL A   1      44.607  24.593  29.791  1.00  0.00     0.049 A 
ATOM     48  N   UNL A   1      46.233  27.438  29.432  1.00  0.00    -0.248 NA
ATOM     49  C   UNL A   1      47.823  25.859  30.028  1.00  0.00     0.031 C 
ATOM     50  C   UNL A   1      43.745  23.468  30.189  1.00  0.00     0.029 A 
ATOM     51  N   UNL A   1      44.474  24.590  28.439  1.00  0.00    -0.354 N 
ATOM     52  C   UNL A   1      47.470  27.850  28.965  1.00  0.00     0.074 A 
ATOM     53  C   UNL A   1      48.434  26.934  29.520  1.00  0.00     0.031 C 
ATOM     54  C   UNL A   1      43.360  22.771  29.097  1.00  0.00     0.029 A 
ATOM     55  C   UNL A   1      43.774  23.509  27.922  1.00  0.00     0.049 A 
ATOM     56  H   UNL A   1      44.846  25.301  27.869  1.00  0.00     0.167 HD
ATOM     57  C   UNL A   1      47.545  28.773  27.967  1.00  0.00     0.037 A 
ATOM     58  C   UNL A   1      43.544  23.252  26.612  1.00  0.00     0.037 A 
ATOM     59  C   UNL A   1      46.269  29.426  27.773  1.00  0.00     0.049 A 
ATOM     60  C   UNL A   1      43.688  24.543  25.890  1.00  0.00     0.074 A 
ATOM     61  C   UNL A   1      45.441  30.183  28.581  1.00  0.00     0.029 A 
ATOM     62  N   UNL A   1      45.473  28.984  26.742  1.00  0.00    -0.354 N 
ATOM     63  N   UNL A   1      42.861  25.543  26.035  1.00  0.00    -0.248 NA
ATOM     64  C   UNL A   1      45.012  24.894  25.398  1.00  0.00     0.031 C 
ATOM     65  C   UNL A   1      44.119  29.740  28.273  1.00  0.00     0.029 A 
ATOM     66  C   UNL A   1      44.208  28.803  27.243  1.00  0.00     0.049 A 
ATOM     67  H   UNL A   1      45.758  28.827  25.812  1.00  0.00     0.167 HD
ATOM     68  C   UNL A   1      43.672  26.667  26.081  1.00  0.00     0.074 A 
ATOM     69  C   UNL A   1      44.977  26.214  25.602  1.00  0.00     0.031 C 
ATOM     70  C   UNL A   1      43.297  27.782  26.775  1.00  0.00     0.037 A 
BRANCH  57  71
ATOM     71  C   UNL A   1      48.633  28.823  26.928  1.00  0.00     0.064 A 
ATOM     72  C   UNL A   1      48.746  27.757  26.015  1.00  0.00     0.173 A 
ATOM     73  C   UNL A   1      49.737  29.701  26.980  1.00  0.00     0.173 A 
ATOM     74  F   UNL A   1      47.757  26.858  25.889  1.00  0.00    -0.203 F 
ATOM     75  C   UNL A   1      49.912  27.534  25.282  1.00  0.00     0.198 A 
ATOM     76  C   UNL A   1      50.878  29.506  26.208  1.00  0.00     0.198 A 
ATOM     77  F   UNL A   1      49.810  30.709  27.856  1.00  0.00    -0.203 F 
ATOM     78  F   UNL A   1      50.024  26.431  24.530  1.00  0.00    -0.200 F 
ATOM     79  C   UNL A   1      50.982  28.403  25.387  1.00  0.00     0.200 A 
ATOM     80  F   UNL A   1      51.911  30.351  26.335  1.00  0.00    -0.200 F 
ATOM     81  F   UNL A   1      52.127  28.155  24.738  1.00  0.00    -0.200 F 
ENDBRANCH  57  71
BRANCH  58  82
ATOM     82  C   UNL A   1      43.526  21.939  25.927  1.00  0.00     0.064 A 
ATOM     83  C   UNL A   1      44.703  21.377  25.410  1.00  0.00     0.173 A 
ATOM     84  C   UNL A   1      42.413  21.080  26.026  1.00  0.00     0.173 A 
ATOM     85  F   UNL A   1      45.819  22.115  25.318  1.00  0.00    -0.203 F 
ATOM     86  C   UNL A   1      44.774  20.026  25.049  1.00  0.00     0.198 A 
ATOM     87  C   UNL A   1      42.485  19.735  25.664  1.00  0.00     0.198 A 
ATOM     88  F   UNL A   1      41.264  21.506  26.571  1.00  0.00    -0.203 F 
ATOM     89  F   UNL A   1      45.936  19.509  24.623  1.00  0.00    -0.200 F 
ATOM     90  C   UNL A   1      43.670  19.204  25.189  1.00  0.00     0.200 A 
ATOM     91  F   UNL A   1      41.418  18.941  25.840  1.00  0.00    -0.200 F 
ATOM     92  F   UNL A   1      43.757  17.896  24.911  1.00  0.00    -0.200 F 
ENDBRANCH  58  82
BRANCH  70  93
ATOM     93  C   UNL A   1      41.879  27.854  27.277  1.00  0.00     0.064 A 
ATOM     94  C   UNL A   1      41.430  27.259  28.470  1.00  0.00     0.173 A 
ATOM     95  C   UNL A   1      40.974  28.677  26.594  1.00  0.00     0.173 A 
ATOM     96  F   UNL A   1      42.255  26.538  29.236  1.00  0.00    -0.203 F 
ATOM     97  C   UNL A   1      40.125  27.446  28.928  1.00  0.00     0.198 A 
ATOM     98  C   UNL A   1      39.684  28.892  27.073  1.00  0.00     0.198 A 
ATOM     99  F   UNL A   1      41.359  29.317  25.478  1.00  0.00    -0.203 F 
ATOM    100  F   UNL A   1      39.720  26.855  30.063  1.00  0.00    -0.200 F 
ATOM    101  C   UNL A   1      39.256  28.268  28.233  1.00  0.00     0.200 A 
ATOM    102  F   UNL A   1      38.863  29.727  26.421  1.00  0.00    -0.200 F 
ATOM    103  F   UNL A   1      38.015  28.479  28.693  1.00  0.00    -0.200 F 
ENDBRANCH  70  93
ENDBRANCH  44  45
ENDBRANCH  36  39
ENDBRANCH  34  35
ENDBRANCH  33  34
ENDBRANCH   1  33
TORSDOF 15
ENDMDL
