MODEL 1
REMARK VINA RESULT:     -12.4      0.000      0.000
REMARK SMILES CCNC(=O)c1ccc(N[C@@H]2COC[C@@]2(C)C(=O)NCCCNC(=O)c2ccc(-c3c4nc(c(-c5c(F)c(F)c(F)c(F)c5F)c5ccc([nH]5)c(-c5c(F)c(F)c(F)c(F)c5F)c5nc(c(-c6c(F)c(F)c(F)c(F)c6F)c6ccc3[nH]6)C=C5)C=C4)cc2)nn1
REMARK SMILES IDX 20 1 19 2 17 3 18 4 15 6 11 7 12 8 13 9 14 10 16 11 10 12
REMARK SMILES IDX 9 14 6 15 7 16 90 17 8 18 89 19 4 20 3 21 5 23 2 24 1 25
REMARK SMILES IDX 21 26 22 27 23 28 24 29 25 31 26 32 27 33 88 34 28 35 87 36
REMARK SMILES IDX 29 37 30 38 31 39 81 40 32 41 86 42 80 43 82 44 33 45 85 46
REMARK SMILES IDX 79 47 78 48 34 50 66 51 46 52 65 53 47 54 50 55 64 56 83 57
REMARK SMILES IDX 48 58 49 59 63 61 84 62 51 63 35 64 36 65 44 66 37 67 38 68
REMARK SMILES IDX 42 69 45 70 39 71 40 72 43 73 41 74 67 75 68 76 76 77 69 78
REMARK SMILES IDX 70 79 74 80 77 81 71 82 72 83 75 84 73 85 52 86 53 87 61 88
REMARK SMILES IDX 54 89 55 90 59 91 62 92 56 93 57 94 60 95 58 96
REMARK H PARENT 19 5 10 13 3 22 23 30 82 49 50 60
REMARK Flexibility Score: inf
ROOT
ATOM      1  C   UNL A   1      31.559  30.760  26.116  1.00  0.00     0.117 C 
ENDROOT
BRANCH   1   2
ATOM      2  N   UNL A   1      32.812  30.169  26.550  1.00  0.00    -0.355 N 
ATOM      3  C   UNL A   1      33.296  28.905  26.357  1.00  0.00     0.230 C 
ATOM      4  O   UNL A   1      34.472  28.715  26.679  1.00  0.00    -0.274 OA
ATOM      5  H   UNL A   1      33.402  30.768  27.061  1.00  0.00     0.163 HD
BRANCH   3   6
ATOM      6  C   UNL A   1      32.402  27.783  25.823  1.00  0.00     0.092 C 
ATOM      7  C   UNL A   1      33.110  26.409  25.923  1.00  0.00     0.124 C 
ATOM      8  C   UNL A   1      31.969  25.431  26.165  1.00  0.00     0.186 C 
ATOM      9  O   UNL A   1      30.948  26.154  26.871  1.00  0.00    -0.378 OA
ATOM     10  C   UNL A   1      31.266  27.553  26.829  1.00  0.00     0.179 C 
ATOM     11  C   UNL A   1      31.859  28.091  24.420  1.00  0.00     0.026 C 
BRANCH   7  12
ATOM     12  N   UNL A   1      34.062  26.049  24.866  1.00  0.00    -0.362 N 
ATOM     13  H   UNL A   1      34.221  26.713  24.156  1.00  0.00     0.162 HD
BRANCH  12  14
ATOM     14  C   UNL A   1      34.751  24.857  24.786  1.00  0.00     0.149 A 
ATOM     15  C   UNL A   1      35.451  22.225  24.864  1.00  0.00     0.150 A 
ATOM     16  C   UNL A   1      34.931  22.723  23.685  1.00  0.00     0.040 A 
ATOM     17  N   UNL A   1      35.714  23.006  25.926  1.00  0.00    -0.143 NA
ATOM     18  C   UNL A   1      34.590  24.073  23.647  1.00  0.00     0.051 A 
ATOM     19  N   UNL A   1      35.368  24.334  25.867  1.00  0.00    -0.132 NA
BRANCH  15  20
ATOM     20  C   UNL A   1      35.730  20.784  25.011  1.00  0.00     0.271 C 
ATOM     21  N   UNL A   1      34.685  19.939  25.295  1.00  0.00    -0.351 N 
ATOM     22  H   UNL A   1      34.917  18.996  25.458  1.00  0.00     0.163 HD
ATOM     23  O   UNL A   1      36.880  20.363  24.928  1.00  0.00    -0.267 OA
BRANCH  21  24
ATOM     24  C   UNL A   1      33.278  20.278  25.381  1.00  0.00     0.113 C 
ATOM     25  C   UNL A   1      32.506  19.701  24.213  1.00  0.00     0.027 C 
ENDBRANCH  21  24
ENDBRANCH  15  20
ENDBRANCH  12  14
ENDBRANCH   7  12
ENDBRANCH   3   6
ENDBRANCH   1   2
BRANCH   1  26
ATOM     26  C   UNL A   1      31.374  32.206  26.515  1.00  0.00     0.042 C 
BRANCH  26  27
ATOM     27  C   UNL A   1      32.548  32.803  27.257  1.00  0.00     0.118 C 
BRANCH  27  28
ATOM     28  N   UNL A   1      32.350  34.199  27.625  1.00  0.00    -0.352 N 
ATOM     29  C   UNL A   1      32.967  34.968  28.586  1.00  0.00     0.251 C 
ATOM     30  H   UNL A   1      31.661  34.669  27.101  1.00  0.00     0.163 HD
ATOM     31  O   UNL A   1      32.552  36.093  28.828  1.00  0.00    -0.269 OA
BRANCH  29  32
ATOM     32  C   UNL A   1      34.114  34.424  29.349  1.00  0.00     0.039 A 
ATOM     33  C   UNL A   1      33.880  33.778  30.566  1.00  0.00     0.014 A 
ATOM     34  C   UNL A   1      35.415  34.543  28.868  1.00  0.00     0.014 A 
ATOM     35  C   UNL A   1      34.947  33.190  31.252  1.00  0.00     0.010 A 
ATOM     36  C   UNL A   1      36.444  33.831  29.467  1.00  0.00     0.010 A 
ATOM     37  C   UNL A   1      36.232  33.177  30.687  1.00  0.00    -0.014 A 
BRANCH  37  38
ATOM     38  C   UNL A   1      37.392  32.559  31.377  1.00  0.00     0.031 A 
ATOM     39  C   UNL A   1      38.136  31.432  30.706  1.00  0.00     0.074 A 
ATOM     40  C   UNL A   1      37.736  32.954  32.618  1.00  0.00     0.049 A 
ATOM     41  N   UNL A   1      39.107  30.685  31.169  1.00  0.00    -0.248 NA
ATOM     42  C   UNL A   1      37.698  31.062  29.349  1.00  0.00     0.031 C 
ATOM     43  C   UNL A   1      37.062  33.996  33.395  1.00  0.00     0.029 A 
ATOM     44  N   UNL A   1      38.737  32.516  33.448  1.00  0.00    -0.354 N 
ATOM     45  C   UNL A   1      39.370  29.751  30.174  1.00  0.00     0.074 A 
ATOM     46  C   UNL A   1      38.406  29.969  29.120  1.00  0.00     0.031 C 
ATOM     47  C   UNL A   1      37.691  34.141  34.572  1.00  0.00     0.029 A 
ATOM     48  C   UNL A   1      38.782  33.175  34.653  1.00  0.00     0.049 A 
ATOM     49  H   UNL A   1      39.364  31.798  33.204  1.00  0.00     0.167 HD
ATOM     50  C   UNL A   1      40.351  28.820  30.123  1.00  0.00     0.037 A 
ATOM     51  C   UNL A   1      39.610  33.012  35.702  1.00  0.00     0.037 A 
ATOM     52  C   UNL A   1      41.335  28.637  31.154  1.00  0.00     0.049 A 
ATOM     53  C   UNL A   1      40.698  31.974  35.620  1.00  0.00     0.074 A 
ATOM     54  C   UNL A   1      42.407  27.764  31.179  1.00  0.00     0.029 A 
ATOM     55  N   UNL A   1      41.367  29.347  32.346  1.00  0.00    -0.354 N 
ATOM     56  N   UNL A   1      40.978  31.141  34.646  1.00  0.00    -0.248 NA
ATOM     57  C   UNL A   1      41.591  31.861  36.780  1.00  0.00     0.031 C 
ATOM     58  C   UNL A   1      43.058  27.911  32.407  1.00  0.00     0.029 A 
ATOM     59  C   UNL A   1      42.432  28.920  33.120  1.00  0.00     0.049 A 
ATOM     60  H   UNL A   1      40.727  30.051  32.602  1.00  0.00     0.167 HD
ATOM     61  C   UNL A   1      42.102  30.436  35.058  1.00  0.00     0.074 A 
ATOM     62  C   UNL A   1      42.457  30.946  36.366  1.00  0.00     0.031 C 
ATOM     63  C   UNL A   1      42.781  29.457  34.411  1.00  0.00     0.037 A 
BRANCH  50  64
ATOM     64  C   UNL A   1      40.412  27.941  28.905  1.00  0.00     0.064 A 
ATOM     65  C   UNL A   1      41.184  28.284  27.784  1.00  0.00     0.173 A 
ATOM     66  C   UNL A   1      39.705  26.730  28.865  1.00  0.00     0.173 A 
ATOM     67  F   UNL A   1      41.869  29.438  27.762  1.00  0.00    -0.203 F 
ATOM     68  C   UNL A   1      41.216  27.468  26.656  1.00  0.00     0.198 A 
ATOM     69  C   UNL A   1      39.769  25.898  27.750  1.00  0.00     0.198 A 
ATOM     70  F   UNL A   1      38.953  26.350  29.909  1.00  0.00    -0.203 F 
ATOM     71  F   UNL A   1      41.909  27.850  25.575  1.00  0.00    -0.200 F 
ATOM     72  C   UNL A   1      40.516  26.272  26.643  1.00  0.00     0.200 A 
ATOM     73  F   UNL A   1      39.103  24.735  27.745  1.00  0.00    -0.200 F 
ATOM     74  F   UNL A   1      40.552  25.484  25.560  1.00  0.00    -0.200 F 
ENDBRANCH  50  64
BRANCH  51  75
ATOM     75  C   UNL A   1      39.470  33.876  36.905  1.00  0.00     0.064 A 
ATOM     76  C   UNL A   1      38.711  33.456  38.008  1.00  0.00     0.173 A 
ATOM     77  C   UNL A   1      40.073  35.140  36.975  1.00  0.00     0.173 A 
ATOM     78  F   UNL A   1      38.100  32.262  37.983  1.00  0.00    -0.203 F 
ATOM     79  C   UNL A   1      38.538  34.277  39.120  1.00  0.00     0.198 A 
ATOM     80  C   UNL A   1      39.925  35.948  38.101  1.00  0.00     0.198 A 
ATOM     81  F   UNL A   1      40.814  35.588  35.951  1.00  0.00    -0.203 F 
ATOM     82  F   UNL A   1      37.762  33.871  40.135  1.00  0.00    -0.200 F 
ATOM     83  C   UNL A   1      39.149  35.520  39.168  1.00  0.00     0.200 A 
ATOM     84  F   UNL A   1      40.531  37.142  38.150  1.00  0.00    -0.200 F 
ATOM     85  F   UNL A   1      38.983  36.311  40.237  1.00  0.00    -0.200 F 
ENDBRANCH  51  75
BRANCH  63  86
ATOM     86  C   UNL A   1      44.012  28.914  35.077  1.00  0.00     0.064 A 
ATOM     87  C   UNL A   1      43.964  27.815  35.947  1.00  0.00     0.173 A 
ATOM     88  C   UNL A   1      45.268  29.479  34.802  1.00  0.00     0.173 A 
ATOM     89  F   UNL A   1      42.788  27.246  36.251  1.00  0.00    -0.203 F 
ATOM     90  C   UNL A   1      45.122  27.323  36.541  1.00  0.00     0.198 A 
ATOM     91  C   UNL A   1      46.428  28.961  35.370  1.00  0.00     0.198 A 
ATOM     92  F   UNL A   1      45.371  30.525  33.969  1.00  0.00    -0.203 F 
ATOM     93  F   UNL A   1      45.045  26.306  37.412  1.00  0.00    -0.200 F 
ATOM     94  C   UNL A   1      46.353  27.890  36.247  1.00  0.00     0.200 A 
ATOM     95  F   UNL A   1      47.618  29.499  35.069  1.00  0.00    -0.200 F 
ATOM     96  F   UNL A   1      47.468  27.408  36.813  1.00  0.00    -0.200 F 
ENDBRANCH  63  86
ENDBRANCH  37  38
ENDBRANCH  29  32
ENDBRANCH  27  28
ENDBRANCH  26  27
ENDBRANCH   1  26
TORSDOF 14
ENDMDL
MODEL 2
REMARK VINA RESULT:     -12.1      2.126      7.897
REMARK SMILES CCNC(=O)c1ccc(N[C@@H]2COC[C@@]2(C)C(=O)NCCCNC(=O)c2ccc(-c3c4nc(c(-c5c(F)c(F)c(F)c(F)c5F)c5ccc([nH]5)c(-c5c(F)c(F)c(F)c(F)c5F)c5nc(c(-c6c(F)c(F)c(F)c(F)c6F)c6ccc3[nH]6)C=C5)C=C4)cc2)nn1
REMARK SMILES IDX 20 1 19 2 17 3 18 4 15 6 11 7 12 8 13 9 14 10 16 11 10 12
REMARK SMILES IDX 9 14 6 15 7 16 90 17 8 18 89 19 4 20 3 21 5 23 2 24 1 25
REMARK SMILES IDX 21 26 22 27 23 28 24 29 25 31 26 32 27 33 88 34 28 35 87 36
REMARK SMILES IDX 29 37 30 38 31 39 81 40 32 41 86 42 80 43 82 44 33 45 85 46
REMARK SMILES IDX 79 47 78 48 34 50 66 51 46 52 65 53 47 54 50 55 64 56 83 57
REMARK SMILES IDX 48 58 49 59 63 61 84 62 51 63 35 64 36 65 44 66 37 67 38 68
REMARK SMILES IDX 42 69 45 70 39 71 40 72 43 73 41 74 67 75 68 76 76 77 69 78
REMARK SMILES IDX 70 79 74 80 77 81 71 82 72 83 75 84 73 85 52 86 53 87 61 88
REMARK SMILES IDX 54 89 55 90 59 91 62 92 56 93 57 94 60 95 58 96
REMARK H PARENT 19 5 10 13 3 22 23 30 82 49 50 60
REMARK Flexibility Score: inf
ROOT
ATOM      1  C   UNL A   1      32.485  27.894  25.765  1.00  0.00     0.117 C 
ENDROOT
BRANCH   1   2
ATOM      2  N   UNL A   1      31.762  26.775  26.342  1.00  0.00    -0.355 N 
ATOM      3  C   UNL A   1      31.969  25.432  26.198  1.00  0.00     0.230 C 
ATOM      4  O   UNL A   1      31.318  24.695  26.943  1.00  0.00    -0.274 OA
ATOM      5  H   UNL A   1      31.008  27.021  26.926  1.00  0.00     0.163 HD
BRANCH   3   6
ATOM      6  C   UNL A   1      32.916  24.883  25.127  1.00  0.00     0.092 C 
ATOM      7  C   UNL A   1      32.602  23.399  24.811  1.00  0.00     0.124 C 
ATOM      8  C   UNL A   1      32.956  23.261  23.336  1.00  0.00     0.186 C 
ATOM      9  O   UNL A   1      32.731  24.546  22.736  1.00  0.00    -0.378 OA
ATOM     10  C   UNL A   1      32.535  25.512  23.779  1.00  0.00     0.179 C 
ATOM     11  C   UNL A   1      34.391  25.136  25.472  1.00  0.00     0.026 C 
BRANCH   7  12
ATOM     12  N   UNL A   1      33.148  22.376  25.709  1.00  0.00    -0.362 N 
ATOM     13  H   UNL A   1      33.509  22.679  26.574  1.00  0.00     0.162 HD
BRANCH  12  14
ATOM     14  C   UNL A   1      33.196  21.023  25.441  1.00  0.00     0.149 A 
ATOM     15  C   UNL A   1      33.240  18.599  24.200  1.00  0.00     0.150 A 
ATOM     16  C   UNL A   1      34.447  19.231  24.430  1.00  0.00     0.040 A 
ATOM     17  N   UNL A   1      32.070  19.085  24.651  1.00  0.00    -0.143 NA
ATOM     18  C   UNL A   1      34.418  20.463  25.080  1.00  0.00     0.051 A 
ATOM     19  N   UNL A   1      32.066  20.303  25.287  1.00  0.00    -0.132 NA
BRANCH  15  20
ATOM     20  C   UNL A   1      33.186  17.348  23.420  1.00  0.00     0.271 C 
ATOM     21  N   UNL A   1      33.630  16.188  24.007  1.00  0.00    -0.351 N 
ATOM     22  H   UNL A   1      33.648  15.388  23.435  1.00  0.00     0.163 HD
ATOM     23  O   UNL A   1      32.799  17.360  22.255  1.00  0.00    -0.267 OA
BRANCH  21  24
ATOM     24  C   UNL A   1      34.073  16.010  25.376  1.00  0.00     0.113 C 
ATOM     25  C   UNL A   1      35.567  15.768  25.439  1.00  0.00     0.027 C 
ENDBRANCH  21  24
ENDBRANCH  15  20
ENDBRANCH  12  14
ENDBRANCH   7  12
ENDBRANCH   3   6
ENDBRANCH   1   2
BRANCH   1  26
ATOM     26  C   UNL A   1      31.804  29.234  25.926  1.00  0.00     0.042 C 
BRANCH  26  27
ATOM     27  C   UNL A   1      32.216  29.998  27.163  1.00  0.00     0.118 C 
BRANCH  27  28
ATOM     28  N   UNL A   1      32.365  31.430  26.937  1.00  0.00    -0.352 N 
ATOM     29  C   UNL A   1      33.374  32.294  27.299  1.00  0.00     0.251 C 
ATOM     30  H   UNL A   1      31.621  31.847  26.445  1.00  0.00     0.163 HD
ATOM     31  O   UNL A   1      33.237  33.497  27.130  1.00  0.00    -0.269 OA
BRANCH  29  32
ATOM     32  C   UNL A   1      34.612  31.771  27.921  1.00  0.00     0.039 A 
ATOM     33  C   UNL A   1      35.613  32.666  28.307  1.00  0.00     0.014 A 
ATOM     34  C   UNL A   1      34.786  30.406  28.131  1.00  0.00     0.014 A 
ATOM     35  C   UNL A   1      36.748  32.189  28.969  1.00  0.00     0.010 A 
ATOM     36  C   UNL A   1      35.834  29.953  28.920  1.00  0.00     0.010 A 
ATOM     37  C   UNL A   1      36.849  30.833  29.317  1.00  0.00    -0.014 A 
BRANCH  37  38
ATOM     38  C   UNL A   1      38.032  30.284  30.026  1.00  0.00     0.031 A 
ATOM     39  C   UNL A   1      38.297  30.697  31.452  1.00  0.00     0.074 A 
ATOM     40  C   UNL A   1      38.898  29.479  29.381  1.00  0.00     0.049 A 
ATOM     41  N   UNL A   1      39.320  30.421  32.221  1.00  0.00    -0.248 NA
ATOM     42  C   UNL A   1      37.299  31.578  32.084  1.00  0.00     0.031 C 
ATOM     43  C   UNL A   1      38.783  29.050  27.987  1.00  0.00     0.029 A 
ATOM     44  N   UNL A   1      40.055  28.883  29.816  1.00  0.00    -0.354 N 
ATOM     45  C   UNL A   1      39.098  31.113  33.405  1.00  0.00     0.074 A 
ATOM     46  C   UNL A   1      37.890  31.886  33.226  1.00  0.00     0.031 C 
ATOM     47  C   UNL A   1      39.807  28.232  27.692  1.00  0.00     0.029 A 
ATOM     48  C   UNL A   1      40.674  28.114  28.861  1.00  0.00     0.049 A 
ATOM     49  H   UNL A   1      40.410  28.997  30.728  1.00  0.00     0.167 HD
ATOM     50  C   UNL A   1      39.812  31.079  34.554  1.00  0.00     0.037 A 
ATOM     51  C   UNL A   1      41.812  27.399  28.924  1.00  0.00     0.037 A 
ATOM     52  C   UNL A   1      40.987  30.274  34.742  1.00  0.00     0.049 A 
ATOM     53  C   UNL A   1      42.587  27.372  30.214  1.00  0.00     0.074 A 
ATOM     54  C   UNL A   1      41.755  30.119  35.882  1.00  0.00     0.029 A 
ATOM     55  N   UNL A   1      41.564  29.482  33.759  1.00  0.00    -0.354 N 
ATOM     56  N   UNL A   1      42.332  27.978  31.349  1.00  0.00    -0.248 NA
ATOM     57  C   UNL A   1      43.805  26.551  30.236  1.00  0.00     0.031 C 
ATOM     58  C   UNL A   1      42.824  29.273  35.575  1.00  0.00     0.029 A 
ATOM     59  C   UNL A   1      42.686  28.849  34.263  1.00  0.00     0.049 A 
ATOM     60  H   UNL A   1      41.224  29.385  32.840  1.00  0.00     0.167 HD
ATOM     61  C   UNL A   1      43.330  27.580  32.229  1.00  0.00     0.074 A 
ATOM     62  C   UNL A   1      44.191  26.672  31.499  1.00  0.00     0.031 C 
ATOM     63  C   UNL A   1      43.518  27.931  33.525  1.00  0.00     0.037 A 
BRANCH  50  64
ATOM     64  C   UNL A   1      39.330  31.928  35.697  1.00  0.00     0.064 A 
ATOM     65  C   UNL A   1      38.425  31.436  36.652  1.00  0.00     0.173 A 
ATOM     66  C   UNL A   1      39.793  33.243  35.853  1.00  0.00     0.173 A 
ATOM     67  F   UNL A   1      37.938  30.191  36.544  1.00  0.00    -0.203 F 
ATOM     68  C   UNL A   1      37.974  32.241  37.695  1.00  0.00     0.198 A 
ATOM     69  C   UNL A   1      39.368  34.032  36.919  1.00  0.00     0.198 A 
ATOM     70  F   UNL A   1      40.660  33.764  34.972  1.00  0.00    -0.203 F 
ATOM     71  F   UNL A   1      37.061  31.769  38.556  1.00  0.00    -0.200 F 
ATOM     72  C   UNL A   1      38.452  33.535  37.833  1.00  0.00     0.200 A 
ATOM     73  F   UNL A   1      39.843  35.278  37.058  1.00  0.00    -0.200 F 
ATOM     74  F   UNL A   1      38.023  34.306  38.841  1.00  0.00    -0.200 F 
ENDBRANCH  50  64
BRANCH  51  75
ATOM     75  C   UNL A   1      42.271  26.619  27.742  1.00  0.00     0.064 A 
ATOM     76  C   UNL A   1      41.783  25.327  27.499  1.00  0.00     0.173 A 
ATOM     77  C   UNL A   1      43.216  27.137  26.844  1.00  0.00     0.173 A 
ATOM     78  F   UNL A   1      40.892  24.780  28.340  1.00  0.00    -0.203 F 
ATOM     79  C   UNL A   1      42.242  24.573  26.421  1.00  0.00     0.198 A 
ATOM     80  C   UNL A   1      43.650  26.395  25.747  1.00  0.00     0.198 A 
ATOM     81  F   UNL A   1      43.711  28.370  27.025  1.00  0.00    -0.203 F 
ATOM     82  F   UNL A   1      41.798  23.320  26.246  1.00  0.00    -0.200 F 
ATOM     83  C   UNL A   1      43.171  25.109  25.543  1.00  0.00     0.200 A 
ATOM     84  F   UNL A   1      44.536  26.922  24.892  1.00  0.00    -0.200 F 
ATOM     85  F   UNL A   1      43.612  24.384  24.506  1.00  0.00    -0.200 F 
ENDBRANCH  51  75
BRANCH  63  86
ATOM     86  C   UNL A   1      44.659  27.288  34.258  1.00  0.00     0.064 A 
ATOM     87  C   UNL A   1      45.889  27.937  34.434  1.00  0.00     0.173 A 
ATOM     88  C   UNL A   1      44.499  26.016  34.831  1.00  0.00     0.173 A 
ATOM     89  F   UNL A   1      46.097  29.148  33.897  1.00  0.00    -0.203 F 
ATOM     90  C   UNL A   1      46.928  27.322  35.129  1.00  0.00     0.198 A 
ATOM     91  C   UNL A   1      45.527  25.420  35.556  1.00  0.00     0.198 A 
ATOM     92  F   UNL A   1      43.338  25.356  34.700  1.00  0.00    -0.203 F 
ATOM     93  F   UNL A   1      48.114  27.939  35.239  1.00  0.00    -0.200 F 
ATOM     94  C   UNL A   1      46.744  26.070  35.695  1.00  0.00     0.200 A 
ATOM     95  F   UNL A   1      45.340  24.218  36.118  1.00  0.00    -0.200 F 
ATOM     96  F   UNL A   1      47.742  25.485  36.373  1.00  0.00    -0.200 F 
ENDBRANCH  63  86
ENDBRANCH  37  38
ENDBRANCH  29  32
ENDBRANCH  27  28
ENDBRANCH  26  27
ENDBRANCH   1  26
TORSDOF 14
ENDMDL
MODEL 3
REMARK VINA RESULT:     -12.0      0.681      7.474
REMARK SMILES CCNC(=O)c1ccc(N[C@@H]2COC[C@@]2(C)C(=O)NCCCNC(=O)c2ccc(-c3c4nc(c(-c5c(F)c(F)c(F)c(F)c5F)c5ccc([nH]5)c(-c5c(F)c(F)c(F)c(F)c5F)c5nc(c(-c6c(F)c(F)c(F)c(F)c6F)c6ccc3[nH]6)C=C5)C=C4)cc2)nn1
REMARK SMILES IDX 20 1 19 2 17 3 18 4 15 6 11 7 12 8 13 9 14 10 16 11 10 12
REMARK SMILES IDX 9 14 6 15 7 16 90 17 8 18 89 19 4 20 3 21 5 23 2 24 1 25
REMARK SMILES IDX 21 26 22 27 23 28 24 29 25 31 26 32 27 33 88 34 28 35 87 36
REMARK SMILES IDX 29 37 30 38 31 39 81 40 32 41 86 42 80 43 82 44 33 45 85 46
REMARK SMILES IDX 79 47 78 48 34 50 66 51 46 52 65 53 47 54 50 55 64 56 83 57
REMARK SMILES IDX 48 58 49 59 63 61 84 62 51 63 35 64 36 65 44 66 37 67 38 68
REMARK SMILES IDX 42 69 45 70 39 71 40 72 43 73 41 74 67 75 68 76 76 77 69 78
REMARK SMILES IDX 70 79 74 80 77 81 71 82 72 83 75 84 73 85 52 86 53 87 61 88
REMARK SMILES IDX 54 89 55 90 59 91 62 92 56 93 57 94 60 95 58 96
REMARK H PARENT 19 5 10 13 3 22 23 30 82 49 50 60
REMARK Flexibility Score: inf
ROOT
ATOM      1  C   UNL A   1      31.475  30.633  26.351  1.00  0.00     0.117 C 
ENDROOT
BRANCH   1   2
ATOM      2  N   UNL A   1      32.767  30.038  26.645  1.00  0.00    -0.355 N 
ATOM      3  C   UNL A   1      33.246  28.795  26.340  1.00  0.00     0.230 C 
ATOM      4  O   UNL A   1      34.447  28.605  26.553  1.00  0.00    -0.274 OA
ATOM      5  H   UNL A   1      33.391  30.617  27.140  1.00  0.00     0.163 HD
BRANCH   3   6
ATOM      6  C   UNL A   1      32.323  27.691  25.819  1.00  0.00     0.092 C 
ATOM      7  C   UNL A   1      33.017  26.307  25.879  1.00  0.00     0.124 C 
ATOM      8  C   UNL A   1      31.871  25.340  26.142  1.00  0.00     0.186 C 
ATOM      9  O   UNL A   1      30.881  26.065  26.887  1.00  0.00    -0.378 OA
ATOM     10  C   UNL A   1      31.214  27.460  26.855  1.00  0.00     0.179 C 
ATOM     11  C   UNL A   1      31.743  28.025  24.436  1.00  0.00     0.026 C 
BRANCH   7  12
ATOM     12  N   UNL A   1      33.932  25.951  24.789  1.00  0.00    -0.362 N 
ATOM     13  H   UNL A   1      33.985  26.567  24.023  1.00  0.00     0.162 HD
BRANCH  12  14
ATOM     14  C   UNL A   1      34.724  24.822  24.750  1.00  0.00     0.149 A 
ATOM     15  C   UNL A   1      35.629  22.253  24.811  1.00  0.00     0.150 A 
ATOM     16  C   UNL A   1      35.220  22.768  23.596  1.00  0.00     0.040 A 
ATOM     17  N   UNL A   1      35.690  22.997  25.929  1.00  0.00    -0.143 NA
ATOM     18  C   UNL A   1      34.774  24.087  23.569  1.00  0.00     0.051 A 
ATOM     19  N   UNL A   1      35.242  24.295  25.880  1.00  0.00    -0.132 NA
BRANCH  15  20
ATOM     20  C   UNL A   1      36.007  20.833  24.933  1.00  0.00     0.271 C 
ATOM     21  N   UNL A   1      35.024  19.911  25.199  1.00  0.00    -0.351 N 
ATOM     22  H   UNL A   1      35.321  18.985  25.346  1.00  0.00     0.163 HD
ATOM     23  O   UNL A   1      37.185  20.495  24.849  1.00  0.00    -0.267 OA
BRANCH  21  24
ATOM     24  C   UNL A   1      33.596  20.149  25.283  1.00  0.00     0.113 C 
ATOM     25  C   UNL A   1      32.824  18.846  25.270  1.00  0.00     0.027 C 
ENDBRANCH  21  24
ENDBRANCH  15  20
ENDBRANCH  12  14
ENDBRANCH   7  12
ENDBRANCH   3   6
ENDBRANCH   1   2
BRANCH   1  26
ATOM     26  C   UNL A   1      31.410  32.129  26.558  1.00  0.00     0.042 C 
BRANCH  26  27
ATOM     27  C   UNL A   1      32.692  32.744  27.070  1.00  0.00     0.118 C 
BRANCH  27  28
ATOM     28  N   UNL A   1      32.519  34.094  27.592  1.00  0.00    -0.352 N 
ATOM     29  C   UNL A   1      33.154  34.742  28.627  1.00  0.00     0.251 C 
ATOM     30  H   UNL A   1      31.835  34.629  27.128  1.00  0.00     0.163 HD
ATOM     31  O   UNL A   1      32.758  35.839  28.995  1.00  0.00    -0.269 OA
BRANCH  29  32
ATOM     32  C   UNL A   1      34.296  34.099  29.318  1.00  0.00     0.039 A 
ATOM     33  C   UNL A   1      34.047  33.144  30.307  1.00  0.00     0.014 A 
ATOM     34  C   UNL A   1      35.608  34.429  28.990  1.00  0.00     0.014 A 
ATOM     35  C   UNL A   1      35.117  32.473  30.905  1.00  0.00     0.010 A 
ATOM     36  C   UNL A   1      36.658  33.660  29.470  1.00  0.00     0.010 A 
ATOM     37  C   UNL A   1      36.431  32.698  30.462  1.00  0.00    -0.014 A 
BRANCH  37  38
ATOM     38  C   UNL A   1      37.597  32.003  31.064  1.00  0.00     0.031 A 
ATOM     39  C   UNL A   1      38.054  32.388  32.448  1.00  0.00     0.074 A 
ATOM     40  C   UNL A   1      38.283  31.087  30.354  1.00  0.00     0.049 A 
ATOM     41  N   UNL A   1      39.103  31.985  33.119  1.00  0.00    -0.248 NA
ATOM     42  C   UNL A   1      37.247  33.396  33.157  1.00  0.00     0.031 C 
ATOM     43  C   UNL A   1      37.975  30.667  28.986  1.00  0.00     0.029 A 
ATOM     44  N   UNL A   1      39.390  30.348  30.685  1.00  0.00    -0.354 N 
ATOM     45  C   UNL A   1      39.092  32.709  34.305  1.00  0.00     0.074 A 
ATOM     46  C   UNL A   1      37.983  33.632  34.230  1.00  0.00     0.031 C 
ATOM     47  C   UNL A   1      38.850  29.720  28.609  1.00  0.00     0.029 A 
ATOM     48  C   UNL A   1      39.805  29.497  29.689  1.00  0.00     0.049 A 
ATOM     49  H   UNL A   1      39.845  30.420  31.556  1.00  0.00     0.167 HD
ATOM     50  C   UNL A   1      39.906  32.589  35.379  1.00  0.00     0.037 A 
ATOM     51  C   UNL A   1      40.842  28.640  29.655  1.00  0.00     0.037 A 
ATOM     52  C   UNL A   1      40.980  31.638  35.468  1.00  0.00     0.049 A 
ATOM     53  C   UNL A   1      41.731  28.519  30.864  1.00  0.00     0.074 A 
ATOM     54  C   UNL A   1      41.830  31.392  36.531  1.00  0.00     0.029 A 
ATOM     55  N   UNL A   1      41.348  30.770  34.449  1.00  0.00    -0.354 N 
ATOM     56  N   UNL A   1      41.671  29.162  32.006  1.00  0.00    -0.248 NA
ATOM     57  C   UNL A   1      42.828  27.546  30.783  1.00  0.00     0.031 C 
ATOM     58  C   UNL A   1      42.744  30.410  36.137  1.00  0.00     0.029 A 
ATOM     59  C   UNL A   1      42.423  29.999  34.853  1.00  0.00     0.049 A 
ATOM     60  H   UNL A   1      40.909  30.713  33.570  1.00  0.00     0.167 HD
ATOM     61  C   UNL A   1      42.691  28.642  32.792  1.00  0.00     0.074 A 
ATOM     62  C   UNL A   1      43.350  27.624  32.000  1.00  0.00     0.031 C 
ATOM     63  C   UNL A   1      43.051  28.975  34.056  1.00  0.00     0.037 A 
BRANCH  50  64
ATOM     64  C   UNL A   1      39.655  33.502  36.547  1.00  0.00     0.064 A 
ATOM     65  C   UNL A   1      38.807  33.132  37.604  1.00  0.00     0.173 A 
ATOM     66  C   UNL A   1      40.284  34.753  36.621  1.00  0.00     0.173 A 
ATOM     67  F   UNL A   1      38.168  31.953  37.578  1.00  0.00    -0.203 F 
ATOM     68  C   UNL A   1      38.570  33.997  38.670  1.00  0.00     0.198 A 
ATOM     69  C   UNL A   1      40.074  35.599  37.708  1.00  0.00     0.198 A 
ATOM     70  F   UNL A   1      41.106  35.157  35.641  1.00  0.00    -0.203 F 
ATOM     71  F   UNL A   1      37.707  33.647  39.634  1.00  0.00    -0.200 F 
ATOM     72  C   UNL A   1      39.210  35.225  38.725  1.00  0.00     0.200 A 
ATOM     73  F   UNL A   1      40.704  36.780  37.766  1.00  0.00    -0.200 F 
ATOM     74  F   UNL A   1      38.986  36.053  39.755  1.00  0.00    -0.200 F 
ENDBRANCH  50  64
BRANCH  51  75
ATOM     75  C   UNL A   1      41.076  27.798  28.450  1.00  0.00     0.064 A 
ATOM     76  C   UNL A   1      41.989  28.195  27.461  1.00  0.00     0.173 A 
ATOM     77  C   UNL A   1      40.385  26.593  28.252  1.00  0.00     0.173 A 
ATOM     78  F   UNL A   1      42.660  29.348  27.596  1.00  0.00    -0.203 F 
ATOM     79  C   UNL A   1      42.180  27.435  26.309  1.00  0.00     0.198 A 
ATOM     80  C   UNL A   1      40.601  25.818  27.114  1.00  0.00     0.198 A 
ATOM     81  F   UNL A   1      39.507  26.164  29.169  1.00  0.00    -0.203 F 
ATOM     82  F   UNL A   1      43.017  27.868  25.356  1.00  0.00    -0.200 F 
ATOM     83  C   UNL A   1      41.490  26.245  26.139  1.00  0.00     0.200 A 
ATOM     84  F   UNL A   1      39.944  24.661  26.961  1.00  0.00    -0.200 F 
ATOM     85  F   UNL A   1      41.673  25.514  25.030  1.00  0.00    -0.200 F 
ENDBRANCH  51  75
BRANCH  63  86
ATOM     86  C   UNL A   1      44.166  28.192  34.687  1.00  0.00     0.064 A 
ATOM     87  C   UNL A   1      45.505  28.598  34.593  1.00  0.00     0.173 A 
ATOM     88  C   UNL A   1      43.880  27.039  35.435  1.00  0.00     0.173 A 
ATOM     89  F   UNL A   1      45.832  29.687  33.881  1.00  0.00    -0.203 F 
ATOM     90  C   UNL A   1      46.519  27.861  35.198  1.00  0.00     0.198 A 
ATOM     91  C   UNL A   1      44.893  26.325  36.069  1.00  0.00     0.198 A 
ATOM     92  F   UNL A   1      42.615  26.612  35.565  1.00  0.00    -0.203 F 
ATOM     93  F   UNL A   1      47.797  28.238  35.050  1.00  0.00    -0.200 F 
ATOM     94  C   UNL A   1      46.212  26.731  35.941  1.00  0.00     0.200 A 
ATOM     95  F   UNL A   1      44.592  25.244  36.801  1.00  0.00    -0.200 F 
ATOM     96  F   UNL A   1      47.190  26.029  36.531  1.00  0.00    -0.200 F 
ENDBRANCH  63  86
ENDBRANCH  37  38
ENDBRANCH  29  32
ENDBRANCH  27  28
ENDBRANCH  26  27
ENDBRANCH   1  26
TORSDOF 14
ENDMDL
