MODEL 1
REMARK VINA RESULT:     -13.1      0.000      0.000
REMARK SMILES Cc1cc(F)c([C@H](O)[C@H]2CCCC[C@@H]2C(=O)NCCCNC(=O)c2ccc(-c3c4nc(c(-c5c(F)c(F)c(F)c(F)c5F)c5ccc([nH]5)c(-c5c(F)c(F)c(F)c(F)c5F)c5nc(c(-c6c(F)c(F)c(F)c(F)c6F)c6ccc3[nH]6)C=C5)C=C4)cc2)cc1F
REMARK SMILES IDX 19 1 18 2 17 3 15 4 16 5 14 7 9 8 10 9 11 10 13 11 12 12
REMARK SMILES IDX 7 13 6 14 1 15 2 16 3 17 88 18 4 19 87 20 89 21 5 22 8 23
REMARK SMILES IDX 20 25 21 26 22 27 23 29 24 30 25 31 86 32 26 33 85 34 27 35
REMARK SMILES IDX 28 36 29 37 79 38 30 39 84 40 78 41 80 42 31 43 83 44 77 45
REMARK SMILES IDX 76 46 32 48 64 49 44 50 63 51 45 52 48 53 62 54 81 55 46 56
REMARK SMILES IDX 47 57 61 59 82 60 49 61 33 62 34 63 42 64 35 65 36 66 40 67
REMARK SMILES IDX 43 68 37 69 38 70 41 71 39 72 65 73 66 74 74 75 67 76 68 77
REMARK SMILES IDX 72 78 75 79 69 80 70 81 73 82 71 83 50 84 51 85 59 86 52 87
REMARK SMILES IDX 53 88 57 89 60 90 54 91 55 92 58 93 56 94
REMARK H PARENT 17 6 8 24 21 28 80 47 48 58
REMARK Flexibility Score: inf
ROOT
ATOM      1  C   UNL A   1      31.809  29.859  25.361  1.00  0.00     0.042 C 
ENDROOT
BRANCH   1   2
ATOM      2  C   UNL A   1      32.952  29.168  24.632  1.00  0.00     0.117 C 
BRANCH   2   3
ATOM      3  N   UNL A   1      33.385  27.969  25.316  1.00  0.00    -0.356 N 
ATOM      4  C   UNL A   1      33.038  26.671  25.199  1.00  0.00     0.223 C 
ATOM      5  O   UNL A   1      33.624  25.917  25.984  1.00  0.00    -0.275 OA
ATOM      6  H   UNL A   1      34.069  28.133  26.005  1.00  0.00     0.163 HD
BRANCH   4   7
ATOM      7  C   UNL A   1      31.945  26.168  24.236  1.00  0.00     0.084 C 
ATOM      8  C   UNL A   1      30.559  26.641  24.787  1.00  0.00     0.035 C 
ATOM      9  C   UNL A   1      30.223  25.851  26.081  1.00  0.00     0.007 C 
ATOM     10  C   UNL A   1      30.349  24.329  25.961  1.00  0.00     0.000 C 
ATOM     11  C   UNL A   1      31.906  24.655  24.004  1.00  0.00     0.014 C 
ATOM     12  C   UNL A   1      31.638  23.882  25.287  1.00  0.00     0.001 C 
BRANCH   8  13
ATOM     13  C   UNL A   1      29.396  26.783  23.743  1.00  0.00     0.151 C 
BRANCH  13  14
ATOM     14  C   UNL A   1      29.105  28.160  23.192  1.00  0.00     0.019 A 
ATOM     15  C   UNL A   1      28.789  32.290  21.935  1.00  0.00     0.047 C 
ATOM     16  C   UNL A   1      28.851  30.842  22.312  1.00  0.00    -0.012 A 
ATOM     17  C   UNL A   1      29.900  30.045  21.850  1.00  0.00     0.046 A 
ATOM     18  C   UNL A   1      27.901  30.266  23.158  1.00  0.00     0.126 A 
ATOM     19  C   UNL A   1      30.008  28.724  22.277  1.00  0.00     0.129 A 
ATOM     20  C   UNL A   1      28.011  28.942  23.586  1.00  0.00     0.049 A 
ATOM     21  F   UNL A   1      26.873  30.998  23.608  1.00  0.00    -0.207 F 
ATOM     22  F   UNL A   1      31.048  28.001  21.834  1.00  0.00    -0.207 F 
ENDBRANCH  13  14
BRANCH  13  23
ATOM     23  O   UNL A   1      28.204  26.145  24.206  1.00  0.00    -0.388 OA
ATOM     24  H   UNL A   1      27.431  26.642  23.897  1.00  0.00     0.211 HD
ENDBRANCH  13  23
ENDBRANCH   8  13
ENDBRANCH   4   7
ENDBRANCH   2   3
ENDBRANCH   1   2
BRANCH   1  25
ATOM     25  C   UNL A   1      32.155  30.318  26.773  1.00  0.00     0.118 C 
BRANCH  25  26
ATOM     26  N   UNL A   1      32.150  31.764  26.940  1.00  0.00    -0.352 N 
ATOM     27  C   UNL A   1      33.103  32.613  27.461  1.00  0.00     0.251 C 
ATOM     28  H   UNL A   1      31.330  32.211  26.628  1.00  0.00     0.163 HD
ATOM     29  O   UNL A   1      32.848  33.798  27.619  1.00  0.00    -0.269 OA
BRANCH  27  30
ATOM     30  C   UNL A   1      34.415  32.078  27.890  1.00  0.00     0.039 A 
ATOM     31  C   UNL A   1      34.584  30.722  28.155  1.00  0.00     0.014 A 
ATOM     32  C   UNL A   1      35.486  32.957  28.067  1.00  0.00     0.014 A 
ATOM     33  C   UNL A   1      35.713  30.293  28.837  1.00  0.00     0.010 A 
ATOM     34  C   UNL A   1      36.681  32.494  28.626  1.00  0.00     0.010 A 
ATOM     35  C   UNL A   1      36.781  31.171  29.084  1.00  0.00    -0.014 A 
BRANCH  35  36
ATOM     36  C   UNL A   1      37.969  30.681  29.833  1.00  0.00     0.031 A 
ATOM     37  C   UNL A   1      38.168  31.033  31.285  1.00  0.00     0.074 A 
ATOM     38  C   UNL A   1      38.834  29.847  29.223  1.00  0.00     0.049 A 
ATOM     39  N   UNL A   1      39.149  30.702  32.088  1.00  0.00    -0.248 NA
ATOM     40  C   UNL A   1      37.138  31.870  31.922  1.00  0.00     0.031 C 
ATOM     41  C   UNL A   1      38.741  29.412  27.827  1.00  0.00     0.029 A 
ATOM     42  N   UNL A   1      39.936  29.182  29.701  1.00  0.00    -0.354 N 
ATOM     43  C   UNL A   1      38.874  31.315  33.304  1.00  0.00     0.074 A 
ATOM     44  C   UNL A   1      37.643  32.055  33.134  1.00  0.00     0.031 C 
ATOM     45  C   UNL A   1      39.687  28.493  27.588  1.00  0.00     0.029 A 
ATOM     46  C   UNL A   1      40.510  28.340  28.781  1.00  0.00     0.049 A 
ATOM     47  H   UNL A   1      40.280  29.299  30.616  1.00  0.00     0.167 HD
ATOM     48  C   UNL A   1      39.579  31.258  34.458  1.00  0.00     0.037 A 
ATOM     49  C   UNL A   1      41.591  27.545  28.877  1.00  0.00     0.037 A 
ATOM     50  C   UNL A   1      40.781  30.484  34.639  1.00  0.00     0.049 A 
ATOM     51  C   UNL A   1      42.370  27.522  30.159  1.00  0.00     0.074 A 
ATOM     52  C   UNL A   1      41.559  30.353  35.777  1.00  0.00     0.029 A 
ATOM     53  N   UNL A   1      41.368  29.698  33.659  1.00  0.00    -0.354 N 
ATOM     54  N   UNL A   1      42.118  28.138  31.287  1.00  0.00    -0.248 NA
ATOM     55  C   UNL A   1      43.596  26.714  30.174  1.00  0.00     0.031 C 
ATOM     56  C   UNL A   1      42.637  29.515  35.475  1.00  0.00     0.029 A 
ATOM     57  C   UNL A   1      42.508  29.091  34.162  1.00  0.00     0.049 A 
ATOM     58  H   UNL A   1      41.027  29.587  32.743  1.00  0.00     0.167 HD
ATOM     59  C   UNL A   1      43.150  27.795  32.147  1.00  0.00     0.074 A 
ATOM     60  C   UNL A   1      44.018  26.894  31.418  1.00  0.00     0.031 C 
ATOM     61  C   UNL A   1      43.363  28.201  33.421  1.00  0.00     0.037 A 
BRANCH  48  62
ATOM     62  C   UNL A   1      39.085  32.060  35.626  1.00  0.00     0.064 A 
ATOM     63  C   UNL A   1      38.299  31.485  36.635  1.00  0.00     0.173 A 
ATOM     64  C   UNL A   1      39.460  33.405  35.772  1.00  0.00     0.173 A 
ATOM     65  F   UNL A   1      37.902  30.208  36.536  1.00  0.00    -0.203 F 
ATOM     66  C   UNL A   1      37.897  32.230  37.743  1.00  0.00     0.198 A 
ATOM     67  C   UNL A   1      39.078  34.139  36.891  1.00  0.00     0.198 A 
ATOM     68  F   UNL A   1      40.215  34.001  34.837  1.00  0.00    -0.203 F 
ATOM     69  F   UNL A   1      37.123  31.668  38.680  1.00  0.00    -0.200 F 
ATOM     70  C   UNL A   1      38.294  33.552  37.874  1.00  0.00     0.200 A 
ATOM     71  F   UNL A   1      39.471  35.414  37.022  1.00  0.00    -0.200 F 
ATOM     72  F   UNL A   1      37.919  34.263  38.947  1.00  0.00    -0.200 F 
ENDBRANCH  48  62
BRANCH  49  73
ATOM     73  C   UNL A   1      41.997  26.717  27.713  1.00  0.00     0.064 A 
ATOM     74  C   UNL A   1      42.971  27.170  26.815  1.00  0.00     0.173 A 
ATOM     75  C   UNL A   1      41.454  25.441  27.500  1.00  0.00     0.173 A 
ATOM     76  F   UNL A   1      43.505  28.391  26.965  1.00  0.00    -0.203 F 
ATOM     77  C   UNL A   1      43.388  26.377  25.747  1.00  0.00     0.198 A 
ATOM     78  C   UNL A   1      41.891  24.638  26.450  1.00  0.00     0.198 A 
ATOM     79  F   UNL A   1      40.520  24.961  28.335  1.00  0.00    -0.203 F 
ATOM     80  F   UNL A   1      44.303  26.844  24.886  1.00  0.00    -0.200 F 
ATOM     81  C   UNL A   1      42.855  25.109  25.572  1.00  0.00     0.200 A 
ATOM     82  F   UNL A   1      41.387  23.407  26.296  1.00  0.00    -0.200 F 
ATOM     83  F   UNL A   1      43.271  24.340  24.555  1.00  0.00    -0.200 F 
ENDBRANCH  49  73
BRANCH  61  84
ATOM     84  C   UNL A   1      44.583  27.672  34.113  1.00  0.00     0.064 A 
ATOM     85  C   UNL A   1      45.791  28.383  34.101  1.00  0.00     0.173 A 
ATOM     86  C   UNL A   1      44.527  26.473  34.838  1.00  0.00     0.173 A 
ATOM     87  F   UNL A   1      45.895  29.526  33.407  1.00  0.00    -0.203 F 
ATOM     88  C   UNL A   1      46.908  27.903  34.780  1.00  0.00     0.198 A 
ATOM     89  C   UNL A   1      45.639  26.009  35.535  1.00  0.00     0.198 A 
ATOM     90  F   UNL A   1      43.391  25.762  34.883  1.00  0.00    -0.203 F 
ATOM     91  F   UNL A   1      48.063  28.581  34.727  1.00  0.00    -0.200 F 
ATOM     92  C   UNL A   1      46.828  26.722  35.502  1.00  0.00     0.200 A 
ATOM     93  F   UNL A   1      45.558  24.874  36.243  1.00  0.00    -0.200 F 
ATOM     94  F   UNL A   1      47.902  26.267  36.163  1.00  0.00    -0.200 F 
ENDBRANCH  61  84
ENDBRANCH  35  36
ENDBRANCH  27  30
ENDBRANCH  25  26
ENDBRANCH   1  25
TORSDOF 13
ENDMDL
MODEL 2
REMARK VINA RESULT:     -13.0      2.338      3.689
REMARK SMILES Cc1cc(F)c([C@H](O)[C@H]2CCCC[C@@H]2C(=O)NCCCNC(=O)c2ccc(-c3c4nc(c(-c5c(F)c(F)c(F)c(F)c5F)c5ccc([nH]5)c(-c5c(F)c(F)c(F)c(F)c5F)c5nc(c(-c6c(F)c(F)c(F)c(F)c6F)c6ccc3[nH]6)C=C5)C=C4)cc2)cc1F
REMARK SMILES IDX 19 1 18 2 17 3 15 4 16 5 14 7 9 8 10 9 11 10 13 11 12 12
REMARK SMILES IDX 7 13 6 14 1 15 2 16 3 17 88 18 4 19 87 20 89 21 5 22 8 23
REMARK SMILES IDX 20 25 21 26 22 27 23 29 24 30 25 31 86 32 26 33 85 34 27 35
REMARK SMILES IDX 28 36 29 37 79 38 30 39 84 40 78 41 80 42 31 43 83 44 77 45
REMARK SMILES IDX 76 46 32 48 64 49 44 50 63 51 45 52 48 53 62 54 81 55 46 56
REMARK SMILES IDX 47 57 61 59 82 60 49 61 33 62 34 63 42 64 35 65 36 66 40 67
REMARK SMILES IDX 43 68 37 69 38 70 41 71 39 72 65 73 66 74 74 75 67 76 68 77
REMARK SMILES IDX 72 78 75 79 69 80 70 81 73 82 71 83 50 84 51 85 59 86 52 87
REMARK SMILES IDX 53 88 57 89 60 90 54 91 55 92 58 93 56 94
REMARK H PARENT 17 6 8 24 21 28 80 47 48 58
REMARK Flexibility Score: inf
ROOT
ATOM      1  C   UNL A   1      31.507  32.047  26.712  1.00  0.00     0.042 C 
ENDROOT
BRANCH   1   2
ATOM      2  C   UNL A   1      31.899  30.692  26.143  1.00  0.00     0.117 C 
BRANCH   2   3
ATOM      3  N   UNL A   1      31.849  29.648  27.144  1.00  0.00    -0.356 N 
ATOM      4  C   UNL A   1      31.606  28.324  27.075  1.00  0.00     0.223 C 
ATOM      5  O   UNL A   1      31.632  27.746  28.168  1.00  0.00    -0.275 OA
ATOM      6  H   UNL A   1      32.026  29.970  28.057  1.00  0.00     0.163 HD
BRANCH   4   7
ATOM      7  C   UNL A   1      31.242  27.594  25.768  1.00  0.00     0.084 C 
ATOM      8  C   UNL A   1      31.294  26.054  26.042  1.00  0.00     0.035 C 
ATOM      9  C   UNL A   1      32.770  25.617  26.244  1.00  0.00     0.007 C 
ATOM     10  C   UNL A   1      33.736  26.077  25.148  1.00  0.00     0.000 C 
ATOM     11  C   UNL A   1      32.119  27.919  24.556  1.00  0.00     0.014 C 
ATOM     12  C   UNL A   1      33.577  27.546  24.782  1.00  0.00     0.001 C 
BRANCH   8  13
ATOM     13  C   UNL A   1      30.425  25.141  25.109  1.00  0.00     0.151 C 
BRANCH  13  14
ATOM     14  C   UNL A   1      30.982  23.790  24.721  1.00  0.00     0.019 A 
ATOM     15  C   UNL A   1      33.037  20.042  24.039  1.00  0.00     0.047 C 
ATOM     16  C   UNL A   1      32.264  21.308  24.241  1.00  0.00    -0.012 A 
ATOM     17  C   UNL A   1      31.608  21.541  25.452  1.00  0.00     0.046 A 
ATOM     18  C   UNL A   1      32.212  22.297  23.257  1.00  0.00     0.126 A 
ATOM     19  C   UNL A   1      30.970  22.758  25.673  1.00  0.00     0.129 A 
ATOM     20  C   UNL A   1      31.572  23.518  23.480  1.00  0.00     0.049 A 
ATOM     21  F   UNL A   1      32.817  22.102  22.077  1.00  0.00    -0.207 F 
ATOM     22  F   UNL A   1      30.379  22.953  26.861  1.00  0.00    -0.207 F 
ENDBRANCH  13  14
BRANCH  13  23
ATOM     23  O   UNL A   1      29.964  25.861  23.964  1.00  0.00    -0.388 OA
ATOM     24  H   UNL A   1      29.148  26.335  24.187  1.00  0.00     0.211 HD
ENDBRANCH  13  23
ENDBRANCH   8  13
ENDBRANCH   4   7
ENDBRANCH   2   3
ENDBRANCH   1   2
BRANCH   1  25
ATOM     25  C   UNL A   1      32.661  32.816  27.345  1.00  0.00     0.118 C 
BRANCH  25  26
ATOM     26  N   UNL A   1      32.342  34.201  27.662  1.00  0.00    -0.352 N 
ATOM     27  C   UNL A   1      32.923  35.076  28.555  1.00  0.00     0.251 C 
ATOM     28  H   UNL A   1      31.588  34.576  27.153  1.00  0.00     0.163 HD
ATOM     29  O   UNL A   1      32.421  36.173  28.753  1.00  0.00    -0.269 OA
BRANCH  27  30
ATOM     30  C   UNL A   1      34.120  34.663  29.324  1.00  0.00     0.039 A 
ATOM     31  C   UNL A   1      35.392  34.737  28.764  1.00  0.00     0.014 A 
ATOM     32  C   UNL A   1      33.959  34.156  30.615  1.00  0.00     0.014 A 
ATOM     33  C   UNL A   1      36.447  34.073  29.372  1.00  0.00     0.010 A 
ATOM     34  C   UNL A   1      35.056  33.611  31.290  1.00  0.00     0.010 A 
ATOM     35  C   UNL A   1      36.297  33.499  30.645  1.00  0.00    -0.014 A 
BRANCH  35  36
ATOM     36  C   UNL A   1      37.445  32.780  31.260  1.00  0.00     0.031 A 
ATOM     37  C   UNL A   1      37.887  33.089  32.668  1.00  0.00     0.074 A 
ATOM     38  C   UNL A   1      38.044  31.786  30.574  1.00  0.00     0.049 A 
ATOM     39  N   UNL A   1      38.872  32.568  33.357  1.00  0.00    -0.248 NA
ATOM     40  C   UNL A   1      37.133  34.119  33.400  1.00  0.00     0.031 C 
ATOM     41  C   UNL A   1      37.694  31.374  29.213  1.00  0.00     0.029 A 
ATOM     42  N   UNL A   1      39.039  30.913  30.937  1.00  0.00    -0.354 N 
ATOM     43  C   UNL A   1      38.878  33.228  34.580  1.00  0.00     0.074 A 
ATOM     44  C   UNL A   1      37.809  34.202  34.537  1.00  0.00     0.031 C 
ATOM     45  C   UNL A   1      38.400  30.282  28.888  1.00  0.00     0.029 A 
ATOM     46  C   UNL A   1      39.315  29.969  29.978  1.00  0.00     0.049 A 
ATOM     47  H   UNL A   1      39.509  30.960  31.800  1.00  0.00     0.167 HD
ATOM     48  C   UNL A   1      39.693  33.032  35.642  1.00  0.00     0.037 A 
ATOM     49  C   UNL A   1      40.217  28.971  29.967  1.00  0.00     0.037 A 
ATOM     50  C   UNL A   1      40.727  32.032  35.700  1.00  0.00     0.049 A 
ATOM     51  C   UNL A   1      41.127  28.795  31.146  1.00  0.00     0.074 A 
ATOM     52  C   UNL A   1      41.597  31.748  36.740  1.00  0.00     0.029 A 
ATOM     53  N   UNL A   1      41.020  31.140  34.679  1.00  0.00    -0.354 N 
ATOM     54  N   UNL A   1      41.144  29.453  32.279  1.00  0.00    -0.248 NA
ATOM     55  C   UNL A   1      42.158  27.754  31.038  1.00  0.00     0.031 C 
ATOM     56  C   UNL A   1      42.438  30.708  36.335  1.00  0.00     0.029 A 
ATOM     57  C   UNL A   1      42.067  30.315  35.060  1.00  0.00     0.049 A 
ATOM     58  H   UNL A   1      40.553  31.097  33.813  1.00  0.00     0.167 HD
ATOM     59  C   UNL A   1      42.184  28.910  33.019  1.00  0.00     0.074 A 
ATOM     60  C   UNL A   1      42.757  27.848  32.217  1.00  0.00     0.031 C 
ATOM     61  C   UNL A   1      42.629  29.268  34.247  1.00  0.00     0.037 A 
BRANCH  48  62
ATOM     62  C   UNL A   1      39.517  33.922  36.838  1.00  0.00     0.064 A 
ATOM     63  C   UNL A   1      38.748  33.528  37.943  1.00  0.00     0.173 A 
ATOM     64  C   UNL A   1      40.182  35.156  36.908  1.00  0.00     0.173 A 
ATOM     65  F   UNL A   1      38.081  32.364  37.920  1.00  0.00    -0.203 F 
ATOM     66  C   UNL A   1      38.643  34.341  39.069  1.00  0.00     0.198 A 
ATOM     67  C   UNL A   1      40.095  35.955  38.044  1.00  0.00     0.198 A 
ATOM     68  F   UNL A   1      40.934  35.577  35.880  1.00  0.00    -0.203 F 
ATOM     69  F   UNL A   1      37.880  33.958  40.101  1.00  0.00    -0.200 F 
ATOM     70  C   UNL A   1      39.323  35.549  39.123  1.00  0.00     0.200 A 
ATOM     71  F   UNL A   1      40.762  37.116  38.099  1.00  0.00    -0.200 F 
ATOM     72  F   UNL A   1      39.232  36.323  40.213  1.00  0.00    -0.200 F 
ENDBRANCH  48  62
BRANCH  49  73
ATOM     73  C   UNL A   1      40.303  28.074  28.786  1.00  0.00     0.064 A 
ATOM     74  C   UNL A   1      41.068  28.430  27.668  1.00  0.00     0.173 A 
ATOM     75  C   UNL A   1      39.660  26.827  28.768  1.00  0.00     0.173 A 
ATOM     76  F   UNL A   1      41.684  29.621  27.630  1.00  0.00    -0.203 F 
ATOM     77  C   UNL A   1      41.187  27.572  26.577  1.00  0.00     0.198 A 
ATOM     78  C   UNL A   1      39.804  25.958  27.690  1.00  0.00     0.198 A 
ATOM     79  F   UNL A   1      38.919  26.440  29.817  1.00  0.00    -0.203 F 
ATOM     80  F   UNL A   1      41.904  27.947  25.508  1.00  0.00    -0.200 F 
ATOM     81  C   UNL A   1      40.564  26.333  26.593  1.00  0.00     0.200 A 
ATOM     82  F   UNL A   1      39.215  24.755  27.720  1.00  0.00    -0.200 F 
ATOM     83  F   UNL A   1      40.696  25.500  25.551  1.00  0.00    -0.200 F 
ENDBRANCH  49  73
BRANCH  61  84
ATOM     84  C   UNL A   1      43.792  28.504  34.802  1.00  0.00     0.064 A 
ATOM     85  C   UNL A   1      45.108  28.957  34.630  1.00  0.00     0.173 A 
ATOM     86  C   UNL A   1      43.586  27.341  35.558  1.00  0.00     0.173 A 
ATOM     87  F   UNL A   1      45.353  30.057  33.901  1.00  0.00    -0.203 F 
ATOM     88  C   UNL A   1      46.180  28.263  35.184  1.00  0.00     0.198 A 
ATOM     89  C   UNL A   1      44.658  26.664  36.130  1.00  0.00     0.198 A 
ATOM     90  F   UNL A   1      42.345  26.873  35.754  1.00  0.00    -0.203 F 
ATOM     91  F   UNL A   1      47.432  28.695  34.979  1.00  0.00    -0.200 F 
ATOM     92  C   UNL A   1      45.953  27.123  35.940  1.00  0.00     0.200 A 
ATOM     93  F   UNL A   1      44.439  25.567  36.870  1.00  0.00    -0.200 F 
ATOM     94  F   UNL A   1      46.986  26.461  36.481  1.00  0.00    -0.200 F 
ENDBRANCH  61  84
ENDBRANCH  35  36
ENDBRANCH  27  30
ENDBRANCH  25  26
ENDBRANCH   1  25
TORSDOF 13
ENDMDL
MODEL 3
REMARK VINA RESULT:     -13.0      5.405     10.737
REMARK SMILES Cc1cc(F)c([C@H](O)[C@H]2CCCC[C@@H]2C(=O)NCCCNC(=O)c2ccc(-c3c4nc(c(-c5c(F)c(F)c(F)c(F)c5F)c5ccc([nH]5)c(-c5c(F)c(F)c(F)c(F)c5F)c5nc(c(-c6c(F)c(F)c(F)c(F)c6F)c6ccc3[nH]6)C=C5)C=C4)cc2)cc1F
REMARK SMILES IDX 19 1 18 2 17 3 15 4 16 5 14 7 9 8 10 9 11 10 13 11 12 12
REMARK SMILES IDX 7 13 6 14 1 15 2 16 3 17 88 18 4 19 87 20 89 21 5 22 8 23
REMARK SMILES IDX 20 25 21 26 22 27 23 29 24 30 25 31 86 32 26 33 85 34 27 35
REMARK SMILES IDX 28 36 29 37 79 38 30 39 84 40 78 41 80 42 31 43 83 44 77 45
REMARK SMILES IDX 76 46 32 48 64 49 44 50 63 51 45 52 48 53 62 54 81 55 46 56
REMARK SMILES IDX 47 57 61 59 82 60 49 61 33 62 34 63 42 64 35 65 36 66 40 67
REMARK SMILES IDX 43 68 37 69 38 70 41 71 39 72 65 73 66 74 74 75 67 76 68 77
REMARK SMILES IDX 72 78 75 79 69 80 70 81 73 82 71 83 50 84 51 85 59 86 52 87
REMARK SMILES IDX 53 88 57 89 60 90 54 91 55 92 58 93 56 94
REMARK H PARENT 17 6 8 24 21 28 80 47 48 58
REMARK Flexibility Score: inf
ROOT
ATOM      1  C   UNL A   1      37.870  20.030  24.934  1.00  0.00     0.042 C 
ENDROOT
BRANCH   1   2
ATOM      2  C   UNL A   1      36.638  20.825  25.339  1.00  0.00     0.117 C 
BRANCH   2   3
ATOM      3  N   UNL A   1      36.925  22.237  25.474  1.00  0.00    -0.356 N 
ATOM      4  C   UNL A   1      36.140  23.318  25.659  1.00  0.00     0.223 C 
ATOM      5  O   UNL A   1      36.756  24.389  25.711  1.00  0.00    -0.275 OA
ATOM      6  H   UNL A   1      37.884  22.451  25.419  1.00  0.00     0.163 HD
BRANCH   4   7
ATOM      7  C   UNL A   1      34.602  23.251  25.716  1.00  0.00     0.084 C 
ATOM      8  C   UNL A   1      34.085  22.791  24.312  1.00  0.00     0.035 C 
ATOM      9  C   UNL A   1      34.311  23.931  23.282  1.00  0.00     0.007 C 
ATOM     10  C   UNL A   1      33.783  25.304  23.710  1.00  0.00     0.000 C 
ATOM     11  C   UNL A   1      33.892  24.548  26.113  1.00  0.00     0.014 C 
ATOM     12  C   UNL A   1      34.167  25.680  25.134  1.00  0.00     0.001 C 
BRANCH   8  13
ATOM     13  C   UNL A   1      32.682  22.091  24.271  1.00  0.00     0.151 C 
BRANCH  13  14
ATOM     14  C   UNL A   1      32.645  20.581  24.220  1.00  0.00     0.019 A 
ATOM     15  C   UNL A   1      33.177  16.286  24.129  1.00  0.00     0.047 C 
ATOM     16  C   UNL A   1      32.918  17.760  24.177  1.00  0.00    -0.012 A 
ATOM     17  C   UNL A   1      33.167  18.475  25.350  1.00  0.00     0.046 A 
ATOM     18  C   UNL A   1      32.469  18.460  23.055  1.00  0.00     0.126 A 
ATOM     19  C   UNL A   1      33.017  19.860  25.365  1.00  0.00     0.129 A 
ATOM     20  C   UNL A   1      32.319  19.848  23.071  1.00  0.00     0.049 A 
ATOM     21  F   UNL A   1      32.205  17.804  21.917  1.00  0.00    -0.207 F 
ATOM     22  F   UNL A   1      33.297  20.512  26.503  1.00  0.00    -0.207 F 
ENDBRANCH  13  14
BRANCH  13  23
ATOM     23  O   UNL A   1      31.846  22.666  23.264  1.00  0.00    -0.388 OA
ATOM     24  H   UNL A   1      30.917  22.478  23.469  1.00  0.00     0.211 HD
ENDBRANCH  13  23
ENDBRANCH   8  13
ENDBRANCH   4   7
ENDBRANCH   2   3
ENDBRANCH   1   2
BRANCH   1  25
ATOM     25  C   UNL A   1      39.112  20.337  25.763  1.00  0.00     0.118 C 
BRANCH  25  26
ATOM     26  N   UNL A   1      40.069  19.241  25.818  1.00  0.00    -0.352 N 
ATOM     27  C   UNL A   1      41.425  19.243  26.066  1.00  0.00     0.251 C 
ATOM     28  H   UNL A   1      39.684  18.350  25.652  1.00  0.00     0.163 HD
ATOM     29  O   UNL A   1      42.071  18.211  25.948  1.00  0.00    -0.269 OA
BRANCH  27  30
ATOM     30  C   UNL A   1      42.113  20.508  26.411  1.00  0.00     0.039 A 
ATOM     31  C   UNL A   1      42.235  20.919  27.735  1.00  0.00     0.014 A 
ATOM     32  C   UNL A   1      42.610  21.316  25.386  1.00  0.00     0.014 A 
ATOM     33  C   UNL A   1      42.602  22.227  28.015  1.00  0.00     0.010 A 
ATOM     34  C   UNL A   1      43.114  22.586  25.684  1.00  0.00     0.010 A 
ATOM     35  C   UNL A   1      43.048  23.083  26.994  1.00  0.00    -0.014 A 
BRANCH  35  36
ATOM     36  C   UNL A   1      43.418  24.484  27.329  1.00  0.00     0.031 A 
ATOM     37  C   UNL A   1      44.789  25.021  27.007  1.00  0.00     0.074 A 
ATOM     38  C   UNL A   1      42.485  25.305  27.853  1.00  0.00     0.049 A 
ATOM     39  N   UNL A   1      45.285  26.212  27.236  1.00  0.00    -0.248 NA
ATOM     40  C   UNL A   1      45.733  24.103  26.347  1.00  0.00     0.031 C 
ATOM     41  C   UNL A   1      41.114  24.914  28.189  1.00  0.00     0.029 A 
ATOM     42  N   UNL A   1      42.530  26.643  28.156  1.00  0.00    -0.354 N 
ATOM     43  C   UNL A   1      46.599  26.174  26.785  1.00  0.00     0.074 A 
ATOM     44  C   UNL A   1      46.834  24.838  26.284  1.00  0.00     0.031 C 
ATOM     45  C   UNL A   1      40.427  26.000  28.570  1.00  0.00     0.029 A 
ATOM     46  C   UNL A   1      41.329  27.145  28.593  1.00  0.00     0.049 A 
ATOM     47  H   UNL A   1      43.345  27.188  28.069  1.00  0.00     0.167 HD
ATOM     48  C   UNL A   1      47.520  27.166  26.782  1.00  0.00     0.037 A 
ATOM     49  C   UNL A   1      40.990  28.387  28.987  1.00  0.00     0.037 A 
ATOM     50  C   UNL A   1      47.270  28.508  27.241  1.00  0.00     0.049 A 
ATOM     51  C   UNL A   1      42.038  29.460  29.000  1.00  0.00     0.074 A 
ATOM     52  C   UNL A   1      48.138  29.587  27.265  1.00  0.00     0.029 A 
ATOM     53  N   UNL A   1      46.058  28.959  27.741  1.00  0.00    -0.354 N 
ATOM     54  N   UNL A   1      43.286  29.398  28.607  1.00  0.00    -0.248 NA
ATOM     55  C   UNL A   1      41.639  30.769  29.533  1.00  0.00     0.031 C 
ATOM     56  C   UNL A   1      47.461  30.681  27.812  1.00  0.00     0.029 A 
ATOM     57  C   UNL A   1      46.159  30.296  28.090  1.00  0.00     0.049 A 
ATOM     58  H   UNL A   1      45.245  28.411  27.834  1.00  0.00     0.167 HD
ATOM     59  C   UNL A   1      43.823  30.654  28.844  1.00  0.00     0.074 A 
ATOM     60  C   UNL A   1      42.757  31.467  29.390  1.00  0.00     0.031 C 
ATOM     61  C   UNL A   1      45.089  31.089  28.638  1.00  0.00     0.037 A 
BRANCH  48  62
ATOM     62  C   UNL A   1      48.897  26.847  26.278  1.00  0.00     0.064 A 
ATOM     63  C   UNL A   1      49.861  26.244  27.100  1.00  0.00     0.173 A 
ATOM     64  C   UNL A   1      49.233  27.083  24.936  1.00  0.00     0.173 A 
ATOM     65  F   UNL A   1      49.594  26.010  28.393  1.00  0.00    -0.203 F 
ATOM     66  C   UNL A   1      51.115  25.901  26.599  1.00  0.00     0.198 A 
ATOM     67  C   UNL A   1      50.478  26.716  24.432  1.00  0.00     0.198 A 
ATOM     68  F   UNL A   1      48.345  27.652  24.107  1.00  0.00    -0.203 F 
ATOM     69  F   UNL A   1      52.030  25.353  27.409  1.00  0.00    -0.200 F 
ATOM     70  C   UNL A   1      51.419  26.128  25.264  1.00  0.00     0.200 A 
ATOM     71  F   UNL A   1      50.766  26.926  23.140  1.00  0.00    -0.200 F 
ATOM     72  F   UNL A   1      52.621  25.784  24.781  1.00  0.00    -0.200 F 
ENDBRANCH  48  62
BRANCH  49  73
ATOM     73  C   UNL A   1      39.595  28.666  29.411  1.00  0.00     0.064 A 
ATOM     74  C   UNL A   1      39.191  28.453  30.735  1.00  0.00     0.173 A 
ATOM     75  C   UNL A   1      38.651  29.191  28.515  1.00  0.00     0.173 A 
ATOM     76  F   UNL A   1      40.051  27.934  31.623  1.00  0.00    -0.203 F 
ATOM     77  C   UNL A   1      37.895  28.757  31.148  1.00  0.00     0.198 A 
ATOM     78  C   UNL A   1      37.365  29.521  28.935  1.00  0.00     0.198 A 
ATOM     79  F   UNL A   1      38.992  29.415  27.237  1.00  0.00    -0.203 F 
ATOM     80  F   UNL A   1      37.525  28.521  32.414  1.00  0.00    -0.200 F 
ATOM     81  C   UNL A   1      36.987  29.299  30.250  1.00  0.00     0.200 A 
ATOM     82  F   UNL A   1      36.499  30.062  28.068  1.00  0.00    -0.200 F 
ATOM     83  F   UNL A   1      35.746  29.609  30.653  1.00  0.00    -0.200 F 
ENDBRANCH  49  73
BRANCH  61  84
ATOM     84  C   UNL A   1      45.392  32.510  29.002  1.00  0.00     0.064 A 
ATOM     85  C   UNL A   1      45.907  32.844  30.263  1.00  0.00     0.173 A 
ATOM     86  C   UNL A   1      45.219  33.539  28.065  1.00  0.00     0.173 A 
ATOM     87  F   UNL A   1      46.074  31.894  31.196  1.00  0.00    -0.203 F 
ATOM     88  C   UNL A   1      46.223  34.162  30.579  1.00  0.00     0.198 A 
ATOM     89  C   UNL A   1      45.559  34.852  28.376  1.00  0.00     0.198 A 
ATOM     90  F   UNL A   1      44.735  33.266  26.844  1.00  0.00    -0.203 F 
ATOM     91  F   UNL A   1      46.682  34.464  31.801  1.00  0.00    -0.200 F 
ATOM     92  C   UNL A   1      46.057  35.162  29.633  1.00  0.00     0.200 A 
ATOM     93  F   UNL A   1      45.408  35.817  27.458  1.00  0.00    -0.200 F 
ATOM     94  F   UNL A   1      46.371  36.430  29.935  1.00  0.00    -0.200 F 
ENDBRANCH  61  84
ENDBRANCH  35  36
ENDBRANCH  27  30
ENDBRANCH  25  26
ENDBRANCH   1  25
TORSDOF 13
ENDMDL
