MODEL 1
REMARK VINA RESULT:     -12.0      0.000      0.000
REMARK SMILES CCc1cc(OC(F)(F)F)cc2c1O[C@@H](C(F)(F)F)C(C(=O)NCCCNC(=O)c1ccc(-c3c4nc(c(-c5c(F)c(F)c(F)c(F)c5F)c5ccc([nH]5)c(-c5c(F)c(F)c(F)c(F)c5F)c5nc(c(-c6c(F)c(F)c(F)c(F)c6F)c6ccc3[nH]6)C=C5)C=C4)cc1)=C2
REMARK SMILES IDX 25 1 24 2 23 3 21 4 22 5 20 7 3 8 4 9 13 10 5 11 12 12 14 13
REMARK SMILES IDX 11 14 93 15 15 16 2 17 1 18 6 19 7 20 8 21 9 22 10 23 16 24
REMARK SMILES IDX 17 25 18 26 19 27 26 28 27 29 28 30 29 32 30 33 31 34 92 35
REMARK SMILES IDX 32 36 91 37 33 38 34 39 35 40 85 41 36 42 90 43 84 44 86 45
REMARK SMILES IDX 37 46 89 47 83 48 82 49 38 51 70 52 50 53 69 54 51 55 54 56
REMARK SMILES IDX 68 57 87 58 52 59 53 60 67 62 88 63 55 64 39 65 40 66 48 67
REMARK SMILES IDX 41 68 42 69 46 70 49 71 43 72 44 73 47 74 45 75 71 76 72 77
REMARK SMILES IDX 80 78 73 79 74 80 78 81 81 82 75 83 76 84 79 85 77 86 56 87
REMARK SMILES IDX 57 88 65 89 58 90 59 91 63 92 66 93 60 94 61 95 64 96 62 97
REMARK H PARENT 23 6 27 31 86 50 54 61
REMARK Flexibility Score: inf
ROOT
ATOM      1  C   UNL A   1      35.267  23.509  26.350  1.00  0.00     0.042 C 
ENDROOT
BRANCH   1   2
ATOM      2  C   UNL A   1      34.153  23.126  25.371  1.00  0.00     0.118 C 
BRANCH   2   3
ATOM      3  N   UNL A   1      32.936  22.788  26.092  1.00  0.00    -0.352 N 
ATOM      4  C   UNL A   1      31.897  23.536  26.546  1.00  0.00     0.251 C 
ATOM      5  O   UNL A   1      31.068  22.995  27.272  1.00  0.00    -0.270 OA
ATOM      6  H   UNL A   1      32.847  21.828  26.288  1.00  0.00     0.163 HD
BRANCH   4   7
ATOM      7  C   UNL A   1      31.693  24.949  26.143  1.00  0.00     0.067 C 
ATOM      8  C   UNL A   1      31.170  28.851  24.640  1.00  0.00    -0.002 A 
ATOM      9  C   UNL A   1      31.671  29.928  25.408  1.00  0.00     0.054 A 
ATOM     10  C   UNL A   1      31.340  27.549  25.134  1.00  0.00     0.131 A 
ATOM     11  C   UNL A   1      32.308  29.721  26.632  1.00  0.00     0.130 A 
ATOM     12  C   UNL A   1      31.954  27.336  26.374  1.00  0.00     0.021 A 
ATOM     13  O   UNL A   1      30.988  26.496  24.342  1.00  0.00    -0.475 OA
ATOM     14  C   UNL A   1      32.430  28.420  27.116  1.00  0.00     0.058 A 
ATOM     15  C   UNL A   1      32.179  25.978  26.851  1.00  0.00     0.025 C 
ATOM     16  C   UNL A   1      30.758  25.204  24.970  1.00  0.00     0.314 C 
BRANCH   8  17
ATOM     17  C   UNL A   1      30.529  29.214  23.313  1.00  0.00     0.036 C 
ATOM     18  C   UNL A   1      29.057  28.899  23.085  1.00  0.00     0.009 C 
ENDBRANCH   8  17
BRANCH  11  19
ATOM     19  O   UNL A   1      32.860  30.673  27.438  1.00  0.00    -0.406 OA
BRANCH  19  20
ATOM     20  C   UNL A   1      34.273  30.738  27.522  1.00  0.00     0.573 C 
ATOM     21  F   UNL A   1      34.700  30.528  28.786  1.00  0.00    -0.132 F 
ATOM     22  F   UNL A   1      34.847  29.839  26.695  1.00  0.00    -0.132 F 
ATOM     23  F   UNL A   1      34.672  31.972  27.144  1.00  0.00    -0.132 F 
ENDBRANCH  19  20
ENDBRANCH  11  19
BRANCH  16  24
ATOM     24  C   UNL A   1      30.763  24.150  23.839  1.00  0.00     0.429 C 
ATOM     25  F   UNL A   1      29.879  24.429  22.856  1.00  0.00    -0.167 F 
ATOM     26  F   UNL A   1      31.979  24.102  23.228  1.00  0.00    -0.167 F 
ATOM     27  F   UNL A   1      30.509  22.903  24.297  1.00  0.00    -0.167 F 
ENDBRANCH  16  24
ENDBRANCH   4   7
ENDBRANCH   2   3
ENDBRANCH   1   2
BRANCH   1  28
ATOM     28  C   UNL A   1      36.576  23.887  25.662  1.00  0.00     0.118 C 
BRANCH  28  29
ATOM     29  N   UNL A   1      37.599  22.871  25.846  1.00  0.00    -0.352 N 
ATOM     30  C   UNL A   1      38.889  22.992  26.298  1.00  0.00     0.251 C 
ATOM     31  H   UNL A   1      37.324  21.955  25.612  1.00  0.00     0.163 HD
ATOM     32  O   UNL A   1      39.666  22.053  26.164  1.00  0.00    -0.269 OA
BRANCH  30  33
ATOM     33  C   UNL A   1      39.356  24.243  26.934  1.00  0.00     0.039 A 
ATOM     34  C   UNL A   1      40.052  25.172  26.154  1.00  0.00     0.014 A 
ATOM     35  C   UNL A   1      39.174  24.479  28.300  1.00  0.00     0.014 A 
ATOM     36  C   UNL A   1      40.527  26.352  26.730  1.00  0.00     0.010 A 
ATOM     37  C   UNL A   1      39.589  25.685  28.861  1.00  0.00     0.010 A 
ATOM     38  C   UNL A   1      40.279  26.628  28.083  1.00  0.00    -0.014 A 
BRANCH  38  39
ATOM     39  C   UNL A   1      40.739  27.896  28.702  1.00  0.00     0.031 A 
ATOM     40  C   UNL A   1      42.169  28.058  29.132  1.00  0.00     0.074 A 
ATOM     41  C   UNL A   1      39.849  28.876  28.944  1.00  0.00     0.049 A 
ATOM     42  N   UNL A   1      42.742  29.062  29.748  1.00  0.00    -0.248 NA
ATOM     43  C   UNL A   1      43.070  26.927  28.860  1.00  0.00     0.031 C 
ATOM     44  C   UNL A   1      38.422  28.814  28.629  1.00  0.00     0.029 A 
ATOM     45  N   UNL A   1      40.008  30.107  29.528  1.00  0.00    -0.354 N 
ATOM     46  C   UNL A   1      44.060  28.677  29.954  1.00  0.00     0.074 A 
ATOM     47  C   UNL A   1      44.189  27.328  29.442  1.00  0.00     0.031 C 
ATOM     48  C   UNL A   1      37.837  29.958  29.016  1.00  0.00     0.029 A 
ATOM     49  C   UNL A   1      38.841  30.820  29.633  1.00  0.00     0.049 A 
ATOM     50  H   UNL A   1      40.878  30.447  29.843  1.00  0.00     0.167 HD
ATOM     51  C   UNL A   1      45.074  29.389  30.501  1.00  0.00     0.037 A 
ATOM     52  C   UNL A   1      38.602  32.030  30.174  1.00  0.00     0.037 A 
ATOM     53  C   UNL A   1      44.945  30.738  30.987  1.00  0.00     0.049 A 
ATOM     54  C   UNL A   1      39.746  32.815  30.754  1.00  0.00     0.074 A 
ATOM     55  C   UNL A   1      45.927  31.577  31.484  1.00  0.00     0.029 A 
ATOM     56  N   UNL A   1      43.752  31.446  31.043  1.00  0.00    -0.354 N 
ATOM     57  N   UNL A   1      41.006  32.475  30.869  1.00  0.00    -0.248 NA
ATOM     58  C   UNL A   1      39.435  34.155  31.267  1.00  0.00     0.031 C 
ATOM     59  C   UNL A   1      45.321  32.775  31.882  1.00  0.00     0.029 A 
ATOM     60  C   UNL A   1      43.969  32.701  31.590  1.00  0.00     0.049 A 
ATOM     61  H   UNL A   1      42.880  31.105  30.738  1.00  0.00     0.167 HD
ATOM     62  C   UNL A   1      41.643  33.559  31.453  1.00  0.00     0.074 A 
ATOM     63  C   UNL A   1      40.631  34.578  31.652  1.00  0.00     0.031 C 
ATOM     64  C   UNL A   1      42.949  33.700  31.793  1.00  0.00     0.037 A 
BRANCH  51  65
ATOM     65  C   UNL A   1      46.411  28.712  30.610  1.00  0.00     0.064 A 
ATOM     66  C   UNL A   1      46.785  27.999  31.760  1.00  0.00     0.173 A 
ATOM     67  C   UNL A   1      47.329  28.775  29.551  1.00  0.00     0.173 A 
ATOM     68  F   UNL A   1      45.948  27.916  32.805  1.00  0.00    -0.203 F 
ATOM     69  C   UNL A   1      48.045  27.413  31.862  1.00  0.00     0.198 A 
ATOM     70  C   UNL A   1      48.575  28.161  29.645  1.00  0.00     0.198 A 
ATOM     71  F   UNL A   1      47.021  29.437  28.427  1.00  0.00    -0.203 F 
ATOM     72  F   UNL A   1      48.402  26.792  32.995  1.00  0.00    -0.200 F 
ATOM     73  C   UNL A   1      48.937  27.491  30.804  1.00  0.00     0.200 A 
ATOM     74  F   UNL A   1      49.433  28.227  28.616  1.00  0.00    -0.200 F 
ATOM     75  F   UNL A   1      50.150  26.930  30.906  1.00  0.00    -0.200 F 
ENDBRANCH  51  65
BRANCH  52  76
ATOM     76  C   UNL A   1      37.221  32.571  30.160  1.00  0.00     0.064 A 
ATOM     77  C   UNL A   1      36.306  32.233  31.166  1.00  0.00     0.173 A 
ATOM     78  C   UNL A   1      36.805  33.475  29.171  1.00  0.00     0.173 A 
ATOM     79  F   UNL A   1      36.654  31.361  32.123  1.00  0.00    -0.203 F 
ATOM     80  C   UNL A   1      35.022  32.777  31.181  1.00  0.00     0.198 A 
ATOM     81  C   UNL A   1      35.531  34.036  29.202  1.00  0.00     0.198 A 
ATOM     82  F   UNL A   1      37.649  33.835  28.194  1.00  0.00    -0.203 F 
ATOM     83  F   UNL A   1      34.159  32.422  32.141  1.00  0.00    -0.200 F 
ATOM     84  C   UNL A   1      34.639  33.685  30.205  1.00  0.00     0.200 A 
ATOM     85  F   UNL A   1      35.170  34.925  28.266  1.00  0.00    -0.200 F 
ATOM     86  F   UNL A   1      33.412  34.221  30.230  1.00  0.00    -0.200 F 
ENDBRANCH  52  76
BRANCH  64  87
ATOM     87  C   UNL A   1      43.360  35.005  32.408  1.00  0.00     0.064 A 
ATOM     88  C   UNL A   1      43.711  36.110  31.619  1.00  0.00     0.173 A 
ATOM     89  C   UNL A   1      43.366  35.163  33.802  1.00  0.00     0.173 A 
ATOM     90  F   UNL A   1      43.737  36.002  30.282  1.00  0.00    -0.203 F 
ATOM     91  C   UNL A   1      44.074  37.320  32.204  1.00  0.00     0.198 A 
ATOM     92  C   UNL A   1      43.702  36.383  34.382  1.00  0.00     0.198 A 
ATOM     93  F   UNL A   1      43.033  34.139  34.601  1.00  0.00    -0.203 F 
ATOM     94  F   UNL A   1      44.448  38.350  31.432  1.00  0.00    -0.200 F 
ATOM     95  C   UNL A   1      44.062  37.458  33.584  1.00  0.00     0.200 A 
ATOM     96  F   UNL A   1      43.680  36.518  35.716  1.00  0.00    -0.200 F 
ATOM     97  F   UNL A   1      44.405  38.626  34.145  1.00  0.00    -0.200 F 
ENDBRANCH  64  87
ENDBRANCH  38  39
ENDBRANCH  30  33
ENDBRANCH  28  29
ENDBRANCH   1  28
TORSDOF 14
ENDMDL
MODEL 2
REMARK VINA RESULT:     -12.0      1.019      2.089
REMARK SMILES CCc1cc(OC(F)(F)F)cc2c1O[C@@H](C(F)(F)F)C(C(=O)NCCCNC(=O)c1ccc(-c3c4nc(c(-c5c(F)c(F)c(F)c(F)c5F)c5ccc([nH]5)c(-c5c(F)c(F)c(F)c(F)c5F)c5nc(c(-c6c(F)c(F)c(F)c(F)c6F)c6ccc3[nH]6)C=C5)C=C4)cc1)=C2
REMARK SMILES IDX 25 1 24 2 23 3 21 4 22 5 20 7 3 8 4 9 13 10 5 11 12 12 14 13
REMARK SMILES IDX 11 14 93 15 15 16 2 17 1 18 6 19 7 20 8 21 9 22 10 23 16 24
REMARK SMILES IDX 17 25 18 26 19 27 26 28 27 29 28 30 29 32 30 33 31 34 92 35
REMARK SMILES IDX 32 36 91 37 33 38 34 39 35 40 85 41 36 42 90 43 84 44 86 45
REMARK SMILES IDX 37 46 89 47 83 48 82 49 38 51 70 52 50 53 69 54 51 55 54 56
REMARK SMILES IDX 68 57 87 58 52 59 53 60 67 62 88 63 55 64 39 65 40 66 48 67
REMARK SMILES IDX 41 68 42 69 46 70 49 71 43 72 44 73 47 74 45 75 71 76 72 77
REMARK SMILES IDX 80 78 73 79 74 80 78 81 81 82 75 83 76 84 79 85 77 86 56 87
REMARK SMILES IDX 57 88 65 89 58 90 59 91 63 92 66 93 60 94 61 95 64 96 62 97
REMARK H PARENT 23 6 27 31 86 50 54 61
REMARK Flexibility Score: inf
ROOT
ATOM      1  C   UNL A   1      35.317  23.380  26.385  1.00  0.00     0.042 C 
ENDROOT
BRANCH   1   2
ATOM      2  C   UNL A   1      34.153  23.274  25.395  1.00  0.00     0.118 C 
BRANCH   2   3
ATOM      3  N   UNL A   1      32.923  22.932  26.091  1.00  0.00    -0.352 N 
ATOM      4  C   UNL A   1      31.887  23.681  26.550  1.00  0.00     0.251 C 
ATOM      5  O   UNL A   1      31.042  23.131  27.251  1.00  0.00    -0.270 OA
ATOM      6  H   UNL A   1      32.820  21.969  26.262  1.00  0.00     0.163 HD
BRANCH   4   7
ATOM      7  C   UNL A   1      31.704  25.106  26.181  1.00  0.00     0.067 C 
ATOM      8  C   UNL A   1      31.232  29.048  24.770  1.00  0.00    -0.002 A 
ATOM      9  C   UNL A   1      31.777  30.098  25.545  1.00  0.00     0.054 A 
ATOM     10  C   UNL A   1      31.385  27.733  25.234  1.00  0.00     0.131 A 
ATOM     11  C   UNL A   1      32.440  29.853  26.749  1.00  0.00     0.130 A 
ATOM     12  C   UNL A   1      32.025  27.481  26.452  1.00  0.00     0.021 A 
ATOM     13  O   UNL A   1      30.990  26.704  24.430  1.00  0.00    -0.475 OA
ATOM     14  C   UNL A   1      32.544  28.539  27.204  1.00  0.00     0.058 A 
ATOM     15  C   UNL A   1      32.232  26.109  26.897  1.00  0.00     0.025 C 
ATOM     16  C   UNL A   1      30.746  25.405  25.038  1.00  0.00     0.314 C 
BRANCH   8  17
ATOM     17  C   UNL A   1      30.566  29.453  23.467  1.00  0.00     0.036 C 
ATOM     18  C   UNL A   1      29.385  30.414  23.500  1.00  0.00     0.009 C 
ENDBRANCH   8  17
BRANCH  11  19
ATOM     19  O   UNL A   1      33.033  30.775  27.559  1.00  0.00    -0.406 OA
BRANCH  19  20
ATOM     20  C   UNL A   1      34.449  30.800  27.616  1.00  0.00     0.573 C 
ATOM     21  F   UNL A   1      34.988  29.843  26.830  1.00  0.00    -0.132 F 
ATOM     22  F   UNL A   1      34.926  32.008  27.250  1.00  0.00    -0.132 F 
ATOM     23  F   UNL A   1      34.834  30.562  28.889  1.00  0.00    -0.132 F 
ENDBRANCH  19  20
ENDBRANCH  11  19
BRANCH  16  24
ATOM     24  C   UNL A   1      30.699  24.375  23.886  1.00  0.00     0.429 C 
ATOM     25  F   UNL A   1      31.900  24.185  23.300  1.00  0.00    -0.167 F 
ATOM     26  F   UNL A   1      30.323  23.151  24.347  1.00  0.00    -0.167 F 
ATOM     27  F   UNL A   1      29.809  24.719  22.926  1.00  0.00    -0.167 F 
ENDBRANCH  16  24
ENDBRANCH   4   7
ENDBRANCH   2   3
ENDBRANCH   1   2
BRANCH   1  28
ATOM     28  C   UNL A   1      36.661  23.656  25.714  1.00  0.00     0.118 C 
BRANCH  28  29
ATOM     29  N   UNL A   1      37.656  22.656  26.064  1.00  0.00    -0.352 N 
ATOM     30  C   UNL A   1      38.946  22.815  26.505  1.00  0.00     0.251 C 
ATOM     31  H   UNL A   1      37.360  21.721  25.971  1.00  0.00     0.163 HD
ATOM     32  O   UNL A   1      39.700  21.848  26.526  1.00  0.00    -0.269 OA
BRANCH  30  33
ATOM     33  C   UNL A   1      39.440  24.138  26.946  1.00  0.00     0.039 A 
ATOM     34  C   UNL A   1      39.278  24.500  28.287  1.00  0.00     0.014 A 
ATOM     35  C   UNL A   1      40.000  25.046  26.042  1.00  0.00     0.014 A 
ATOM     36  C   UNL A   1      39.713  25.751  28.729  1.00  0.00     0.010 A 
ATOM     37  C   UNL A   1      40.493  26.267  26.496  1.00  0.00     0.010 A 
ATOM     38  C   UNL A   1      40.345  26.636  27.842  1.00  0.00    -0.014 A 
BRANCH  38  39
ATOM     39  C   UNL A   1      40.851  27.952  28.304  1.00  0.00     0.031 A 
ATOM     40  C   UNL A   1      42.327  28.221  28.363  1.00  0.00     0.074 A 
ATOM     41  C   UNL A   1      39.980  28.880  28.740  1.00  0.00     0.049 A 
ATOM     42  N   UNL A   1      42.961  29.282  28.799  1.00  0.00    -0.248 NA
ATOM     43  C   UNL A   1      43.212  27.142  27.897  1.00  0.00     0.031 C 
ATOM     44  C   UNL A   1      38.527  28.715  28.789  1.00  0.00     0.029 A 
ATOM     45  N   UNL A   1      40.189  30.140  29.243  1.00  0.00    -0.354 N 
ATOM     46  C   UNL A   1      44.313  28.990  28.679  1.00  0.00     0.074 A 
ATOM     47  C   UNL A   1      44.408  27.635  28.177  1.00  0.00     0.031 C 
ATOM     48  C   UNL A   1      37.975  29.832  29.288  1.00  0.00     0.029 A 
ATOM     49  C   UNL A   1      39.035  30.779  29.621  1.00  0.00     0.049 A 
ATOM     50  H   UNL A   1      41.083  30.546  29.326  1.00  0.00     0.167 HD
ATOM     51  C   UNL A   1      45.377  29.786  28.945  1.00  0.00     0.037 A 
ATOM     52  C   UNL A   1      38.851  31.989  30.181  1.00  0.00     0.037 A 
ATOM     53  C   UNL A   1      45.275  31.140  29.422  1.00  0.00     0.049 A 
ATOM     54  C   UNL A   1      40.043  32.866  30.445  1.00  0.00     0.074 A 
ATOM     55  C   UNL A   1      46.287  32.058  29.644  1.00  0.00     0.029 A 
ATOM     56  N   UNL A   1      44.085  31.770  29.759  1.00  0.00    -0.354 N 
ATOM     57  N   UNL A   1      41.314  32.613  30.250  1.00  0.00    -0.248 NA
ATOM     58  C   UNL A   1      39.773  34.202  30.994  1.00  0.00     0.031 C 
ATOM     59  C   UNL A   1      45.713  33.228  30.158  1.00  0.00     0.029 A 
ATOM     60  C   UNL A   1      44.339  33.056  30.211  1.00  0.00     0.049 A 
ATOM     61  H   UNL A   1      43.191  31.364  29.686  1.00  0.00     0.167 HD
ATOM     62  C   UNL A   1      41.996  33.757  30.638  1.00  0.00     0.074 A 
ATOM     63  C   UNL A   1      40.994  34.714  31.063  1.00  0.00     0.031 C 
ATOM     64  C   UNL A   1      43.332  33.993  30.641  1.00  0.00     0.037 A 
BRANCH  51  65
ATOM     65  C   UNL A   1      46.745  29.201  28.732  1.00  0.00     0.064 A 
ATOM     66  C   UNL A   1      47.424  29.339  27.512  1.00  0.00     0.173 A 
ATOM     67  C   UNL A   1      47.385  28.494  29.762  1.00  0.00     0.173 A 
ATOM     68  F   UNL A   1      46.854  29.998  26.492  1.00  0.00    -0.203 F 
ATOM     69  C   UNL A   1      48.674  28.755  27.317  1.00  0.00     0.198 A 
ATOM     70  C   UNL A   1      48.647  27.938  29.572  1.00  0.00     0.198 A 
ATOM     71  F   UNL A   1      46.784  28.337  30.950  1.00  0.00    -0.203 F 
ATOM     72  F   UNL A   1      49.274  28.847  26.122  1.00  0.00    -0.200 F 
ATOM     73  C   UNL A   1      49.286  28.059  28.347  1.00  0.00     0.200 A 
ATOM     74  F   UNL A   1      49.243  27.275  30.574  1.00  0.00    -0.200 F 
ATOM     75  F   UNL A   1      50.486  27.493  28.156  1.00  0.00    -0.200 F 
ENDBRANCH  51  65
BRANCH  52  76
ATOM     76  C   UNL A   1      37.474  32.439  30.499  1.00  0.00     0.064 A 
ATOM     77  C   UNL A   1      36.897  32.163  31.746  1.00  0.00     0.173 A 
ATOM     78  C   UNL A   1      36.728  33.197  29.585  1.00  0.00     0.173 A 
ATOM     79  F   UNL A   1      37.566  31.428  32.646  1.00  0.00    -0.203 F 
ATOM     80  C   UNL A   1      35.621  32.625  32.065  1.00  0.00     0.198 A 
ATOM     81  C   UNL A   1      35.463  33.678  29.914  1.00  0.00     0.198 A 
ATOM     82  F   UNL A   1      37.242  33.495  28.383  1.00  0.00    -0.203 F 
ATOM     83  F   UNL A   1      35.083  32.329  33.255  1.00  0.00    -0.200 F 
ATOM     84  C   UNL A   1      34.909  33.390  31.152  1.00  0.00     0.200 A 
ATOM     85  F   UNL A   1      34.785  34.431  29.036  1.00  0.00    -0.200 F 
ATOM     86  F   UNL A   1      33.691  33.849  31.467  1.00  0.00    -0.200 F 
ENDBRANCH  52  76
BRANCH  64  87
ATOM     87  C   UNL A   1      43.787  35.344  31.111  1.00  0.00     0.064 A 
ATOM     88  C   UNL A   1      44.179  35.565  32.439  1.00  0.00     0.173 A 
ATOM     89  C   UNL A   1      43.868  36.419  30.213  1.00  0.00     0.173 A 
ATOM     90  F   UNL A   1      44.103  34.573  33.339  1.00  0.00    -0.203 F 
ATOM     91  C   UNL A   1      44.616  36.819  32.857  1.00  0.00     0.198 A 
ATOM     92  C   UNL A   1      44.331  37.664  30.628  1.00  0.00     0.198 A 
ATOM     93  F   UNL A   1      43.510  36.258  28.931  1.00  0.00    -0.203 F 
ATOM     94  F   UNL A   1      44.944  37.019  34.141  1.00  0.00    -0.200 F 
ATOM     95  C   UNL A   1      44.698  37.865  31.950  1.00  0.00     0.200 A 
ATOM     96  F   UNL A   1      44.421  38.671  29.748  1.00  0.00    -0.200 F 
ATOM     97  F   UNL A   1      45.125  39.070  32.353  1.00  0.00    -0.200 F 
ENDBRANCH  64  87
ENDBRANCH  38  39
ENDBRANCH  30  33
ENDBRANCH  28  29
ENDBRANCH   1  28
TORSDOF 14
ENDMDL
MODEL 3
REMARK VINA RESULT:     -11.9      3.316      8.759
REMARK SMILES CCc1cc(OC(F)(F)F)cc2c1O[C@@H](C(F)(F)F)C(C(=O)NCCCNC(=O)c1ccc(-c3c4nc(c(-c5c(F)c(F)c(F)c(F)c5F)c5ccc([nH]5)c(-c5c(F)c(F)c(F)c(F)c5F)c5nc(c(-c6c(F)c(F)c(F)c(F)c6F)c6ccc3[nH]6)C=C5)C=C4)cc1)=C2
REMARK SMILES IDX 25 1 24 2 23 3 21 4 22 5 20 7 3 8 4 9 13 10 5 11 12 12 14 13
REMARK SMILES IDX 11 14 93 15 15 16 2 17 1 18 6 19 7 20 8 21 9 22 10 23 16 24
REMARK SMILES IDX 17 25 18 26 19 27 26 28 27 29 28 30 29 32 30 33 31 34 92 35
REMARK SMILES IDX 32 36 91 37 33 38 34 39 35 40 85 41 36 42 90 43 84 44 86 45
REMARK SMILES IDX 37 46 89 47 83 48 82 49 38 51 70 52 50 53 69 54 51 55 54 56
REMARK SMILES IDX 68 57 87 58 52 59 53 60 67 62 88 63 55 64 39 65 40 66 48 67
REMARK SMILES IDX 41 68 42 69 46 70 49 71 43 72 44 73 47 74 45 75 71 76 72 77
REMARK SMILES IDX 80 78 73 79 74 80 78 81 81 82 75 83 76 84 79 85 77 86 56 87
REMARK SMILES IDX 57 88 65 89 58 90 59 91 63 92 66 93 60 94 61 95 64 96 62 97
REMARK H PARENT 23 6 27 31 86 50 54 61
REMARK Flexibility Score: inf
ROOT
ATOM      1  C   UNL A   1      33.972  28.052  25.166  1.00  0.00     0.042 C 
ENDROOT
BRANCH   1   2
ATOM      2  C   UNL A   1      32.759  27.259  24.671  1.00  0.00     0.118 C 
BRANCH   2   3
ATOM      3  N   UNL A   1      32.833  27.061  23.232  1.00  0.00    -0.352 N 
ATOM      4  C   UNL A   1      33.358  26.071  22.465  1.00  0.00     0.251 C 
ATOM      5  O   UNL A   1      33.417  26.249  21.251  1.00  0.00    -0.270 OA
ATOM      6  H   UNL A   1      32.421  27.787  22.711  1.00  0.00     0.163 HD
BRANCH   4   7
ATOM      7  C   UNL A   1      33.793  24.769  23.027  1.00  0.00     0.067 C 
ATOM      8  C   UNL A   1      34.707  21.071  24.828  1.00  0.00    -0.002 A 
ATOM      9  C   UNL A   1      36.059  20.809  25.151  1.00  0.00     0.054 A 
ATOM     10  C   UNL A   1      34.396  22.300  24.228  1.00  0.00     0.131 A 
ATOM     11  C   UNL A   1      37.071  21.730  24.874  1.00  0.00     0.130 A 
ATOM     12  C   UNL A   1      35.408  23.217  23.923  1.00  0.00     0.021 A 
ATOM     13  O   UNL A   1      33.084  22.623  24.040  1.00  0.00    -0.475 OA
ATOM     14  C   UNL A   1      36.737  22.927  24.243  1.00  0.00     0.058 A 
ATOM     15  C   UNL A   1      35.068  24.514  23.355  1.00  0.00     0.025 C 
ATOM     16  C   UNL A   1      32.757  23.655  23.067  1.00  0.00     0.314 C 
BRANCH   8  17
ATOM     17  C   UNL A   1      33.705  19.998  25.214  1.00  0.00     0.036 C 
ATOM     18  C   UNL A   1      33.006  19.203  24.120  1.00  0.00     0.009 C 
ENDBRANCH   8  17
BRANCH  11  19
ATOM     19  O   UNL A   1      38.396  21.602  25.169  1.00  0.00    -0.406 OA
BRANCH  19  20
ATOM     20  C   UNL A   1      38.921  22.388  26.226  1.00  0.00     0.573 C 
ATOM     21  F   UNL A   1      37.971  23.179  26.768  1.00  0.00    -0.132 F 
ATOM     22  F   UNL A   1      39.461  21.607  27.185  1.00  0.00    -0.132 F 
ATOM     23  F   UNL A   1      39.896  23.182  25.731  1.00  0.00    -0.132 F 
ENDBRANCH  19  20
ENDBRANCH  11  19
BRANCH  16  24
ATOM     24  C   UNL A   1      31.295  24.077  23.338  1.00  0.00     0.429 C 
ATOM     25  F   UNL A   1      31.130  24.657  24.546  1.00  0.00    -0.167 F 
ATOM     26  F   UNL A   1      30.885  25.007  22.431  1.00  0.00    -0.167 F 
ATOM     27  F   UNL A   1      30.435  23.037  23.245  1.00  0.00    -0.167 F 
ENDBRANCH  16  24
ENDBRANCH   4   7
ENDBRANCH   2   3
ENDBRANCH   1   2
BRANCH   1  28
ATOM     28  C   UNL A   1      34.015  28.211  26.684  1.00  0.00     0.118 C 
BRANCH  28  29
ATOM     29  N   UNL A   1      33.805  29.591  27.090  1.00  0.00    -0.352 N 
ATOM     30  C   UNL A   1      34.578  30.402  27.882  1.00  0.00     0.251 C 
ATOM     31  H   UNL A   1      32.983  30.008  26.744  1.00  0.00     0.163 HD
ATOM     32  O   UNL A   1      34.116  31.460  28.296  1.00  0.00    -0.269 OA
BRANCH  30  33
ATOM     33  C   UNL A   1      35.957  30.012  28.252  1.00  0.00     0.039 A 
ATOM     34  C   UNL A   1      36.971  30.157  27.300  1.00  0.00     0.014 A 
ATOM     35  C   UNL A   1      36.247  29.447  29.497  1.00  0.00     0.014 A 
ATOM     36  C   UNL A   1      38.279  29.777  27.609  1.00  0.00     0.010 A 
ATOM     37  C   UNL A   1      37.562  29.129  29.829  1.00  0.00     0.010 A 
ATOM     38  C   UNL A   1      38.589  29.281  28.885  1.00  0.00    -0.014 A 
BRANCH  38  39
ATOM     39  C   UNL A   1      39.980  28.911  29.245  1.00  0.00     0.031 A 
ATOM     40  C   UNL A   1      40.837  29.856  30.038  1.00  0.00     0.074 A 
ATOM     41  C   UNL A   1      40.494  27.752  28.795  1.00  0.00     0.049 A 
ATOM     42  N   UNL A   1      42.093  29.739  30.391  1.00  0.00    -0.248 NA
ATOM     43  C   UNL A   1      40.208  31.115  30.464  1.00  0.00     0.031 C 
ATOM     44  C   UNL A   1      39.782  26.779  27.966  1.00  0.00     0.029 A 
ATOM     45  N   UNL A   1      41.743  27.204  28.953  1.00  0.00    -0.354 N 
ATOM     46  C   UNL A   1      42.408  30.913  31.061  1.00  0.00     0.074 A 
ATOM     47  C   UNL A   1      41.227  31.750  31.022  1.00  0.00     0.031 C 
ATOM     48  C   UNL A   1      40.600  25.751  27.694  1.00  0.00     0.029 A 
ATOM     49  C   UNL A   1      41.903  26.007  28.303  1.00  0.00     0.049 A 
ATOM     50  H   UNL A   1      42.456  27.631  29.482  1.00  0.00     0.167 HD
ATOM     51  C   UNL A   1      43.569  31.255  31.671  1.00  0.00     0.037 A 
ATOM     52  C   UNL A   1      42.981  25.206  28.201  1.00  0.00     0.037 A 
ATOM     53  C   UNL A   1      44.732  30.408  31.727  1.00  0.00     0.049 A 
ATOM     54  C   UNL A   1      44.252  25.591  28.906  1.00  0.00     0.074 A 
ATOM     55  C   UNL A   1      45.929  30.624  32.389  1.00  0.00     0.029 A 
ATOM     56  N   UNL A   1      44.846  29.181  31.089  1.00  0.00    -0.354 N 
ATOM     57  N   UNL A   1      44.514  26.666  29.608  1.00  0.00    -0.248 NA
ATOM     58  C   UNL A   1      45.371  24.644  28.814  1.00  0.00     0.031 C 
ATOM     59  C   UNL A   1      46.783  29.549  32.113  1.00  0.00     0.029 A 
ATOM     60  C   UNL A   1      46.102  28.641  31.319  1.00  0.00     0.049 A 
ATOM     61  H   UNL A   1      44.139  28.757  30.551  1.00  0.00     0.167 HD
ATOM     62  C   UNL A   1      45.819  26.523  30.054  1.00  0.00     0.074 A 
ATOM     63  C   UNL A   1      46.291  25.246  29.557  1.00  0.00     0.031 C 
ATOM     64  C   UNL A   1      46.561  27.373  30.807  1.00  0.00     0.037 A 
BRANCH  51  65
ATOM     65  C   UNL A   1      43.635  32.609  32.318  1.00  0.00     0.064 A 
ATOM     66  C   UNL A   1      44.087  33.739  31.619  1.00  0.00     0.173 A 
ATOM     67  C   UNL A   1      43.238  32.781  33.653  1.00  0.00     0.173 A 
ATOM     68  F   UNL A   1      44.487  33.629  30.343  1.00  0.00    -0.203 F 
ATOM     69  C   UNL A   1      44.182  34.979  32.246  1.00  0.00     0.198 A 
ATOM     70  C   UNL A   1      43.306  34.029  34.266  1.00  0.00     0.198 A 
ATOM     71  F   UNL A   1      42.791  31.737  34.366  1.00  0.00    -0.203 F 
ATOM     72  F   UNL A   1      44.679  36.029  31.576  1.00  0.00    -0.200 F 
ATOM     73  C   UNL A   1      43.788  35.124  33.567  1.00  0.00     0.200 A 
ATOM     74  F   UNL A   1      42.913  34.170  35.541  1.00  0.00    -0.200 F 
ATOM     75  F   UNL A   1      43.885  36.318  34.169  1.00  0.00    -0.200 F 
ENDBRANCH  51  65
BRANCH  52  76
ATOM     76  C   UNL A   1      42.880  23.951  27.418  1.00  0.00     0.064 A 
ATOM     77  C   UNL A   1      43.200  23.925  26.054  1.00  0.00     0.173 A 
ATOM     78  C   UNL A   1      42.512  22.742  28.028  1.00  0.00     0.173 A 
ATOM     79  F   UNL A   1      43.543  25.059  25.425  1.00  0.00    -0.203 F 
ATOM     80  C   UNL A   1      43.152  22.737  25.327  1.00  0.00     0.198 A 
ATOM     81  C   UNL A   1      42.487  21.552  27.306  1.00  0.00     0.198 A 
ATOM     82  F   UNL A   1      42.206  22.715  29.333  1.00  0.00    -0.203 F 
ATOM     83  F   UNL A   1      43.442  22.743  24.019  1.00  0.00    -0.200 F 
ATOM     84  C   UNL A   1      42.804  21.550  25.955  1.00  0.00     0.200 A 
ATOM     85  F   UNL A   1      42.167  20.404  27.920  1.00  0.00    -0.200 F 
ATOM     86  F   UNL A   1      42.776  20.405  25.260  1.00  0.00    -0.200 F 
ENDBRANCH  52  76
BRANCH  64  87
ATOM     87  C   UNL A   1      47.958  26.945  31.148  1.00  0.00     0.064 A 
ATOM     88  C   UNL A   1      48.223  26.108  32.241  1.00  0.00     0.173 A 
ATOM     89  C   UNL A   1      49.039  27.346  30.349  1.00  0.00     0.173 A 
ATOM     90  F   UNL A   1      47.224  25.712  33.045  1.00  0.00    -0.203 F 
ATOM     91  C   UNL A   1      49.523  25.705  32.536  1.00  0.00     0.198 A 
ATOM     92  C   UNL A   1      50.334  26.918  30.630  1.00  0.00     0.198 A 
ATOM     93  F   UNL A   1      48.839  28.142  29.289  1.00  0.00    -0.203 F 
ATOM     94  F   UNL A   1      49.758  24.941  33.611  1.00  0.00    -0.200 F 
ATOM     95  C   UNL A   1      50.575  26.104  31.726  1.00  0.00     0.200 A 
ATOM     96  F   UNL A   1      51.349  27.296  29.840  1.00  0.00    -0.200 F 
ATOM     97  F   UNL A   1      51.825  25.710  32.007  1.00  0.00    -0.200 F 
ENDBRANCH  64  87
ENDBRANCH  38  39
ENDBRANCH  30  33
ENDBRANCH  28  29
ENDBRANCH   1  28
TORSDOF 14
ENDMDL
