MODEL 1
REMARK VINA RESULT:     -12.3      0.000      0.000
REMARK SMILES O=C(C[C@H]1CN(S(=O)(=O)N2CCCCC2)CCO1)NCCCNC(=O)c1ccc(-c2c3nc(c(-c4c(F)c(F)c(F)c(F)c4F)c4ccc([nH]4)c(-c4c(F)c(F)c(F)c(F)c4F)c4nc(c(-c5c(F)c(F)c(F)c(F)c5F)c5ccc2[nH]5)C=C4)C=C3)cc1
REMARK SMILES IDX 20 1 19 2 1 3 2 4 3 6 4 7 5 8 18 9 6 10 17 11 16 12 7 13
REMARK SMILES IDX 8 14 9 15 10 16 11 17 15 18 12 19 14 20 13 21 21 22 22 23
REMARK SMILES IDX 23 24 24 25 25 27 26 28 27 29 88 30 28 31 87 32 29 33 30 34
REMARK SMILES IDX 31 35 81 36 32 37 86 38 80 39 82 40 33 41 85 42 79 43 78 44
REMARK SMILES IDX 34 46 66 47 46 48 65 49 47 50 50 51 64 52 83 53 48 54 49 55
REMARK SMILES IDX 63 57 84 58 51 59 35 60 36 61 44 62 37 63 38 64 42 65 45 66
REMARK SMILES IDX 39 67 40 68 43 69 41 70 67 71 68 72 76 73 69 74 70 75 74 76
REMARK SMILES IDX 77 77 71 78 72 79 75 80 73 81 52 82 53 83 61 84 54 85 55 86
REMARK SMILES IDX 59 87 62 88 56 89 57 90 60 91 58 92
REMARK H PARENT 19 5 23 26 82 45 50 56
REMARK Flexibility Score: inf
ROOT
ATOM      1  C   UNL A   1      33.080  28.686  22.989  1.00  0.00     0.117 C 
ENDROOT
BRANCH   1   2
ATOM      2  N   UNL A   1      33.002  27.388  22.070  1.00  0.00    -0.356 N 
ATOM      3  O   UNL A   1      33.278  25.711  20.705  1.00  0.00    -0.275 OA
ATOM      4  C   UNL A   1      32.927  26.031  21.859  1.00  0.00     0.222 C 
ATOM      5  H   UNL A   1      33.015  27.758  21.158  1.00  0.00     0.163 HD
BRANCH   4   6
ATOM      6  C   UNL A   1      32.417  24.847  22.716  1.00  0.00     0.133 C 
BRANCH   6   7
ATOM      7  C   UNL A   1      30.938  24.818  22.916  1.00  0.00     0.142 C 
ATOM      8  C   UNL A   1      30.655  23.706  23.866  1.00  0.00     0.136 C 
ATOM      9  O   UNL A   1      30.306  26.017  23.370  1.00  0.00    -0.375 OA
ATOM     10  N   UNL A   1      31.258  23.934  25.265  1.00  0.00    -0.184 NA
ATOM     11  C   UNL A   1      30.258  26.239  24.794  1.00  0.00     0.177 C 
ATOM     12  C   UNL A   1      30.300  25.015  25.754  1.00  0.00     0.132 C 
BRANCH  10  13
ATOM     13  S   UNL A   1      32.936  24.233  25.947  1.00  0.00     0.282 S 
ATOM     14  O   UNL A   1      33.161  25.648  25.931  1.00  0.00    -0.195 OA
ATOM     15  O   UNL A   1      32.853  23.575  27.252  1.00  0.00    -0.195 OA
BRANCH  13  16
ATOM     16  N   UNL A   1      34.323  23.435  25.136  1.00  0.00    -0.189 NA
ATOM     17  C   UNL A   1      34.409  21.927  24.954  1.00  0.00     0.103 C 
ATOM     18  C   UNL A   1      35.649  24.153  25.178  1.00  0.00     0.103 C 
ATOM     19  C   UNL A   1      35.752  21.256  24.626  1.00  0.00     0.017 C 
ATOM     20  C   UNL A   1      36.920  23.312  24.992  1.00  0.00     0.017 C 
ATOM     21  C   UNL A   1      36.735  22.202  23.986  1.00  0.00     0.003 C 
ENDBRANCH  13  16
ENDBRANCH  10  13
ENDBRANCH   6   7
ENDBRANCH   4   6
ENDBRANCH   1   2
BRANCH   1  22
ATOM     22  C   UNL A   1      33.518  28.936  24.512  1.00  0.00     0.042 C 
BRANCH  22  23
ATOM     23  C   UNL A   1      32.583  29.179  25.705  1.00  0.00     0.118 C 
BRANCH  23  24
ATOM     24  N   UNL A   1      32.498  30.595  26.010  1.00  0.00    -0.352 N 
ATOM     25  C   UNL A   1      33.121  31.339  26.987  1.00  0.00     0.251 C 
ATOM     26  H   UNL A   1      31.898  31.107  25.422  1.00  0.00     0.163 HD
ATOM     27  O   UNL A   1      32.553  32.361  27.373  1.00  0.00    -0.269 OA
BRANCH  25  28
ATOM     28  C   UNL A   1      34.454  30.993  27.562  1.00  0.00     0.039 A 
ATOM     29  C   UNL A   1      34.670  29.677  28.004  1.00  0.00     0.014 A 
ATOM     30  C   UNL A   1      35.444  31.947  27.798  1.00  0.00     0.014 A 
ATOM     31  C   UNL A   1      35.852  29.333  28.674  1.00  0.00     0.010 A 
ATOM     32  C   UNL A   1      36.666  31.579  28.373  1.00  0.00     0.010 A 
ATOM     33  C   UNL A   1      36.871  30.280  28.858  1.00  0.00    -0.014 A 
BRANCH  33  34
ATOM     34  C   UNL A   1      38.117  29.930  29.597  1.00  0.00     0.031 A 
ATOM     35  C   UNL A   1      38.342  30.440  31.002  1.00  0.00     0.074 A 
ATOM     36  C   UNL A   1      39.051  29.164  29.001  1.00  0.00     0.049 A 
ATOM     37  N   UNL A   1      39.343  30.216  31.818  1.00  0.00    -0.248 NA
ATOM     38  C   UNL A   1      37.328  31.355  31.549  1.00  0.00     0.031 C 
ATOM     39  C   UNL A   1      38.983  28.678  27.622  1.00  0.00     0.029 A 
ATOM     40  N   UNL A   1      40.233  28.649  29.473  1.00  0.00    -0.354 N 
ATOM     41  C   UNL A   1      39.081  30.972  32.957  1.00  0.00     0.074 A 
ATOM     42  C   UNL A   1      37.876  31.724  32.696  1.00  0.00     0.031 C 
ATOM     43  C   UNL A   1      40.041  27.888  27.378  1.00  0.00     0.029 A 
ATOM     44  C   UNL A   1      40.881  27.840  28.569  1.00  0.00     0.049 A 
ATOM     45  H   UNL A   1      40.584  28.841  30.372  1.00  0.00     0.167 HD
ATOM     46  C   UNL A   1      39.762  31.008  34.128  1.00  0.00     0.037 A 
ATOM     47  C   UNL A   1      42.017  27.127  28.697  1.00  0.00     0.037 A 
ATOM     48  C   UNL A   1      40.946  30.230  34.386  1.00  0.00     0.049 A 
ATOM     49  C   UNL A   1      42.735  27.153  30.019  1.00  0.00     0.074 A 
ATOM     50  C   UNL A   1      41.689  30.140  35.549  1.00  0.00     0.029 A 
ATOM     51  N   UNL A   1      41.558  29.404  33.453  1.00  0.00    -0.354 N 
ATOM     52  N   UNL A   1      42.430  27.807  31.116  1.00  0.00    -0.248 NA
ATOM     53  C   UNL A   1      43.943  26.328  30.128  1.00  0.00     0.031 C 
ATOM     54  C   UNL A   1      42.781  29.300  35.303  1.00  0.00     0.029 A 
ATOM     55  C   UNL A   1      42.682  28.814  34.008  1.00  0.00     0.049 A 
ATOM     56  H   UNL A   1      41.241  29.259  32.532  1.00  0.00     0.167 HD
ATOM     57  C   UNL A   1      43.392  27.452  32.052  1.00  0.00     0.074 A 
ATOM     58  C   UNL A   1      44.271  26.502  31.400  1.00  0.00     0.031 C 
ATOM     59  C   UNL A   1      43.540  27.873  33.334  1.00  0.00     0.037 A 
BRANCH  46  60
ATOM     60  C   UNL A   1      39.235  31.906  35.216  1.00  0.00     0.064 A 
ATOM     61  C   UNL A   1      39.502  33.285  35.232  1.00  0.00     0.173 A 
ATOM     62  C   UNL A   1      38.441  31.387  36.252  1.00  0.00     0.173 A 
ATOM     63  F   UNL A   1      40.264  33.836  34.276  1.00  0.00    -0.203 F 
ATOM     64  C   UNL A   1      39.031  34.099  36.261  1.00  0.00     0.198 A 
ATOM     65  C   UNL A   1      37.942  32.211  37.258  1.00  0.00     0.198 A 
ATOM     66  F   UNL A   1      38.148  30.078  36.288  1.00  0.00    -0.203 F 
ATOM     67  F   UNL A   1      39.358  35.399  36.286  1.00  0.00    -0.200 F 
ATOM     68  C   UNL A   1      38.246  33.563  37.269  1.00  0.00     0.200 A 
ATOM     69  F   UNL A   1      37.171  31.693  38.226  1.00  0.00    -0.200 F 
ATOM     70  F   UNL A   1      37.791  34.348  38.256  1.00  0.00    -0.200 F 
ENDBRANCH  46  60
BRANCH  47  71
ATOM     71  C   UNL A   1      42.507  26.292  27.568  1.00  0.00     0.064 A 
ATOM     72  C   UNL A   1      42.018  24.992  27.360  1.00  0.00     0.173 A 
ATOM     73  C   UNL A   1      43.474  26.770  26.670  1.00  0.00     0.173 A 
ATOM     74  F   UNL A   1      41.105  24.480  28.197  1.00  0.00    -0.203 F 
ATOM     75  C   UNL A   1      42.494  24.199  26.318  1.00  0.00     0.198 A 
ATOM     76  C   UNL A   1      43.923  25.987  25.607  1.00  0.00     0.198 A 
ATOM     77  F   UNL A   1      43.970  28.007  26.814  1.00  0.00    -0.203 F 
ATOM     78  F   UNL A   1      42.044  22.943  26.176  1.00  0.00    -0.200 F 
ATOM     79  C   UNL A   1      43.441  24.698  25.439  1.00  0.00     0.200 A 
ATOM     80  F   UNL A   1      44.824  26.481  24.748  1.00  0.00    -0.200 F 
ATOM     81  F   UNL A   1      43.893  23.936  24.433  1.00  0.00    -0.200 F 
ENDBRANCH  47  71
BRANCH  59  82
ATOM     82  C   UNL A   1      44.676  27.279  34.115  1.00  0.00     0.064 A 
ATOM     83  C   UNL A   1      45.943  27.880  34.154  1.00  0.00     0.173 A 
ATOM     84  C   UNL A   1      44.492  26.091  34.839  1.00  0.00     0.173 A 
ATOM     85  F   UNL A   1      46.175  29.012  33.470  1.00  0.00    -0.203 F 
ATOM     86  C   UNL A   1      46.996  27.288  34.845  1.00  0.00     0.198 A 
ATOM     87  C   UNL A   1      45.535  25.522  35.563  1.00  0.00     0.198 A 
ATOM     88  F   UNL A   1      43.296  25.481  34.847  1.00  0.00    -0.203 F 
ATOM     89  F   UNL A   1      48.215  27.839  34.804  1.00  0.00    -0.200 F 
ATOM     90  C   UNL A   1      46.789  26.113  35.553  1.00  0.00     0.200 A 
ATOM     91  F   UNL A   1      45.329  24.399  36.263  1.00  0.00    -0.200 F 
ATOM     92  F   UNL A   1      47.804  25.542  36.216  1.00  0.00    -0.200 F 
ENDBRANCH  59  82
ENDBRANCH  33  34
ENDBRANCH  25  28
ENDBRANCH  23  24
ENDBRANCH  22  23
ENDBRANCH   1  22
TORSDOF 13
ENDMDL
MODEL 2
REMARK VINA RESULT:     -12.1      4.165      9.583
REMARK SMILES O=C(C[C@H]1CN(S(=O)(=O)N2CCCCC2)CCO1)NCCCNC(=O)c1ccc(-c2c3nc(c(-c4c(F)c(F)c(F)c(F)c4F)c4ccc([nH]4)c(-c4c(F)c(F)c(F)c(F)c4F)c4nc(c(-c5c(F)c(F)c(F)c(F)c5F)c5ccc2[nH]5)C=C4)C=C3)cc1
REMARK SMILES IDX 20 1 19 2 1 3 2 4 3 6 4 7 5 8 18 9 6 10 17 11 16 12 7 13
REMARK SMILES IDX 8 14 9 15 10 16 11 17 15 18 12 19 14 20 13 21 21 22 22 23
REMARK SMILES IDX 23 24 24 25 25 27 26 28 27 29 88 30 28 31 87 32 29 33 30 34
REMARK SMILES IDX 31 35 81 36 32 37 86 38 80 39 82 40 33 41 85 42 79 43 78 44
REMARK SMILES IDX 34 46 66 47 46 48 65 49 47 50 50 51 64 52 83 53 48 54 49 55
REMARK SMILES IDX 63 57 84 58 51 59 35 60 36 61 44 62 37 63 38 64 42 65 45 66
REMARK SMILES IDX 39 67 40 68 43 69 41 70 67 71 68 72 76 73 69 74 70 75 74 76
REMARK SMILES IDX 77 77 71 78 72 79 75 80 73 81 52 82 53 83 61 84 54 85 55 86
REMARK SMILES IDX 59 87 62 88 56 89 57 90 60 91 58 92
REMARK H PARENT 19 5 23 26 82 45 50 56
REMARK Flexibility Score: inf
ROOT
ATOM      1  C   UNL A   1      34.027  21.835  27.252  1.00  0.00     0.117 C 
ENDROOT
BRANCH   1   2
ATOM      2  N   UNL A   1      32.541  22.408  27.249  1.00  0.00    -0.356 N 
ATOM      3  O   UNL A   1      30.594  23.313  27.626  1.00  0.00    -0.275 OA
ATOM      4  C   UNL A   1      31.553  23.269  26.829  1.00  0.00     0.222 C 
ATOM      5  H   UNL A   1      32.078  21.835  27.903  1.00  0.00     0.163 HD
BRANCH   4   6
ATOM      6  C   UNL A   1      31.348  24.109  25.545  1.00  0.00     0.133 C 
BRANCH   6   7
ATOM      7  C   UNL A   1      31.024  23.310  24.327  1.00  0.00     0.142 C 
ATOM      8  C   UNL A   1      30.870  24.281  23.206  1.00  0.00     0.136 C 
ATOM      9  O   UNL A   1      31.935  22.275  23.950  1.00  0.00    -0.375 OA
ATOM     10  N   UNL A   1      32.171  25.036  22.874  1.00  0.00    -0.184 NA
ATOM     11  C   UNL A   1      33.053  22.649  23.121  1.00  0.00     0.177 C 
ATOM     12  C   UNL A   1      32.931  23.898  22.200  1.00  0.00     0.132 C 
BRANCH  10  13
ATOM     13  S   UNL A   1      33.344  26.113  23.787  1.00  0.00     0.282 S 
ATOM     14  O   UNL A   1      34.295  25.260  24.437  1.00  0.00    -0.195 OA
ATOM     15  O   UNL A   1      33.836  26.992  22.726  1.00  0.00    -0.195 OA
BRANCH  13  16
ATOM     16  N   UNL A   1      32.668  27.234  25.014  1.00  0.00    -0.189 NA
ATOM     17  C   UNL A   1      31.954  28.525  24.639  1.00  0.00     0.103 C 
ATOM     18  C   UNL A   1      33.312  27.231  26.378  1.00  0.00     0.103 C 
ATOM     19  C   UNL A   1      31.745  29.632  25.683  1.00  0.00     0.017 C 
ATOM     20  C   UNL A   1      33.146  28.485  27.248  1.00  0.00     0.017 C 
ATOM     21  C   UNL A   1      31.782  29.114  27.098  1.00  0.00     0.003 C 
ENDBRANCH  13  16
ENDBRANCH  10  13
ENDBRANCH   6   7
ENDBRANCH   4   6
ENDBRANCH   1   2
BRANCH   1  22
ATOM     22  C   UNL A   1      35.070  21.466  26.091  1.00  0.00     0.042 C 
BRANCH  22  23
ATOM     23  C   UNL A   1      36.409  22.162  25.808  1.00  0.00     0.118 C 
BRANCH  23  24
ATOM     24  N   UNL A   1      37.515  21.244  26.005  1.00  0.00    -0.352 N 
ATOM     25  C   UNL A   1      38.867  21.482  26.118  1.00  0.00     0.251 C 
ATOM     26  H   UNL A   1      37.257  20.296  26.067  1.00  0.00     0.163 HD
ATOM     27  O   UNL A   1      39.634  20.578  25.785  1.00  0.00    -0.269 OA
BRANCH  25  28
ATOM     28  C   UNL A   1      39.437  22.751  26.658  1.00  0.00     0.039 A 
ATOM     29  C   UNL A   1      39.037  23.965  26.076  1.00  0.00     0.014 A 
ATOM     30  C   UNL A   1      40.444  22.774  27.624  1.00  0.00     0.014 A 
ATOM     31  C   UNL A   1      39.641  25.172  26.452  1.00  0.00     0.010 A 
ATOM     32  C   UNL A   1      40.973  23.990  28.073  1.00  0.00     0.010 A 
ATOM     33  C   UNL A   1      40.612  25.199  27.465  1.00  0.00    -0.014 A 
BRANCH  33  34
ATOM     34  C   UNL A   1      41.283  26.475  27.848  1.00  0.00     0.031 A 
ATOM     35  C   UNL A   1      42.696  26.762  27.398  1.00  0.00     0.074 A 
ATOM     36  C   UNL A   1      40.624  27.369  28.611  1.00  0.00     0.049 A 
ATOM     37  N   UNL A   1      43.434  27.825  27.600  1.00  0.00    -0.248 NA
ATOM     38  C   UNL A   1      43.389  25.696  26.657  1.00  0.00     0.031 C 
ATOM     39  C   UNL A   1      39.287  27.171  29.172  1.00  0.00     0.029 A 
ATOM     40  N   UNL A   1      40.978  28.624  29.040  1.00  0.00    -0.354 N 
ATOM     41  C   UNL A   1      44.671  27.546  27.026  1.00  0.00     0.074 A 
ATOM     42  C   UNL A   1      44.613  26.186  26.542  1.00  0.00     0.031 C 
ATOM     43  C   UNL A   1      38.908  28.285  29.819  1.00  0.00     0.029 A 
ATOM     44  C   UNL A   1      39.987  29.263  29.750  1.00  0.00     0.049 A 
ATOM     45  H   UNL A   1      41.856  29.029  28.858  1.00  0.00     0.167 HD
ATOM     46  C   UNL A   1      45.744  28.360  26.879  1.00  0.00     0.037 A 
ATOM     47  C   UNL A   1      39.952  30.505  30.270  1.00  0.00     0.037 A 
ATOM     48  C   UNL A   1      45.778  29.724  27.339  1.00  0.00     0.049 A 
ATOM     49  C   UNL A   1      41.141  31.403  30.062  1.00  0.00     0.074 A 
ATOM     50  C   UNL A   1      46.784  30.662  27.199  1.00  0.00     0.029 A 
ATOM     51  N   UNL A   1      44.746  30.342  28.033  1.00  0.00    -0.354 N 
ATOM     52  N   UNL A   1      42.272  31.154  29.444  1.00  0.00    -0.248 NA
ATOM     53  C   UNL A   1      41.043  32.762  30.608  1.00  0.00     0.031 C 
ATOM     54  C   UNL A   1      46.382  31.832  27.855  1.00  0.00     0.029 A 
ATOM     55  C   UNL A   1      45.098  31.645  28.345  1.00  0.00     0.049 A 
ATOM     56  H   UNL A   1      43.889  29.918  28.268  1.00  0.00     0.167 HD
ATOM     57  C   UNL A   1      43.007  32.330  29.502  1.00  0.00     0.074 A 
ATOM     58  C   UNL A   1      42.179  33.300  30.191  1.00  0.00     0.031 C 
ATOM     59  C   UNL A   1      44.254  32.588  29.034  1.00  0.00     0.037 A 
BRANCH  46  60
ATOM     60  C   UNL A   1      46.958  27.800  26.187  1.00  0.00     0.064 A 
ATOM     61  C   UNL A   1      48.040  27.266  26.906  1.00  0.00     0.173 A 
ATOM     62  C   UNL A   1      47.038  27.782  24.785  1.00  0.00     0.173 A 
ATOM     63  F   UNL A   1      48.026  27.266  28.247  1.00  0.00    -0.203 F 
ATOM     64  C   UNL A   1      49.169  26.776  26.252  1.00  0.00     0.198 A 
ATOM     65  C   UNL A   1      48.154  27.258  24.134  1.00  0.00     0.198 A 
ATOM     66  F   UNL A   1      46.034  28.273  24.043  1.00  0.00    -0.203 F 
ATOM     67  F   UNL A   1      50.215  26.335  26.965  1.00  0.00    -0.200 F 
ATOM     68  C   UNL A   1      49.223  26.766  24.868  1.00  0.00     0.200 A 
ATOM     69  F   UNL A   1      48.198  27.237  22.794  1.00  0.00    -0.200 F 
ATOM     70  F   UNL A   1      50.308  26.292  24.240  1.00  0.00    -0.200 F 
ENDBRANCH  46  60
BRANCH  47  71
ATOM     71  C   UNL A   1      38.736  30.984  30.981  1.00  0.00     0.064 A 
ATOM     72  C   UNL A   1      38.638  30.913  32.380  1.00  0.00     0.173 A 
ATOM     73  C   UNL A   1      37.645  31.524  30.283  1.00  0.00     0.173 A 
ATOM     74  F   UNL A   1      39.645  30.392  33.095  1.00  0.00    -0.203 F 
ATOM     75  C   UNL A   1      37.491  31.338  33.047  1.00  0.00     0.198 A 
ATOM     76  C   UNL A   1      36.512  31.980  30.955  1.00  0.00     0.198 A 
ATOM     77  F   UNL A   1      37.687  31.625  28.947  1.00  0.00    -0.203 F 
ATOM     78  F   UNL A   1      37.407  31.209  34.379  1.00  0.00    -0.200 F 
ATOM     79  C   UNL A   1      36.430  31.876  32.336  1.00  0.00     0.200 A 
ATOM     80  F   UNL A   1      35.498  32.519  30.265  1.00  0.00    -0.200 F 
ATOM     81  F   UNL A   1      35.330  32.290  32.978  1.00  0.00    -0.200 F 
ENDBRANCH  47  71
BRANCH  59  82
ATOM     82  C   UNL A   1      44.775  33.983  29.225  1.00  0.00     0.064 A 
ATOM     83  C   UNL A   1      44.580  34.985  28.263  1.00  0.00     0.173 A 
ATOM     84  C   UNL A   1      45.476  34.322  30.393  1.00  0.00     0.173 A 
ATOM     85  F   UNL A   1      43.926  34.709  27.124  1.00  0.00    -0.203 F 
ATOM     86  C   UNL A   1      45.112  36.259  28.438  1.00  0.00     0.198 A 
ATOM     87  C   UNL A   1      45.971  35.609  30.584  1.00  0.00     0.198 A 
ATOM     88  F   UNL A   1      45.679  33.406  31.352  1.00  0.00    -0.203 F 
ATOM     89  F   UNL A   1      44.979  37.176  27.471  1.00  0.00    -0.200 F 
ATOM     90  C   UNL A   1      45.801  36.571  29.600  1.00  0.00     0.200 A 
ATOM     91  F   UNL A   1      46.618  35.914  31.716  1.00  0.00    -0.200 F 
ATOM     92  F   UNL A   1      46.315  37.797  29.766  1.00  0.00    -0.200 F 
ENDBRANCH  59  82
ENDBRANCH  33  34
ENDBRANCH  25  28
ENDBRANCH  23  24
ENDBRANCH  22  23
ENDBRANCH   1  22
TORSDOF 13
ENDMDL
MODEL 3
REMARK VINA RESULT:     -12.0      1.619      2.816
REMARK SMILES O=C(C[C@H]1CN(S(=O)(=O)N2CCCCC2)CCO1)NCCCNC(=O)c1ccc(-c2c3nc(c(-c4c(F)c(F)c(F)c(F)c4F)c4ccc([nH]4)c(-c4c(F)c(F)c(F)c(F)c4F)c4nc(c(-c5c(F)c(F)c(F)c(F)c5F)c5ccc2[nH]5)C=C4)C=C3)cc1
REMARK SMILES IDX 20 1 19 2 1 3 2 4 3 6 4 7 5 8 18 9 6 10 17 11 16 12 7 13
REMARK SMILES IDX 8 14 9 15 10 16 11 17 15 18 12 19 14 20 13 21 21 22 22 23
REMARK SMILES IDX 23 24 24 25 25 27 26 28 27 29 88 30 28 31 87 32 29 33 30 34
REMARK SMILES IDX 31 35 81 36 32 37 86 38 80 39 82 40 33 41 85 42 79 43 78 44
REMARK SMILES IDX 34 46 66 47 46 48 65 49 47 50 50 51 64 52 83 53 48 54 49 55
REMARK SMILES IDX 63 57 84 58 51 59 35 60 36 61 44 62 37 63 38 64 42 65 45 66
REMARK SMILES IDX 39 67 40 68 43 69 41 70 67 71 68 72 76 73 69 74 70 75 74 76
REMARK SMILES IDX 77 77 71 78 72 79 75 80 73 81 52 82 53 83 61 84 54 85 55 86
REMARK SMILES IDX 59 87 62 88 56 89 57 90 60 91 58 92
REMARK H PARENT 19 5 23 26 82 45 50 56
REMARK Flexibility Score: inf
ROOT
ATOM      1  C   UNL A   1      31.174  27.330  26.140  1.00  0.00     0.117 C 
ENDROOT
BRANCH   1   2
ATOM      2  N   UNL A   1      31.388  25.847  26.679  1.00  0.00    -0.356 N 
ATOM      3  O   UNL A   1      31.285  23.766  27.321  1.00  0.00    -0.275 OA
ATOM      4  C   UNL A   1      31.922  24.580  26.623  1.00  0.00     0.222 C 
ATOM      5  H   UNL A   1      30.839  25.824  27.496  1.00  0.00     0.163 HD
BRANCH   4   6
ATOM      6  C   UNL A   1      33.187  23.988  25.955  1.00  0.00     0.133 C 
BRANCH   6   7
ATOM      7  C   UNL A   1      33.328  24.304  24.503  1.00  0.00     0.142 C 
ATOM      8  C   UNL A   1      34.229  23.268  23.924  1.00  0.00     0.136 C 
ATOM      9  O   UNL A   1      32.133  24.398  23.725  1.00  0.00    -0.375 OA
ATOM     10  N   UNL A   1      33.637  21.847  23.983  1.00  0.00    -0.184 NA
ATOM     11  C   UNL A   1      31.611  23.175  23.167  1.00  0.00     0.177 C 
ATOM     12  C   UNL A   1      32.583  21.992  22.891  1.00  0.00     0.132 C 
BRANCH  10  13
ATOM     13  S   UNL A   1      33.019  20.727  25.301  1.00  0.00     0.282 S 
ATOM     14  O   UNL A   1      33.807  20.967  26.474  1.00  0.00    -0.195 OA
ATOM     15  O   UNL A   1      31.600  21.079  25.354  1.00  0.00    -0.195 OA
BRANCH  13  16
ATOM     16  N   UNL A   1      33.028  18.964  24.972  1.00  0.00    -0.189 NA
ATOM     17  C   UNL A   1      32.535  17.940  25.983  1.00  0.00     0.103 C 
ATOM     18  C   UNL A   1      34.052  18.452  23.989  1.00  0.00     0.103 C 
ATOM     19  C   UNL A   1      32.914  16.458  25.841  1.00  0.00     0.017 C 
ATOM     20  C   UNL A   1      34.449  16.972  24.079  1.00  0.00     0.017 C 
ATOM     21  C   UNL A   1      33.281  16.082  24.428  1.00  0.00     0.003 C 
ENDBRANCH  13  16
ENDBRANCH  10  13
ENDBRANCH   6   7
ENDBRANCH   4   6
ENDBRANCH   1   2
BRANCH   1  22
ATOM     22  C   UNL A   1      31.835  28.177  24.949  1.00  0.00     0.042 C 
BRANCH  22  23
ATOM     23  C   UNL A   1      33.076  29.076  25.045  1.00  0.00     0.118 C 
BRANCH  23  24
ATOM     24  N   UNL A   1      32.739  30.355  25.641  1.00  0.00    -0.352 N 
ATOM     25  C   UNL A   1      33.183  30.946  26.803  1.00  0.00     0.251 C 
ATOM     26  H   UNL A   1      32.087  30.887  25.131  1.00  0.00     0.163 HD
ATOM     27  O   UNL A   1      32.433  31.752  27.353  1.00  0.00    -0.269 OA
BRANCH  25  28
ATOM     28  C   UNL A   1      34.528  30.690  27.395  1.00  0.00     0.039 A 
ATOM     29  C   UNL A   1      34.871  29.370  27.731  1.00  0.00     0.014 A 
ATOM     30  C   UNL A   1      35.404  31.718  27.749  1.00  0.00     0.014 A 
ATOM     31  C   UNL A   1      36.063  29.092  28.412  1.00  0.00     0.010 A 
ATOM     32  C   UNL A   1      36.641  31.429  28.336  1.00  0.00     0.010 A 
ATOM     33  C   UNL A   1      36.970  30.120  28.715  1.00  0.00    -0.014 A 
BRANCH  33  34
ATOM     34  C   UNL A   1      38.225  29.837  29.468  1.00  0.00     0.031 A 
ATOM     35  C   UNL A   1      38.415  30.374  30.867  1.00  0.00     0.074 A 
ATOM     36  C   UNL A   1      39.198  29.108  28.888  1.00  0.00     0.049 A 
ATOM     37  N   UNL A   1      39.419  30.207  31.693  1.00  0.00    -0.248 NA
ATOM     38  C   UNL A   1      37.356  31.248  31.396  1.00  0.00     0.031 C 
ATOM     39  C   UNL A   1      39.164  28.602  27.514  1.00  0.00     0.029 A 
ATOM     40  N   UNL A   1      40.399  28.654  29.375  1.00  0.00    -0.354 N 
ATOM     41  C   UNL A   1      39.114  30.963  32.821  1.00  0.00     0.074 A 
ATOM     42  C   UNL A   1      37.877  31.655  32.542  1.00  0.00     0.031 C 
ATOM     43  C   UNL A   1      40.259  27.860  27.288  1.00  0.00     0.029 A 
ATOM     44  C   UNL A   1      41.091  27.864  28.485  1.00  0.00     0.049 A 
ATOM     45  H   UNL A   1      40.733  28.873  30.274  1.00  0.00     0.167 HD
ATOM     46  C   UNL A   1      39.783  31.045  33.996  1.00  0.00     0.037 A 
ATOM     47  C   UNL A   1      42.257  27.207  28.631  1.00  0.00     0.037 A 
ATOM     48  C   UNL A   1      40.999  30.326  34.273  1.00  0.00     0.049 A 
ATOM     49  C   UNL A   1      42.963  27.282  29.958  1.00  0.00     0.074 A 
ATOM     50  C   UNL A   1      41.737  30.284  35.442  1.00  0.00     0.029 A 
ATOM     51  N   UNL A   1      41.657  29.518  33.354  1.00  0.00    -0.354 N 
ATOM     52  N   UNL A   1      42.620  27.934  31.045  1.00  0.00    -0.248 NA
ATOM     53  C   UNL A   1      44.207  26.515  30.086  1.00  0.00     0.031 C 
ATOM     54  C   UNL A   1      42.869  29.493  35.214  1.00  0.00     0.029 A 
ATOM     55  C   UNL A   1      42.802  28.987  33.925  1.00  0.00     0.049 A 
ATOM     56  H   UNL A   1      41.353  29.347  32.434  1.00  0.00     0.167 HD
ATOM     57  C   UNL A   1      43.589  27.636  31.991  1.00  0.00     0.074 A 
ATOM     58  C   UNL A   1      44.517  26.720  31.358  1.00  0.00     0.031 C 
ATOM     59  C   UNL A   1      43.708  28.079  33.269  1.00  0.00     0.037 A 
BRANCH  46  60
ATOM     60  C   UNL A   1      39.207  31.931  35.069  1.00  0.00     0.064 A 
ATOM     61  C   UNL A   1      39.398  33.323  35.062  1.00  0.00     0.173 A 
ATOM     62  C   UNL A   1      38.440  31.386  36.113  1.00  0.00     0.173 A 
ATOM     63  F   UNL A   1      40.131  33.899  34.098  1.00  0.00    -0.203 F 
ATOM     64  C   UNL A   1      38.882  34.127  36.077  1.00  0.00     0.198 A 
ATOM     65  C   UNL A   1      37.896  32.199  37.106  1.00  0.00     0.198 A 
ATOM     66  F   UNL A   1      38.219  30.065  36.171  1.00  0.00    -0.203 F 
ATOM     67  F   UNL A   1      39.138  35.442  36.082  1.00  0.00    -0.200 F 
ATOM     68  C   UNL A   1      38.127  33.565  37.094  1.00  0.00     0.200 A 
ATOM     69  F   UNL A   1      37.153  31.656  38.081  1.00  0.00    -0.200 F 
ATOM     70  F   UNL A   1      37.628  34.340  38.068  1.00  0.00    -0.200 F 
ENDBRANCH  46  60
BRANCH  47  71
ATOM     71  C   UNL A   1      42.794  26.381  27.516  1.00  0.00     0.064 A 
ATOM     72  C   UNL A   1      43.749  26.897  26.626  1.00  0.00     0.173 A 
ATOM     73  C   UNL A   1      42.369  25.059  27.312  1.00  0.00     0.173 A 
ATOM     74  F   UNL A   1      44.179  28.160  26.765  1.00  0.00    -0.203 F 
ATOM     75  C   UNL A   1      44.236  26.135  25.565  1.00  0.00     0.198 A 
ATOM     76  C   UNL A   1      42.882  24.287  26.272  1.00  0.00     0.198 A 
ATOM     77  F   UNL A   1      41.465  24.511  28.137  1.00  0.00    -0.203 F 
ATOM     78  F   UNL A   1      45.108  26.674  24.701  1.00  0.00    -0.200 F 
ATOM     79  C   UNL A   1      43.807  24.829  25.392  1.00  0.00     0.200 A 
ATOM     80  F   UNL A   1      42.480  23.018  26.120  1.00  0.00    -0.200 F 
ATOM     81  F   UNL A   1      44.280  24.095  24.376  1.00  0.00    -0.200 F 
ENDBRANCH  47  71
BRANCH  59  82
ATOM     82  C   UNL A   1      44.864  27.547  34.066  1.00  0.00     0.064 A 
ATOM     83  C   UNL A   1      44.766  26.365  34.815  1.00  0.00     0.173 A 
ATOM     84  C   UNL A   1      46.090  28.230  34.075  1.00  0.00     0.173 A 
ATOM     85  F   UNL A   1      43.612  25.681  34.848  1.00  0.00    -0.203 F 
ATOM     86  C   UNL A   1      45.834  25.915  35.585  1.00  0.00     0.198 A 
ATOM     87  C   UNL A   1      47.170  27.755  34.813  1.00  0.00     0.198 A 
ATOM     88  F   UNL A   1      46.243  29.359  33.365  1.00  0.00    -0.203 F 
ATOM     89  F   UNL A   1      45.692  24.827  36.352  1.00  0.00    -0.200 F 
ATOM     90  C   UNL A   1      47.036  26.607  35.579  1.00  0.00     0.200 A 
ATOM     91  F   UNL A   1      48.337  28.413  34.789  1.00  0.00    -0.200 F 
ATOM     92  F   UNL A   1      48.063  26.173  36.322  1.00  0.00    -0.200 F 
ENDBRANCH  59  82
ENDBRANCH  33  34
ENDBRANCH  25  28
ENDBRANCH  23  24
ENDBRANCH  22  23
ENDBRANCH   1  22
TORSDOF 13
ENDMDL
