MODEL 1
REMARK VINA RESULT:     -11.8      0.000      0.000
REMARK SMILES NC(=O)CC[C@H](NC(=O)N[C@H]1CCOC1)C(=O)NCCCNC(=O)c1ccc(-c2c3nc(c(-c4c(F)c(F)c(F)c(F)c4F)c4ccc([nH]4)c(-c4c(F)c(F)c(F)c(F)c4F)c4nc(c(-c5c(F)c(F)c(F)c(F)c5F)c5ccc2[nH]5)C=C4)C=C3)cc1
REMARK SMILES IDX 19 1 18 2 16 3 17 4 6 6 5 7 4 8 2 9 1 10 3 13 7 14 8 15 9 17
REMARK SMILES IDX 10 18 11 20 12 21 15 22 13 23 14 24 20 25 21 26 22 27 23 28
REMARK SMILES IDX 24 30 25 31 26 32 87 33 27 34 86 35 28 36 29 37 30 38 80 39
REMARK SMILES IDX 31 40 85 41 79 42 81 43 32 44 84 45 78 46 77 47 33 49 65 50
REMARK SMILES IDX 45 51 64 52 46 53 49 54 63 55 82 56 47 57 48 58 62 60 83 61
REMARK SMILES IDX 50 62 34 63 35 64 43 65 36 66 37 67 41 68 44 69 38 70 39 71
REMARK SMILES IDX 42 72 40 73 66 74 67 75 75 76 68 77 69 78 73 79 76 80 70 81
REMARK SMILES IDX 71 82 74 83 72 84 51 85 52 86 60 87 53 88 54 89 58 90 61 91
REMARK SMILES IDX 55 92 56 93 59 94 57 95
REMARK H PARENT 18 5 1 11 1 12 7 16 10 19 22 29 81 48 49 59
REMARK Flexibility Score: inf
ROOT
ATOM      1  C   UNL A   1      31.440  30.853  26.181  1.00  0.00     0.117 C 
ENDROOT
BRANCH   1   2
ATOM      2  N   UNL A   1      32.651  30.267  26.701  1.00  0.00    -0.354 N 
ATOM      3  C   UNL A   1      33.226  29.067  26.446  1.00  0.00     0.242 C 
ATOM      4  O   UNL A   1      34.277  28.830  27.056  1.00  0.00    -0.273 OA
ATOM      5  H   UNL A   1      33.136  30.829  27.348  1.00  0.00     0.163 HD
BRANCH   3   6
ATOM      6  C   UNL A   1      32.731  28.074  25.354  1.00  0.00     0.173 C 
BRANCH   6   7
ATOM      7  C   UNL A   1      32.468  26.711  26.012  1.00  0.00     0.045 C 
BRANCH   7   8
ATOM      8  C   UNL A   1      31.043  26.180  26.163  1.00  0.00     0.102 C 
BRANCH   8   9
ATOM      9  C   UNL A   1      30.823  24.686  26.170  1.00  0.00     0.217 C 
ATOM     10  N   UNL A   1      30.618  24.114  24.954  1.00  0.00    -0.370 N 
ATOM     11  H   UNL A   1      30.468  23.144  24.885  1.00  0.00     0.159 HD
ATOM     12  H   UNL A   1      30.620  24.671  24.142  1.00  0.00     0.159 HD
ATOM     13  O   UNL A   1      30.780  24.017  27.196  1.00  0.00    -0.275 OA
ENDBRANCH   8   9
ENDBRANCH   7   8
ENDBRANCH   6   7
BRANCH   6  14
ATOM     14  N   UNL A   1      33.300  28.175  24.002  1.00  0.00    -0.326 N 
ATOM     15  C   UNL A   1      33.083  28.542  22.744  1.00  0.00     0.315 C 
ATOM     16  H   UNL A   1      34.220  27.826  24.047  1.00  0.00     0.166 HD
ATOM     17  O   UNL A   1      34.026  28.357  21.966  1.00  0.00    -0.249 OA
ATOM     18  N   UNL A   1      31.970  29.053  22.230  1.00  0.00    -0.333 N 
ATOM     19  H   UNL A   1      32.073  29.304  21.283  1.00  0.00     0.165 HD
BRANCH  18  20
ATOM     20  C   UNL A   1      30.650  29.327  22.734  1.00  0.00     0.112 C 
ATOM     21  C   UNL A   1      29.759  30.073  21.766  1.00  0.00     0.056 C 
ATOM     22  C   UNL A   1      29.785  28.095  22.985  1.00  0.00     0.185 C 
ATOM     23  C   UNL A   1      28.411  29.884  22.423  1.00  0.00     0.162 C 
ATOM     24  O   UNL A   1      28.424  28.564  22.993  1.00  0.00    -0.379 OA
ENDBRANCH  18  20
ENDBRANCH   6  14
ENDBRANCH   3   6
ENDBRANCH   1   2
BRANCH   1  25
ATOM     25  C   UNL A   1      31.345  32.339  26.499  1.00  0.00     0.042 C 
BRANCH  25  26
ATOM     26  C   UNL A   1      32.563  32.857  27.250  1.00  0.00     0.118 C 
BRANCH  26  27
ATOM     27  N   UNL A   1      32.415  34.256  27.631  1.00  0.00    -0.352 N 
ATOM     28  C   UNL A   1      33.015  34.954  28.644  1.00  0.00     0.251 C 
ATOM     29  H   UNL A   1      31.790  34.777  27.077  1.00  0.00     0.163 HD
ATOM     30  O   UNL A   1      32.587  36.064  28.962  1.00  0.00    -0.269 OA
BRANCH  28  31
ATOM     31  C   UNL A   1      34.171  34.380  29.357  1.00  0.00     0.039 A 
ATOM     32  C   UNL A   1      33.957  33.697  30.557  1.00  0.00     0.014 A 
ATOM     33  C   UNL A   1      35.467  34.537  28.857  1.00  0.00     0.014 A 
ATOM     34  C   UNL A   1      35.039  33.130  31.230  1.00  0.00     0.010 A 
ATOM     35  C   UNL A   1      36.531  33.900  29.482  1.00  0.00     0.010 A 
ATOM     36  C   UNL A   1      36.330  33.201  30.681  1.00  0.00    -0.014 A 
BRANCH  36  37
ATOM     37  C   UNL A   1      37.487  32.564  31.356  1.00  0.00     0.031 A 
ATOM     38  C   UNL A   1      38.200  31.415  30.698  1.00  0.00     0.074 A 
ATOM     39  C   UNL A   1      37.844  32.975  32.587  1.00  0.00     0.049 A 
ATOM     40  N   UNL A   1      39.178  30.677  31.156  1.00  0.00    -0.248 NA
ATOM     41  C   UNL A   1      37.728  31.020  29.361  1.00  0.00     0.031 C 
ATOM     42  C   UNL A   1      37.187  34.041  33.346  1.00  0.00     0.029 A 
ATOM     43  N   UNL A   1      38.838  32.537  33.423  1.00  0.00    -0.354 N 
ATOM     44  C   UNL A   1      39.423  29.723  30.177  1.00  0.00     0.074 A 
ATOM     45  C   UNL A   1      38.457  29.940  29.123  1.00  0.00     0.031 C 
ATOM     46  C   UNL A   1      37.807  34.187  34.526  1.00  0.00     0.029 A 
ATOM     47  C   UNL A   1      38.878  33.200  34.626  1.00  0.00     0.049 A 
ATOM     48  H   UNL A   1      39.464  31.815  33.185  1.00  0.00     0.167 HD
ATOM     49  C   UNL A   1      40.382  28.769  30.151  1.00  0.00     0.037 A 
ATOM     50  C   UNL A   1      39.680  33.021  35.692  1.00  0.00     0.037 A 
ATOM     51  C   UNL A   1      41.361  28.586  31.191  1.00  0.00     0.049 A 
ATOM     52  C   UNL A   1      40.748  31.961  35.630  1.00  0.00     0.074 A 
ATOM     53  C   UNL A   1      42.425  27.702  31.226  1.00  0.00     0.029 A 
ATOM     54  N   UNL A   1      41.391  29.298  32.380  1.00  0.00    -0.354 N 
ATOM     55  N   UNL A   1      41.024  31.120  34.663  1.00  0.00    -0.248 NA
ATOM     56  C   UNL A   1      41.620  31.832  36.805  1.00  0.00     0.031 C 
ATOM     57  C   UNL A   1      43.066  27.841  32.462  1.00  0.00     0.029 A 
ATOM     58  C   UNL A   1      42.439  28.854  33.170  1.00  0.00     0.049 A 
ATOM     59  H   UNL A   1      40.761  30.014  32.627  1.00  0.00     0.167 HD
ATOM     60  C   UNL A   1      42.116  30.383  35.099  1.00  0.00     0.074 A 
ATOM     61  C   UNL A   1      42.464  30.889  36.411  1.00  0.00     0.031 C 
ATOM     62  C   UNL A   1      42.773  29.377  34.471  1.00  0.00     0.037 A 
BRANCH  49  63
ATOM     63  C   UNL A   1      40.424  27.849  28.965  1.00  0.00     0.064 A 
ATOM     64  C   UNL A   1      41.229  28.119  27.848  1.00  0.00     0.173 A 
ATOM     65  C   UNL A   1      39.685  26.656  28.967  1.00  0.00     0.173 A 
ATOM     66  F   UNL A   1      41.947  29.251  27.790  1.00  0.00    -0.203 F 
ATOM     67  C   UNL A   1      41.270  27.244  26.765  1.00  0.00     0.198 A 
ATOM     68  C   UNL A   1      39.754  25.767  27.897  1.00  0.00     0.198 A 
ATOM     69  F   UNL A   1      38.904  26.345  30.012  1.00  0.00    -0.203 F 
ATOM     70  F   UNL A   1      42.008  27.547  25.688  1.00  0.00    -0.200 F 
ATOM     71  C   UNL A   1      40.540  26.065  26.794  1.00  0.00     0.200 A 
ATOM     72  F   UNL A   1      39.060  24.622  27.934  1.00  0.00    -0.200 F 
ATOM     73  F   UNL A   1      40.590  25.217  25.757  1.00  0.00    -0.200 F 
ENDBRANCH  49  63
BRANCH  50  74
ATOM     74  C   UNL A   1      39.516  33.874  36.899  1.00  0.00     0.064 A 
ATOM     75  C   UNL A   1      38.748  33.442  37.989  1.00  0.00     0.173 A 
ATOM     76  C   UNL A   1      40.113  35.140  36.983  1.00  0.00     0.173 A 
ATOM     77  F   UNL A   1      38.141  32.246  37.949  1.00  0.00    -0.203 F 
ATOM     78  C   UNL A   1      38.562  34.255  39.106  1.00  0.00     0.198 A 
ATOM     79  C   UNL A   1      39.952  35.939  38.113  1.00  0.00     0.198 A 
ATOM     80  F   UNL A   1      40.864  35.598  35.970  1.00  0.00    -0.203 F 
ATOM     81  F   UNL A   1      37.778  33.840  40.110  1.00  0.00    -0.200 F 
ATOM     82  C   UNL A   1      39.168  35.501  39.169  1.00  0.00     0.200 A 
ATOM     83  F   UNL A   1      40.553  37.135  38.176  1.00  0.00    -0.200 F 
ATOM     84  F   UNL A   1      38.989  36.282  40.242  1.00  0.00    -0.200 F 
ENDBRANCH  50  74
BRANCH  62  85
ATOM     85  C   UNL A   1      43.956  28.782  35.178  1.00  0.00     0.064 A 
ATOM     86  C   UNL A   1      45.253  29.284  34.997  1.00  0.00     0.173 A 
ATOM     87  C   UNL A   1      43.782  27.724  36.083  1.00  0.00     0.173 A 
ATOM     88  F   UNL A   1      45.475  30.286  34.134  1.00  0.00    -0.203 F 
ATOM     89  C   UNL A   1      46.335  28.730  35.675  1.00  0.00     0.198 A 
ATOM     90  C   UNL A   1      44.861  27.195  36.785  1.00  0.00     0.198 A 
ATOM     91  F   UNL A   1      42.559  27.213  36.299  1.00  0.00    -0.203 F 
ATOM     92  F   UNL A   1      47.573  29.191  35.448  1.00  0.00    -0.200 F 
ATOM     93  C   UNL A   1      46.137  27.692  36.574  1.00  0.00     0.200 A 
ATOM     94  F   UNL A   1      44.664  26.203  37.665  1.00  0.00    -0.200 F 
ATOM     95  F   UNL A   1      47.179  27.167  37.233  1.00  0.00    -0.200 F 
ENDBRANCH  62  85
ENDBRANCH  36  37
ENDBRANCH  28  31
ENDBRANCH  26  27
ENDBRANCH  25  26
ENDBRANCH   1  25
TORSDOF 15
ENDMDL
MODEL 2
REMARK VINA RESULT:     -11.7      5.814     11.156
REMARK SMILES NC(=O)CC[C@H](NC(=O)N[C@H]1CCOC1)C(=O)NCCCNC(=O)c1ccc(-c2c3nc(c(-c4c(F)c(F)c(F)c(F)c4F)c4ccc([nH]4)c(-c4c(F)c(F)c(F)c(F)c4F)c4nc(c(-c5c(F)c(F)c(F)c(F)c5F)c5ccc2[nH]5)C=C4)C=C3)cc1
REMARK SMILES IDX 19 1 18 2 16 3 17 4 6 6 5 7 4 8 2 9 1 10 3 13 7 14 8 15 9 17
REMARK SMILES IDX 10 18 11 20 12 21 15 22 13 23 14 24 20 25 21 26 22 27 23 28
REMARK SMILES IDX 24 30 25 31 26 32 87 33 27 34 86 35 28 36 29 37 30 38 80 39
REMARK SMILES IDX 31 40 85 41 79 42 81 43 32 44 84 45 78 46 77 47 33 49 65 50
REMARK SMILES IDX 45 51 64 52 46 53 49 54 63 55 82 56 47 57 48 58 62 60 83 61
REMARK SMILES IDX 50 62 34 63 35 64 43 65 36 66 37 67 41 68 44 69 38 70 39 71
REMARK SMILES IDX 42 72 40 73 66 74 67 75 75 76 68 77 69 78 73 79 76 80 70 81
REMARK SMILES IDX 71 82 74 83 72 84 51 85 52 86 60 87 53 88 54 89 58 90 61 91
REMARK SMILES IDX 55 92 56 93 59 94 57 95
REMARK H PARENT 18 5 1 11 1 12 7 16 10 19 22 29 81 48 49 59
REMARK Flexibility Score: inf
ROOT
ATOM      1  C   UNL A   1      36.682  20.612  25.039  1.00  0.00     0.117 C 
ENDROOT
BRANCH   1   2
ATOM      2  N   UNL A   1      35.432  19.895  24.983  1.00  0.00    -0.354 N 
ATOM      3  C   UNL A   1      34.157  20.354  24.948  1.00  0.00     0.242 C 
ATOM      4  O   UNL A   1      33.272  19.489  24.909  1.00  0.00    -0.273 OA
ATOM      5  H   UNL A   1      35.519  18.914  24.970  1.00  0.00     0.163 HD
BRANCH   3   6
ATOM      6  C   UNL A   1      33.770  21.855  24.809  1.00  0.00     0.173 C 
BRANCH   6   7
ATOM      7  C   UNL A   1      32.783  22.215  25.928  1.00  0.00     0.045 C 
BRANCH   7   8
ATOM      8  C   UNL A   1      31.276  22.187  25.678  1.00  0.00     0.102 C 
BRANCH   8   9
ATOM      9  C   UNL A   1      30.363  22.858  26.676  1.00  0.00     0.217 C 
ATOM     10  N   UNL A   1      29.162  22.252  26.879  1.00  0.00    -0.370 N 
ATOM     11  H   UNL A   1      28.519  22.636  27.517  1.00  0.00     0.159 HD
ATOM     12  H   UNL A   1      28.938  21.429  26.388  1.00  0.00     0.159 HD
ATOM     13  O   UNL A   1      30.642  23.907  27.245  1.00  0.00    -0.275 OA
ENDBRANCH   8   9
ENDBRANCH   7   8
ENDBRANCH   6   7
BRANCH   6  14
ATOM     14  N   UNL A   1      33.639  22.425  23.459  1.00  0.00    -0.326 N 
ATOM     15  C   UNL A   1      33.411  23.522  22.748  1.00  0.00     0.315 C 
ATOM     16  H   UNL A   1      33.778  21.689  22.819  1.00  0.00     0.166 HD
ATOM     17  O   UNL A   1      33.409  23.371  21.521  1.00  0.00    -0.249 OA
ATOM     18  N   UNL A   1      33.160  24.745  23.204  1.00  0.00    -0.333 N 
ATOM     19  H   UNL A   1      33.084  25.409  22.481  1.00  0.00     0.165 HD
BRANCH  18  20
ATOM     20  C   UNL A   1      32.971  25.325  24.507  1.00  0.00     0.112 C 
ATOM     21  C   UNL A   1      33.921  26.457  24.825  1.00  0.00     0.056 C 
ATOM     22  C   UNL A   1      31.638  26.039  24.711  1.00  0.00     0.185 C 
ATOM     23  C   UNL A   1      33.252  27.051  26.044  1.00  0.00     0.162 C 
ATOM     24  O   UNL A   1      31.836  26.934  25.822  1.00  0.00    -0.379 OA
ENDBRANCH  18  20
ENDBRANCH   6  14
ENDBRANCH   3   6
ENDBRANCH   1   2
BRANCH   1  25
ATOM     25  C   UNL A   1      37.879  19.673  25.007  1.00  0.00     0.042 C 
BRANCH  25  26
ATOM     26  C   UNL A   1      39.066  20.209  25.795  1.00  0.00     0.118 C 
BRANCH  26  27
ATOM     27  N   UNL A   1      40.120  19.211  25.939  1.00  0.00    -0.352 N 
ATOM     28  C   UNL A   1      41.472  19.382  26.072  1.00  0.00     0.251 C 
ATOM     29  H   UNL A   1      39.814  18.276  25.942  1.00  0.00     0.163 HD
ATOM     30  O   UNL A   1      42.227  18.418  25.940  1.00  0.00    -0.269 OA
BRANCH  28  31
ATOM     31  C   UNL A   1      42.025  20.715  26.369  1.00  0.00     0.039 A 
ATOM     32  C   UNL A   1      42.280  21.594  25.313  1.00  0.00     0.014 A 
ATOM     33  C   UNL A   1      42.318  21.090  27.684  1.00  0.00     0.014 A 
ATOM     34  C   UNL A   1      42.784  22.867  25.582  1.00  0.00     0.010 A 
ATOM     35  C   UNL A   1      42.737  22.385  27.957  1.00  0.00     0.010 A 
ATOM     36  C   UNL A   1      42.986  23.282  26.908  1.00  0.00    -0.014 A 
BRANCH  36  37
ATOM     37  C   UNL A   1      43.475  24.648  27.219  1.00  0.00     0.031 A 
ATOM     38  C   UNL A   1      42.528  25.676  27.772  1.00  0.00     0.074 A 
ATOM     39  C   UNL A   1      44.750  24.975  26.935  1.00  0.00     0.049 A 
ATOM     40  N   UNL A   1      42.740  26.940  28.035  1.00  0.00    -0.248 NA
ATOM     41  C   UNL A   1      41.148  25.235  28.033  1.00  0.00     0.031 C 
ATOM     42  C   UNL A   1      45.742  24.076  26.343  1.00  0.00     0.029 A 
ATOM     43  N   UNL A   1      45.426  26.157  27.093  1.00  0.00    -0.354 N 
ATOM     44  C   UNL A   1      41.522  27.446  28.469  1.00  0.00     0.074 A 
ATOM     45  C   UNL A   1      40.561  26.369  28.385  1.00  0.00     0.031 C 
ATOM     46  C   UNL A   1      46.904  24.732  26.206  1.00  0.00     0.029 A 
ATOM     47  C   UNL A   1      46.730  26.107  26.662  1.00  0.00     0.049 A 
ATOM     48  H   UNL A   1      45.017  26.965  27.479  1.00  0.00     0.167 HD
ATOM     49  C   UNL A   1      41.239  28.690  28.919  1.00  0.00     0.037 A 
ATOM     50  C   UNL A   1      47.672  27.069  26.626  1.00  0.00     0.037 A 
ATOM     51  C   UNL A   1      42.212  29.745  29.032  1.00  0.00     0.049 A 
ATOM     52  C   UNL A   1      47.332  28.440  27.146  1.00  0.00     0.074 A 
ATOM     53  C   UNL A   1      42.048  31.017  29.551  1.00  0.00     0.029 A 
ATOM     54  N   UNL A   1      43.532  29.648  28.616  1.00  0.00    -0.354 N 
ATOM     55  N   UNL A   1      46.199  28.883  27.633  1.00  0.00    -0.248 NA
ATOM     56  C   UNL A   1      48.407  29.441  27.119  1.00  0.00     0.031 C 
ATOM     57  C   UNL A   1      43.254  31.709  29.396  1.00  0.00     0.029 A 
ATOM     58  C   UNL A   1      44.186  30.849  28.839  1.00  0.00     0.049 A 
ATOM     59  H   UNL A   1      43.942  28.845  28.220  1.00  0.00     0.167 HD
ATOM     60  C   UNL A   1      46.431  30.203  27.996  1.00  0.00     0.074 A 
ATOM     61  C   UNL A   1      47.818  30.482  27.690  1.00  0.00     0.031 C 
ATOM     62  C   UNL A   1      45.571  31.104  28.534  1.00  0.00     0.037 A 
BRANCH  49  63
ATOM     63  C   UNL A   1      39.823  28.984  29.324  1.00  0.00     0.064 A 
ATOM     64  C   UNL A   1      38.870  29.444  28.401  1.00  0.00     0.173 A 
ATOM     65  C   UNL A   1      39.400  28.757  30.642  1.00  0.00     0.173 A 
ATOM     66  F   UNL A   1      39.224  29.689  27.130  1.00  0.00    -0.203 F 
ATOM     67  C   UNL A   1      37.556  29.693  28.791  1.00  0.00     0.198 A 
ATOM     68  C   UNL A   1      38.078  28.974  31.020  1.00  0.00     0.198 A 
ATOM     69  F   UNL A   1      40.267  28.312  31.563  1.00  0.00    -0.203 F 
ATOM     70  F   UNL A   1      36.677  30.178  27.904  1.00  0.00    -0.200 F 
ATOM     71  C   UNL A   1      37.159  29.449  30.097  1.00  0.00     0.200 A 
ATOM     72  F   UNL A   1      37.693  28.724  32.279  1.00  0.00    -0.200 F 
ATOM     73  F   UNL A   1      35.891  29.677  30.467  1.00  0.00    -0.200 F 
ENDBRANCH  49  63
BRANCH  50  74
ATOM     74  C   UNL A   1      49.026  26.763  26.094  1.00  0.00     0.064 A 
ATOM     75  C   UNL A   1      50.023  26.228  26.921  1.00  0.00     0.173 A 
ATOM     76  C   UNL A   1      49.355  27.010  24.753  1.00  0.00     0.173 A 
ATOM     77  F   UNL A   1      49.764  25.992  28.216  1.00  0.00    -0.203 F 
ATOM     78  C   UNL A   1      51.304  25.976  26.434  1.00  0.00     0.198 A 
ATOM     79  C   UNL A   1      50.627  26.728  24.259  1.00  0.00     0.198 A 
ATOM     80  F   UNL A   1      48.435  27.515  23.917  1.00  0.00    -0.203 F 
ATOM     81  F   UNL A   1      52.254  25.516  27.260  1.00  0.00    -0.200 F 
ATOM     82  C   UNL A   1      51.604  26.222  25.102  1.00  0.00     0.200 A 
ATOM     83  F   UNL A   1      50.906  26.952  22.968  1.00  0.00    -0.200 F 
ATOM     84  F   UNL A   1      52.835  25.979  24.634  1.00  0.00    -0.200 F 
ENDBRANCH  50  74
BRANCH  62  85
ATOM     85  C   UNL A   1      46.117  32.464  28.860  1.00  0.00     0.064 A 
ATOM     86  C   UNL A   1      46.721  32.740  30.095  1.00  0.00     0.173 A 
ATOM     87  C   UNL A   1      46.075  33.491  27.905  1.00  0.00     0.173 A 
ATOM     88  F   UNL A   1      46.774  31.796  31.047  1.00  0.00    -0.203 F 
ATOM     89  C   UNL A   1      47.237  34.003  30.372  1.00  0.00     0.198 A 
ATOM     90  C   UNL A   1      46.622  34.742  28.172  1.00  0.00     0.198 A 
ATOM     91  F   UNL A   1      45.517  33.276  26.703  1.00  0.00    -0.203 F 
ATOM     92  F   UNL A   1      47.762  34.260  31.578  1.00  0.00    -0.200 F 
ATOM     93  C   UNL A   1      47.194  35.000  29.408  1.00  0.00     0.200 A 
ATOM     94  F   UNL A   1      46.596  35.698  27.233  1.00  0.00    -0.200 F 
ATOM     95  F   UNL A   1      47.701  36.212  29.674  1.00  0.00    -0.200 F 
ENDBRANCH  62  85
ENDBRANCH  36  37
ENDBRANCH  28  31
ENDBRANCH  26  27
ENDBRANCH  25  26
ENDBRANCH   1  25
TORSDOF 15
ENDMDL
MODEL 3
REMARK VINA RESULT:     -11.7      5.960     11.354
REMARK SMILES NC(=O)CC[C@H](NC(=O)N[C@H]1CCOC1)C(=O)NCCCNC(=O)c1ccc(-c2c3nc(c(-c4c(F)c(F)c(F)c(F)c4F)c4ccc([nH]4)c(-c4c(F)c(F)c(F)c(F)c4F)c4nc(c(-c5c(F)c(F)c(F)c(F)c5F)c5ccc2[nH]5)C=C4)C=C3)cc1
REMARK SMILES IDX 19 1 18 2 16 3 17 4 6 6 5 7 4 8 2 9 1 10 3 13 7 14 8 15 9 17
REMARK SMILES IDX 10 18 11 20 12 21 15 22 13 23 14 24 20 25 21 26 22 27 23 28
REMARK SMILES IDX 24 30 25 31 26 32 87 33 27 34 86 35 28 36 29 37 30 38 80 39
REMARK SMILES IDX 31 40 85 41 79 42 81 43 32 44 84 45 78 46 77 47 33 49 65 50
REMARK SMILES IDX 45 51 64 52 46 53 49 54 63 55 82 56 47 57 48 58 62 60 83 61
REMARK SMILES IDX 50 62 34 63 35 64 43 65 36 66 37 67 41 68 44 69 38 70 39 71
REMARK SMILES IDX 42 72 40 73 66 74 67 75 75 76 68 77 69 78 73 79 76 80 70 81
REMARK SMILES IDX 71 82 74 83 72 84 51 85 52 86 60 87 53 88 54 89 58 90 61 91
REMARK SMILES IDX 55 92 56 93 59 94 57 95
REMARK H PARENT 18 5 1 11 1 12 7 16 10 19 22 29 81 48 49 59
REMARK Flexibility Score: inf
ROOT
ATOM      1  C   UNL A   1      36.749  20.581  24.928  1.00  0.00     0.117 C 
ENDROOT
BRANCH   1   2
ATOM      2  N   UNL A   1      37.152  21.923  25.271  1.00  0.00    -0.354 N 
ATOM      3  C   UNL A   1      36.417  23.052  25.413  1.00  0.00     0.242 C 
ATOM      4  O   UNL A   1      37.047  24.075  25.712  1.00  0.00    -0.273 OA
ATOM      5  H   UNL A   1      38.118  22.037  25.426  1.00  0.00     0.163 HD
BRANCH   3   6
ATOM      6  C   UNL A   1      34.861  23.095  25.367  1.00  0.00     0.173 C 
BRANCH   6   7
ATOM      7  C   UNL A   1      34.428  24.235  24.434  1.00  0.00     0.045 C 
BRANCH   7   8
ATOM      8  C   UNL A   1      34.103  23.960  22.966  1.00  0.00     0.102 C 
BRANCH   8   9
ATOM      9  C   UNL A   1      33.272  24.967  22.207  1.00  0.00     0.217 C 
ATOM     10  N   UNL A   1      31.953  24.666  22.076  1.00  0.00    -0.370 N 
ATOM     11  H   UNL A   1      31.353  25.279  21.593  1.00  0.00     0.159 HD
ATOM     12  H   UNL A   1      31.597  23.835  22.466  1.00  0.00     0.159 HD
ATOM     13  O   UNL A   1      33.742  25.974  21.691  1.00  0.00    -0.275 OA
ENDBRANCH   8   9
ENDBRANCH   7   8
ENDBRANCH   6   7
BRANCH   6  14
ATOM     14  N   UNL A   1      34.113  22.783  26.594  1.00  0.00    -0.326 N 
ATOM     15  C   UNL A   1      33.398  21.871  27.242  1.00  0.00     0.315 C 
ATOM     16  H   UNL A   1      34.163  23.577  27.174  1.00  0.00     0.166 HD
ATOM     17  O   UNL A   1      32.972  22.216  28.350  1.00  0.00    -0.249 OA
ATOM     18  N   UNL A   1      33.069  20.653  26.824  1.00  0.00    -0.333 N 
ATOM     19  H   UNL A   1      32.584  20.138  27.509  1.00  0.00     0.165 HD
BRANCH  18  20
ATOM     20  C   UNL A   1      33.257  19.911  25.605  1.00  0.00     0.112 C 
ATOM     21  C   UNL A   1      32.771  18.481  25.669  1.00  0.00     0.056 C 
ATOM     22  C   UNL A   1      32.444  20.409  24.414  1.00  0.00     0.185 C 
ATOM     23  C   UNL A   1      32.776  18.117  24.202  1.00  0.00     0.162 C 
ATOM     24  O   UNL A   1      32.377  19.304  23.493  1.00  0.00    -0.379 OA
ENDBRANCH  18  20
ENDBRANCH   6  14
ENDBRANCH   3   6
ENDBRANCH   1   2
BRANCH   1  25
ATOM     25  C   UNL A   1      37.920  19.610  24.959  1.00  0.00     0.042 C 
BRANCH  25  26
ATOM     26  C   UNL A   1      39.100  20.139  25.762  1.00  0.00     0.118 C 
BRANCH  26  27
ATOM     27  N   UNL A   1      40.152  19.140  25.910  1.00  0.00    -0.352 N 
ATOM     28  C   UNL A   1      41.501  19.309  26.067  1.00  0.00     0.251 C 
ATOM     29  H   UNL A   1      39.846  18.204  25.894  1.00  0.00     0.163 HD
ATOM     30  O   UNL A   1      42.258  18.347  25.934  1.00  0.00    -0.269 OA
BRANCH  28  31
ATOM     31  C   UNL A   1      42.049  20.637  26.393  1.00  0.00     0.039 A 
ATOM     32  C   UNL A   1      42.382  21.507  25.352  1.00  0.00     0.014 A 
ATOM     33  C   UNL A   1      42.259  21.016  27.722  1.00  0.00     0.014 A 
ATOM     34  C   UNL A   1      42.881  22.776  25.647  1.00  0.00     0.010 A 
ATOM     35  C   UNL A   1      42.674  22.309  28.016  1.00  0.00     0.010 A 
ATOM     36  C   UNL A   1      43.002  23.197  26.981  1.00  0.00    -0.014 A 
BRANCH  36  37
ATOM     37  C   UNL A   1      43.484  24.558  27.316  1.00  0.00     0.031 A 
ATOM     38  C   UNL A   1      42.530  25.578  27.871  1.00  0.00     0.074 A 
ATOM     39  C   UNL A   1      44.762  24.891  27.052  1.00  0.00     0.049 A 
ATOM     40  N   UNL A   1      42.737  26.839  28.153  1.00  0.00    -0.248 NA
ATOM     41  C   UNL A   1      41.147  25.132  28.108  1.00  0.00     0.031 C 
ATOM     42  C   UNL A   1      45.763  24.002  26.460  1.00  0.00     0.029 A 
ATOM     43  N   UNL A   1      45.435  26.072  27.234  1.00  0.00    -0.354 N 
ATOM     44  C   UNL A   1      41.512  27.337  28.579  1.00  0.00     0.074 A 
ATOM     45  C   UNL A   1      40.554  26.260  28.468  1.00  0.00     0.031 C 
ATOM     46  C   UNL A   1      46.925  24.661  26.346  1.00  0.00     0.029 A 
ATOM     47  C   UNL A   1      46.744  26.030  26.818  1.00  0.00     0.049 A 
ATOM     48  H   UNL A   1      45.020  26.874  27.626  1.00  0.00     0.167 HD
ATOM     49  C   UNL A   1      41.222  28.575  29.042  1.00  0.00     0.037 A 
ATOM     50  C   UNL A   1      47.685  26.993  26.807  1.00  0.00     0.037 A 
ATOM     51  C   UNL A   1      42.192  29.629  29.181  1.00  0.00     0.049 A 
ATOM     52  C   UNL A   1      47.337  28.356  27.340  1.00  0.00     0.074 A 
ATOM     53  C   UNL A   1      42.020  30.895  29.715  1.00  0.00     0.029 A 
ATOM     54  N   UNL A   1      43.517  29.540  28.780  1.00  0.00    -0.354 N 
ATOM     55  N   UNL A   1      46.197  28.792  27.820  1.00  0.00    -0.248 NA
ATOM     56  C   UNL A   1      48.410  29.360  27.341  1.00  0.00     0.031 C 
ATOM     57  C   UNL A   1      43.227  31.590  29.584  1.00  0.00     0.029 A 
ATOM     58  C   UNL A   1      44.167  30.738  29.027  1.00  0.00     0.049 A 
ATOM     59  H   UNL A   1      43.933  28.743  28.378  1.00  0.00     0.167 HD
ATOM     60  C   UNL A   1      46.422  30.107  28.203  1.00  0.00     0.074 A 
ATOM     61  C   UNL A   1      47.813  30.392  27.917  1.00  0.00     0.031 C 
ATOM     62  C   UNL A   1      45.555  30.999  28.742  1.00  0.00     0.037 A 
BRANCH  49  63
ATOM     63  C   UNL A   1      39.800  28.862  29.433  1.00  0.00     0.064 A 
ATOM     64  C   UNL A   1      38.864  29.353  28.510  1.00  0.00     0.173 A 
ATOM     65  C   UNL A   1      39.356  28.596  30.737  1.00  0.00     0.173 A 
ATOM     66  F   UNL A   1      39.238  29.635  27.253  1.00  0.00    -0.203 F 
ATOM     67  C   UNL A   1      37.544  29.595  28.886  1.00  0.00     0.198 A 
ATOM     68  C   UNL A   1      38.029  28.807  31.101  1.00  0.00     0.198 A 
ATOM     69  F   UNL A   1      40.207  28.120  31.658  1.00  0.00    -0.203 F 
ATOM     70  F   UNL A   1      36.681  30.110  28.001  1.00  0.00    -0.200 F 
ATOM     71  C   UNL A   1      37.126  29.313  30.178  1.00  0.00     0.200 A 
ATOM     72  F   UNL A   1      37.623  28.519  32.346  1.00  0.00    -0.200 F 
ATOM     73  F   UNL A   1      35.853  29.534  30.535  1.00  0.00    -0.200 F 
ENDBRANCH  49  63
BRANCH  50  74
ATOM     74  C   UNL A   1      49.046  26.697  26.287  1.00  0.00     0.064 A 
ATOM     75  C   UNL A   1      50.036  26.157  27.121  1.00  0.00     0.173 A 
ATOM     76  C   UNL A   1      49.389  26.956  24.952  1.00  0.00     0.173 A 
ATOM     77  F   UNL A   1      49.762  25.908  28.410  1.00  0.00    -0.203 F 
ATOM     78  C   UNL A   1      51.323  25.913  26.646  1.00  0.00     0.198 A 
ATOM     79  C   UNL A   1      50.667  26.682  24.470  1.00  0.00     0.198 A 
ATOM     80  F   UNL A   1      48.477  27.466  24.111  1.00  0.00    -0.203 F 
ATOM     81  F   UNL A   1      52.264  25.449  27.479  1.00  0.00    -0.200 F 
ATOM     82  C   UNL A   1      51.636  26.172  25.320  1.00  0.00     0.200 A 
ATOM     83  F   UNL A   1      50.961  26.919  23.185  1.00  0.00    -0.200 F 
ATOM     84  F   UNL A   1      52.874  25.937  24.864  1.00  0.00    -0.200 F 
ENDBRANCH  50  74
BRANCH  62  85
ATOM     85  C   UNL A   1      46.095  32.356  29.093  1.00  0.00     0.064 A 
ATOM     86  C   UNL A   1      46.048  33.425  28.187  1.00  0.00     0.173 A 
ATOM     87  C   UNL A   1      46.627  32.598  30.369  1.00  0.00     0.173 A 
ATOM     88  F   UNL A   1      45.561  33.242  26.951  1.00  0.00    -0.203 F 
ATOM     89  C   UNL A   1      46.538  34.680  28.537  1.00  0.00     0.198 A 
ATOM     90  C   UNL A   1      47.085  33.862  30.726  1.00  0.00     0.198 A 
ATOM     91  F   UNL A   1      46.686  31.610  31.275  1.00  0.00    -0.203 F 
ATOM     92  F   UNL A   1      46.531  35.675  27.638  1.00  0.00    -0.200 F 
ATOM     93  C   UNL A   1      47.049  34.899  29.808  1.00  0.00     0.200 A 
ATOM     94  F   UNL A   1      47.562  34.076  31.961  1.00  0.00    -0.200 F 
ATOM     95  F   UNL A   1      47.511  36.111  30.145  1.00  0.00    -0.200 F 
ENDBRANCH  62  85
ENDBRANCH  36  37
ENDBRANCH  28  31
ENDBRANCH  26  27
ENDBRANCH  25  26
ENDBRANCH   1  25
TORSDOF 15
ENDMDL
