MODEL 1
REMARK VINA RESULT:     -11.9      0.000      0.000
REMARK SMILES Cc1nc(C(C)C)[nH]c(=O)c1C(=O)N(C)CC(=O)NCCCNC(=O)c1ccc(-c2c3nc(c(-c4c(F)c(F)c(F)c(F)c4F)c4ccc([nH]4)c(-c4c(F)c(F)c(F)c(F)c4F)c4nc(c(-c5c(F)c(F)c(F)c(F)c5F)c5ccc2[nH]5)C=C4)C=C3)cc1
REMARK SMILES IDX 20 1 19 2 17 3 18 4 16 6 14 7 15 8 12 9 13 10 11 11 1 12
REMARK SMILES IDX 2 13 3 14 4 15 9 16 8 17 10 18 5 20 6 21 7 22 21 23 22 24
REMARK SMILES IDX 23 25 24 26 25 28 26 29 27 30 88 31 28 32 87 33 29 34 30 35
REMARK SMILES IDX 31 36 81 37 32 38 86 39 80 40 82 41 33 42 85 43 79 44 78 45
REMARK SMILES IDX 34 47 66 48 46 49 65 50 47 51 50 52 64 53 83 54 48 55 49 56
REMARK SMILES IDX 63 58 84 59 51 60 35 61 36 62 44 63 37 64 38 65 42 66 45 67
REMARK SMILES IDX 39 68 40 69 43 70 41 71 67 72 68 73 76 74 69 75 70 76 74 77
REMARK SMILES IDX 77 78 71 79 72 80 75 81 73 82 52 83 53 84 61 85 54 86 55 87
REMARK SMILES IDX 59 88 62 89 56 90 57 91 60 92 58 93
REMARK H PARENT 19 5 8 19 23 27 82 46 50 57
REMARK Flexibility Score: inf
ROOT
ATOM      1  C   UNL A   1      36.881  20.891  24.966  1.00  0.00     0.117 C 
ENDROOT
BRANCH   1   2
ATOM      2  N   UNL A   1      37.263  22.108  25.642  1.00  0.00    -0.354 N 
ATOM      3  C   UNL A   1      36.666  23.332  25.619  1.00  0.00     0.239 C 
ATOM      4  O   UNL A   1      37.034  24.149  26.471  1.00  0.00    -0.273 OA
ATOM      5  H   UNL A   1      38.072  22.045  26.200  1.00  0.00     0.163 HD
BRANCH   3   6
ATOM      6  C   UNL A   1      35.423  23.605  24.753  1.00  0.00     0.219 C 
BRANCH   6   7
ATOM      7  N   UNL A   1      34.185  24.169  25.330  1.00  0.00    -0.332 N 
ATOM      8  C   UNL A   1      34.090  25.619  25.286  1.00  0.00     0.147 C 
BRANCH   7   9
ATOM      9  C   UNL A   1      33.139  23.273  25.521  1.00  0.00     0.261 C 
ATOM     10  O   UNL A   1      32.091  23.679  26.037  1.00  0.00    -0.269 OA
BRANCH   9  11
ATOM     11  C   UNL A   1      33.165  21.824  25.108  1.00  0.00     0.126 A 
ATOM     12  C   UNL A   1      32.299  21.983  22.717  1.00  0.00     0.068 C 
ATOM     13  C   UNL A   1      32.783  21.251  23.940  1.00  0.00     0.058 A 
ATOM     14  N   UNL A   1      32.690  19.886  23.732  1.00  0.00    -0.239 NA
ATOM     15  C   UNL A   1      32.796  19.090  24.742  1.00  0.00     0.111 A 
ATOM     16  C   UNL A   1      33.454  20.841  26.206  1.00  0.00     0.264 A 
ATOM     17  N   UNL A   1      33.108  19.541  25.981  1.00  0.00    -0.310 N 
ATOM     18  O   UNL A   1      34.013  21.139  27.258  1.00  0.00    -0.269 OA
ATOM     19  H   UNL A   1      33.085  18.913  26.738  1.00  0.00     0.171 HD
BRANCH  15  20
ATOM     20  C   UNL A   1      32.560  17.598  24.559  1.00  0.00     0.049 C 
ATOM     21  C   UNL A   1      33.417  17.026  23.435  1.00  0.00     0.016 C 
ATOM     22  C   UNL A   1      32.794  16.846  25.868  1.00  0.00     0.016 C 
ENDBRANCH  15  20
ENDBRANCH   9  11
ENDBRANCH   7   9
ENDBRANCH   6   7
ENDBRANCH   3   6
ENDBRANCH   1   2
BRANCH   1  23
ATOM     23  C   UNL A   1      37.978  19.836  24.997  1.00  0.00     0.042 C 
BRANCH  23  24
ATOM     24  C   UNL A   1      39.168  20.199  25.876  1.00  0.00     0.118 C 
BRANCH  24  25
ATOM     25  N   UNL A   1      40.209  19.181  25.862  1.00  0.00    -0.352 N 
ATOM     26  C   UNL A   1      41.565  19.310  26.044  1.00  0.00     0.251 C 
ATOM     27  H   UNL A   1      39.895  18.263  25.698  1.00  0.00     0.163 HD
ATOM     28  O   UNL A   1      42.308  18.361  25.826  1.00  0.00    -0.269 OA
BRANCH  26  29
ATOM     29  C   UNL A   1      42.132  20.605  26.480  1.00  0.00     0.039 A 
ATOM     30  C   UNL A   1      42.627  21.488  25.515  1.00  0.00     0.014 A 
ATOM     31  C   UNL A   1      42.183  20.946  27.833  1.00  0.00     0.014 A 
ATOM     32  C   UNL A   1      43.112  22.739  25.903  1.00  0.00     0.010 A 
ATOM     33  C   UNL A   1      42.590  22.221  28.210  1.00  0.00     0.010 A 
ATOM     34  C   UNL A   1      43.063  23.129  27.250  1.00  0.00    -0.014 A 
BRANCH  34  35
ATOM     35  C   UNL A   1      43.522  24.471  27.694  1.00  0.00     0.031 A 
ATOM     36  C   UNL A   1      42.506  25.528  28.033  1.00  0.00     0.074 A 
ATOM     37  C   UNL A   1      44.836  24.762  27.717  1.00  0.00     0.049 A 
ATOM     38  N   UNL A   1      42.685  26.797  28.300  1.00  0.00    -0.248 NA
ATOM     39  C   UNL A   1      41.095  25.106  28.046  1.00  0.00     0.031 C 
ATOM     40  C   UNL A   1      45.917  23.831  27.389  1.00  0.00     0.029 A 
ATOM     41  N   UNL A   1      45.488  25.934  28.013  1.00  0.00    -0.354 N 
ATOM     42  C   UNL A   1      41.415  27.323  28.499  1.00  0.00     0.074 A 
ATOM     43  C   UNL A   1      40.470  26.254  28.264  1.00  0.00     0.031 C 
ATOM     44  C   UNL A   1      47.096  24.463  27.515  1.00  0.00     0.029 A 
ATOM     45  C   UNL A   1      46.854  25.854  27.883  1.00  0.00     0.049 A 
ATOM     46  H   UNL A   1      45.021  26.754  28.291  1.00  0.00     0.167 HD
ATOM     47  C   UNL A   1      41.070  28.579  28.870  1.00  0.00     0.037 A 
ATOM     48  C   UNL A   1      47.800  26.803  28.025  1.00  0.00     0.037 A 
ATOM     49  C   UNL A   1      42.014  29.635  29.120  1.00  0.00     0.049 A 
ATOM     50  C   UNL A   1      47.381  28.203  28.396  1.00  0.00     0.074 A 
ATOM     51  C   UNL A   1      41.766  30.937  29.520  1.00  0.00     0.029 A 
ATOM     52  N   UNL A   1      43.390  29.507  28.998  1.00  0.00    -0.354 N 
ATOM     53  N   UNL A   1      46.181  28.679  28.621  1.00  0.00    -0.248 NA
ATOM     54  C   UNL A   1      48.454  29.200  28.536  1.00  0.00     0.031 C 
ATOM     55  C   UNL A   1      42.989  31.609  29.597  1.00  0.00     0.029 A 
ATOM     56  C   UNL A   1      44.003  30.711  29.305  1.00  0.00     0.049 A 
ATOM     57  H   UNL A   1      43.860  28.685  28.731  1.00  0.00     0.167 HD
ATOM     58  C   UNL A   1      46.358  30.010  28.977  1.00  0.00     0.074 A 
ATOM     59  C   UNL A   1      47.781  30.266  28.943  1.00  0.00     0.031 C 
ATOM     60  C   UNL A   1      45.424  30.937  29.304  1.00  0.00     0.037 A 
BRANCH  47  61
ATOM     61  C   UNL A   1      39.609  28.879  29.043  1.00  0.00     0.064 A 
ATOM     62  C   UNL A   1      38.984  28.776  30.296  1.00  0.00     0.173 A 
ATOM     63  C   UNL A   1      38.838  29.329  27.960  1.00  0.00     0.173 A 
ATOM     64  F   UNL A   1      39.674  28.340  31.360  1.00  0.00    -0.203 F 
ATOM     65  C   UNL A   1      37.637  29.091  30.452  1.00  0.00     0.198 A 
ATOM     66  C   UNL A   1      37.499  29.675  28.129  1.00  0.00     0.198 A 
ATOM     67  F   UNL A   1      39.387  29.452  26.743  1.00  0.00    -0.203 F 
ATOM     68  F   UNL A   1      37.053  28.943  31.650  1.00  0.00    -0.200 F 
ATOM     69  C   UNL A   1      36.898  29.550  29.372  1.00  0.00     0.200 A 
ATOM     70  F   UNL A   1      36.791  30.134  27.088  1.00  0.00    -0.200 F 
ATOM     71  F   UNL A   1      35.607  29.868  29.529  1.00  0.00    -0.200 F 
ENDBRANCH  47  61
BRANCH  48  72
ATOM     72  C   UNL A   1      49.237  26.474  27.828  1.00  0.00     0.064 A 
ATOM     73  C   UNL A   1      50.086  26.278  28.929  1.00  0.00     0.173 A 
ATOM     74  C   UNL A   1      49.806  26.398  26.549  1.00  0.00     0.173 A 
ATOM     75  F   UNL A   1      49.596  26.359  30.175  1.00  0.00    -0.203 F 
ATOM     76  C   UNL A   1      51.452  26.062  28.757  1.00  0.00     0.198 A 
ATOM     77  C   UNL A   1      51.166  26.147  26.377  1.00  0.00     0.198 A 
ATOM     78  F   UNL A   1      49.041  26.572  25.461  1.00  0.00    -0.203 F 
ATOM     79  F   UNL A   1      52.249  25.950  29.829  1.00  0.00    -0.200 F 
ATOM     80  C   UNL A   1      51.991  25.994  27.482  1.00  0.00     0.200 A 
ATOM     81  F   UNL A   1      51.679  26.067  25.143  1.00  0.00    -0.200 F 
ATOM     82  F   UNL A   1      53.305  25.796  27.317  1.00  0.00    -0.200 F 
ENDBRANCH  48  72
BRANCH  60  83
ATOM     83  C   UNL A   1      45.910  32.291  29.733  1.00  0.00     0.064 A 
ATOM     84  C   UNL A   1      46.062  33.349  28.825  1.00  0.00     0.173 A 
ATOM     85  C   UNL A   1      46.169  32.548  31.089  1.00  0.00     0.173 A 
ATOM     86  F   UNL A   1      45.840  33.153  27.516  1.00  0.00    -0.203 F 
ATOM     87  C   UNL A   1      46.479  34.606  29.255  1.00  0.00     0.198 A 
ATOM     88  C   UNL A   1      46.552  33.814  31.520  1.00  0.00     0.198 A 
ATOM     89  F   UNL A   1      46.030  31.573  32.000  1.00  0.00    -0.203 F 
ATOM     90  F   UNL A   1      46.663  35.589  28.364  1.00  0.00    -0.200 F 
ATOM     91  C   UNL A   1      46.713  34.840  30.603  1.00  0.00     0.200 A 
ATOM     92  F   UNL A   1      46.762  34.042  32.824  1.00  0.00    -0.200 F 
ATOM     93  F   UNL A   1      47.100  36.054  31.015  1.00  0.00    -0.200 F 
ENDBRANCH  60  83
ENDBRANCH  34  35
ENDBRANCH  26  29
ENDBRANCH  24  25
ENDBRANCH  23  24
ENDBRANCH   1  23
TORSDOF 14
ENDMDL
MODEL 2
REMARK VINA RESULT:     -11.9      5.607     10.627
REMARK SMILES Cc1nc(C(C)C)[nH]c(=O)c1C(=O)N(C)CC(=O)NCCCNC(=O)c1ccc(-c2c3nc(c(-c4c(F)c(F)c(F)c(F)c4F)c4ccc([nH]4)c(-c4c(F)c(F)c(F)c(F)c4F)c4nc(c(-c5c(F)c(F)c(F)c(F)c5F)c5ccc2[nH]5)C=C4)C=C3)cc1
REMARK SMILES IDX 20 1 19 2 17 3 18 4 16 6 14 7 15 8 12 9 13 10 11 11 1 12
REMARK SMILES IDX 2 13 3 14 4 15 9 16 8 17 10 18 5 20 6 21 7 22 21 23 22 24
REMARK SMILES IDX 23 25 24 26 25 28 26 29 27 30 88 31 28 32 87 33 29 34 30 35
REMARK SMILES IDX 31 36 81 37 32 38 86 39 80 40 82 41 33 42 85 43 79 44 78 45
REMARK SMILES IDX 34 47 66 48 46 49 65 50 47 51 50 52 64 53 83 54 48 55 49 56
REMARK SMILES IDX 63 58 84 59 51 60 35 61 36 62 44 63 37 64 38 65 42 66 45 67
REMARK SMILES IDX 39 68 40 69 43 70 41 71 67 72 68 73 76 74 69 75 70 76 74 77
REMARK SMILES IDX 77 78 71 79 72 80 75 81 73 82 52 83 53 84 61 85 54 86 55 87
REMARK SMILES IDX 59 88 62 89 56 90 57 91 60 92 58 93
REMARK H PARENT 19 5 8 19 23 27 82 46 50 57
REMARK Flexibility Score: inf
ROOT
ATOM      1  C   UNL A   1      31.706  30.662  26.057  1.00  0.00     0.117 C 
ENDROOT
BRANCH   1   2
ATOM      2  N   UNL A   1      30.945  30.536  24.837  1.00  0.00    -0.354 N 
ATOM      3  C   UNL A   1      30.740  29.439  24.056  1.00  0.00     0.239 C 
ATOM      4  O   UNL A   1      29.852  29.521  23.200  1.00  0.00    -0.273 OA
ATOM      5  H   UNL A   1      30.509  31.362  24.525  1.00  0.00     0.163 HD
BRANCH   3   6
ATOM      6  C   UNL A   1      31.396  28.086  24.383  1.00  0.00     0.219 C 
BRANCH   6   7
ATOM      7  N   UNL A   1      30.643  27.000  25.045  1.00  0.00    -0.332 N 
ATOM      8  C   UNL A   1      29.612  26.380  24.229  1.00  0.00     0.147 C 
BRANCH   7   9
ATOM      9  C   UNL A   1      31.216  26.477  26.199  1.00  0.00     0.261 C 
ATOM     10  O   UNL A   1      31.058  27.076  27.269  1.00  0.00    -0.269 OA
BRANCH   9  11
ATOM     11  C   UNL A   1      32.000  25.191  26.260  1.00  0.00     0.126 A 
ATOM     12  C   UNL A   1      34.270  25.964  25.401  1.00  0.00     0.068 C 
ATOM     13  C   UNL A   1      33.282  24.943  25.897  1.00  0.00     0.058 A 
ATOM     14  N   UNL A   1      33.847  23.680  25.835  1.00  0.00    -0.239 NA
ATOM     15  C   UNL A   1      33.085  22.647  25.955  1.00  0.00     0.111 A 
ATOM     16  C   UNL A   1      31.200  23.957  26.567  1.00  0.00     0.264 A 
ATOM     17  N   UNL A   1      31.767  22.757  26.252  1.00  0.00    -0.310 N 
ATOM     18  O   UNL A   1      30.102  23.976  27.115  1.00  0.00    -0.269 OA
ATOM     19  H   UNL A   1      31.205  21.949  26.240  1.00  0.00     0.171 HD
BRANCH  15  20
ATOM     20  C   UNL A   1      33.661  21.252  25.754  1.00  0.00     0.049 C 
ATOM     21  C   UNL A   1      32.590  20.257  25.324  1.00  0.00     0.016 C 
ATOM     22  C   UNL A   1      34.820  21.282  24.759  1.00  0.00     0.016 C 
ENDBRANCH  15  20
ENDBRANCH   9  11
ENDBRANCH   7   9
ENDBRANCH   6   7
ENDBRANCH   3   6
ENDBRANCH   1   2
BRANCH   1  23
ATOM     23  C   UNL A   1      31.439  31.974  26.780  1.00  0.00     0.042 C 
BRANCH  23  24
ATOM     24  C   UNL A   1      32.697  32.730  27.188  1.00  0.00     0.118 C 
BRANCH  24  25
ATOM     25  N   UNL A   1      32.426  34.107  27.577  1.00  0.00    -0.352 N 
ATOM     26  C   UNL A   1      32.999  34.869  28.567  1.00  0.00     0.251 C 
ATOM     27  H   UNL A   1      31.726  34.560  27.053  1.00  0.00     0.163 HD
ATOM     28  O   UNL A   1      32.520  35.956  28.861  1.00  0.00    -0.269 OA
BRANCH  26  29
ATOM     29  C   UNL A   1      34.183  34.362  29.296  1.00  0.00     0.039 A 
ATOM     30  C   UNL A   1      33.996  33.691  30.508  1.00  0.00     0.014 A 
ATOM     31  C   UNL A   1      35.471  34.556  28.793  1.00  0.00     0.014 A 
ATOM     32  C   UNL A   1      35.098  33.155  31.180  1.00  0.00     0.010 A 
ATOM     33  C   UNL A   1      36.556  33.953  29.420  1.00  0.00     0.010 A 
ATOM     34  C   UNL A   1      36.382  33.251  30.622  1.00  0.00    -0.014 A 
BRANCH  34  35
ATOM     35  C   UNL A   1      37.569  32.649  31.283  1.00  0.00     0.031 A 
ATOM     36  C   UNL A   1      38.297  31.516  30.611  1.00  0.00     0.074 A 
ATOM     37  C   UNL A   1      37.942  33.063  32.508  1.00  0.00     0.049 A 
ATOM     38  N   UNL A   1      39.260  30.758  31.072  1.00  0.00    -0.248 NA
ATOM     39  C   UNL A   1      37.865  31.171  29.246  1.00  0.00     0.031 C 
ATOM     40  C   UNL A   1      37.304  34.136  33.272  1.00  0.00     0.029 A 
ATOM     41  N   UNL A   1      38.941  32.616  33.338  1.00  0.00    -0.354 N 
ATOM     42  C   UNL A   1      39.535  29.845  30.063  1.00  0.00     0.074 A 
ATOM     43  C   UNL A   1      38.602  30.102  28.989  1.00  0.00     0.031 C 
ATOM     44  C   UNL A   1      37.935  34.273  34.451  1.00  0.00     0.029 A 
ATOM     45  C   UNL A   1      38.988  33.268  34.547  1.00  0.00     0.049 A 
ATOM     46  H   UNL A   1      39.565  31.896  33.090  1.00  0.00     0.167 HD
ATOM     47  C   UNL A   1      40.500  28.894  30.025  1.00  0.00     0.037 A 
ATOM     48  C   UNL A   1      39.778  33.060  35.618  1.00  0.00     0.037 A 
ATOM     49  C   UNL A   1      41.437  28.653  31.089  1.00  0.00     0.049 A 
ATOM     50  C   UNL A   1      40.813  31.965  35.564  1.00  0.00     0.074 A 
ATOM     51  C   UNL A   1      42.466  27.727  31.140  1.00  0.00     0.029 A 
ATOM     52  N   UNL A   1      41.465  29.349  32.289  1.00  0.00    -0.354 N 
ATOM     53  N   UNL A   1      41.092  31.134  34.589  1.00  0.00    -0.248 NA
ATOM     54  C   UNL A   1      41.647  31.781  36.761  1.00  0.00     0.031 C 
ATOM     55  C   UNL A   1      43.086  27.833  32.387  1.00  0.00     0.029 A 
ATOM     56  C   UNL A   1      42.486  28.864  33.090  1.00  0.00     0.049 A 
ATOM     57  H   UNL A   1      40.850  30.077  32.534  1.00  0.00     0.167 HD
ATOM     58  C   UNL A   1      42.162  30.368  35.034  1.00  0.00     0.074 A 
ATOM     59  C   UNL A   1      42.485  30.834  36.364  1.00  0.00     0.031 C 
ATOM     60  C   UNL A   1      42.818  29.368  34.397  1.00  0.00     0.037 A 
BRANCH  47  61
ATOM     61  C   UNL A   1      40.599  28.050  28.788  1.00  0.00     0.064 A 
ATOM     62  C   UNL A   1      39.882  26.850  28.661  1.00  0.00     0.173 A 
ATOM     63  C   UNL A   1      41.370  28.472  27.693  1.00  0.00     0.173 A 
ATOM     64  F   UNL A   1      39.139  26.396  29.683  1.00  0.00    -0.203 F 
ATOM     65  C   UNL A   1      39.953  26.092  27.496  1.00  0.00     0.198 A 
ATOM     66  C   UNL A   1      41.411  27.727  26.517  1.00  0.00     0.198 A 
ATOM     67  F   UNL A   1      42.068  29.615  27.758  1.00  0.00    -0.203 F 
ATOM     68  F   UNL A   1      39.294  24.927  27.416  1.00  0.00    -0.200 F 
ATOM     69  C   UNL A   1      40.708  26.536  26.421  1.00  0.00     0.200 A 
ATOM     70  F   UNL A   1      42.128  28.166  25.473  1.00  0.00    -0.200 F 
ATOM     71  F   UNL A   1      40.761  25.814  25.294  1.00  0.00    -0.200 F 
ENDBRANCH  47  61
BRANCH  48  72
ATOM     72  C   UNL A   1      39.640  33.905  36.836  1.00  0.00     0.064 A 
ATOM     73  C   UNL A   1      38.828  33.495  37.905  1.00  0.00     0.173 A 
ATOM     74  C   UNL A   1      40.268  35.154  36.940  1.00  0.00     0.173 A 
ATOM     75  F   UNL A   1      38.189  32.317  37.847  1.00  0.00    -0.203 F 
ATOM     76  C   UNL A   1      38.618  34.320  39.008  1.00  0.00     0.198 A 
ATOM     77  C   UNL A   1      40.086  35.962  38.060  1.00  0.00     0.198 A 
ATOM     78  F   UNL A   1      41.060  35.594  35.950  1.00  0.00    -0.203 F 
ATOM     79  F   UNL A   1      37.781  33.932  39.980  1.00  0.00    -0.200 F 
ATOM     80  C   UNL A   1      39.249  35.552  39.086  1.00  0.00     0.200 A 
ATOM     81  F   UNL A   1      40.709  37.145  38.137  1.00  0.00    -0.200 F 
ATOM     82  F   UNL A   1      39.039  36.349  40.142  1.00  0.00    -0.200 F 
ENDBRANCH  48  72
BRANCH  60  83
ATOM     83  C   UNL A   1      44.005  28.762  35.090  1.00  0.00     0.064 A 
ATOM     84  C   UNL A   1      43.883  27.658  35.946  1.00  0.00     0.173 A 
ATOM     85  C   UNL A   1      45.293  29.263  34.843  1.00  0.00     0.173 A 
ATOM     86  F   UNL A   1      42.673  27.151  36.225  1.00  0.00    -0.203 F 
ATOM     87  C   UNL A   1      45.005  27.093  36.547  1.00  0.00     0.198 A 
ATOM     88  C   UNL A   1      46.415  28.674  35.418  1.00  0.00     0.198 A 
ATOM     89  F   UNL A   1      45.466  30.313  34.025  1.00  0.00    -0.203 F 
ATOM     90  F   UNL A   1      44.860  26.068  37.398  1.00  0.00    -0.200 F 
ATOM     91  C   UNL A   1      46.270  27.594  36.275  1.00  0.00     0.200 A 
ATOM     92  F   UNL A   1      47.637  29.150  35.141  1.00  0.00    -0.200 F 
ATOM     93  F   UNL A   1      47.348  27.039  36.844  1.00  0.00    -0.200 F 
ENDBRANCH  60  83
ENDBRANCH  34  35
ENDBRANCH  26  29
ENDBRANCH  24  25
ENDBRANCH  23  24
ENDBRANCH   1  23
TORSDOF 14
ENDMDL
MODEL 3
REMARK VINA RESULT:     -11.8      1.809      3.708
REMARK SMILES Cc1nc(C(C)C)[nH]c(=O)c1C(=O)N(C)CC(=O)NCCCNC(=O)c1ccc(-c2c3nc(c(-c4c(F)c(F)c(F)c(F)c4F)c4ccc([nH]4)c(-c4c(F)c(F)c(F)c(F)c4F)c4nc(c(-c5c(F)c(F)c(F)c(F)c5F)c5ccc2[nH]5)C=C4)C=C3)cc1
REMARK SMILES IDX 20 1 19 2 17 3 18 4 16 6 14 7 15 8 12 9 13 10 11 11 1 12
REMARK SMILES IDX 2 13 3 14 4 15 9 16 8 17 10 18 5 20 6 21 7 22 21 23 22 24
REMARK SMILES IDX 23 25 24 26 25 28 26 29 27 30 88 31 28 32 87 33 29 34 30 35
REMARK SMILES IDX 31 36 81 37 32 38 86 39 80 40 82 41 33 42 85 43 79 44 78 45
REMARK SMILES IDX 34 47 66 48 46 49 65 50 47 51 50 52 64 53 83 54 48 55 49 56
REMARK SMILES IDX 63 58 84 59 51 60 35 61 36 62 44 63 37 64 38 65 42 66 45 67
REMARK SMILES IDX 39 68 40 69 43 70 41 71 67 72 68 73 76 74 69 75 70 76 74 77
REMARK SMILES IDX 77 78 71 79 72 80 75 81 73 82 52 83 53 84 61 85 54 86 55 87
REMARK SMILES IDX 59 88 62 89 56 90 57 91 60 92 58 93
REMARK H PARENT 19 5 8 19 23 27 82 46 50 57
REMARK Flexibility Score: inf
ROOT
ATOM      1  C   UNL A   1      36.621  20.678  25.006  1.00  0.00     0.117 C 
ENDROOT
BRANCH   1   2
ATOM      2  N   UNL A   1      35.408  19.896  25.002  1.00  0.00    -0.354 N 
ATOM      3  C   UNL A   1      34.116  20.306  24.862  1.00  0.00     0.239 C 
ATOM      4  O   UNL A   1      33.273  19.429  24.643  1.00  0.00    -0.273 OA
ATOM      5  H   UNL A   1      35.531  18.926  25.116  1.00  0.00     0.163 HD
BRANCH   3   6
ATOM      6  C   UNL A   1      33.756  21.796  24.725  1.00  0.00     0.219 C 
BRANCH   6   7
ATOM      7  N   UNL A   1      33.482  22.409  23.409  1.00  0.00    -0.332 N 
ATOM      8  C   UNL A   1      32.292  21.915  22.735  1.00  0.00     0.147 C 
BRANCH   7   9
ATOM      9  C   UNL A   1      34.162  23.590  23.133  1.00  0.00     0.261 C 
ATOM     10  O   UNL A   1      35.336  23.529  22.752  1.00  0.00    -0.269 OA
BRANCH   9  11
ATOM     11  C   UNL A   1      33.559  24.969  23.228  1.00  0.00     0.126 A 
ATOM     12  C   UNL A   1      33.629  25.358  25.745  1.00  0.00     0.068 C 
ATOM     13  C   UNL A   1      33.294  25.722  24.324  1.00  0.00     0.058 A 
ATOM     14  N   UNL A   1      32.579  26.907  24.304  1.00  0.00    -0.239 NA
ATOM     15  C   UNL A   1      31.966  27.250  23.221  1.00  0.00     0.111 A 
ATOM     16  C   UNL A   1      32.974  25.511  21.955  1.00  0.00     0.264 A 
ATOM     17  N   UNL A   1      32.093  26.546  22.071  1.00  0.00    -0.310 N 
ATOM     18  O   UNL A   1      33.277  25.103  20.838  1.00  0.00    -0.269 OA
ATOM     19  H   UNL A   1      31.535  26.789  21.297  1.00  0.00     0.171 HD
BRANCH  15  20
ATOM     20  C   UNL A   1      31.064  28.476  23.217  1.00  0.00     0.049 C 
ATOM     21  C   UNL A   1      29.592  28.090  23.128  1.00  0.00     0.016 C 
ATOM     22  C   UNL A   1      31.332  29.352  24.440  1.00  0.00     0.016 C 
ENDBRANCH  15  20
ENDBRANCH   9  11
ENDBRANCH   7   9
ENDBRANCH   6   7
ENDBRANCH   3   6
ENDBRANCH   1   2
BRANCH   1  23
ATOM     23  C   UNL A   1      37.870  19.821  24.860  1.00  0.00     0.042 C 
BRANCH  23  24
ATOM     24  C   UNL A   1      39.026  20.243  25.758  1.00  0.00     0.118 C 
BRANCH  24  25
ATOM     25  N   UNL A   1      40.034  19.204  25.904  1.00  0.00    -0.352 N 
ATOM     26  C   UNL A   1      41.387  19.317  26.123  1.00  0.00     0.251 C 
ATOM     27  H   UNL A   1      39.698  18.281  25.835  1.00  0.00     0.163 HD
ATOM     28  O   UNL A   1      42.106  18.330  26.047  1.00  0.00    -0.269 OA
BRANCH  26  29
ATOM     29  C   UNL A   1      41.977  20.639  26.428  1.00  0.00     0.039 A 
ATOM     30  C   UNL A   1      42.264  21.512  25.374  1.00  0.00     0.014 A 
ATOM     31  C   UNL A   1      42.254  21.014  27.744  1.00  0.00     0.014 A 
ATOM     32  C   UNL A   1      42.767  22.786  25.647  1.00  0.00     0.010 A 
ATOM     33  C   UNL A   1      42.678  22.310  28.019  1.00  0.00     0.010 A 
ATOM     34  C   UNL A   1      42.944  23.208  26.974  1.00  0.00    -0.014 A 
BRANCH  34  35
ATOM     35  C   UNL A   1      43.428  24.573  27.304  1.00  0.00     0.031 A 
ATOM     36  C   UNL A   1      42.468  25.583  27.871  1.00  0.00     0.074 A 
ATOM     37  C   UNL A   1      44.697  24.925  27.024  1.00  0.00     0.049 A 
ATOM     38  N   UNL A   1      42.643  26.862  28.093  1.00  0.00    -0.248 NA
ATOM     39  C   UNL A   1      41.119  25.096  28.207  1.00  0.00     0.031 C 
ATOM     40  C   UNL A   1      45.716  24.044  26.454  1.00  0.00     0.029 A 
ATOM     41  N   UNL A   1      45.342  26.129  27.166  1.00  0.00    -0.354 N 
ATOM     42  C   UNL A   1      41.429  27.329  28.581  1.00  0.00     0.074 A 
ATOM     43  C   UNL A   1      40.508  26.215  28.566  1.00  0.00     0.031 C 
ATOM     44  C   UNL A   1      46.861  24.731  26.307  1.00  0.00     0.029 A 
ATOM     45  C   UNL A   1      46.644  26.112  26.725  1.00  0.00     0.049 A 
ATOM     46  H   UNL A   1      44.914  26.929  27.546  1.00  0.00     0.167 HD
ATOM     47  C   UNL A   1      41.120  28.570  29.025  1.00  0.00     0.037 A 
ATOM     48  C   UNL A   1      47.551  27.106  26.648  1.00  0.00     0.037 A 
ATOM     49  C   UNL A   1      42.044  29.671  29.054  1.00  0.00     0.049 A 
ATOM     50  C   UNL A   1      47.163  28.488  27.109  1.00  0.00     0.074 A 
ATOM     51  C   UNL A   1      41.834  30.964  29.505  1.00  0.00     0.029 A 
ATOM     52  N   UNL A   1      43.360  29.608  28.618  1.00  0.00    -0.354 N 
ATOM     53  N   UNL A   1      46.025  28.909  27.606  1.00  0.00    -0.248 NA
ATOM     54  C   UNL A   1      48.190  29.535  27.002  1.00  0.00     0.031 C 
ATOM     55  C   UNL A   1      43.008  31.693  29.300  1.00  0.00     0.029 A 
ATOM     56  C   UNL A   1      43.969  30.842  28.779  1.00  0.00     0.049 A 
ATOM     57  H   UNL A   1      43.795  28.807  28.248  1.00  0.00     0.167 HD
ATOM     58  C   UNL A   1      46.215  30.250  27.916  1.00  0.00     0.074 A 
ATOM     59  C   UNL A   1      47.579  30.572  27.556  1.00  0.00     0.031 C 
ATOM     60  C   UNL A   1      45.340  31.134  28.452  1.00  0.00     0.037 A 
BRANCH  47  61
ATOM     61  C   UNL A   1      39.725  28.802  29.531  1.00  0.00     0.064 A 
ATOM     62  C   UNL A   1      39.398  28.627  30.884  1.00  0.00     0.173 A 
ATOM     63  C   UNL A   1      38.718  29.262  28.667  1.00  0.00     0.173 A 
ATOM     64  F   UNL A   1      40.322  28.178  31.749  1.00  0.00    -0.203 F 
ATOM     65  C   UNL A   1      38.111  28.879  31.349  1.00  0.00     0.198 A 
ATOM     66  C   UNL A   1      37.440  29.545  29.144  1.00  0.00     0.198 A 
ATOM     67  F   UNL A   1      38.978  29.454  27.366  1.00  0.00    -0.203 F 
ATOM     68  F   UNL A   1      37.813  28.661  32.638  1.00  0.00    -0.200 F 
ATOM     69  C   UNL A   1      37.136  29.347  30.482  1.00  0.00     0.200 A 
ATOM     70  F   UNL A   1      36.504  30.014  28.308  1.00  0.00    -0.200 F 
ATOM     71  F   UNL A   1      35.903  29.606  30.936  1.00  0.00    -0.200 F 
ENDBRANCH  47  61
BRANCH  48  72
ATOM     72  C   UNL A   1      48.919  26.843  26.125  1.00  0.00     0.064 A 
ATOM     73  C   UNL A   1      49.216  27.034  24.767  1.00  0.00     0.173 A 
ATOM     74  C   UNL A   1      49.941  26.352  26.950  1.00  0.00     0.173 A 
ATOM     75  F   UNL A   1      48.268  27.483  23.930  1.00  0.00    -0.203 F 
ATOM     76  C   UNL A   1      50.467  26.703  24.249  1.00  0.00     0.198 A 
ATOM     77  C   UNL A   1      51.202  26.055  26.438  1.00  0.00     0.198 A 
ATOM     78  F   UNL A   1      49.715  26.157  28.258  1.00  0.00    -0.203 F 
ATOM     79  F   UNL A   1      50.699  26.827  22.934  1.00  0.00    -0.200 F 
ATOM     80  C   UNL A   1      51.460  26.216  25.085  1.00  0.00     0.200 A 
ATOM     81  F   UNL A   1      52.163  25.600  27.252  1.00  0.00    -0.200 F 
ATOM     82  F   UNL A   1      52.659  25.889  24.585  1.00  0.00    -0.200 F 
ENDBRANCH  48  72
BRANCH  60  83
ATOM     83  C   UNL A   1      45.846  32.513  28.762  1.00  0.00     0.064 A 
ATOM     84  C   UNL A   1      46.463  32.823  29.982  1.00  0.00     0.173 A 
ATOM     85  C   UNL A   1      45.763  33.525  27.792  1.00  0.00     0.173 A 
ATOM     86  F   UNL A   1      46.555  31.895  30.947  1.00  0.00    -0.203 F 
ATOM     87  C   UNL A   1      46.956  34.102  30.229  1.00  0.00     0.198 A 
ATOM     88  C   UNL A   1      46.287  34.792  28.029  1.00  0.00     0.198 A 
ATOM     89  F   UNL A   1      45.190  33.279  26.604  1.00  0.00    -0.203 F 
ATOM     90  F   UNL A   1      47.499  34.389  31.420  1.00  0.00    -0.200 F 
ATOM     91  C   UNL A   1      46.877  35.081  29.250  1.00  0.00     0.200 A 
ATOM     92  F   UNL A   1      46.225  35.731  27.076  1.00  0.00    -0.200 F 
ATOM     93  F   UNL A   1      47.366  36.306  29.486  1.00  0.00    -0.200 F 
ENDBRANCH  60  83
ENDBRANCH  34  35
ENDBRANCH  26  29
ENDBRANCH  24  25
ENDBRANCH  23  24
ENDBRANCH   1  23
TORSDOF 14
ENDMDL
