MODEL 1
REMARK VINA RESULT:     -13.1      0.000      0.000
REMARK SMILES Cc1cccc(CS(=O)(=O)c2ccc(C(=O)NCCCNC(=O)c3ccc(-c4c5nc(c(-c6c(F)c(F)c(F)c(F)c6F)c6ccc([nH]6)c(-c6c(F)c(F)c(F)c(F)c6F)c6nc(c(-c7c(F)c(F)c(F)c(F)c7F)c7ccc4[nH]7)C=C6)C=C5)cc3)cc2F)n1
REMARK SMILES IDX 18 1 17 2 15 3 16 4 14 6 11 7 12 8 88 9 13 10 87 11 89 12
REMARK SMILES IDX 8 13 9 14 10 15 7 16 6 17 1 18 2 19 3 20 90 21 4 22 5 23
REMARK SMILES IDX 19 24 20 25 21 26 22 27 23 29 24 30 25 31 86 32 26 33 85 34
REMARK SMILES IDX 27 35 28 36 29 37 79 38 30 39 84 40 78 41 80 42 31 43 83 44
REMARK SMILES IDX 77 45 76 46 32 48 64 49 44 50 63 51 45 52 48 53 62 54 81 55
REMARK SMILES IDX 46 56 47 57 61 59 82 60 49 61 33 62 34 63 42 64 35 65 36 66
REMARK SMILES IDX 40 67 43 68 37 69 38 70 41 71 39 72 65 73 66 74 74 75 67 76
REMARK SMILES IDX 68 77 72 78 75 79 69 80 70 81 73 82 71 83 50 84 51 85 59 86
REMARK SMILES IDX 52 87 53 88 57 89 60 90 54 91 55 92 58 93 56 94
REMARK H PARENT 17 5 21 28 80 47 48 58
REMARK Flexibility Score: inf
ROOT
ATOM      1  C   UNL A   1      31.675  30.582  26.624  1.00  0.00     0.118 C 
ENDROOT
BRANCH   1   2
ATOM      2  N   UNL A   1      32.406  30.303  25.402  1.00  0.00    -0.352 N 
ATOM      3  C   UNL A   1      32.675  29.133  24.744  1.00  0.00     0.251 C 
ATOM      4  O   UNL A   1      33.307  29.186  23.691  1.00  0.00    -0.269 OA
ATOM      5  H   UNL A   1      32.779  31.102  24.965  1.00  0.00     0.163 HD
BRANCH   3   6
ATOM      6  C   UNL A   1      32.183  27.814  25.215  1.00  0.00     0.042 A 
ATOM      7  C   UNL A   1      31.427  25.274  26.161  1.00  0.00     0.103 A 
ATOM      8  C   UNL A   1      32.747  25.713  26.299  1.00  0.00     0.024 A 
ATOM      9  C   UNL A   1      30.500  26.104  25.540  1.00  0.00     0.142 A 
ATOM     10  C   UNL A   1      33.113  26.987  25.858  1.00  0.00     0.015 A 
ATOM     11  C   UNL A   1      30.867  27.371  25.082  1.00  0.00     0.054 A 
ATOM     12  F   UNL A   1      29.232  25.729  25.336  1.00  0.00    -0.206 F 
BRANCH   7  13
ATOM     13  S   UNL A   1      30.981  23.629  26.664  1.00  0.00     0.186 S 
ATOM     14  O   UNL A   1      29.670  23.740  27.282  1.00  0.00    -0.223 OA
ATOM     15  O   UNL A   1      32.078  23.102  27.457  1.00  0.00    -0.223 OA
BRANCH  13  16
ATOM     16  C   UNL A   1      30.933  22.611  25.201  1.00  0.00     0.198 C 
BRANCH  16  17
ATOM     17  C   UNL A   1      32.137  21.729  25.080  1.00  0.00     0.056 A 
ATOM     18  C   UNL A   1      32.757  18.123  25.459  1.00  0.00     0.067 C 
ATOM     19  C   UNL A   1      33.031  19.577  25.221  1.00  0.00     0.038 A 
ATOM     20  C   UNL A   1      34.282  20.023  24.822  1.00  0.00     0.023 A 
ATOM     21  N   UNL A   1      31.980  20.417  25.367  1.00  0.00    -0.257 NA
ATOM     22  C   UNL A   1      34.454  21.381  24.574  1.00  0.00     0.004 A 
ATOM     23  C   UNL A   1      33.373  22.249  24.705  1.00  0.00     0.025 A 
ENDBRANCH  16  17
ENDBRANCH  13  16
ENDBRANCH   7  13
ENDBRANCH   3   6
ENDBRANCH   1   2
BRANCH   1  24
ATOM     24  C   UNL A   1      31.486  32.087  26.809  1.00  0.00     0.042 C 
BRANCH  24  25
ATOM     25  C   UNL A   1      32.793  32.831  27.068  1.00  0.00     0.118 C 
BRANCH  25  26
ATOM     26  N   UNL A   1      32.562  34.174  27.578  1.00  0.00    -0.352 N 
ATOM     27  C   UNL A   1      33.097  34.804  28.673  1.00  0.00     0.251 C 
ATOM     28  H   UNL A   1      31.925  34.714  27.057  1.00  0.00     0.163 HD
ATOM     29  O   UNL A   1      32.598  35.853  29.073  1.00  0.00    -0.269 OA
BRANCH  27  30
ATOM     30  C   UNL A   1      34.262  34.231  29.379  1.00  0.00     0.039 A 
ATOM     31  C   UNL A   1      34.041  33.437  30.509  1.00  0.00     0.014 A 
ATOM     32  C   UNL A   1      35.567  34.514  28.968  1.00  0.00     0.014 A 
ATOM     33  C   UNL A   1      35.127  32.888  31.195  1.00  0.00     0.010 A 
ATOM     34  C   UNL A   1      36.645  33.909  29.608  1.00  0.00     0.010 A 
ATOM     35  C   UNL A   1      36.436  33.096  30.733  1.00  0.00    -0.014 A 
BRANCH  35  36
ATOM     36  C   UNL A   1      37.599  32.472  31.412  1.00  0.00     0.031 A 
ATOM     37  C   UNL A   1      38.339  31.338  30.760  1.00  0.00     0.074 A 
ATOM     38  C   UNL A   1      37.951  32.890  32.643  1.00  0.00     0.049 A 
ATOM     39  N   UNL A   1      39.329  30.619  31.226  1.00  0.00    -0.248 NA
ATOM     40  C   UNL A   1      37.894  30.943  29.414  1.00  0.00     0.031 C 
ATOM     41  C   UNL A   1      37.286  33.957  33.392  1.00  0.00     0.029 A 
ATOM     42  N   UNL A   1      38.949  32.466  33.485  1.00  0.00    -0.354 N 
ATOM     43  C   UNL A   1      39.614  29.684  30.240  1.00  0.00     0.074 A 
ATOM     44  C   UNL A   1      38.662  29.890  29.171  1.00  0.00     0.031 C 
ATOM     45  C   UNL A   1      37.911  34.125  34.568  1.00  0.00     0.029 A 
ATOM     46  C   UNL A   1      38.992  33.150  34.675  1.00  0.00     0.049 A 
ATOM     47  H   UNL A   1      39.574  31.741  33.256  1.00  0.00     0.167 HD
ATOM     48  C   UNL A   1      40.597  28.754  30.222  1.00  0.00     0.037 A 
ATOM     49  C   UNL A   1      39.807  33.003  35.737  1.00  0.00     0.037 A 
ATOM     50  C   UNL A   1      41.560  28.575  31.277  1.00  0.00     0.049 A 
ATOM     51  C   UNL A   1      40.884  31.953  35.697  1.00  0.00     0.074 A 
ATOM     52  C   UNL A   1      42.629  27.697  31.325  1.00  0.00     0.029 A 
ATOM     53  N   UNL A   1      41.570  29.286  32.467  1.00  0.00    -0.354 N 
ATOM     54  N   UNL A   1      41.174  31.107  34.739  1.00  0.00    -0.248 NA
ATOM     55  C   UNL A   1      41.744  31.836  36.882  1.00  0.00     0.031 C 
ATOM     56  C   UNL A   1      43.256  27.843  32.565  1.00  0.00     0.029 A 
ATOM     57  C   UNL A   1      42.614  28.850  33.267  1.00  0.00     0.049 A 
ATOM     58  H   UNL A   1      40.932  29.995  32.707  1.00  0.00     0.167 HD
ATOM     59  C   UNL A   1      42.264  30.376  35.192  1.00  0.00     0.074 A 
ATOM     60  C   UNL A   1      42.590  30.885  36.508  1.00  0.00     0.031 C 
ATOM     61  C   UNL A   1      42.931  29.372  34.572  1.00  0.00     0.037 A 
BRANCH  48  62
ATOM     62  C   UNL A   1      40.698  27.861  29.018  1.00  0.00     0.064 A 
ATOM     63  C   UNL A   1      41.555  28.190  27.956  1.00  0.00     0.173 A 
ATOM     64  C   UNL A   1      39.892  26.722  28.880  1.00  0.00     0.173 A 
ATOM     65  F   UNL A   1      42.343  29.273  28.034  1.00  0.00    -0.203 F 
ATOM     66  C   UNL A   1      41.591  27.418  26.798  1.00  0.00     0.198 A 
ATOM     67  C   UNL A   1      39.952  25.935  27.733  1.00  0.00     0.198 A 
ATOM     68  F   UNL A   1      39.063  26.357  29.870  1.00  0.00    -0.203 F 
ATOM     69  F   UNL A   1      42.392  27.772  25.784  1.00  0.00    -0.200 F 
ATOM     70  C   UNL A   1      40.792  26.291  26.688  1.00  0.00     0.200 A 
ATOM     71  F   UNL A   1      39.197  24.831  27.639  1.00  0.00    -0.200 F 
ATOM     72  F   UNL A   1      40.834  25.543  25.577  1.00  0.00    -0.200 F 
ENDBRANCH  48  62
BRANCH  49  73
ATOM     73  C   UNL A   1      39.654  33.905  36.908  1.00  0.00     0.064 A 
ATOM     74  C   UNL A   1      40.316  35.140  36.974  1.00  0.00     0.173 A 
ATOM     75  C   UNL A   1      38.869  33.526  38.006  1.00  0.00     0.173 A 
ATOM     76  F   UNL A   1      41.084  35.546  35.953  1.00  0.00    -0.203 F 
ATOM     77  C   UNL A   1      40.216  35.950  38.102  1.00  0.00     0.198 A 
ATOM     78  C   UNL A   1      38.746  34.350  39.122  1.00  0.00     0.198 A 
ATOM     79  F   UNL A   1      38.201  32.363  37.980  1.00  0.00    -0.203 F 
ATOM     80  F   UNL A   1      40.889  37.108  38.156  1.00  0.00    -0.200 F 
ATOM     81  C   UNL A   1      39.428  35.558  39.174  1.00  0.00     0.200 A 
ATOM     82  F   UNL A   1      37.967  33.977  40.146  1.00  0.00    -0.200 F 
ATOM     83  F   UNL A   1      39.325  36.342  40.255  1.00  0.00    -0.200 F 
ENDBRANCH  49  73
BRANCH  61  84
ATOM     84  C   UNL A   1      44.099  28.764  35.290  1.00  0.00     0.064 A 
ATOM     85  C   UNL A   1      45.398  29.252  35.073  1.00  0.00     0.173 A 
ATOM     86  C   UNL A   1      43.948  27.643  36.119  1.00  0.00     0.173 A 
ATOM     87  F   UNL A   1      45.596  30.317  34.281  1.00  0.00    -0.203 F 
ATOM     88  C   UNL A   1      46.502  28.628  35.644  1.00  0.00     0.198 A 
ATOM     89  C   UNL A   1      45.053  27.039  36.712  1.00  0.00     0.198 A 
ATOM     90  F   UNL A   1      42.727  27.147  36.366  1.00  0.00    -0.203 F 
ATOM     91  F   UNL A   1      47.735  29.087  35.391  1.00  0.00    -0.200 F 
ATOM     92  C   UNL A   1      46.329  27.524  36.465  1.00  0.00     0.200 A 
ATOM     93  F   UNL A   1      44.883  25.986  37.523  1.00  0.00    -0.200 F 
ATOM     94  F   UNL A   1      47.392  26.927  37.019  1.00  0.00    -0.200 F 
ENDBRANCH  61  84
ENDBRANCH  35  36
ENDBRANCH  27  30
ENDBRANCH  25  26
ENDBRANCH  24  25
ENDBRANCH   1  24
TORSDOF 13
ENDMDL
MODEL 2
REMARK VINA RESULT:     -13.1      0.501      1.996
REMARK SMILES Cc1cccc(CS(=O)(=O)c2ccc(C(=O)NCCCNC(=O)c3ccc(-c4c5nc(c(-c6c(F)c(F)c(F)c(F)c6F)c6ccc([nH]6)c(-c6c(F)c(F)c(F)c(F)c6F)c6nc(c(-c7c(F)c(F)c(F)c(F)c7F)c7ccc4[nH]7)C=C6)C=C5)cc3)cc2F)n1
REMARK SMILES IDX 18 1 17 2 15 3 16 4 14 6 11 7 12 8 88 9 13 10 87 11 89 12
REMARK SMILES IDX 8 13 9 14 10 15 7 16 6 17 1 18 2 19 3 20 90 21 4 22 5 23
REMARK SMILES IDX 19 24 20 25 21 26 22 27 23 29 24 30 25 31 86 32 26 33 85 34
REMARK SMILES IDX 27 35 28 36 29 37 79 38 30 39 84 40 78 41 80 42 31 43 83 44
REMARK SMILES IDX 77 45 76 46 32 48 64 49 44 50 63 51 45 52 48 53 62 54 81 55
REMARK SMILES IDX 46 56 47 57 61 59 82 60 49 61 33 62 34 63 42 64 35 65 36 66
REMARK SMILES IDX 40 67 43 68 37 69 38 70 41 71 39 72 65 73 66 74 74 75 67 76
REMARK SMILES IDX 68 77 72 78 75 79 69 80 70 81 73 82 71 83 50 84 51 85 59 86
REMARK SMILES IDX 52 87 53 88 57 89 60 90 54 91 55 92 58 93 56 94
REMARK H PARENT 17 5 21 28 80 47 48 58
REMARK Flexibility Score: inf
ROOT
ATOM      1  C   UNL A   1      31.438  30.465  26.339  1.00  0.00     0.118 C 
ENDROOT
BRANCH   1   2
ATOM      2  N   UNL A   1      32.314  30.149  25.225  1.00  0.00    -0.352 N 
ATOM      3  C   UNL A   1      32.706  28.956  24.680  1.00  0.00     0.251 C 
ATOM      4  O   UNL A   1      33.450  28.977  23.701  1.00  0.00    -0.269 OA
ATOM      5  H   UNL A   1      32.697  30.938  24.778  1.00  0.00     0.163 HD
BRANCH   3   6
ATOM      6  C   UNL A   1      32.224  27.645  25.183  1.00  0.00     0.042 A 
ATOM      7  C   UNL A   1      31.490  25.115  26.173  1.00  0.00     0.103 A 
ATOM      8  C   UNL A   1      32.827  25.523  26.203  1.00  0.00     0.024 A 
ATOM      9  C   UNL A   1      30.534  25.972  25.636  1.00  0.00     0.142 A 
ATOM     10  C   UNL A   1      33.185  26.792  25.741  1.00  0.00     0.015 A 
ATOM     11  C   UNL A   1      30.892  27.234  25.157  1.00  0.00     0.054 A 
ATOM     12  F   UNL A   1      29.245  25.628  25.538  1.00  0.00    -0.206 F 
BRANCH   7  13
ATOM     13  S   UNL A   1      31.048  23.477  26.701  1.00  0.00     0.186 S 
ATOM     14  O   UNL A   1      29.761  23.603  27.364  1.00  0.00    -0.223 OA
ATOM     15  O   UNL A   1      32.168  22.945  27.457  1.00  0.00    -0.223 OA
BRANCH  13  16
ATOM     16  C   UNL A   1      30.940  22.452  25.246  1.00  0.00     0.198 C 
BRANCH  16  17
ATOM     17  C   UNL A   1      32.137  21.567  25.082  1.00  0.00     0.056 A 
ATOM     18  C   UNL A   1      32.736  17.945  25.322  1.00  0.00     0.067 C 
ATOM     19  C   UNL A   1      33.018  19.405  25.136  1.00  0.00     0.038 A 
ATOM     20  C   UNL A   1      34.268  19.858  24.742  1.00  0.00     0.023 A 
ATOM     21  N   UNL A   1      31.974  20.246  25.321  1.00  0.00    -0.257 NA
ATOM     22  C   UNL A   1      34.447  21.223  24.543  1.00  0.00     0.004 A 
ATOM     23  C   UNL A   1      33.373  22.092  24.716  1.00  0.00     0.025 A 
ENDBRANCH  16  17
ENDBRANCH  13  16
ENDBRANCH   7  13
ENDBRANCH   3   6
ENDBRANCH   1   2
BRANCH   1  24
ATOM     24  C   UNL A   1      31.351  31.976  26.546  1.00  0.00     0.042 C 
BRANCH  24  25
ATOM     25  C   UNL A   1      32.674  32.601  26.981  1.00  0.00     0.118 C 
BRANCH  25  26
ATOM     26  N   UNL A   1      32.498  33.961  27.468  1.00  0.00    -0.352 N 
ATOM     27  C   UNL A   1      33.091  34.602  28.527  1.00  0.00     0.251 C 
ATOM     28  H   UNL A   1      31.855  34.506  26.959  1.00  0.00     0.163 HD
ATOM     29  O   UNL A   1      32.635  35.672  28.920  1.00  0.00    -0.269 OA
BRANCH  27  30
ATOM     30  C   UNL A   1      34.267  34.014  29.201  1.00  0.00     0.039 A 
ATOM     31  C   UNL A   1      34.066  32.999  30.142  1.00  0.00     0.014 A 
ATOM     32  C   UNL A   1      35.557  34.491  28.953  1.00  0.00     0.014 A 
ATOM     33  C   UNL A   1      35.162  32.431  30.796  1.00  0.00     0.010 A 
ATOM     34  C   UNL A   1      36.654  33.876  29.551  1.00  0.00     0.010 A 
ATOM     35  C   UNL A   1      36.466  32.845  30.484  1.00  0.00    -0.014 A 
BRANCH  35  36
ATOM     36  C   UNL A   1      37.647  32.212  31.123  1.00  0.00     0.031 A 
ATOM     37  C   UNL A   1      38.423  31.149  30.397  1.00  0.00     0.074 A 
ATOM     38  C   UNL A   1      37.984  32.555  32.381  1.00  0.00     0.049 A 
ATOM     39  N   UNL A   1      39.434  30.431  30.816  1.00  0.00    -0.248 NA
ATOM     40  C   UNL A   1      37.992  30.834  29.025  1.00  0.00     0.031 C 
ATOM     41  C   UNL A   1      37.285  33.548  33.199  1.00  0.00     0.029 A 
ATOM     42  N   UNL A   1      38.994  32.106  33.195  1.00  0.00    -0.354 N 
ATOM     43  C   UNL A   1      39.749  29.575  29.769  1.00  0.00     0.074 A 
ATOM     44  C   UNL A   1      38.793  29.825  28.713  1.00  0.00     0.031 C 
ATOM     45  C   UNL A   1      37.903  33.654  34.386  1.00  0.00     0.029 A 
ATOM     46  C   UNL A   1      39.014  32.707  34.429  1.00  0.00     0.049 A 
ATOM     47  H   UNL A   1      39.641  31.418  32.919  1.00  0.00     0.167 HD
ATOM     48  C   UNL A   1      40.761  28.679  29.690  1.00  0.00     0.037 A 
ATOM     49  C   UNL A   1      39.832  32.513  35.482  1.00  0.00     0.037 A 
ATOM     50  C   UNL A   1      41.727  28.458  30.734  1.00  0.00     0.049 A 
ATOM     51  C   UNL A   1      40.940  31.502  35.373  1.00  0.00     0.074 A 
ATOM     52  C   UNL A   1      42.823  27.613  30.726  1.00  0.00     0.029 A 
ATOM     53  N   UNL A   1      41.714  29.086  31.970  1.00  0.00    -0.354 N 
ATOM     54  N   UNL A   1      41.258  30.734  34.360  1.00  0.00    -0.248 NA
ATOM     55  C   UNL A   1      41.803  31.330  36.551  1.00  0.00     0.031 C 
ATOM     56  C   UNL A   1      43.444  27.692  31.975  1.00  0.00     0.029 A 
ATOM     57  C   UNL A   1      42.770  28.629  32.742  1.00  0.00     0.049 A 
ATOM     58  H   UNL A   1      41.054  29.757  32.257  1.00  0.00     0.167 HD
ATOM     59  C   UNL A   1      42.370  30.007  34.767  1.00  0.00     0.074 A 
ATOM     60  C   UNL A   1      42.678  30.434  36.115  1.00  0.00     0.031 C 
ATOM     61  C   UNL A   1      43.068  29.069  34.081  1.00  0.00     0.037 A 
BRANCH  48  62
ATOM     62  C   UNL A   1      40.891  27.875  28.429  1.00  0.00     0.064 A 
ATOM     63  C   UNL A   1      40.299  26.606  28.328  1.00  0.00     0.173 A 
ATOM     64  C   UNL A   1      41.665  28.324  27.349  1.00  0.00     0.173 A 
ATOM     65  F   UNL A   1      39.554  26.126  29.335  1.00  0.00    -0.203 F 
ATOM     66  C   UNL A   1      40.488  25.814  27.199  1.00  0.00     0.198 A 
ATOM     67  C   UNL A   1      41.827  27.541  26.209  1.00  0.00     0.198 A 
ATOM     68  F   UNL A   1      42.244  29.534  27.390  1.00  0.00    -0.203 F 
ATOM     69  F   UNL A   1      39.940  24.592  27.140  1.00  0.00    -0.200 F 
ATOM     70  C   UNL A   1      41.249  26.283  26.139  1.00  0.00     0.200 A 
ATOM     71  F   UNL A   1      42.542  28.007  25.175  1.00  0.00    -0.200 F 
ATOM     72  F   UNL A   1      41.422  25.524  25.049  1.00  0.00    -0.200 F 
ENDBRANCH  48  62
BRANCH  49  73
ATOM     73  C   UNL A   1      39.649  33.327  36.712  1.00  0.00     0.064 A 
ATOM     74  C   UNL A   1      38.747  32.946  37.716  1.00  0.00     0.173 A 
ATOM     75  C   UNL A   1      40.350  34.529  36.886  1.00  0.00     0.173 A 
ATOM     76  F   UNL A   1      38.048  31.808  37.593  1.00  0.00    -0.203 F 
ATOM     77  C   UNL A   1      38.536  33.746  38.835  1.00  0.00     0.198 A 
ATOM     78  C   UNL A   1      40.159  35.315  38.020  1.00  0.00     0.198 A 
ATOM     79  F   UNL A   1      41.237  34.926  35.962  1.00  0.00    -0.203 F 
ATOM     80  F   UNL A   1      37.641  33.377  39.762  1.00  0.00    -0.200 F 
ATOM     81  C   UNL A   1      39.245  34.928  38.990  1.00  0.00     0.200 A 
ATOM     82  F   UNL A   1      40.862  36.445  38.175  1.00  0.00    -0.200 F 
ATOM     83  F   UNL A   1      39.049  35.693  40.072  1.00  0.00    -0.200 F 
ENDBRANCH  49  73
BRANCH  61  84
ATOM     84  C   UNL A   1      44.254  28.449  34.760  1.00  0.00     0.064 A 
ATOM     85  C   UNL A   1      44.102  27.291  35.538  1.00  0.00     0.173 A 
ATOM     86  C   UNL A   1      45.521  29.050  34.716  1.00  0.00     0.173 A 
ATOM     87  F   UNL A   1      42.908  26.683  35.619  1.00  0.00    -0.203 F 
ATOM     88  C   UNL A   1      45.168  26.768  36.262  1.00  0.00     0.198 A 
ATOM     89  C   UNL A   1      46.593  28.507  35.419  1.00  0.00     0.198 A 
ATOM     90  F   UNL A   1      45.720  30.151  33.978  1.00  0.00    -0.203 F 
ATOM     91  F   UNL A   1      44.989  25.685  37.030  1.00  0.00    -0.200 F 
ATOM     92  C   UNL A   1      46.413  27.375  36.200  1.00  0.00     0.200 A 
ATOM     93  F   UNL A   1      47.801  29.082  35.341  1.00  0.00    -0.200 F 
ATOM     94  F   UNL A   1      47.441  26.869  36.894  1.00  0.00    -0.200 F 
ENDBRANCH  61  84
ENDBRANCH  35  36
ENDBRANCH  27  30
ENDBRANCH  25  26
ENDBRANCH  24  25
ENDBRANCH   1  24
TORSDOF 13
ENDMDL
MODEL 3
REMARK VINA RESULT:     -13.0      0.676      7.379
REMARK SMILES Cc1cccc(CS(=O)(=O)c2ccc(C(=O)NCCCNC(=O)c3ccc(-c4c5nc(c(-c6c(F)c(F)c(F)c(F)c6F)c6ccc([nH]6)c(-c6c(F)c(F)c(F)c(F)c6F)c6nc(c(-c7c(F)c(F)c(F)c(F)c7F)c7ccc4[nH]7)C=C6)C=C5)cc3)cc2F)n1
REMARK SMILES IDX 18 1 17 2 15 3 16 4 14 6 11 7 12 8 88 9 13 10 87 11 89 12
REMARK SMILES IDX 8 13 9 14 10 15 7 16 6 17 1 18 2 19 3 20 90 21 4 22 5 23
REMARK SMILES IDX 19 24 20 25 21 26 22 27 23 29 24 30 25 31 86 32 26 33 85 34
REMARK SMILES IDX 27 35 28 36 29 37 79 38 30 39 84 40 78 41 80 42 31 43 83 44
REMARK SMILES IDX 77 45 76 46 32 48 64 49 44 50 63 51 45 52 48 53 62 54 81 55
REMARK SMILES IDX 46 56 47 57 61 59 82 60 49 61 33 62 34 63 42 64 35 65 36 66
REMARK SMILES IDX 40 67 43 68 37 69 38 70 41 71 39 72 65 73 66 74 74 75 67 76
REMARK SMILES IDX 68 77 72 78 75 79 69 80 70 81 73 82 71 83 50 84 51 85 59 86
REMARK SMILES IDX 52 87 53 88 57 89 60 90 54 91 55 92 58 93 56 94
REMARK H PARENT 17 5 21 28 80 47 48 58
REMARK Flexibility Score: inf
ROOT
ATOM      1  C   UNL A   1      31.594  30.627  26.601  1.00  0.00     0.118 C 
ENDROOT
BRANCH   1   2
ATOM      2  N   UNL A   1      32.355  30.352  25.396  1.00  0.00    -0.352 N 
ATOM      3  C   UNL A   1      32.652  29.183  24.748  1.00  0.00     0.251 C 
ATOM      4  O   UNL A   1      33.307  29.240  23.709  1.00  0.00    -0.269 OA
ATOM      5  H   UNL A   1      32.728  31.154  24.964  1.00  0.00     0.163 HD
BRANCH   3   6
ATOM      6  C   UNL A   1      32.166  27.860  25.213  1.00  0.00     0.042 A 
ATOM      7  C   UNL A   1      31.420  25.316  26.156  1.00  0.00     0.103 A 
ATOM      8  C   UNL A   1      32.725  25.780  26.340  1.00  0.00     0.024 A 
ATOM      9  C   UNL A   1      30.502  26.123  25.491  1.00  0.00     0.142 A 
ATOM     10  C   UNL A   1      33.085  27.057  25.901  1.00  0.00     0.015 A 
ATOM     11  C   UNL A   1      30.864  27.392  25.035  1.00  0.00     0.054 A 
ATOM     12  F   UNL A   1      29.250  25.723  25.244  1.00  0.00    -0.206 F 
BRANCH   7  13
ATOM     13  S   UNL A   1      30.984  23.668  26.659  1.00  0.00     0.186 S 
ATOM     14  O   UNL A   1      29.679  23.773  27.289  1.00  0.00    -0.223 OA
ATOM     15  O   UNL A   1      32.090  23.142  27.439  1.00  0.00    -0.223 OA
BRANCH  13  16
ATOM     16  C   UNL A   1      30.925  22.655  25.193  1.00  0.00     0.198 C 
BRANCH  16  17
ATOM     17  C   UNL A   1      32.123  21.764  25.067  1.00  0.00     0.056 A 
ATOM     18  C   UNL A   1      32.722  18.155  25.456  1.00  0.00     0.067 C 
ATOM     19  C   UNL A   1      33.004  19.606  25.210  1.00  0.00     0.038 A 
ATOM     20  C   UNL A   1      34.255  20.043  24.800  1.00  0.00     0.023 A 
ATOM     21  N   UNL A   1      31.960  20.454  25.360  1.00  0.00    -0.257 NA
ATOM     22  C   UNL A   1      34.434  21.399  24.545  1.00  0.00     0.004 A 
ATOM     23  C   UNL A   1      33.359  22.275  24.681  1.00  0.00     0.025 A 
ENDBRANCH  16  17
ENDBRANCH  13  16
ENDBRANCH   7  13
ENDBRANCH   3   6
ENDBRANCH   1   2
BRANCH   1  24
ATOM     24  C   UNL A   1      31.428  32.132  26.804  1.00  0.00     0.042 C 
BRANCH  24  25
ATOM     25  C   UNL A   1      32.755  32.867  26.972  1.00  0.00     0.118 C 
BRANCH  25  26
ATOM     26  N   UNL A   1      32.580  34.171  27.593  1.00  0.00    -0.352 N 
ATOM     27  C   UNL A   1      33.159  34.696  28.720  1.00  0.00     0.251 C 
ATOM     28  H   UNL A   1      31.948  34.770  27.133  1.00  0.00     0.163 HD
ATOM     29  O   UNL A   1      32.703  35.724  29.215  1.00  0.00    -0.269 OA
BRANCH  27  30
ATOM     30  C   UNL A   1      34.321  34.034  29.349  1.00  0.00     0.039 A 
ATOM     31  C   UNL A   1      34.094  33.046  30.312  1.00  0.00     0.014 A 
ATOM     32  C   UNL A   1      35.628  34.416  29.035  1.00  0.00     0.014 A 
ATOM     33  C   UNL A   1      35.176  32.409  30.923  1.00  0.00     0.010 A 
ATOM     34  C   UNL A   1      36.706  33.731  29.590  1.00  0.00     0.010 A 
ATOM     35  C   UNL A   1      36.491  32.727  30.546  1.00  0.00    -0.014 A 
BRANCH  35  36
ATOM     36  C   UNL A   1      37.653  32.019  31.139  1.00  0.00     0.031 A 
ATOM     37  C   UNL A   1      38.129  32.371  32.521  1.00  0.00     0.074 A 
ATOM     38  C   UNL A   1      38.313  31.099  30.410  1.00  0.00     0.049 A 
ATOM     39  N   UNL A   1      39.166  31.917  33.179  1.00  0.00    -0.248 NA
ATOM     40  C   UNL A   1      37.352  33.383  33.253  1.00  0.00     0.031 C 
ATOM     41  C   UNL A   1      37.965  30.700  29.045  1.00  0.00     0.029 A 
ATOM     42  N   UNL A   1      39.415  30.338  30.709  1.00  0.00    -0.354 N 
ATOM     43  C   UNL A   1      39.171  32.595  34.390  1.00  0.00     0.074 A 
ATOM     44  C   UNL A   1      38.067  33.529  34.360  1.00  0.00     0.031 C 
ATOM     45  C   UNL A   1      38.818  29.748  28.635  1.00  0.00     0.029 A 
ATOM     46  C   UNL A   1      39.797  29.500  29.690  1.00  0.00     0.049 A 
ATOM     47  H   UNL A   1      39.886  30.388  31.571  1.00  0.00     0.167 HD
ATOM     48  C   UNL A   1      40.010  32.435  35.441  1.00  0.00     0.037 A 
ATOM     49  C   UNL A   1      40.825  28.634  29.611  1.00  0.00     0.037 A 
ATOM     50  C   UNL A   1      41.089  31.483  35.475  1.00  0.00     0.049 A 
ATOM     51  C   UNL A   1      41.751  28.484  30.787  1.00  0.00     0.074 A 
ATOM     52  C   UNL A   1      41.958  31.205  36.516  1.00  0.00     0.029 A 
ATOM     53  N   UNL A   1      41.445  30.652  34.424  1.00  0.00    -0.354 N 
ATOM     54  N   UNL A   1      41.717  29.096  31.946  1.00  0.00    -0.248 NA
ATOM     55  C   UNL A   1      42.856  27.525  30.647  1.00  0.00     0.031 C 
ATOM     56  C   UNL A   1      42.870  30.243  36.077  1.00  0.00     0.029 A 
ATOM     57  C   UNL A   1      42.536  29.878  34.783  1.00  0.00     0.049 A 
ATOM     58  H   UNL A   1      40.989  30.617  33.552  1.00  0.00     0.167 HD
ATOM     59  C   UNL A   1      42.776  28.581  32.681  1.00  0.00     0.074 A 
ATOM     60  C   UNL A   1      43.428  27.598  31.841  1.00  0.00     0.031 C 
ATOM     61  C   UNL A   1      43.170  28.898  33.938  1.00  0.00     0.037 A 
BRANCH  48  62
ATOM     62  C   UNL A   1      39.793  33.296  36.652  1.00  0.00     0.064 A 
ATOM     63  C   UNL A   1      38.865  32.920  37.636  1.00  0.00     0.173 A 
ATOM     64  C   UNL A   1      40.444  34.529  36.802  1.00  0.00     0.173 A 
ATOM     65  F   UNL A   1      38.209  31.754  37.538  1.00  0.00    -0.203 F 
ATOM     66  C   UNL A   1      38.590  33.754  38.718  1.00  0.00     0.198 A 
ATOM     67  C   UNL A   1      40.189  35.346  37.900  1.00  0.00     0.198 A 
ATOM     68  F   UNL A   1      41.348  34.930  35.895  1.00  0.00    -0.203 F 
ATOM     69  F   UNL A   1      37.676  33.389  39.626  1.00  0.00    -0.200 F 
ATOM     70  C   UNL A   1      39.254  34.963  38.850  1.00  0.00     0.200 A 
ATOM     71  F   UNL A   1      40.850  36.504  38.040  1.00  0.00    -0.200 F 
ATOM     72  F   UNL A   1      38.995  35.760  39.896  1.00  0.00    -0.200 F 
ENDBRANCH  48  62
BRANCH  49  73
ATOM     73  C   UNL A   1      41.002  27.816  28.382  1.00  0.00     0.064 A 
ATOM     74  C   UNL A   1      40.421  26.546  28.256  1.00  0.00     0.173 A 
ATOM     75  C   UNL A   1      41.794  28.279  27.322  1.00  0.00     0.173 A 
ATOM     76  F   UNL A   1      39.660  26.056  29.245  1.00  0.00    -0.203 F 
ATOM     77  C   UNL A   1      40.643  25.762  27.128  1.00  0.00     0.198 A 
ATOM     78  C   UNL A   1      41.993  27.505  26.181  1.00  0.00     0.198 A 
ATOM     79  F   UNL A   1      42.355  29.496  27.388  1.00  0.00    -0.203 F 
ATOM     80  F   UNL A   1      40.106  24.536  27.049  1.00  0.00    -0.200 F 
ATOM     81  C   UNL A   1      41.425  26.243  26.089  1.00  0.00     0.200 A 
ATOM     82  F   UNL A   1      42.732  27.983  25.170  1.00  0.00    -0.200 F 
ATOM     83  F   UNL A   1      41.631  25.492  24.999  1.00  0.00    -0.200 F 
ENDBRANCH  49  73
BRANCH  61  84
ATOM     84  C   UNL A   1      44.350  28.163  34.505  1.00  0.00     0.064 A 
ATOM     85  C   UNL A   1      45.650  28.657  34.319  1.00  0.00     0.173 A 
ATOM     86  C   UNL A   1      44.202  26.927  35.151  1.00  0.00     0.173 A 
ATOM     87  F   UNL A   1      45.845  29.832  33.699  1.00  0.00    -0.203 F 
ATOM     88  C   UNL A   1      46.760  27.932  34.740  1.00  0.00     0.198 A 
ATOM     89  C   UNL A   1      45.314  26.218  35.598  1.00  0.00     0.198 A 
ATOM     90  F   UNL A   1      42.980  26.419  35.363  1.00  0.00    -0.203 F 
ATOM     91  F   UNL A   1      47.993  28.405  34.515  1.00  0.00    -0.200 F 
ATOM     92  C   UNL A   1      46.591  26.715  35.381  1.00  0.00     0.200 A 
ATOM     93  F   UNL A   1      45.148  25.052  36.237  1.00  0.00    -0.200 F 
ATOM     94  F   UNL A   1      47.659  26.019  35.793  1.00  0.00    -0.200 F 
ENDBRANCH  61  84
ENDBRANCH  35  36
ENDBRANCH  27  30
ENDBRANCH  25  26
ENDBRANCH  24  25
ENDBRANCH   1  24
TORSDOF 13
ENDMDL
