MODEL 1
REMARK VINA RESULT:     -11.9      0.000      0.000
REMARK SMILES O=C(NCCCNC(=O)c1ccc(Cl)nc1C(F)(F)F)c1ccc(-c2c3nc(c(-c4c(F)c(F)c(F)c(F)c4F)c4ccc([nH]4)c(-c4c(F)c(F)c(F)c(F)c4F)c4nc(c(-c5c(F)c(F)c(F)c(F)c5F)c5ccc2[nH]5)C=C4)C=C3)cc1
REMARK SMILES IDX 4 1 3 2 1 3 2 4 21 6 22 7 83 8 23 9 82 10 24 11 25 12 26 13
REMARK SMILES IDX 76 14 27 15 81 16 75 17 77 18 28 19 80 20 74 21 73 22 29 24
REMARK SMILES IDX 61 25 41 26 60 27 42 28 45 29 59 30 78 31 43 32 44 33 58 35
REMARK SMILES IDX 79 36 46 37 30 38 31 39 39 40 32 41 33 42 37 43 40 44 34 45
REMARK SMILES IDX 35 46 38 47 36 48 62 49 63 50 71 51 64 52 65 53 69 54 72 55
REMARK SMILES IDX 66 56 67 57 70 58 68 59 47 60 48 61 56 62 49 63 50 64 54 65
REMARK SMILES IDX 57 66 51 67 52 68 55 69 53 70 5 71 6 72 7 73 8 74 9 76 10 77
REMARK SMILES IDX 11 78 16 79 12 80 15 81 13 82 14 83 17 84 18 85 19 86 20 87
REMARK H PARENT 3 5 77 23 45 34 7 75
REMARK Flexibility Score: inf
ROOT
ATOM      1  C   UNL A   1      32.615  32.546  26.911  1.00  0.00     0.118 C 
ENDROOT
BRANCH   1   2
ATOM      2  N   UNL A   1      32.398  33.893  27.428  1.00  0.00    -0.352 N 
ATOM      3  O   UNL A   1      32.555  35.655  28.818  1.00  0.00    -0.269 OA
ATOM      4  C   UNL A   1      33.011  34.576  28.453  1.00  0.00     0.251 C 
ATOM      5  H   UNL A   1      31.691  34.399  26.966  1.00  0.00     0.163 HD
BRANCH   4   6
ATOM      6  C   UNL A   1      34.197  34.012  29.138  1.00  0.00     0.039 A 
ATOM      7  C   UNL A   1      35.475  34.491  28.864  1.00  0.00     0.014 A 
ATOM      8  C   UNL A   1      34.028  33.002  30.093  1.00  0.00     0.014 A 
ATOM      9  C   UNL A   1      36.584  33.836  29.378  1.00  0.00     0.010 A 
ATOM     10  C   UNL A   1      35.145  32.425  30.710  1.00  0.00     0.010 A 
ATOM     11  C   UNL A   1      36.437  32.810  30.327  1.00  0.00    -0.014 A 
BRANCH  11  12
ATOM     12  C   UNL A   1      37.666  32.231  30.933  1.00  0.00     0.031 A 
ATOM     13  C   UNL A   1      38.108  32.595  32.323  1.00  0.00     0.074 A 
ATOM     14  C   UNL A   1      38.336  31.293  30.233  1.00  0.00     0.049 A 
ATOM     15  N   UNL A   1      39.096  32.097  33.026  1.00  0.00    -0.248 NA
ATOM     16  C   UNL A   1      37.359  33.654  33.013  1.00  0.00     0.031 C 
ATOM     17  C   UNL A   1      38.018  30.882  28.863  1.00  0.00     0.029 A 
ATOM     18  N   UNL A   1      39.388  30.487  30.584  1.00  0.00    -0.354 N 
ATOM     19  C   UNL A   1      39.093  32.787  34.232  1.00  0.00     0.074 A 
ATOM     20  C   UNL A   1      38.025  33.761  34.155  1.00  0.00     0.031 C 
ATOM     21  C   UNL A   1      38.801  29.851  28.519  1.00  0.00     0.029 A 
ATOM     22  C   UNL A   1      39.723  29.574  29.613  1.00  0.00     0.049 A 
ATOM     23  H   UNL A   1      39.858  30.554  31.446  1.00  0.00     0.167 HD
ATOM     24  C   UNL A   1      39.900  32.612  35.306  1.00  0.00     0.037 A 
ATOM     25  C   UNL A   1      40.672  28.620  29.598  1.00  0.00     0.037 A 
ATOM     26  C   UNL A   1      40.956  31.633  35.382  1.00  0.00     0.049 A 
ATOM     27  C   UNL A   1      41.542  28.445  30.808  1.00  0.00     0.074 A 
ATOM     28  C   UNL A   1      41.824  31.375  36.430  1.00  0.00     0.029 A 
ATOM     29  N   UNL A   1      41.283  30.743  34.367  1.00  0.00    -0.354 N 
ATOM     30  N   UNL A   1      41.512  29.094  31.947  1.00  0.00    -0.248 NA
ATOM     31  C   UNL A   1      42.577  27.407  30.731  1.00  0.00     0.031 C 
ATOM     32  C   UNL A   1      42.699  30.356  36.036  1.00  0.00     0.029 A 
ATOM     33  C   UNL A   1      42.347  29.946  34.760  1.00  0.00     0.049 A 
ATOM     34  H   UNL A   1      40.827  30.687  33.497  1.00  0.00     0.167 HD
ATOM     35  C   UNL A   1      42.524  28.546  32.721  1.00  0.00     0.074 A 
ATOM     36  C   UNL A   1      43.119  27.483  31.937  1.00  0.00     0.031 C 
ATOM     37  C   UNL A   1      42.934  28.902  33.962  1.00  0.00     0.037 A 
BRANCH  24  38
ATOM     38  C   UNL A   1      39.684  33.501  36.497  1.00  0.00     0.064 A 
ATOM     39  C   UNL A   1      40.272  34.771  36.582  1.00  0.00     0.173 A 
ATOM     40  C   UNL A   1      38.825  33.107  37.535  1.00  0.00     0.173 A 
ATOM     41  F   UNL A   1      41.112  35.191  35.622  1.00  0.00    -0.203 F 
ATOM     42  C   UNL A   1      40.020  35.609  37.666  1.00  0.00     0.198 A 
ATOM     43  C   UNL A   1      38.555  33.956  38.606  1.00  0.00     0.198 A 
ATOM     44  F   UNL A   1      38.231  31.905  37.503  1.00  0.00    -0.203 F 
ATOM     45  F   UNL A   1      40.619  36.805  37.740  1.00  0.00    -0.200 F 
ATOM     46  C   UNL A   1      39.155  35.205  38.673  1.00  0.00     0.200 A 
ATOM     47  F   UNL A   1      37.710  33.570  39.572  1.00  0.00    -0.200 F 
ATOM     48  F   UNL A   1      38.904  36.017  39.708  1.00  0.00    -0.200 F 
ENDBRANCH  24  38
BRANCH  25  49
ATOM     49  C   UNL A   1      40.850  27.774  28.390  1.00  0.00     0.064 A 
ATOM     50  C   UNL A   1      40.195  26.543  28.260  1.00  0.00     0.173 A 
ATOM     51  C   UNL A   1      41.676  28.189  27.334  1.00  0.00     0.173 A 
ATOM     52  F   UNL A   1      39.409  26.095  29.250  1.00  0.00    -0.203 F 
ATOM     53  C   UNL A   1      40.375  25.749  27.129  1.00  0.00     0.198 A 
ATOM     54  C   UNL A   1      41.827  27.411  26.190  1.00  0.00     0.198 A 
ATOM     55  F   UNL A   1      42.319  29.363  27.405  1.00  0.00    -0.203 F 
ATOM     56  F   UNL A   1      39.773  24.554  27.050  1.00  0.00    -0.200 F 
ATOM     57  C   UNL A   1      41.185  26.187  26.092  1.00  0.00     0.200 A 
ATOM     58  F   UNL A   1      42.595  27.849  25.182  1.00  0.00    -0.200 F 
ATOM     59  F   UNL A   1      41.349  25.427  25.001  1.00  0.00    -0.200 F 
ENDBRANCH  25  49
BRANCH  37  60
ATOM     60  C   UNL A   1      44.081  28.126  34.540  1.00  0.00     0.064 A 
ATOM     61  C   UNL A   1      43.870  26.943  35.264  1.00  0.00     0.173 A 
ATOM     62  C   UNL A   1      45.400  28.568  34.370  1.00  0.00     0.173 A 
ATOM     63  F   UNL A   1      42.624  26.489  35.468  1.00  0.00    -0.203 F 
ATOM     64  C   UNL A   1      44.937  26.251  35.829  1.00  0.00     0.198 A 
ATOM     65  C   UNL A   1      46.467  27.857  34.912  1.00  0.00     0.198 A 
ATOM     66  F   UNL A   1      45.654  29.691  33.681  1.00  0.00    -0.203 F 
ATOM     67  F   UNL A   1      44.707  25.156  36.569  1.00  0.00    -0.200 F 
ATOM     68  C   UNL A   1      46.235  26.706  35.649  1.00  0.00     0.200 A 
ATOM     69  F   UNL A   1      47.722  28.293  34.730  1.00  0.00    -0.200 F 
ATOM     70  F   UNL A   1      47.261  26.042  36.199  1.00  0.00    -0.200 F 
ENDBRANCH  37  60
ENDBRANCH  11  12
ENDBRANCH   4   6
ENDBRANCH   1   2
BRANCH   1  71
ATOM     71  C   UNL A   1      31.328  31.844  26.502  1.00  0.00     0.042 C 
BRANCH  71  72
ATOM     72  C   UNL A   1      31.489  30.355  26.241  1.00  0.00     0.118 C 
BRANCH  72  73
ATOM     73  N   UNL A   1      32.150  30.078  24.970  1.00  0.00    -0.352 N 
ATOM     74  C   UNL A   1      32.408  28.889  24.349  1.00  0.00     0.253 C 
ATOM     75  H   UNL A   1      32.458  30.875  24.481  1.00  0.00     0.163 HD
ATOM     76  O   UNL A   1      33.072  28.854  23.314  1.00  0.00    -0.269 OA
BRANCH  74  77
ATOM     77  C   UNL A   1      31.888  27.630  24.897  1.00  0.00     0.070 A 
ATOM     78  C   UNL A   1      32.622  26.960  25.886  1.00  0.00     0.019 A 
ATOM     79  C   UNL A   1      30.650  27.117  24.501  1.00  0.00     0.158 A 
ATOM     80  C   UNL A   1      32.146  25.761  26.402  1.00  0.00     0.042 A 
ATOM     81  N   UNL A   1      30.178  25.935  25.017  1.00  0.00    -0.231 NA
ATOM     82  C   UNL A   1      30.933  25.297  25.934  1.00  0.00     0.129 A 
ATOM     83  Cl  UNL A   1      30.278  23.820  26.501  1.00  0.00    -0.062 Cl
BRANCH  79  84
ATOM     84  C   UNL A   1      29.778  27.856  23.497  1.00  0.00     0.434 C 
ATOM     85  F   UNL A   1      28.544  27.286  23.351  1.00  0.00    -0.164 F 
ATOM     86  F   UNL A   1      29.535  29.151  23.844  1.00  0.00    -0.164 F 
ATOM     87  F   UNL A   1      30.294  27.877  22.233  1.00  0.00    -0.164 F 
ENDBRANCH  79  84
ENDBRANCH  74  77
ENDBRANCH  72  73
ENDBRANCH  71  72
ENDBRANCH   1  71
TORSDOF 11
ENDMDL
MODEL 2
REMARK VINA RESULT:     -11.8      0.240      1.747
REMARK SMILES O=C(NCCCNC(=O)c1ccc(Cl)nc1C(F)(F)F)c1ccc(-c2c3nc(c(-c4c(F)c(F)c(F)c(F)c4F)c4ccc([nH]4)c(-c4c(F)c(F)c(F)c(F)c4F)c4nc(c(-c5c(F)c(F)c(F)c(F)c5F)c5ccc2[nH]5)C=C4)C=C3)cc1
REMARK SMILES IDX 4 1 3 2 1 3 2 4 21 6 22 7 83 8 23 9 82 10 24 11 25 12 26 13
REMARK SMILES IDX 76 14 27 15 81 16 75 17 77 18 28 19 80 20 74 21 73 22 29 24
REMARK SMILES IDX 61 25 41 26 60 27 42 28 45 29 59 30 78 31 43 32 44 33 58 35
REMARK SMILES IDX 79 36 46 37 30 38 31 39 39 40 32 41 33 42 37 43 40 44 34 45
REMARK SMILES IDX 35 46 38 47 36 48 62 49 63 50 71 51 64 52 65 53 69 54 72 55
REMARK SMILES IDX 66 56 67 57 70 58 68 59 47 60 48 61 56 62 49 63 50 64 54 65
REMARK SMILES IDX 57 66 51 67 52 68 55 69 53 70 5 71 6 72 7 73 8 74 9 76 10 77
REMARK SMILES IDX 11 78 16 79 12 80 15 81 13 82 14 83 17 84 18 85 19 86 20 87
REMARK H PARENT 3 5 77 23 45 34 7 75
REMARK Flexibility Score: inf
ROOT
ATOM      1  C   UNL A   1      32.669  32.536  26.900  1.00  0.00     0.118 C 
ENDROOT
BRANCH   1   2
ATOM      2  N   UNL A   1      32.455  33.820  27.561  1.00  0.00    -0.352 N 
ATOM      3  O   UNL A   1      32.661  35.441  29.107  1.00  0.00    -0.269 OA
ATOM      4  C   UNL A   1      33.116  34.415  28.610  1.00  0.00     0.251 C 
ATOM      5  H   UNL A   1      31.711  34.350  27.194  1.00  0.00     0.163 HD
BRANCH   4   6
ATOM      6  C   UNL A   1      34.353  33.819  29.164  1.00  0.00     0.039 A 
ATOM      7  C   UNL A   1      34.298  32.702  29.995  1.00  0.00     0.014 A 
ATOM      8  C   UNL A   1      35.596  34.368  28.827  1.00  0.00     0.014 A 
ATOM      9  C   UNL A   1      35.444  32.267  30.645  1.00  0.00     0.010 A 
ATOM     10  C   UNL A   1      36.770  33.846  29.385  1.00  0.00     0.010 A 
ATOM     11  C   UNL A   1      36.699  32.814  30.332  1.00  0.00    -0.014 A 
BRANCH  11  12
ATOM     12  C   UNL A   1      37.905  32.221  30.970  1.00  0.00     0.031 A 
ATOM     13  C   UNL A   1      38.303  32.563  32.378  1.00  0.00     0.074 A 
ATOM     14  C   UNL A   1      38.594  31.290  30.279  1.00  0.00     0.049 A 
ATOM     15  N   UNL A   1      39.265  32.051  33.107  1.00  0.00    -0.248 NA
ATOM     16  C   UNL A   1      37.537  33.616  33.059  1.00  0.00     0.031 C 
ATOM     17  C   UNL A   1      38.319  30.899  28.894  1.00  0.00     0.029 A 
ATOM     18  N   UNL A   1      39.631  30.474  30.653  1.00  0.00    -0.354 N 
ATOM     19  C   UNL A   1      39.226  32.724  34.321  1.00  0.00     0.074 A 
ATOM     20  C   UNL A   1      38.165  33.704  34.224  1.00  0.00     0.031 C 
ATOM     21  C   UNL A   1      39.108  29.870  28.560  1.00  0.00     0.029 A 
ATOM     22  C   UNL A   1      39.993  29.574  29.680  1.00  0.00     0.049 A 
ATOM     23  H   UNL A   1      40.072  30.527  31.530  1.00  0.00     0.167 HD
ATOM     24  C   UNL A   1      39.997  32.531  35.419  1.00  0.00     0.037 A 
ATOM     25  C   UNL A   1      40.938  28.616  29.683  1.00  0.00     0.037 A 
ATOM     26  C   UNL A   1      41.045  31.545  35.515  1.00  0.00     0.049 A 
ATOM     27  C   UNL A   1      41.767  28.419  30.918  1.00  0.00     0.074 A 
ATOM     28  C   UNL A   1      41.877  31.269  36.587  1.00  0.00     0.029 A 
ATOM     29  N   UNL A   1      41.402  30.669  34.499  1.00  0.00    -0.354 N 
ATOM     30  N   UNL A   1      41.703  29.052  32.064  1.00  0.00    -0.248 NA
ATOM     31  C   UNL A   1      42.800  27.378  30.860  1.00  0.00     0.031 C 
ATOM     32  C   UNL A   1      42.761  30.252  36.208  1.00  0.00     0.029 A 
ATOM     33  C   UNL A   1      42.449  29.861  34.915  1.00  0.00     0.049 A 
ATOM     34  H   UNL A   1      40.974  30.627  33.614  1.00  0.00     0.167 HD
ATOM     35  C   UNL A   1      42.687  28.489  32.863  1.00  0.00     0.074 A 
ATOM     36  C   UNL A   1      43.303  27.434  32.084  1.00  0.00     0.031 C 
ATOM     37  C   UNL A   1      43.058  28.826  34.122  1.00  0.00     0.037 A 
BRANCH  24  38
ATOM     38  C   UNL A   1      39.745  33.403  36.615  1.00  0.00     0.064 A 
ATOM     39  C   UNL A   1      40.394  34.637  36.772  1.00  0.00     0.173 A 
ATOM     40  C   UNL A   1      38.796  33.035  37.580  1.00  0.00     0.173 A 
ATOM     41  F   UNL A   1      41.320  35.030  35.884  1.00  0.00    -0.203 F 
ATOM     42  C   UNL A   1      40.112  35.463  37.858  1.00  0.00     0.198 A 
ATOM     43  C   UNL A   1      38.497  33.874  38.651  1.00  0.00     0.198 A 
ATOM     44  F   UNL A   1      38.142  31.868  37.476  1.00  0.00    -0.203 F 
ATOM     45  F   UNL A   1      40.767  36.622  38.005  1.00  0.00    -0.200 F 
ATOM     46  C   UNL A   1      39.157  35.085  38.792  1.00  0.00     0.200 A 
ATOM     47  F   UNL A   1      37.566  33.513  39.546  1.00  0.00    -0.200 F 
ATOM     48  F   UNL A   1      38.877  35.887  39.828  1.00  0.00    -0.200 F 
ENDBRANCH  24  38
BRANCH  25  49
ATOM     49  C   UNL A   1      41.152  27.786  28.469  1.00  0.00     0.064 A 
ATOM     50  C   UNL A   1      42.050  28.179  27.467  1.00  0.00     0.173 A 
ATOM     51  C   UNL A   1      40.466  26.575  28.293  1.00  0.00     0.173 A 
ATOM     52  F   UNL A   1      42.716  29.337  27.581  1.00  0.00    -0.203 F 
ATOM     53  C   UNL A   1      42.238  27.401  26.327  1.00  0.00     0.198 A 
ATOM     54  C   UNL A   1      40.681  25.782  27.170  1.00  0.00     0.198 A 
ATOM     55  F   UNL A   1      39.602  26.150  29.227  1.00  0.00    -0.203 F 
ATOM     56  F   UNL A   1      43.067  27.821  25.362  1.00  0.00    -0.200 F 
ATOM     57  C   UNL A   1      41.559  26.200  26.182  1.00  0.00     0.200 A 
ATOM     58  F   UNL A   1      40.038  24.612  27.045  1.00  0.00    -0.200 F 
ATOM     59  F   UNL A   1      41.748  25.449  25.089  1.00  0.00    -0.200 F 
ENDBRANCH  25  49
BRANCH  37  60
ATOM     60  C   UNL A   1      44.182  28.036  34.725  1.00  0.00     0.064 A 
ATOM     61  C   UNL A   1      45.515  28.455  34.604  1.00  0.00     0.173 A 
ATOM     62  C   UNL A   1      43.925  26.850  35.428  1.00  0.00     0.173 A 
ATOM     63  F   UNL A   1      45.812  29.573  33.926  1.00  0.00    -0.203 F 
ATOM     64  C   UNL A   1      46.554  27.695  35.133  1.00  0.00     0.198 A 
ATOM     65  C   UNL A   1      44.964  26.108  35.980  1.00  0.00     0.198 A 
ATOM     66  F   UNL A   1      42.666  26.410  35.575  1.00  0.00    -0.203 F 
ATOM     67  F   UNL A   1      47.825  28.083  34.953  1.00  0.00    -0.200 F 
ATOM     68  C   UNL A   1      46.278  26.524  35.824  1.00  0.00     0.200 A 
ATOM     69  F   UNL A   1      44.696  24.982  36.656  1.00  0.00    -0.200 F 
ATOM     70  F   UNL A   1      47.280  25.790  36.328  1.00  0.00    -0.200 F 
ENDBRANCH  37  60
ENDBRANCH  11  12
ENDBRANCH   4   6
ENDBRANCH   1   2
BRANCH   1  71
ATOM     71  C   UNL A   1      31.374  31.817  26.552  1.00  0.00     0.042 C 
BRANCH  71  72
ATOM     72  C   UNL A   1      31.544  30.333  26.271  1.00  0.00     0.118 C 
BRANCH  72  73
ATOM     73  N   UNL A   1      32.154  30.076  24.970  1.00  0.00    -0.352 N 
ATOM     74  C   UNL A   1      32.384  28.897  24.320  1.00  0.00     0.253 C 
ATOM     75  H   UNL A   1      32.445  30.881  24.484  1.00  0.00     0.163 HD
ATOM     76  O   UNL A   1      33.007  28.878  23.259  1.00  0.00    -0.269 OA
BRANCH  74  77
ATOM     77  C   UNL A   1      31.882  27.630  24.866  1.00  0.00     0.070 A 
ATOM     78  C   UNL A   1      32.626  26.970  25.854  1.00  0.00     0.019 A 
ATOM     79  C   UNL A   1      30.652  27.099  24.470  1.00  0.00     0.158 A 
ATOM     80  C   UNL A   1      32.167  25.763  26.369  1.00  0.00     0.042 A 
ATOM     81  N   UNL A   1      30.197  25.911  24.984  1.00  0.00    -0.231 NA
ATOM     82  C   UNL A   1      30.961  25.282  25.900  1.00  0.00     0.129 A 
ATOM     83  Cl  UNL A   1      30.327  23.796  26.466  1.00  0.00    -0.062 Cl
BRANCH  79  84
ATOM     84  C   UNL A   1      29.770  27.828  23.466  1.00  0.00     0.434 C 
ATOM     85  F   UNL A   1      28.532  27.259  23.343  1.00  0.00    -0.164 F 
ATOM     86  F   UNL A   1      29.534  29.128  23.798  1.00  0.00    -0.164 F 
ATOM     87  F   UNL A   1      30.270  27.829  22.196  1.00  0.00    -0.164 F 
ENDBRANCH  79  84
ENDBRANCH  74  77
ENDBRANCH  72  73
ENDBRANCH  71  72
ENDBRANCH   1  71
TORSDOF 11
ENDMDL
MODEL 3
REMARK VINA RESULT:     -11.8      2.290      3.353
REMARK SMILES O=C(NCCCNC(=O)c1ccc(Cl)nc1C(F)(F)F)c1ccc(-c2c3nc(c(-c4c(F)c(F)c(F)c(F)c4F)c4ccc([nH]4)c(-c4c(F)c(F)c(F)c(F)c4F)c4nc(c(-c5c(F)c(F)c(F)c(F)c5F)c5ccc2[nH]5)C=C4)C=C3)cc1
REMARK SMILES IDX 4 1 3 2 1 3 2 4 21 6 22 7 83 8 23 9 82 10 24 11 25 12 26 13
REMARK SMILES IDX 76 14 27 15 81 16 75 17 77 18 28 19 80 20 74 21 73 22 29 24
REMARK SMILES IDX 61 25 41 26 60 27 42 28 45 29 59 30 78 31 43 32 44 33 58 35
REMARK SMILES IDX 79 36 46 37 30 38 31 39 39 40 32 41 33 42 37 43 40 44 34 45
REMARK SMILES IDX 35 46 38 47 36 48 62 49 63 50 71 51 64 52 65 53 69 54 72 55
REMARK SMILES IDX 66 56 67 57 70 58 68 59 47 60 48 61 56 62 49 63 50 64 54 65
REMARK SMILES IDX 57 66 51 67 52 68 55 69 53 70 5 71 6 72 7 73 8 74 9 76 10 77
REMARK SMILES IDX 11 78 16 79 12 80 15 81 13 82 14 83 17 84 18 85 19 86 20 87
REMARK H PARENT 3 5 77 23 45 34 7 75
REMARK Flexibility Score: inf
ROOT
ATOM      1  C   UNL A   1      33.234  29.148  25.499  1.00  0.00     0.118 C 
ENDROOT
BRANCH   1   2
ATOM      2  N   UNL A   1      32.758  30.451  25.953  1.00  0.00    -0.352 N 
ATOM      3  O   UNL A   1      32.574  32.280  27.251  1.00  0.00    -0.269 OA
ATOM      4  C   UNL A   1      33.231  31.293  26.933  1.00  0.00     0.251 C 
ATOM      5  H   UNL A   1      31.964  30.785  25.477  1.00  0.00     0.163 HD
BRANCH   4   6
ATOM      6  C   UNL A   1      34.508  31.008  27.627  1.00  0.00     0.039 A 
ATOM      7  C   UNL A   1      34.769  29.746  28.154  1.00  0.00     0.014 A 
ATOM      8  C   UNL A   1      35.477  32.013  27.730  1.00  0.00     0.014 A 
ATOM      9  C   UNL A   1      35.886  29.548  28.951  1.00  0.00     0.010 A 
ATOM     10  C   UNL A   1      36.667  31.773  28.428  1.00  0.00     0.010 A 
ATOM     11  C   UNL A   1      36.864  30.548  29.080  1.00  0.00    -0.014 A 
BRANCH  11  12
ATOM     12  C   UNL A   1      38.099  30.231  29.847  1.00  0.00     0.031 A 
ATOM     13  C   UNL A   1      38.286  30.682  31.268  1.00  0.00     0.074 A 
ATOM     14  C   UNL A   1      39.024  29.444  29.260  1.00  0.00     0.049 A 
ATOM     15  N   UNL A   1      39.258  30.397  32.099  1.00  0.00    -0.248 NA
ATOM     16  C   UNL A   1      37.261  31.572  31.832  1.00  0.00     0.031 C 
ATOM     17  C   UNL A   1      38.966  28.971  27.873  1.00  0.00     0.029 A 
ATOM     18  N   UNL A   1      40.165  28.868  29.757  1.00  0.00    -0.354 N 
ATOM     19  C   UNL A   1      38.970  31.077  33.275  1.00  0.00     0.074 A 
ATOM     20  C   UNL A   1      37.747  31.816  33.043  1.00  0.00     0.031 C 
ATOM     21  C   UNL A   1      39.975  28.118  27.656  1.00  0.00     0.029 A 
ATOM     22  C   UNL A   1      40.792  28.037  28.860  1.00  0.00     0.049 A 
ATOM     23  H   UNL A   1      40.501  29.032  30.667  1.00  0.00     0.167 HD
ATOM     24  C   UNL A   1      39.656  31.074  34.443  1.00  0.00     0.037 A 
ATOM     25  C   UNL A   1      41.906  27.294  28.987  1.00  0.00     0.037 A 
ATOM     26  C   UNL A   1      40.868  30.327  34.673  1.00  0.00     0.049 A 
ATOM     27  C   UNL A   1      42.638  27.303  30.297  1.00  0.00     0.074 A 
ATOM     28  C   UNL A   1      41.634  30.254  35.824  1.00  0.00     0.029 A 
ATOM     29  N   UNL A   1      41.489  29.518  33.731  1.00  0.00    -0.354 N 
ATOM     30  N   UNL A   1      42.339  27.937  31.405  1.00  0.00    -0.248 NA
ATOM     31  C   UNL A   1      43.860  26.494  30.375  1.00  0.00     0.031 C 
ATOM     32  C   UNL A   1      42.737  29.431  35.569  1.00  0.00     0.029 A 
ATOM     33  C   UNL A   1      42.634  28.953  34.272  1.00  0.00     0.049 A 
ATOM     34  H   UNL A   1      41.164  29.367  32.815  1.00  0.00     0.167 HD
ATOM     35  C   UNL A   1      43.337  27.608  32.310  1.00  0.00     0.074 A 
ATOM     36  C   UNL A   1      44.224  26.683  31.634  1.00  0.00     0.031 C 
ATOM     37  C   UNL A   1      43.511  28.045  33.581  1.00  0.00     0.037 A 
BRANCH  24  38
ATOM     38  C   UNL A   1      39.122  31.906  35.573  1.00  0.00     0.064 A 
ATOM     39  C   UNL A   1      38.292  31.356  36.561  1.00  0.00     0.173 A 
ATOM     40  C   UNL A   1      39.499  33.251  35.709  1.00  0.00     0.173 A 
ATOM     41  F   UNL A   1      37.891  30.078  36.471  1.00  0.00    -0.203 F 
ATOM     42  C   UNL A   1      37.847  32.124  37.634  1.00  0.00     0.198 A 
ATOM     43  C   UNL A   1      39.074  34.010  36.797  1.00  0.00     0.198 A 
ATOM     44  F   UNL A   1      40.296  33.826  34.796  1.00  0.00    -0.203 F 
ATOM     45  F   UNL A   1      37.028  31.586  38.548  1.00  0.00    -0.200 F 
ATOM     46  C   UNL A   1      38.245  33.448  37.757  1.00  0.00     0.200 A 
ATOM     47  F   UNL A   1      39.469  35.285  36.920  1.00  0.00    -0.200 F 
ATOM     48  F   UNL A   1      37.828  34.181  38.797  1.00  0.00    -0.200 F 
ENDBRANCH  24  38
BRANCH  25  49
ATOM     49  C   UNL A   1      42.397  26.496  27.834  1.00  0.00     0.064 A 
ATOM     50  C   UNL A   1      43.352  27.009  26.946  1.00  0.00     0.173 A 
ATOM     51  C   UNL A   1      41.924  25.195  27.603  1.00  0.00     0.173 A 
ATOM     52  F   UNL A   1      43.822  28.254  27.115  1.00  0.00    -0.203 F 
ATOM     53  C   UNL A   1      43.800  26.260  25.861  1.00  0.00     0.198 A 
ATOM     54  C   UNL A   1      42.398  24.434  26.539  1.00  0.00     0.198 A 
ATOM     55  F   UNL A   1      41.015  24.654  28.428  1.00  0.00    -0.203 F 
ATOM     56  F   UNL A   1      44.680  26.790  25.001  1.00  0.00    -0.200 F 
ATOM     57  C   UNL A   1      43.328  24.970  25.662  1.00  0.00     0.200 A 
ATOM     58  F   UNL A   1      41.954  23.182  26.363  1.00  0.00    -0.200 F 
ATOM     59  F   UNL A   1      43.767  24.247  24.624  1.00  0.00    -0.200 F 
ENDBRANCH  25  49
BRANCH  37  60
ATOM     60  C   UNL A   1      44.710  27.518  34.314  1.00  0.00     0.064 A 
ATOM     61  C   UNL A   1      44.645  26.331  35.060  1.00  0.00     0.173 A 
ATOM     62  C   UNL A   1      45.931  28.205  34.272  1.00  0.00     0.173 A 
ATOM     63  F   UNL A   1      43.494  25.649  35.144  1.00  0.00    -0.203 F 
ATOM     64  C   UNL A   1      45.751  25.872  35.768  1.00  0.00     0.198 A 
ATOM     65  C   UNL A   1      47.043  27.726  34.959  1.00  0.00     0.198 A 
ATOM     66  F   UNL A   1      46.045  29.342  33.568  1.00  0.00    -0.203 F 
ATOM     67  F   UNL A   1      45.650  24.769  36.524  1.00  0.00    -0.200 F 
ATOM     68  C   UNL A   1      46.950  26.567  35.714  1.00  0.00     0.200 A 
ATOM     69  F   UNL A   1      48.204  28.394  34.898  1.00  0.00    -0.200 F 
ATOM     70  F   UNL A   1      48.013  26.126  36.402  1.00  0.00    -0.200 F 
ENDBRANCH  37  60
ENDBRANCH  11  12
ENDBRANCH   4   6
ENDBRANCH   1   2
BRANCH   1  71
ATOM     71  C   UNL A   1      32.747  27.996  26.366  1.00  0.00     0.042 C 
BRANCH  71  72
ATOM     72  C   UNL A   1      31.797  27.045  25.657  1.00  0.00     0.118 C 
BRANCH  72  73
ATOM     73  N   UNL A   1      31.396  25.924  26.501  1.00  0.00    -0.352 N 
ATOM     74  C   UNL A   1      31.840  24.632  26.524  1.00  0.00     0.253 C 
ATOM     75  H   UNL A   1      30.694  26.131  27.158  1.00  0.00     0.163 HD
ATOM     76  O   UNL A   1      31.302  23.797  27.251  1.00  0.00    -0.269 OA
BRANCH  74  77
ATOM     77  C   UNL A   1      32.976  24.215  25.691  1.00  0.00     0.070 A 
ATOM     78  C   UNL A   1      34.280  24.399  26.173  1.00  0.00     0.019 A 
ATOM     79  C   UNL A   1      32.786  23.583  24.460  1.00  0.00     0.158 A 
ATOM     80  C   UNL A   1      35.362  24.020  25.388  1.00  0.00     0.042 A 
ATOM     81  N   UNL A   1      33.856  23.203  23.689  1.00  0.00    -0.231 NA
ATOM     82  C   UNL A   1      35.095  23.436  24.165  1.00  0.00     0.129 A 
ATOM     83  Cl  UNL A   1      36.367  22.953  23.125  1.00  0.00    -0.062 Cl
BRANCH  79  84
ATOM     84  C   UNL A   1      31.388  23.282  23.940  1.00  0.00     0.434 C 
ATOM     85  F   UNL A   1      31.403  22.605  22.751  1.00  0.00    -0.164 F 
ATOM     86  F   UNL A   1      30.653  22.506  24.784  1.00  0.00    -0.164 F 
ATOM     87  F   UNL A   1      30.646  24.399  23.684  1.00  0.00    -0.164 F 
ENDBRANCH  79  84
ENDBRANCH  74  77
ENDBRANCH  72  73
ENDBRANCH  71  72
ENDBRANCH   1  71
TORSDOF 11
ENDMDL
