MODEL 1
REMARK VINA RESULT:     -14.3      0.000      0.000
REMARK SMILES Cc1ccccc1/C=C1\SC(=O)N(CC(=O)Nc2ccccc2C(=O)NCCCNC(=O)c2ccc(-c3c4nc(c(-c5c(F)c(F)c(F)c(F)c5F)c5ccc([nH]5)c(-c5c(F)c(F)c(F)c(F)c5F)c5nc(c(-c6c(F)c(F)c(F)c(F)c6F)c6ccc3[nH]6)C=C5)C=C4)cc2)C1=O
REMARK SMILES IDX 27 1 26 2 24 3 25 4 23 6 18 7 19 8 20 9 22 10 21 11 17 12
REMARK SMILES IDX 15 13 16 14 14 16 13 17 8 18 9 19 10 20 96 21 11 22 97 23
REMARK SMILES IDX 12 24 7 25 1 26 2 27 3 28 4 29 6 30 5 31 28 32 29 33 30 34
REMARK SMILES IDX 31 35 32 37 33 38 34 39 95 40 35 41 94 42 36 43 37 44 38 45
REMARK SMILES IDX 88 46 39 47 93 48 87 49 89 50 40 51 92 52 86 53 85 54 41 56
REMARK SMILES IDX 73 57 53 58 72 59 54 60 57 61 71 62 90 63 55 64 56 65 70 67
REMARK SMILES IDX 91 68 58 69 42 70 43 71 51 72 44 73 45 74 49 75 52 76 46 77
REMARK SMILES IDX 47 78 50 79 48 80 74 81 75 82 83 83 76 84 77 85 81 86 84 87
REMARK SMILES IDX 78 88 79 89 82 90 80 91 59 92 60 93 68 94 61 95 62 96 66 97
REMARK SMILES IDX 69 98 63 99 64 100 67 101 65 102
REMARK H PARENT 26 5 17 15 30 36 89 55 57 66
REMARK Flexibility Score: inf
ROOT
ATOM      1  C   UNL A   1      36.482  23.670  24.960  1.00  0.00     0.118 C 
ENDROOT
BRANCH   1   2
ATOM      2  N   UNL A   1      35.637  23.407  26.130  1.00  0.00    -0.352 N 
ATOM      3  C   UNL A   1      34.726  22.452  26.539  1.00  0.00     0.253 C 
ATOM      4  O   UNL A   1      34.417  22.436  27.730  1.00  0.00    -0.269 OA
ATOM      5  H   UNL A   1      35.750  24.107  26.815  1.00  0.00     0.163 HD
BRANCH   3   6
ATOM      6  C   UNL A   1      34.097  21.441  25.662  1.00  0.00     0.063 A 
ATOM      7  C   UNL A   1      32.697  21.311  25.473  1.00  0.00     0.054 A 
ATOM      8  C   UNL A   1      32.221  20.168  24.788  1.00  0.00     0.027 A 
ATOM      9  C   UNL A   1      33.073  19.182  24.296  1.00  0.00     0.002 A 
ATOM     10  C   UNL A   1      34.919  20.376  25.245  1.00  0.00     0.016 A 
ATOM     11  C   UNL A   1      34.428  19.279  24.542  1.00  0.00     0.001 A 
BRANCH   7  12
ATOM     12  N   UNL A   1      31.641  22.025  26.082  1.00  0.00    -0.324 N 
ATOM     13  C   UNL A   1      30.884  23.129  25.854  1.00  0.00     0.244 C 
ATOM     14  O   UNL A   1      30.079  23.424  26.751  1.00  0.00    -0.273 OA
ATOM     15  H   UNL A   1      31.373  21.592  26.925  1.00  0.00     0.170 HD
BRANCH  13  16
ATOM     16  C   UNL A   1      30.800  23.856  24.526  1.00  0.00     0.230 C 
BRANCH  16  17
ATOM     17  N   UNL A   1      31.391  25.162  24.474  1.00  0.00    -0.259 N 
ATOM     18  C   UNL A   1      31.471  28.421  25.685  1.00  0.00     0.029 C 
ATOM     19  C   UNL A   1      31.673  27.468  24.749  1.00  0.00     0.083 C 
ATOM     20  S   UNL A   1      33.095  26.956  23.942  1.00  0.00    -0.022 SA
ATOM     21  C   UNL A   1      30.680  26.344  24.607  1.00  0.00     0.268 C 
ATOM     22  C   UNL A   1      32.687  25.276  24.064  1.00  0.00     0.294 C 
ATOM     23  O   UNL A   1      29.469  26.485  24.624  1.00  0.00    -0.268 OA
ATOM     24  O   UNL A   1      33.474  24.393  23.791  1.00  0.00    -0.261 OA
BRANCH  18  25
ATOM     25  C   UNL A   1      32.395  29.265  26.521  1.00  0.00    -0.021 A 
ATOM     26  C   UNL A   1      31.279  31.567  26.395  1.00  0.00     0.045 C 
ATOM     27  C   UNL A   1      32.384  30.652  26.731  1.00  0.00    -0.044 A 
ATOM     28  C   UNL A   1      33.482  31.326  27.313  1.00  0.00     0.004 A 
ATOM     29  C   UNL A   1      34.569  30.632  27.799  1.00  0.00     0.000 A 
ATOM     30  C   UNL A   1      33.496  28.584  27.080  1.00  0.00     0.008 A 
ATOM     31  C   UNL A   1      34.557  29.252  27.718  1.00  0.00     0.001 A 
ENDBRANCH  18  25
ENDBRANCH  16  17
ENDBRANCH  13  16
ENDBRANCH   7  12
ENDBRANCH   3   6
ENDBRANCH   1   2
BRANCH   1  32
ATOM     32  C   UNL A   1      37.626  22.697  24.679  1.00  0.00     0.042 C 
BRANCH  32  33
ATOM     33  C   UNL A   1      38.178  21.933  25.885  1.00  0.00     0.118 C 
BRANCH  33  34
ATOM     34  N   UNL A   1      39.634  21.949  26.066  1.00  0.00    -0.352 N 
ATOM     35  C   UNL A   1      40.529  22.986  26.300  1.00  0.00     0.251 C 
ATOM     36  H   UNL A   1      40.055  21.061  26.010  1.00  0.00     0.163 HD
ATOM     37  O   UNL A   1      41.729  22.719  26.334  1.00  0.00    -0.269 OA
BRANCH  35  38
ATOM     38  C   UNL A   1      40.087  24.357  26.689  1.00  0.00     0.039 A 
ATOM     39  C   UNL A   1      40.676  25.457  26.027  1.00  0.00     0.014 A 
ATOM     40  C   UNL A   1      39.369  24.578  27.854  1.00  0.00     0.014 A 
ATOM     41  C   UNL A   1      40.797  26.684  26.680  1.00  0.00     0.010 A 
ATOM     42  C   UNL A   1      39.614  25.734  28.560  1.00  0.00     0.010 A 
ATOM     43  C   UNL A   1      40.402  26.756  28.006  1.00  0.00    -0.014 A 
BRANCH  43  44
ATOM     44  C   UNL A   1      40.643  27.869  28.912  1.00  0.00     0.031 A 
ATOM     45  C   UNL A   1      39.680  28.985  28.791  1.00  0.00     0.074 A 
ATOM     46  C   UNL A   1      41.512  27.747  29.948  1.00  0.00     0.049 A 
ATOM     47  N   UNL A   1      39.735  30.075  29.463  1.00  0.00    -0.248 NA
ATOM     48  C   UNL A   1      38.590  28.979  27.809  1.00  0.00     0.031 C 
ATOM     49  C   UNL A   1      41.479  28.443  31.235  1.00  0.00     0.029 A 
ATOM     50  N   UNL A   1      42.730  27.043  29.991  1.00  0.00    -0.354 N 
ATOM     51  C   UNL A   1      38.588  30.792  29.202  1.00  0.00     0.074 A 
ATOM     52  C   UNL A   1      37.965  30.122  28.094  1.00  0.00     0.031 C 
ATOM     53  C   UNL A   1      42.691  28.355  31.817  1.00  0.00     0.029 A 
ATOM     54  C   UNL A   1      43.589  27.773  30.834  1.00  0.00     0.049 A 
ATOM     55  H   UNL A   1      42.940  26.203  29.524  1.00  0.00     0.167 HD
ATOM     56  C   UNL A   1      38.272  31.806  30.051  1.00  0.00     0.037 A 
ATOM     57  C   UNL A   1      44.737  28.327  30.354  1.00  0.00     0.037 A 
ATOM     58  C   UNL A   1      39.417  32.076  30.917  1.00  0.00     0.049 A 
ATOM     59  C   UNL A   1      44.725  29.810  30.552  1.00  0.00     0.074 A 
ATOM     60  C   UNL A   1      39.754  31.634  32.184  1.00  0.00     0.029 A 
ATOM     61  N   UNL A   1      40.583  32.571  30.341  1.00  0.00    -0.354 N 
ATOM     62  N   UNL A   1      43.629  30.514  30.599  1.00  0.00    -0.248 NA
ATOM     63  C   UNL A   1      45.932  30.603  30.725  1.00  0.00     0.031 C 
ATOM     64  C   UNL A   1      41.161  31.791  32.329  1.00  0.00     0.029 A 
ATOM     65  C   UNL A   1      41.665  32.377  31.175  1.00  0.00     0.049 A 
ATOM     66  H   UNL A   1      40.629  33.002  29.456  1.00  0.00     0.167 HD
ATOM     67  C   UNL A   1      43.954  31.824  30.780  1.00  0.00     0.074 A 
ATOM     68  C   UNL A   1      45.404  31.827  30.877  1.00  0.00     0.031 C 
ATOM     69  C   UNL A   1      43.004  32.800  30.780  1.00  0.00     0.037 A 
BRANCH  56  70
ATOM     70  C   UNL A   1      36.908  32.430  30.261  1.00  0.00     0.064 A 
ATOM     71  C   UNL A   1      36.437  33.384  29.330  1.00  0.00     0.173 A 
ATOM     72  C   UNL A   1      36.067  32.248  31.379  1.00  0.00     0.173 A 
ATOM     73  F   UNL A   1      37.117  33.655  28.207  1.00  0.00    -0.203 F 
ATOM     74  C   UNL A   1      35.262  34.117  29.526  1.00  0.00     0.198 A 
ATOM     75  C   UNL A   1      34.878  32.962  31.561  1.00  0.00     0.198 A 
ATOM     76  F   UNL A   1      36.358  31.402  32.369  1.00  0.00    -0.203 F 
ATOM     77  F   UNL A   1      34.899  35.045  28.629  1.00  0.00    -0.200 F 
ATOM     78  C   UNL A   1      34.482  33.907  30.643  1.00  0.00     0.200 A 
ATOM     79  F   UNL A   1      34.132  32.737  32.654  1.00  0.00    -0.200 F 
ATOM     80  F   UNL A   1      33.361  34.614  30.839  1.00  0.00    -0.200 F 
ENDBRANCH  56  70
BRANCH  57  81
ATOM     81  C   UNL A   1      45.236  27.630  29.134  1.00  0.00     0.064 A 
ATOM     82  C   UNL A   1      45.882  26.388  29.295  1.00  0.00     0.173 A 
ATOM     83  C   UNL A   1      44.664  27.904  27.882  1.00  0.00     0.173 A 
ATOM     84  F   UNL A   1      46.472  26.088  30.464  1.00  0.00    -0.203 F 
ATOM     85  C   UNL A   1      45.809  25.406  28.309  1.00  0.00     0.198 A 
ATOM     86  C   UNL A   1      44.592  26.914  26.901  1.00  0.00     0.198 A 
ATOM     87  F   UNL A   1      44.049  29.074  27.658  1.00  0.00    -0.203 F 
ATOM     88  F   UNL A   1      46.353  24.200  28.521  1.00  0.00    -0.200 F 
ATOM     89  C   UNL A   1      45.112  25.651  27.139  1.00  0.00     0.200 A 
ATOM     90  F   UNL A   1      43.932  27.154  25.759  1.00  0.00    -0.200 F 
ATOM     91  F   UNL A   1      44.904  24.661  26.258  1.00  0.00    -0.200 F 
ENDBRANCH  57  81
BRANCH  69  92
ATOM     92  C   UNL A   1      43.300  34.247  30.480  1.00  0.00     0.064 A 
ATOM     93  C   UNL A   1      43.454  35.229  31.476  1.00  0.00     0.173 A 
ATOM     94  C   UNL A   1      43.587  34.673  29.164  1.00  0.00     0.173 A 
ATOM     95  F   UNL A   1      43.414  34.925  32.781  1.00  0.00    -0.203 F 
ATOM     96  C   UNL A   1      43.724  36.560  31.170  1.00  0.00     0.198 A 
ATOM     97  C   UNL A   1      43.947  35.987  28.871  1.00  0.00     0.198 A 
ATOM     98  F   UNL A   1      43.568  33.825  28.127  1.00  0.00    -0.203 F 
ATOM     99  F   UNL A   1      43.767  37.468  32.155  1.00  0.00    -0.200 F 
ATOM    100  C   UNL A   1      43.975  36.939  29.868  1.00  0.00     0.200 A 
ATOM    101  F   UNL A   1      44.283  36.318  27.617  1.00  0.00    -0.200 F 
ATOM    102  F   UNL A   1      44.276  38.212  29.581  1.00  0.00    -0.200 F 
ENDBRANCH  69  92
ENDBRANCH  43  44
ENDBRANCH  35  38
ENDBRANCH  33  34
ENDBRANCH  32  33
ENDBRANCH   1  32
TORSDOF 14
ENDMDL
MODEL 2
REMARK VINA RESULT:     -13.6      1.536      3.576
REMARK SMILES Cc1ccccc1/C=C1\SC(=O)N(CC(=O)Nc2ccccc2C(=O)NCCCNC(=O)c2ccc(-c3c4nc(c(-c5c(F)c(F)c(F)c(F)c5F)c5ccc([nH]5)c(-c5c(F)c(F)c(F)c(F)c5F)c5nc(c(-c6c(F)c(F)c(F)c(F)c6F)c6ccc3[nH]6)C=C5)C=C4)cc2)C1=O
REMARK SMILES IDX 27 1 26 2 24 3 25 4 23 6 18 7 19 8 20 9 22 10 21 11 17 12
REMARK SMILES IDX 15 13 16 14 14 16 13 17 8 18 9 19 10 20 96 21 11 22 97 23
REMARK SMILES IDX 12 24 7 25 1 26 2 27 3 28 4 29 6 30 5 31 28 32 29 33 30 34
REMARK SMILES IDX 31 35 32 37 33 38 34 39 95 40 35 41 94 42 36 43 37 44 38 45
REMARK SMILES IDX 88 46 39 47 93 48 87 49 89 50 40 51 92 52 86 53 85 54 41 56
REMARK SMILES IDX 73 57 53 58 72 59 54 60 57 61 71 62 90 63 55 64 56 65 70 67
REMARK SMILES IDX 91 68 58 69 42 70 43 71 51 72 44 73 45 74 49 75 52 76 46 77
REMARK SMILES IDX 47 78 50 79 48 80 74 81 75 82 83 83 76 84 77 85 81 86 84 87
REMARK SMILES IDX 78 88 79 89 82 90 80 91 59 92 60 93 68 94 61 95 62 96 66 97
REMARK SMILES IDX 69 98 63 99 64 100 67 101 65 102
REMARK H PARENT 26 5 17 15 30 36 89 55 57 66
REMARK Flexibility Score: inf
ROOT
ATOM      1  C   UNL A   1      36.153  22.849  23.653  1.00  0.00     0.118 C 
ENDROOT
BRANCH   1   2
ATOM      2  N   UNL A   1      35.577  23.919  24.476  1.00  0.00    -0.352 N 
ATOM      3  C   UNL A   1      34.605  24.893  24.350  1.00  0.00     0.253 C 
ATOM      4  O   UNL A   1      34.218  25.443  25.380  1.00  0.00    -0.269 OA
ATOM      5  H   UNL A   1      36.002  23.952  25.364  1.00  0.00     0.163 HD
BRANCH   3   6
ATOM      6  C   UNL A   1      33.985  25.323  23.078  1.00  0.00     0.063 A 
ATOM      7  C   UNL A   1      33.509  26.636  22.828  1.00  0.00     0.054 A 
ATOM      8  C   UNL A   1      32.741  26.854  21.661  1.00  0.00     0.027 A 
ATOM      9  C   UNL A   1      32.447  25.835  20.757  1.00  0.00     0.002 A 
ATOM     10  C   UNL A   1      33.581  24.299  22.201  1.00  0.00     0.016 A 
ATOM     11  C   UNL A   1      32.854  24.547  21.039  1.00  0.00     0.001 A 
BRANCH   7  12
ATOM     12  N   UNL A   1      33.458  27.751  23.696  1.00  0.00    -0.324 N 
ATOM     13  C   UNL A   1      32.545  28.442  24.424  1.00  0.00     0.244 C 
ATOM     14  O   UNL A   1      32.973  29.450  25.007  1.00  0.00    -0.273 OA
ATOM     15  H   UNL A   1      34.354  28.143  23.806  1.00  0.00     0.170 HD
BRANCH  13  16
ATOM     16  C   UNL A   1      31.146  27.950  24.742  1.00  0.00     0.230 C 
BRANCH  16  17
ATOM     17  N   UNL A   1      31.022  26.569  25.108  1.00  0.00    -0.259 N 
ATOM     18  C   UNL A   1      31.173  23.230  24.146  1.00  0.00     0.029 C 
ATOM     19  C   UNL A   1      30.748  24.253  24.921  1.00  0.00     0.083 C 
ATOM     20  S   UNL A   1      30.889  24.533  26.606  1.00  0.00    -0.022 SA
ATOM     21  C   UNL A   1      30.470  25.594  24.293  1.00  0.00     0.268 C 
ATOM     22  C   UNL A   1      31.262  26.214  26.404  1.00  0.00     0.294 C 
ATOM     23  O   UNL A   1      29.871  25.755  23.243  1.00  0.00    -0.268 OA
ATOM     24  O   UNL A   1      31.650  26.909  27.319  1.00  0.00    -0.261 OA
BRANCH  18  25
ATOM     25  C   UNL A   1      32.076  22.052  24.390  1.00  0.00    -0.021 A 
ATOM     26  C   UNL A   1      31.925  20.792  22.165  1.00  0.00     0.045 C 
ATOM     27  C   UNL A   1      32.310  20.930  23.581  1.00  0.00    -0.044 A 
ATOM     28  C   UNL A   1      32.967  19.780  24.074  1.00  0.00     0.004 A 
ATOM     29  C   UNL A   1      33.504  19.754  25.343  1.00  0.00     0.000 A 
ATOM     30  C   UNL A   1      32.688  22.011  25.661  1.00  0.00     0.008 A 
ATOM     31  C   UNL A   1      33.399  20.890  26.124  1.00  0.00     0.001 A 
ENDBRANCH  18  25
ENDBRANCH  16  17
ENDBRANCH  13  16
ENDBRANCH   7  12
ENDBRANCH   3   6
ENDBRANCH   1   2
BRANCH   1  32
ATOM     32  C   UNL A   1      37.128  21.885  24.328  1.00  0.00     0.042 C 
BRANCH  32  33
ATOM     33  C   UNL A   1      37.448  22.161  25.799  1.00  0.00     0.118 C 
BRANCH  33  34
ATOM     34  N   UNL A   1      38.837  21.954  26.222  1.00  0.00    -0.352 N 
ATOM     35  C   UNL A   1      39.842  22.845  26.578  1.00  0.00     0.251 C 
ATOM     36  H   UNL A   1      39.108  21.008  26.259  1.00  0.00     0.163 HD
ATOM     37  O   UNL A   1      40.960  22.392  26.821  1.00  0.00    -0.269 OA
BRANCH  35  38
ATOM     38  C   UNL A   1      39.577  24.288  26.854  1.00  0.00     0.039 A 
ATOM     39  C   UNL A   1      40.282  25.248  26.097  1.00  0.00     0.014 A 
ATOM     40  C   UNL A   1      38.913  24.690  28.002  1.00  0.00     0.014 A 
ATOM     41  C   UNL A   1      40.563  26.502  26.643  1.00  0.00     0.010 A 
ATOM     42  C   UNL A   1      39.310  25.862  28.606  1.00  0.00     0.010 A 
ATOM     43  C   UNL A   1      40.205  26.731  27.961  1.00  0.00    -0.014 A 
BRANCH  43  44
ATOM     44  C   UNL A   1      40.595  27.877  28.768  1.00  0.00     0.031 A 
ATOM     45  C   UNL A   1      39.597  28.966  28.820  1.00  0.00     0.074 A 
ATOM     46  C   UNL A   1      41.663  27.808  29.603  1.00  0.00     0.049 A 
ATOM     47  N   UNL A   1      39.759  30.078  29.437  1.00  0.00    -0.248 NA
ATOM     48  C   UNL A   1      38.328  28.904  28.086  1.00  0.00     0.031 C 
ATOM     49  C   UNL A   1      41.878  28.543  30.850  1.00  0.00     0.029 A 
ATOM     50  N   UNL A   1      42.884  27.134  29.411  1.00  0.00    -0.354 N 
ATOM     51  C   UNL A   1      38.562  30.760  29.401  1.00  0.00     0.074 A 
ATOM     52  C   UNL A   1      37.743  30.042  28.465  1.00  0.00     0.031 C 
ATOM     53  C   UNL A   1      43.185  28.502  31.170  1.00  0.00     0.029 A 
ATOM     54  C   UNL A   1      43.877  27.909  30.038  1.00  0.00     0.049 A 
ATOM     55  H   UNL A   1      43.017  26.284  28.933  1.00  0.00     0.167 HD
ATOM     56  C   UNL A   1      38.399  31.793  30.270  1.00  0.00     0.037 A 
ATOM     57  C   UNL A   1      44.884  28.474  29.316  1.00  0.00     0.037 A 
ATOM     58  C   UNL A   1      39.690  32.116  30.872  1.00  0.00     0.049 A 
ATOM     59  C   UNL A   1      44.871  29.961  29.473  1.00  0.00     0.074 A 
ATOM     60  C   UNL A   1      40.295  31.723  32.053  1.00  0.00     0.029 A 
ATOM     61  N   UNL A   1      40.697  32.620  30.054  1.00  0.00    -0.354 N 
ATOM     62  N   UNL A   1      43.789  30.641  29.727  1.00  0.00    -0.248 NA
ATOM     63  C   UNL A   1      46.065  30.787  29.370  1.00  0.00     0.031 C 
ATOM     64  C   UNL A   1      41.696  31.916  31.898  1.00  0.00     0.029 A 
ATOM     65  C   UNL A   1      41.934  32.477  30.650  1.00  0.00     0.049 A 
ATOM     66  H   UNL A   1      40.547  33.023  29.168  1.00  0.00     0.167 HD
ATOM     67  C   UNL A   1      44.107  31.964  29.803  1.00  0.00     0.074 A 
ATOM     68  C   UNL A   1      45.544  32.002  29.597  1.00  0.00     0.031 C 
ATOM     69  C   UNL A   1      43.149  32.918  29.975  1.00  0.00     0.037 A 
BRANCH  56  70
ATOM     70  C   UNL A   1      37.090  32.392  30.742  1.00  0.00     0.064 A 
ATOM     71  C   UNL A   1      36.394  33.282  29.892  1.00  0.00     0.173 A 
ATOM     72  C   UNL A   1      36.519  32.250  32.025  1.00  0.00     0.173 A 
ATOM     73  F   UNL A   1      36.804  33.507  28.636  1.00  0.00    -0.203 F 
ATOM     74  C   UNL A   1      35.263  33.993  30.304  1.00  0.00     0.198 A 
ATOM     75  C   UNL A   1      35.372  32.943  32.427  1.00  0.00     0.198 A 
ATOM     76  F   UNL A   1      37.048  31.468  32.967  1.00  0.00    -0.203 F 
ATOM     77  F   UNL A   1      34.681  34.860  29.464  1.00  0.00    -0.200 F 
ATOM     78  C   UNL A   1      34.752  33.825  31.573  1.00  0.00     0.200 A 
ATOM     79  F   UNL A   1      34.889  32.758  33.666  1.00  0.00    -0.200 F 
ATOM     80  F   UNL A   1      33.674  34.513  31.975  1.00  0.00    -0.200 F 
ENDBRANCH  56  70
BRANCH  57  81
ATOM     81  C   UNL A   1      45.140  27.749  28.037  1.00  0.00     0.064 A 
ATOM     82  C   UNL A   1      45.743  26.478  28.102  1.00  0.00     0.173 A 
ATOM     83  C   UNL A   1      44.383  28.049  26.895  1.00  0.00     0.173 A 
ATOM     84  F   UNL A   1      46.502  26.151  29.161  1.00  0.00    -0.203 F 
ATOM     85  C   UNL A   1      45.459  25.498  27.153  1.00  0.00     0.198 A 
ATOM     86  C   UNL A   1      44.102  27.062  25.949  1.00  0.00     0.198 A 
ATOM     87  F   UNL A   1      43.798  29.248  26.763  1.00  0.00    -0.203 F 
ATOM     88  F   UNL A   1      45.971  24.266  27.284  1.00  0.00    -0.200 F 
ATOM     89  C   UNL A   1      44.591  25.775  26.111  1.00  0.00     0.200 A 
ATOM     90  F   UNL A   1      43.275  27.332  24.929  1.00  0.00    -0.200 F 
ATOM     91  F   UNL A   1      44.193  24.795  25.287  1.00  0.00    -0.200 F 
ENDBRANCH  57  81
BRANCH  69  92
ATOM     92  C   UNL A   1      43.335  34.360  29.581  1.00  0.00     0.064 A 
ATOM     93  C   UNL A   1      43.469  35.406  30.514  1.00  0.00     0.173 A 
ATOM     94  C   UNL A   1      43.532  34.727  28.232  1.00  0.00     0.173 A 
ATOM     95  F   UNL A   1      43.509  35.175  31.833  1.00  0.00    -0.203 F 
ATOM     96  C   UNL A   1      43.636  36.732  30.123  1.00  0.00     0.198 A 
ATOM     97  C   UNL A   1      43.790  36.042  27.850  1.00  0.00     0.198 A 
ATOM     98  F   UNL A   1      43.521  33.821  27.245  1.00  0.00    -0.203 F 
ATOM     99  F   UNL A   1      43.665  37.695  31.053  1.00  0.00    -0.200 F 
ATOM    100  C   UNL A   1      43.802  37.050  28.790  1.00  0.00     0.200 A 
ATOM    101  F   UNL A   1      44.046  36.321  26.565  1.00  0.00    -0.200 F 
ATOM    102  F   UNL A   1      44.004  38.320  28.420  1.00  0.00    -0.200 F 
ENDBRANCH  69  92
ENDBRANCH  43  44
ENDBRANCH  35  38
ENDBRANCH  33  34
ENDBRANCH  32  33
ENDBRANCH   1  32
TORSDOF 14
ENDMDL
MODEL 3
REMARK VINA RESULT:     -13.6      3.321      9.226
REMARK SMILES Cc1ccccc1/C=C1\SC(=O)N(CC(=O)Nc2ccccc2C(=O)NCCCNC(=O)c2ccc(-c3c4nc(c(-c5c(F)c(F)c(F)c(F)c5F)c5ccc([nH]5)c(-c5c(F)c(F)c(F)c(F)c5F)c5nc(c(-c6c(F)c(F)c(F)c(F)c6F)c6ccc3[nH]6)C=C5)C=C4)cc2)C1=O
REMARK SMILES IDX 27 1 26 2 24 3 25 4 23 6 18 7 19 8 20 9 22 10 21 11 17 12
REMARK SMILES IDX 15 13 16 14 14 16 13 17 8 18 9 19 10 20 96 21 11 22 97 23
REMARK SMILES IDX 12 24 7 25 1 26 2 27 3 28 4 29 6 30 5 31 28 32 29 33 30 34
REMARK SMILES IDX 31 35 32 37 33 38 34 39 95 40 35 41 94 42 36 43 37 44 38 45
REMARK SMILES IDX 88 46 39 47 93 48 87 49 89 50 40 51 92 52 86 53 85 54 41 56
REMARK SMILES IDX 73 57 53 58 72 59 54 60 57 61 71 62 90 63 55 64 56 65 70 67
REMARK SMILES IDX 91 68 58 69 42 70 43 71 51 72 44 73 45 74 49 75 52 76 46 77
REMARK SMILES IDX 47 78 50 79 48 80 74 81 75 82 83 83 76 84 77 85 81 86 84 87
REMARK SMILES IDX 78 88 79 89 82 90 80 91 59 92 60 93 68 94 61 95 62 96 66 97
REMARK SMILES IDX 69 98 63 99 64 100 67 101 65 102
REMARK H PARENT 26 5 17 15 30 36 89 55 57 66
REMARK Flexibility Score: inf
ROOT
ATOM      1  C   UNL A   1      33.527  29.454  26.781  1.00  0.00     0.118 C 
ENDROOT
BRANCH   1   2
ATOM      2  N   UNL A   1      34.016  29.011  25.470  1.00  0.00    -0.352 N 
ATOM      3  C   UNL A   1      33.508  28.829  24.198  1.00  0.00     0.253 C 
ATOM      4  O   UNL A   1      34.316  28.692  23.280  1.00  0.00    -0.269 OA
ATOM      5  H   UNL A   1      34.973  28.779  25.508  1.00  0.00     0.163 HD
BRANCH   3   6
ATOM      6  C   UNL A   1      32.072  28.791  23.849  1.00  0.00     0.063 A 
ATOM      7  C   UNL A   1      31.518  27.954  22.846  1.00  0.00     0.054 A 
ATOM      8  C   UNL A   1      30.175  28.176  22.461  1.00  0.00     0.027 A 
ATOM      9  C   UNL A   1      29.388  29.175  23.032  1.00  0.00     0.002 A 
ATOM     10  C   UNL A   1      31.284  29.855  24.328  1.00  0.00     0.016 A 
ATOM     11  C   UNL A   1      29.952  30.030  23.957  1.00  0.00     0.001 A 
BRANCH   7  12
ATOM     12  N   UNL A   1      32.168  27.065  21.961  1.00  0.00    -0.324 N 
ATOM     13  C   UNL A   1      32.466  25.744  21.870  1.00  0.00     0.244 C 
ATOM     14  O   UNL A   1      33.152  25.413  20.890  1.00  0.00    -0.273 OA
ATOM     15  H   UNL A   1      32.507  27.549  21.173  1.00  0.00     0.170 HD
BRANCH  13  16
ATOM     16  C   UNL A   1      31.843  24.660  22.728  1.00  0.00     0.230 C 
BRANCH  16  17
ATOM     17  N   UNL A   1      32.694  24.054  23.711  1.00  0.00    -0.259 N 
ATOM     18  C   UNL A   1      35.534  22.172  24.406  1.00  0.00     0.029 C 
ATOM     19  C   UNL A   1      34.302  22.656  24.676  1.00  0.00     0.083 C 
ATOM     20  S   UNL A   1      33.716  23.599  25.981  1.00  0.00    -0.022 SA
ATOM     21  C   UNL A   1      33.307  22.822  23.557  1.00  0.00     0.268 C 
ATOM     22  C   UNL A   1      32.748  24.608  24.957  1.00  0.00     0.294 C 
ATOM     23  O   UNL A   1      33.112  21.999  22.677  1.00  0.00    -0.268 OA
ATOM     24  O   UNL A   1      32.215  25.622  25.357  1.00  0.00    -0.261 OA
BRANCH  18  25
ATOM     25  C   UNL A   1      36.894  22.407  25.006  1.00  0.00    -0.021 A 
ATOM     26  C   UNL A   1      37.956  20.081  24.855  1.00  0.00     0.045 C 
ATOM     27  C   UNL A   1      37.900  21.480  25.314  1.00  0.00    -0.044 A 
ATOM     28  C   UNL A   1      39.004  21.822  26.130  1.00  0.00     0.004 A 
ATOM     29  C   UNL A   1      39.194  23.115  26.568  1.00  0.00     0.000 A 
ATOM     30  C   UNL A   1      37.150  23.730  25.424  1.00  0.00     0.008 A 
ATOM     31  C   UNL A   1      38.284  24.080  26.179  1.00  0.00     0.001 A 
ENDBRANCH  18  25
ENDBRANCH  16  17
ENDBRANCH  13  16
ENDBRANCH   7  12
ENDBRANCH   3   6
ENDBRANCH   1   2
BRANCH   1  32
ATOM     32  C   UNL A   1      34.564  29.906  27.808  1.00  0.00     0.042 C 
BRANCH  32  33
ATOM     33  C   UNL A   1      35.086  31.338  27.662  1.00  0.00     0.118 C 
BRANCH  33  34
ATOM     34  N   UNL A   1      34.278  32.399  28.273  1.00  0.00    -0.352 N 
ATOM     35  C   UNL A   1      34.467  33.169  29.414  1.00  0.00     0.251 C 
ATOM     36  H   UNL A   1      33.448  32.602  27.785  1.00  0.00     0.163 HD
ATOM     37  O   UNL A   1      33.574  33.950  29.741  1.00  0.00    -0.269 OA
BRANCH  35  38
ATOM     38  C   UNL A   1      35.768  33.222  30.143  1.00  0.00     0.039 A 
ATOM     39  C   UNL A   1      36.872  33.811  29.489  1.00  0.00     0.014 A 
ATOM     40  C   UNL A   1      35.987  32.459  31.279  1.00  0.00     0.014 A 
ATOM     41  C   UNL A   1      38.168  33.392  29.790  1.00  0.00     0.010 A 
ATOM     42  C   UNL A   1      37.243  31.933  31.478  1.00  0.00     0.010 A 
ATOM     43  C   UNL A   1      38.322  32.338  30.675  1.00  0.00    -0.014 A 
BRANCH  43  44
ATOM     44  C   UNL A   1      39.559  31.623  30.950  1.00  0.00     0.031 A 
ATOM     45  C   UNL A   1      39.730  30.366  30.191  1.00  0.00     0.074 A 
ATOM     46  C   UNL A   1      40.567  32.218  31.638  1.00  0.00     0.049 A 
ATOM     47  N   UNL A   1      40.724  29.567  30.314  1.00  0.00    -0.248 NA
ATOM     48  C   UNL A   1      38.712  29.866  29.260  1.00  0.00     0.031 C 
ATOM     49  C   UNL A   1      42.004  31.960  31.530  1.00  0.00     0.029 A 
ATOM     50  N   UNL A   1      40.480  33.115  32.720  1.00  0.00    -0.354 N 
ATOM     51  C   UNL A   1      40.616  28.604  29.334  1.00  0.00     0.074 A 
ATOM     52  C   UNL A   1      39.302  28.771  28.779  1.00  0.00     0.031 C 
ATOM     53  C   UNL A   1      42.625  32.446  32.622  1.00  0.00     0.029 A 
ATOM     54  C   UNL A   1      41.586  32.854  33.552  1.00  0.00     0.049 A 
ATOM     55  H   UNL A   1      39.783  33.794  32.865  1.00  0.00     0.167 HD
ATOM     56  C   UNL A   1      41.721  27.860  29.057  1.00  0.00     0.037 A 
ATOM     57  C   UNL A   1      41.412  32.402  34.824  1.00  0.00     0.037 A 
ATOM     58  C   UNL A   1      42.721  28.088  30.098  1.00  0.00     0.049 A 
ATOM     59  C   UNL A   1      42.083  31.078  35.007  1.00  0.00     0.074 A 
ATOM     60  C   UNL A   1      43.797  28.953  30.185  1.00  0.00     0.029 A 
ATOM     61  N   UNL A   1      42.440  27.666  31.393  1.00  0.00    -0.354 N 
ATOM     62  N   UNL A   1      42.265  30.231  34.032  1.00  0.00    -0.248 NA
ATOM     63  C   UNL A   1      42.607  30.616  36.283  1.00  0.00     0.031 C 
ATOM     64  C   UNL A   1      44.104  29.113  31.565  1.00  0.00     0.029 A 
ATOM     65  C   UNL A   1      43.253  28.305  32.307  1.00  0.00     0.049 A 
ATOM     66  H   UNL A   1      41.752  27.000  31.626  1.00  0.00     0.167 HD
ATOM     67  C   UNL A   1      42.892  29.126  34.521  1.00  0.00     0.074 A 
ATOM     68  C   UNL A   1      43.107  29.423  35.926  1.00  0.00     0.031 C 
ATOM     69  C   UNL A   1      43.132  28.038  33.736  1.00  0.00     0.037 A 
BRANCH  56  70
ATOM     70  C   UNL A   1      42.008  27.089  27.785  1.00  0.00     0.064 A 
ATOM     71  C   UNL A   1      42.067  25.677  27.835  1.00  0.00     0.173 A 
ATOM     72  C   UNL A   1      42.349  27.639  26.531  1.00  0.00     0.173 A 
ATOM     73  F   UNL A   1      41.754  25.007  28.954  1.00  0.00    -0.203 F 
ATOM     74  C   UNL A   1      42.473  24.898  26.747  1.00  0.00     0.198 A 
ATOM     75  C   UNL A   1      42.729  26.857  25.436  1.00  0.00     0.198 A 
ATOM     76  F   UNL A   1      42.367  28.953  26.302  1.00  0.00    -0.203 F 
ATOM     77  F   UNL A   1      42.556  23.566  26.878  1.00  0.00    -0.200 F 
ATOM     78  C   UNL A   1      42.805  25.488  25.546  1.00  0.00     0.200 A 
ATOM     79  F   UNL A   1      43.042  27.453  24.275  1.00  0.00    -0.200 F 
ATOM     80  F   UNL A   1      43.203  24.745  24.505  1.00  0.00    -0.200 F 
ENDBRANCH  56  70
BRANCH  57  81
ATOM     81  C   UNL A   1      40.077  32.770  35.380  1.00  0.00     0.064 A 
ATOM     82  C   UNL A   1      39.158  31.735  35.641  1.00  0.00     0.173 A 
ATOM     83  C   UNL A   1      39.914  33.974  36.081  1.00  0.00     0.173 A 
ATOM     84  F   UNL A   1      39.252  30.573  34.975  1.00  0.00    -0.203 F 
ATOM     85  C   UNL A   1      38.231  31.842  36.676  1.00  0.00     0.198 A 
ATOM     86  C   UNL A   1      38.984  34.072  37.118  1.00  0.00     0.198 A 
ATOM     87  F   UNL A   1      40.744  35.004  35.866  1.00  0.00    -0.203 F 
ATOM     88  F   UNL A   1      37.427  30.810  36.967  1.00  0.00    -0.200 F 
ATOM     89  C   UNL A   1      38.187  32.987  37.451  1.00  0.00     0.200 A 
ATOM     90  F   UNL A   1      38.928  35.187  37.860  1.00  0.00    -0.200 F 
ATOM     91  F   UNL A   1      37.409  33.035  38.543  1.00  0.00    -0.200 F 
ENDBRANCH  57  81
BRANCH  69  92
ATOM     92  C   UNL A   1      43.348  26.651  34.284  1.00  0.00     0.064 A 
ATOM     93  C   UNL A   1      42.311  25.853  34.802  1.00  0.00     0.173 A 
ATOM     94  C   UNL A   1      44.602  26.011  34.172  1.00  0.00     0.173 A 
ATOM     95  F   UNL A   1      41.032  26.253  34.779  1.00  0.00    -0.203 F 
ATOM     96  C   UNL A   1      42.539  24.575  35.306  1.00  0.00     0.198 A 
ATOM     97  C   UNL A   1      44.807  24.699  34.595  1.00  0.00     0.198 A 
ATOM     98  F   UNL A   1      45.658  26.620  33.616  1.00  0.00    -0.203 F 
ATOM     99  F   UNL A   1      41.530  23.899  35.872  1.00  0.00    -0.200 F 
ATOM    100  C   UNL A   1      43.787  23.996  35.199  1.00  0.00     0.200 A 
ATOM    101  F   UNL A   1      45.997  24.116  34.395  1.00  0.00    -0.200 F 
ATOM    102  F   UNL A   1      43.994  22.751  35.647  1.00  0.00    -0.200 F 
ENDBRANCH  69  92
ENDBRANCH  43  44
ENDBRANCH  35  38
ENDBRANCH  33  34
ENDBRANCH  32  33
ENDBRANCH   1  32
TORSDOF 14
ENDMDL
