MODEL 1
REMARK VINA RESULT:     -11.8      0.000      0.000
REMARK SMILES C#CCNC(=O)[C@H](C)S(=O)(=O)c1ccc(C(=O)NCCCNC(=O)c2ccc(-c3c4nc(c(-c5c(F)c(F)c(F)c(F)c5F)c5ccc([nH]5)c(-c5c(F)c(F)c(F)c(F)c5F)c5nc(c(-c6c(F)c(F)c(F)c(F)c6F)c6ccc3[nH]6)C=C5)C=C4)cc2)cc1F
REMARK SMILES IDX 16 1 17 2 18 3 15 5 12 6 13 7 89 8 14 9 88 10 90 11 9 12
REMARK SMILES IDX 10 13 11 14 7 15 8 16 5 17 4 18 6 20 3 21 2 22 1 23 19 24
REMARK SMILES IDX 20 25 21 26 22 27 23 28 24 30 25 31 26 32 87 33 27 34 86 35
REMARK SMILES IDX 28 36 29 37 30 38 80 39 31 40 85 41 79 42 81 43 32 44 84 45
REMARK SMILES IDX 78 46 77 47 33 49 65 50 45 51 64 52 46 53 49 54 63 55 82 56
REMARK SMILES IDX 47 57 48 58 62 60 83 61 50 62 34 63 35 64 43 65 36 66 37 67
REMARK SMILES IDX 41 68 44 69 38 70 39 71 42 72 40 73 66 74 67 75 75 76 68 77
REMARK SMILES IDX 69 78 73 79 76 80 70 81 71 82 74 83 72 84 51 85 52 86 60 87
REMARK SMILES IDX 53 88 54 89 58 90 61 91 55 92 56 93 59 94 57 95
REMARK H PARENT 18 4 4 19 22 29 81 48 49 59
REMARK Flexibility Score: inf
ROOT
ATOM      1  C   UNL A   1      33.971  29.379  27.042  1.00  0.00     0.251 C 
ATOM      2  O   UNL A   1      35.042  29.345  27.648  1.00  0.00    -0.269 OA
ATOM      3  N   UNL A   1      33.087  30.373  27.368  1.00  0.00    -0.352 N 
ATOM      4  H   UNL A   1      33.402  30.969  28.085  1.00  0.00     0.163 HD
ENDROOT
BRANCH   1   5
ATOM      5  C   UNL A   1      33.711  28.379  25.969  1.00  0.00     0.042 A 
ATOM      6  C   UNL A   1      33.274  26.368  24.067  1.00  0.00     0.103 A 
ATOM      7  C   UNL A   1      32.977  26.129  25.413  1.00  0.00     0.024 A 
ATOM      8  C   UNL A   1      33.733  27.607  23.674  1.00  0.00     0.142 A 
ATOM      9  C   UNL A   1      33.225  27.124  26.362  1.00  0.00     0.015 A 
ATOM     10  C   UNL A   1      33.899  28.617  24.609  1.00  0.00     0.054 A 
ATOM     11  F   UNL A   1      34.032  27.895  22.403  1.00  0.00    -0.206 F 
BRANCH   6  12
ATOM     12  S   UNL A   1      32.885  25.169  22.842  1.00  0.00     0.192 S 
ATOM     13  O   UNL A   1      34.113  24.705  22.223  1.00  0.00    -0.223 OA
ATOM     14  O   UNL A   1      31.910  25.812  21.984  1.00  0.00    -0.223 OA
BRANCH  12  15
ATOM     15  C   UNL A   1      32.165  23.773  23.694  1.00  0.00     0.199 C 
ATOM     16  C   UNL A   1      30.673  23.662  23.334  1.00  0.00     0.036 C 
BRANCH  15  17
ATOM     17  C   UNL A   1      32.865  22.456  23.410  1.00  0.00     0.239 C 
ATOM     18  N   UNL A   1      33.907  22.006  24.171  1.00  0.00    -0.344 N 
ATOM     19  H   UNL A   1      34.099  21.042  24.120  1.00  0.00     0.164 HD
ATOM     20  O   UNL A   1      32.464  21.697  22.522  1.00  0.00    -0.274 OA
BRANCH  18  21
ATOM     21  C   UNL A   1      34.760  22.781  25.043  1.00  0.00     0.206 C 
BRANCH  21  22
ATOM     22  C   UNL A   1      34.371  22.750  26.449  1.00  0.00    -0.085 C 
ATOM     23  C   UNL A   1      33.999  22.534  27.566  1.00  0.00     0.006 C 
ENDBRANCH  21  22
ENDBRANCH  18  21
ENDBRANCH  15  17
ENDBRANCH  12  15
ENDBRANCH   6  12
ENDBRANCH   1   5
BRANCH   3  24
ATOM     24  C   UNL A   1      31.775  30.709  26.855  1.00  0.00     0.118 C 
BRANCH  24  25
ATOM     25  C   UNL A   1      31.572  32.224  26.850  1.00  0.00     0.042 C 
BRANCH  25  26
ATOM     26  C   UNL A   1      32.870  32.974  27.100  1.00  0.00     0.118 C 
BRANCH  26  27
ATOM     27  N   UNL A   1      32.609  34.317  27.603  1.00  0.00    -0.352 N 
ATOM     28  C   UNL A   1      33.051  34.924  28.746  1.00  0.00     0.251 C 
ATOM     29  H   UNL A   1      32.027  34.871  27.034  1.00  0.00     0.163 HD
ATOM     30  O   UNL A   1      32.488  35.932  29.162  1.00  0.00    -0.269 OA
BRANCH  28  31
ATOM     31  C   UNL A   1      34.206  34.364  29.470  1.00  0.00     0.039 A 
ATOM     32  C   UNL A   1      33.987  33.656  30.653  1.00  0.00     0.014 A 
ATOM     33  C   UNL A   1      35.504  34.563  28.992  1.00  0.00     0.014 A 
ATOM     34  C   UNL A   1      35.073  33.107  31.331  1.00  0.00     0.010 A 
ATOM     35  C   UNL A   1      36.572  33.933  29.613  1.00  0.00     0.010 A 
ATOM     36  C   UNL A   1      36.368  33.211  30.797  1.00  0.00    -0.014 A 
BRANCH  36  37
ATOM     37  C   UNL A   1      37.530  32.576  31.461  1.00  0.00     0.031 A 
ATOM     38  C   UNL A   1      38.243  31.435  30.794  1.00  0.00     0.074 A 
ATOM     39  C   UNL A   1      37.899  32.993  32.687  1.00  0.00     0.049 A 
ATOM     40  N   UNL A   1      39.225  30.699  31.248  1.00  0.00    -0.248 NA
ATOM     41  C   UNL A   1      37.781  31.052  29.449  1.00  0.00     0.031 C 
ATOM     42  C   UNL A   1      37.255  34.071  33.441  1.00  0.00     0.029 A 
ATOM     43  N   UNL A   1      38.899  32.558  33.520  1.00  0.00    -0.354 N 
ATOM     44  C   UNL A   1      39.491  29.772  30.252  1.00  0.00     0.074 A 
ATOM     45  C   UNL A   1      38.530  29.989  29.195  1.00  0.00     0.031 C 
ATOM     46  C   UNL A   1      37.899  34.237  34.607  1.00  0.00     0.029 A 
ATOM     47  C   UNL A   1      38.961  33.243  34.709  1.00  0.00     0.049 A 
ATOM     48  H   UNL A   1      39.514  31.826  33.286  1.00  0.00     0.167 HD
ATOM     49  C   UNL A   1      40.473  28.842  30.212  1.00  0.00     0.037 A 
ATOM     50  C   UNL A   1      39.777  33.077  35.768  1.00  0.00     0.037 A 
ATOM     51  C   UNL A   1      41.438  28.648  31.262  1.00  0.00     0.049 A 
ATOM     52  C   UNL A   1      40.827  32.002  35.717  1.00  0.00     0.074 A 
ATOM     53  C   UNL A   1      42.496  27.759  31.300  1.00  0.00     0.029 A 
ATOM     54  N   UNL A   1      41.461  29.353  32.456  1.00  0.00    -0.354 N 
ATOM     55  N   UNL A   1      41.105  31.164  34.746  1.00  0.00    -0.248 NA
ATOM     56  C   UNL A   1      41.681  31.847  36.903  1.00  0.00     0.031 C 
ATOM     57  C   UNL A   1      43.119  27.876  32.542  1.00  0.00     0.029 A 
ATOM     58  C   UNL A   1      42.499  28.895  33.250  1.00  0.00     0.049 A 
ATOM     59  H   UNL A   1      40.834  30.070  32.703  1.00  0.00     0.167 HD
ATOM     60  C   UNL A   1      42.183  30.409  35.189  1.00  0.00     0.074 A 
ATOM     61  C   UNL A   1      42.517  30.896  36.510  1.00  0.00     0.031 C 
ATOM     62  C   UNL A   1      42.833  29.404  34.556  1.00  0.00     0.037 A 
BRANCH  49  63
ATOM     63  C   UNL A   1      40.581  27.973  28.994  1.00  0.00     0.064 A 
ATOM     64  C   UNL A   1      41.354  28.379  27.894  1.00  0.00     0.173 A 
ATOM     65  C   UNL A   1      39.835  26.791  28.869  1.00  0.00     0.173 A 
ATOM     66  F   UNL A   1      42.083  29.503  27.959  1.00  0.00    -0.203 F 
ATOM     67  C   UNL A   1      41.351  27.651  26.708  1.00  0.00     0.198 A 
ATOM     68  C   UNL A   1      39.862  26.047  27.693  1.00  0.00     0.198 A 
ATOM     69  F   UNL A   1      39.090  26.351  29.895  1.00  0.00    -0.203 F 
ATOM     70  F   UNL A   1      42.057  28.087  25.655  1.00  0.00    -0.200 F 
ATOM     71  C   UNL A   1      40.607  26.485  26.608  1.00  0.00     0.200 A 
ATOM     72  F   UNL A   1      39.161  24.908  27.607  1.00  0.00    -0.200 F 
ATOM     73  F   UNL A   1      40.605  25.787  25.466  1.00  0.00    -0.200 F 
ENDBRANCH  49  63
BRANCH  50  74
ATOM     74  C   UNL A   1      39.645  33.969  36.951  1.00  0.00     0.064 A 
ATOM     75  C   UNL A   1      40.290  35.214  37.008  1.00  0.00     0.173 A 
ATOM     76  C   UNL A   1      38.879  33.583  38.060  1.00  0.00     0.173 A 
ATOM     77  F   UNL A   1      41.041  35.630  35.977  1.00  0.00    -0.203 F 
ATOM     78  C   UNL A   1      40.188  36.029  38.133  1.00  0.00     0.198 A 
ATOM     79  C   UNL A   1      38.748  34.415  39.170  1.00  0.00     0.198 A 
ATOM     80  F   UNL A   1      38.229  32.411  38.050  1.00  0.00    -0.203 F 
ATOM     81  F   UNL A   1      40.846  37.195  38.174  1.00  0.00    -0.200 F 
ATOM     82  C   UNL A   1      39.410  35.634  39.210  1.00  0.00     0.200 A 
ATOM     83  F   UNL A   1      37.972  34.041  40.197  1.00  0.00    -0.200 F 
ATOM     84  F   UNL A   1      39.293  36.427  40.283  1.00  0.00    -0.200 F 
ENDBRANCH  50  74
BRANCH  62  85
ATOM     85  C   UNL A   1      44.005  28.775  35.252  1.00  0.00     0.064 A 
ATOM     86  C   UNL A   1      45.311  29.213  34.974  1.00  0.00     0.173 A 
ATOM     87  C   UNL A   1      43.852  27.672  36.104  1.00  0.00     0.173 A 
ATOM     88  F   UNL A   1      45.513  30.257  34.156  1.00  0.00    -0.203 F 
ATOM     89  C   UNL A   1      46.417  28.552  35.499  1.00  0.00     0.198 A 
ATOM     90  C   UNL A   1      44.960  27.037  36.659  1.00  0.00     0.198 A 
ATOM     91  F   UNL A   1      42.626  27.221  36.411  1.00  0.00    -0.203 F 
ATOM     92  F   UNL A   1      47.653  28.955  35.173  1.00  0.00    -0.200 F 
ATOM     93  C   UNL A   1      46.240  27.467  36.343  1.00  0.00     0.200 A 
ATOM     94  F   UNL A   1      44.789  26.004  37.494  1.00  0.00    -0.200 F 
ATOM     95  F   UNL A   1      47.306  26.833  36.852  1.00  0.00    -0.200 F 
ENDBRANCH  62  85
ENDBRANCH  36  37
ENDBRANCH  28  31
ENDBRANCH  26  27
ENDBRANCH  25  26
ENDBRANCH  24  25
ENDBRANCH   3  24
TORSDOF 15
ENDMDL
MODEL 2
REMARK VINA RESULT:     -11.7      1.411      1.983
REMARK SMILES C#CCNC(=O)[C@H](C)S(=O)(=O)c1ccc(C(=O)NCCCNC(=O)c2ccc(-c3c4nc(c(-c5c(F)c(F)c(F)c(F)c5F)c5ccc([nH]5)c(-c5c(F)c(F)c(F)c(F)c5F)c5nc(c(-c6c(F)c(F)c(F)c(F)c6F)c6ccc3[nH]6)C=C5)C=C4)cc2)cc1F
REMARK SMILES IDX 16 1 17 2 18 3 15 5 12 6 13 7 89 8 14 9 88 10 90 11 9 12
REMARK SMILES IDX 10 13 11 14 7 15 8 16 5 17 4 18 6 20 3 21 2 22 1 23 19 24
REMARK SMILES IDX 20 25 21 26 22 27 23 28 24 30 25 31 26 32 87 33 27 34 86 35
REMARK SMILES IDX 28 36 29 37 30 38 80 39 31 40 85 41 79 42 81 43 32 44 84 45
REMARK SMILES IDX 78 46 77 47 33 49 65 50 45 51 64 52 46 53 49 54 63 55 82 56
REMARK SMILES IDX 47 57 48 58 62 60 83 61 50 62 34 63 35 64 43 65 36 66 37 67
REMARK SMILES IDX 41 68 44 69 38 70 39 71 42 72 40 73 66 74 67 75 75 76 68 77
REMARK SMILES IDX 69 78 73 79 76 80 70 81 71 82 74 83 72 84 51 85 52 86 60 87
REMARK SMILES IDX 53 88 54 89 58 90 61 91 55 92 56 93 59 94 57 95
REMARK H PARENT 18 4 4 19 22 29 81 48 49 59
REMARK Flexibility Score: inf
ROOT
ATOM      1  C   UNL A   1      30.675  29.319  24.031  1.00  0.00     0.251 C 
ATOM      2  O   UNL A   1      30.124  29.447  22.939  1.00  0.00    -0.269 OA
ATOM      3  N   UNL A   1      30.959  30.457  24.739  1.00  0.00    -0.352 N 
ATOM      4  H   UNL A   1      30.697  31.288  24.280  1.00  0.00     0.163 HD
ENDROOT
BRANCH   1   5
ATOM      5  C   UNL A   1      30.963  27.950  24.544  1.00  0.00     0.042 A 
ATOM      6  C   UNL A   1      31.324  25.355  25.540  1.00  0.00     0.103 A 
ATOM      7  C   UNL A   1      30.197  25.654  24.767  1.00  0.00     0.024 A 
ATOM      8  C   UNL A   1      32.278  26.325  25.767  1.00  0.00     0.142 A 
ATOM      9  C   UNL A   1      30.005  26.956  24.298  1.00  0.00     0.015 A 
ATOM     10  C   UNL A   1      32.123  27.593  25.230  1.00  0.00     0.054 A 
ATOM     11  F   UNL A   1      33.376  26.098  26.495  1.00  0.00    -0.206 F 
BRANCH   6  12
ATOM     12  S   UNL A   1      31.635  23.706  26.062  1.00  0.00     0.192 S 
ATOM     13  O   UNL A   1      30.744  22.807  25.351  1.00  0.00    -0.223 OA
ATOM     14  O   UNL A   1      31.526  23.742  27.507  1.00  0.00    -0.223 OA
BRANCH  12  15
ATOM     15  C   UNL A   1      33.301  23.308  25.555  1.00  0.00     0.199 C 
ATOM     16  C   UNL A   1      33.949  22.378  26.595  1.00  0.00     0.036 C 
BRANCH  15  17
ATOM     17  C   UNL A   1      33.387  22.679  24.175  1.00  0.00     0.239 C 
ATOM     18  N   UNL A   1      33.806  23.381  23.080  1.00  0.00    -0.344 N 
ATOM     19  H   UNL A   1      34.118  22.847  22.314  1.00  0.00     0.164 HD
ATOM     20  O   UNL A   1      33.154  21.478  24.004  1.00  0.00    -0.274 OA
BRANCH  18  21
ATOM     21  C   UNL A   1      33.847  24.815  22.915  1.00  0.00     0.206 C 
BRANCH  21  22
ATOM     22  C   UNL A   1      32.837  25.346  22.006  1.00  0.00    -0.085 C 
ATOM     23  C   UNL A   1      31.966  25.910  21.409  1.00  0.00     0.006 C 
ENDBRANCH  21  22
ENDBRANCH  18  21
ENDBRANCH  15  17
ENDBRANCH  12  15
ENDBRANCH   6  12
ENDBRANCH   1   5
BRANCH   3  24
ATOM     24  C   UNL A   1      31.572  30.665  26.034  1.00  0.00     0.118 C 
BRANCH  24  25
ATOM     25  C   UNL A   1      31.404  32.118  26.481  1.00  0.00     0.042 C 
BRANCH  25  26
ATOM     26  C   UNL A   1      32.613  32.621  27.250  1.00  0.00     0.118 C 
BRANCH  26  27
ATOM     27  N   UNL A   1      32.484  34.041  27.556  1.00  0.00    -0.352 N 
ATOM     28  C   UNL A   1      33.044  34.772  28.567  1.00  0.00     0.251 C 
ATOM     29  H   UNL A   1      31.907  34.550  26.942  1.00  0.00     0.163 HD
ATOM     30  O   UNL A   1      32.585  35.873  28.854  1.00  0.00    -0.269 OA
BRANCH  28  31
ATOM     31  C   UNL A   1      34.202  34.233  29.302  1.00  0.00     0.039 A 
ATOM     32  C   UNL A   1      33.984  33.523  30.484  1.00  0.00     0.014 A 
ATOM     33  C   UNL A   1      35.501  34.455  28.837  1.00  0.00     0.014 A 
ATOM     34  C   UNL A   1      35.073  32.993  31.174  1.00  0.00     0.010 A 
ATOM     35  C   UNL A   1      36.573  33.844  29.470  1.00  0.00     0.010 A 
ATOM     36  C   UNL A   1      36.371  33.120  30.652  1.00  0.00    -0.014 A 
BRANCH  36  37
ATOM     37  C   UNL A   1      37.537  32.506  31.328  1.00  0.00     0.031 A 
ATOM     38  C   UNL A   1      38.281  31.382  30.666  1.00  0.00     0.074 A 
ATOM     39  C   UNL A   1      37.882  32.926  32.560  1.00  0.00     0.049 A 
ATOM     40  N   UNL A   1      39.272  30.664  31.130  1.00  0.00    -0.248 NA
ATOM     41  C   UNL A   1      37.843  30.994  29.314  1.00  0.00     0.031 C 
ATOM     42  C   UNL A   1      37.208  33.988  33.309  1.00  0.00     0.029 A 
ATOM     43  N   UNL A   1      38.881  32.509  33.403  1.00  0.00    -0.354 N 
ATOM     44  C   UNL A   1      39.568  29.745  30.134  1.00  0.00     0.074 A 
ATOM     45  C   UNL A   1      38.616  29.947  29.066  1.00  0.00     0.031 C 
ATOM     46  C   UNL A   1      37.834  34.163  34.483  1.00  0.00     0.029 A 
ATOM     47  C   UNL A   1      38.915  33.191  34.595  1.00  0.00     0.049 A 
ATOM     48  H   UNL A   1      39.514  31.790  33.174  1.00  0.00     0.167 HD
ATOM     49  C   UNL A   1      40.570  28.836  30.103  1.00  0.00     0.037 A 
ATOM     50  C   UNL A   1      39.721  33.038  35.664  1.00  0.00     0.037 A 
ATOM     51  C   UNL A   1      41.525  28.658  31.164  1.00  0.00     0.049 A 
ATOM     52  C   UNL A   1      40.794  31.983  35.622  1.00  0.00     0.074 A 
ATOM     53  C   UNL A   1      42.600  27.790  31.212  1.00  0.00     0.029 A 
ATOM     54  N   UNL A   1      41.519  29.359  32.361  1.00  0.00    -0.354 N 
ATOM     55  N   UNL A   1      41.100  31.155  34.652  1.00  0.00    -0.248 NA
ATOM     56  C   UNL A   1      41.635  31.842  36.817  1.00  0.00     0.031 C 
ATOM     57  C   UNL A   1      43.206  27.916  32.462  1.00  0.00     0.029 A 
ATOM     58  C   UNL A   1      42.557  28.919  33.165  1.00  0.00     0.049 A 
ATOM     59  H   UNL A   1      40.875  30.062  32.602  1.00  0.00     0.167 HD
ATOM     60  C   UNL A   1      42.187  30.420  35.106  1.00  0.00     0.074 A 
ATOM     61  C   UNL A   1      42.496  30.909  36.432  1.00  0.00     0.031 C 
ATOM     62  C   UNL A   1      42.865  29.430  34.477  1.00  0.00     0.037 A 
BRANCH  49  63
ATOM     63  C   UNL A   1      40.709  27.973  28.884  1.00  0.00     0.064 A 
ATOM     64  C   UNL A   1      41.511  28.386  27.807  1.00  0.00     0.173 A 
ATOM     65  C   UNL A   1      39.968  26.792  28.734  1.00  0.00     0.173 A 
ATOM     66  F   UNL A   1      42.237  29.510  27.896  1.00  0.00    -0.203 F 
ATOM     67  C   UNL A   1      41.539  27.664  26.617  1.00  0.00     0.198 A 
ATOM     68  C   UNL A   1      40.026  26.054  27.555  1.00  0.00     0.198 A 
ATOM     69  F   UNL A   1      39.197  26.346  29.737  1.00  0.00    -0.203 F 
ATOM     70  F   UNL A   1      42.272  28.106  25.585  1.00  0.00    -0.200 F 
ATOM     71  C   UNL A   1      40.798  26.498  26.492  1.00  0.00     0.200 A 
ATOM     72  F   UNL A   1      39.328  24.915  27.444  1.00  0.00    -0.200 F 
ATOM     73  F   UNL A   1      40.827  25.806  25.346  1.00  0.00    -0.200 F 
ENDBRANCH  49  63
BRANCH  50  74
ATOM     74  C   UNL A   1      39.557  33.922  36.848  1.00  0.00     0.064 A 
ATOM     75  C   UNL A   1      40.160  35.188  36.908  1.00  0.00     0.173 A 
ATOM     76  C   UNL A   1      38.802  33.510  37.954  1.00  0.00     0.173 A 
ATOM     77  F   UNL A   1      40.899  35.630  35.880  1.00  0.00    -0.203 F 
ATOM     78  C   UNL A   1      40.029  35.997  38.034  1.00  0.00     0.198 A 
ATOM     79  C   UNL A   1      38.641  34.335  39.066  1.00  0.00     0.198 A 
ATOM     80  F   UNL A   1      38.191  32.316  37.941  1.00  0.00    -0.203 F 
ATOM     81  F   UNL A   1      40.647  37.185  38.079  1.00  0.00    -0.200 F 
ATOM     82  C   UNL A   1      39.262  35.575  39.109  1.00  0.00     0.200 A 
ATOM     83  F   UNL A   1      37.876  33.934  40.090  1.00  0.00    -0.200 F 
ATOM     84  F   UNL A   1      39.116  36.362  40.183  1.00  0.00    -0.200 F 
ENDBRANCH  50  74
BRANCH  62  85
ATOM     85  C   UNL A   1      44.041  28.822  35.186  1.00  0.00     0.064 A 
ATOM     86  C   UNL A   1      45.338  29.307  34.947  1.00  0.00     0.173 A 
ATOM     87  C   UNL A   1      43.905  27.697  36.009  1.00  0.00     0.173 A 
ATOM     88  F   UNL A   1      45.525  30.376  34.157  1.00  0.00    -0.203 F 
ATOM     89  C   UNL A   1      46.453  28.670  35.482  1.00  0.00     0.198 A 
ATOM     90  C   UNL A   1      45.020  27.083  36.575  1.00  0.00     0.198 A 
ATOM     91  F   UNL A   1      42.687  27.200  36.279  1.00  0.00    -0.203 F 
ATOM     92  F   UNL A   1      47.682  29.118  35.193  1.00  0.00    -0.200 F 
ATOM     93  C   UNL A   1      46.292  27.561  36.297  1.00  0.00     0.200 A 
ATOM     94  F   UNL A   1      44.863  26.027  37.383  1.00  0.00    -0.200 F 
ATOM     95  F   UNL A   1      47.366  26.949  36.816  1.00  0.00    -0.200 F 
ENDBRANCH  62  85
ENDBRANCH  36  37
ENDBRANCH  28  31
ENDBRANCH  26  27
ENDBRANCH  25  26
ENDBRANCH  24  25
ENDBRANCH   3  24
TORSDOF 15
ENDMDL
MODEL 3
REMARK VINA RESULT:     -11.7      5.208     10.543
REMARK SMILES C#CCNC(=O)[C@H](C)S(=O)(=O)c1ccc(C(=O)NCCCNC(=O)c2ccc(-c3c4nc(c(-c5c(F)c(F)c(F)c(F)c5F)c5ccc([nH]5)c(-c5c(F)c(F)c(F)c(F)c5F)c5nc(c(-c6c(F)c(F)c(F)c(F)c6F)c6ccc3[nH]6)C=C5)C=C4)cc2)cc1F
REMARK SMILES IDX 16 1 17 2 18 3 15 5 12 6 13 7 89 8 14 9 88 10 90 11 9 12
REMARK SMILES IDX 10 13 11 14 7 15 8 16 5 17 4 18 6 20 3 21 2 22 1 23 19 24
REMARK SMILES IDX 20 25 21 26 22 27 23 28 24 30 25 31 26 32 87 33 27 34 86 35
REMARK SMILES IDX 28 36 29 37 30 38 80 39 31 40 85 41 79 42 81 43 32 44 84 45
REMARK SMILES IDX 78 46 77 47 33 49 65 50 45 51 64 52 46 53 49 54 63 55 82 56
REMARK SMILES IDX 47 57 48 58 62 60 83 61 50 62 34 63 35 64 43 65 36 66 37 67
REMARK SMILES IDX 41 68 44 69 38 70 39 71 42 72 40 73 66 74 67 75 75 76 68 77
REMARK SMILES IDX 69 78 73 79 76 80 70 81 71 82 74 83 72 84 51 85 52 86 60 87
REMARK SMILES IDX 53 88 54 89 58 90 61 91 55 92 56 93 59 94 57 95
REMARK H PARENT 18 4 4 19 22 29 81 48 49 59
REMARK Flexibility Score: inf
ROOT
ATOM      1  C   UNL A   1      34.743  21.467  26.050  1.00  0.00     0.251 C 
ATOM      2  O   UNL A   1      34.098  21.168  27.054  1.00  0.00    -0.269 OA
ATOM      3  N   UNL A   1      35.853  20.719  25.761  1.00  0.00    -0.352 N 
ATOM      4  H   UNL A   1      36.035  20.005  26.414  1.00  0.00     0.163 HD
ENDROOT
BRANCH   1   5
ATOM      5  C   UNL A   1      34.266  22.583  25.186  1.00  0.00     0.042 A 
ATOM      6  C   UNL A   1      33.340  24.779  23.711  1.00  0.00     0.103 A 
ATOM      7  C   UNL A   1      34.098  24.987  24.868  1.00  0.00     0.024 A 
ATOM      8  C   UNL A   1      33.094  23.494  23.273  1.00  0.00     0.142 A 
ATOM      9  C   UNL A   1      34.532  23.890  25.617  1.00  0.00     0.015 A 
ATOM     10  C   UNL A   1      33.598  22.411  23.975  1.00  0.00     0.054 A 
ATOM     11  F   UNL A   1      32.379  23.233  22.174  1.00  0.00    -0.206 F 
BRANCH   6  12
ATOM     12  S   UNL A   1      32.862  26.136  22.702  1.00  0.00     0.192 S 
ATOM     13  O   UNL A   1      31.430  26.078  22.473  1.00  0.00    -0.223 OA
ATOM     14  O   UNL A   1      33.724  26.061  21.539  1.00  0.00    -0.223 OA
BRANCH  12  15
ATOM     15  C   UNL A   1      33.185  27.620  23.643  1.00  0.00     0.199 C 
ATOM     16  C   UNL A   1      34.161  28.521  22.867  1.00  0.00     0.036 C 
BRANCH  15  17
ATOM     17  C   UNL A   1      31.933  28.401  24.002  1.00  0.00     0.239 C 
ATOM     18  N   UNL A   1      31.375  28.349  25.248  1.00  0.00    -0.344 N 
ATOM     19  H   UNL A   1      30.772  29.090  25.486  1.00  0.00     0.164 HD
ATOM     20  O   UNL A   1      31.414  29.182  23.198  1.00  0.00    -0.274 OA
BRANCH  18  21
ATOM     21  C   UNL A   1      31.567  27.335  26.258  1.00  0.00     0.206 C 
BRANCH  21  22
ATOM     22  C   UNL A   1      30.785  26.121  26.050  1.00  0.00    -0.085 C 
ATOM     23  C   UNL A   1      30.322  25.033  25.863  1.00  0.00     0.006 C 
ENDBRANCH  21  22
ENDBRANCH  18  21
ENDBRANCH  15  17
ENDBRANCH  12  15
ENDBRANCH   6  12
ENDBRANCH   1   5
BRANCH   3  24
ATOM     24  C   UNL A   1      36.808  20.783  24.674  1.00  0.00     0.118 C 
BRANCH  24  25
ATOM     25  C   UNL A   1      37.909  19.740  24.865  1.00  0.00     0.042 C 
BRANCH  25  26
ATOM     26  C   UNL A   1      38.988  20.218  25.822  1.00  0.00     0.118 C 
BRANCH  26  27
ATOM     27  N   UNL A   1      40.045  19.223  25.957  1.00  0.00    -0.352 N 
ATOM     28  C   UNL A   1      41.395  19.394  26.090  1.00  0.00     0.251 C 
ATOM     29  H   UNL A   1      39.741  18.286  25.952  1.00  0.00     0.163 HD
ATOM     30  O   UNL A   1      42.156  18.455  25.879  1.00  0.00    -0.269 OA
BRANCH  28  31
ATOM     31  C   UNL A   1      41.928  20.708  26.493  1.00  0.00     0.039 A 
ATOM     32  C   UNL A   1      42.373  21.591  25.508  1.00  0.00     0.014 A 
ATOM     33  C   UNL A   1      42.013  21.052  27.845  1.00  0.00     0.014 A 
ATOM     34  C   UNL A   1      42.858  22.842  25.880  1.00  0.00     0.010 A 
ATOM     35  C   UNL A   1      42.403  22.332  28.207  1.00  0.00     0.010 A 
ATOM     36  C   UNL A   1      42.843  23.234  27.229  1.00  0.00    -0.014 A 
BRANCH  36  37
ATOM     37  C   UNL A   1      43.288  24.585  27.645  1.00  0.00     0.031 A 
ATOM     38  C   UNL A   1      42.273  25.634  27.994  1.00  0.00     0.074 A 
ATOM     39  C   UNL A   1      44.604  24.875  27.648  1.00  0.00     0.049 A 
ATOM     40  N   UNL A   1      42.460  26.892  28.301  1.00  0.00    -0.248 NA
ATOM     41  C   UNL A   1      40.857  25.227  27.975  1.00  0.00     0.031 C 
ATOM     42  C   UNL A   1      45.674  23.941  27.294  1.00  0.00     0.029 A 
ATOM     43  N   UNL A   1      45.266  26.037  27.952  1.00  0.00    -0.354 N 
ATOM     44  C   UNL A   1      41.194  27.421  28.506  1.00  0.00     0.074 A 
ATOM     45  C   UNL A   1      40.240  26.373  28.227  1.00  0.00     0.031 C 
ATOM     46  C   UNL A   1      46.858  24.555  27.437  1.00  0.00     0.029 A 
ATOM     47  C   UNL A   1      46.631  25.940  27.835  1.00  0.00     0.049 A 
ATOM     48  H   UNL A   1      44.805  26.862  28.230  1.00  0.00     0.167 HD
ATOM     49  C   UNL A   1      40.862  28.665  28.922  1.00  0.00     0.037 A 
ATOM     50  C   UNL A   1      47.589  26.868  28.017  1.00  0.00     0.037 A 
ATOM     51  C   UNL A   1      41.823  29.696  29.216  1.00  0.00     0.049 A 
ATOM     52  C   UNL A   1      47.187  28.258  28.430  1.00  0.00     0.074 A 
ATOM     53  C   UNL A   1      41.589  30.977  29.681  1.00  0.00     0.029 A 
ATOM     54  N   UNL A   1      43.196  29.563  29.074  1.00  0.00    -0.354 N 
ATOM     55  N   UNL A   1      45.990  28.734  28.673  1.00  0.00    -0.248 NA
ATOM     56  C   UNL A   1      48.266  29.241  28.598  1.00  0.00     0.031 C 
ATOM     57  C   UNL A   1      42.812  31.642  29.757  1.00  0.00     0.029 A 
ATOM     58  C   UNL A   1      43.819  30.752  29.415  1.00  0.00     0.049 A 
ATOM     59  H   UNL A   1      43.658  28.747  28.776  1.00  0.00     0.167 HD
ATOM     60  C   UNL A   1      46.173  30.056  29.054  1.00  0.00     0.074 A 
ATOM     61  C   UNL A   1      47.598  30.305  29.023  1.00  0.00     0.031 C 
ATOM     62  C   UNL A   1      45.242  30.978  29.399  1.00  0.00     0.037 A 
BRANCH  49  63
ATOM     63  C   UNL A   1      39.410  28.989  29.109  1.00  0.00     0.064 A 
ATOM     64  C   UNL A   1      38.651  29.501  28.044  1.00  0.00     0.173 A 
ATOM     65  C   UNL A   1      38.794  28.894  30.366  1.00  0.00     0.173 A 
ATOM     66  F   UNL A   1      39.192  29.616  26.822  1.00  0.00    -0.203 F 
ATOM     67  C   UNL A   1      37.342  29.934  28.240  1.00  0.00     0.198 A 
ATOM     68  C   UNL A   1      37.474  29.296  30.550  1.00  0.00     0.198 A 
ATOM     69  F   UNL A   1      39.470  28.399  31.414  1.00  0.00    -0.203 F 
ATOM     70  F   UNL A   1      36.656  30.468  27.219  1.00  0.00    -0.200 F 
ATOM     71  C   UNL A   1      36.754  29.830  29.491  1.00  0.00     0.200 A 
ATOM     72  F   UNL A   1      36.899  29.172  31.754  1.00  0.00    -0.200 F 
ATOM     73  F   UNL A   1      35.496  30.248  29.677  1.00  0.00    -0.200 F 
ENDBRANCH  49  63
BRANCH  50  74
ATOM     74  C   UNL A   1      49.019  26.503  27.833  1.00  0.00     0.064 A 
ATOM     75  C   UNL A   1      49.860  26.254  28.929  1.00  0.00     0.173 A 
ATOM     76  C   UNL A   1      49.578  26.410  26.551  1.00  0.00     0.173 A 
ATOM     77  F   UNL A   1      49.378  26.335  30.178  1.00  0.00    -0.203 F 
ATOM     78  C   UNL A   1      51.206  25.944  28.750  1.00  0.00     0.198 A 
ATOM     79  C   UNL A   1      50.916  26.065  26.372  1.00  0.00     0.198 A 
ATOM     80  F   UNL A   1      48.814  26.623  25.470  1.00  0.00    -0.203 F 
ATOM     81  F   UNL A   1      51.994  25.748  29.816  1.00  0.00    -0.200 F 
ATOM     82  C   UNL A   1      51.732  25.841  27.471  1.00  0.00     0.200 A 
ATOM     83  F   UNL A   1      51.413  25.939  25.134  1.00  0.00    -0.200 F 
ATOM     84  F   UNL A   1      53.021  25.520  27.298  1.00  0.00    -0.200 F 
ENDBRANCH  50  74
BRANCH  62  85
ATOM     85  C   UNL A   1      45.719  32.341  29.812  1.00  0.00     0.064 A 
ATOM     86  C   UNL A   1      45.970  32.620  31.166  1.00  0.00     0.173 A 
ATOM     87  C   UNL A   1      45.821  33.396  28.896  1.00  0.00     0.173 A 
ATOM     88  F   UNL A   1      45.875  31.648  32.086  1.00  0.00    -0.203 F 
ATOM     89  C   UNL A   1      46.276  33.910  31.588  1.00  0.00     0.198 A 
ATOM     90  C   UNL A   1      46.165  34.678  29.316  1.00  0.00     0.198 A 
ATOM     91  F   UNL A   1      45.603  33.180  27.589  1.00  0.00    -0.203 F 
ATOM     92  F   UNL A   1      46.455  34.162  32.892  1.00  0.00    -0.200 F 
ATOM     93  C   UNL A   1      46.375  34.937  30.662  1.00  0.00     0.200 A 
ATOM     94  F   UNL A   1      46.286  35.665  28.418  1.00  0.00    -0.200 F 
ATOM     95  F   UNL A   1      46.674  36.179  31.068  1.00  0.00    -0.200 F 
ENDBRANCH  62  85
ENDBRANCH  36  37
ENDBRANCH  28  31
ENDBRANCH  26  27
ENDBRANCH  25  26
ENDBRANCH  24  25
ENDBRANCH   3  24
TORSDOF 15
ENDMDL
