MODEL 1
REMARK VINA RESULT:     -12.3      0.000      0.000
REMARK SMILES Cc1c([C@H]2[C@H](C(=O)NCCCNC(=O)c3ccc(-c4c5nc(c(-c6c(F)c(F)c(F)c(F)c6F)c6ccc([nH]6)c(-c6c(F)c(F)c(F)c(F)c6F)c6nc(c(-c7c(F)c(F)c(F)c(F)c7F)c7ccc4[nH]7)C=C6)C=C5)cc3)OCC(=O)N2CC(C)C)cnn1C
REMARK SMILES IDX 10 1 9 2 8 3 6 4 7 5 5 7 4 8 82 9 78 10 80 11 79 12 81 13
REMARK SMILES IDX 3 14 1 15 2 16 89 17 87 18 88 19 90 20 83 21 84 22 85 23
REMARK SMILES IDX 86 24 11 25 12 26 13 27 14 29 15 30 16 31 77 32 17 33 76 34
REMARK SMILES IDX 18 35 19 36 20 37 70 38 21 39 75 40 69 41 71 42 22 43 74 44
REMARK SMILES IDX 68 45 67 46 23 48 55 49 35 50 54 51 36 52 39 53 53 54 72 55
REMARK SMILES IDX 37 56 38 57 52 59 73 60 40 61 24 62 25 63 33 64 26 65 27 66
REMARK SMILES IDX 31 67 34 68 28 69 29 70 32 71 30 72 56 73 57 74 65 75 58 76
REMARK SMILES IDX 59 77 63 78 66 79 60 80 61 81 64 82 62 83 41 84 42 85 50 86
REMARK SMILES IDX 43 87 44 88 48 89 51 90 45 91 46 92 49 93 47 94
REMARK H PARENT 8 6 12 28 71 47 39 58
REMARK Flexibility Score: inf
ROOT
ATOM      1  C   UNL A   1      31.394  31.966  26.796  1.00  0.00     0.042 C 
ENDROOT
BRANCH   1   2
ATOM      2  C   UNL A   1      31.652  30.800  25.863  1.00  0.00     0.117 C 
BRANCH   2   3
ATOM      3  N   UNL A   1      32.841  30.073  26.220  1.00  0.00    -0.354 N 
ATOM      4  C   UNL A   1      33.045  28.736  26.312  1.00  0.00     0.251 C 
ATOM      5  O   UNL A   1      34.182  28.381  26.645  1.00  0.00    -0.272 OA
ATOM      6  H   UNL A   1      33.624  30.631  26.428  1.00  0.00     0.163 HD
BRANCH   4   7
ATOM      7  C   UNL A   1      31.931  27.689  26.070  1.00  0.00     0.234 C 
ATOM      8  C   UNL A   1      31.908  27.161  24.602  1.00  0.00     0.157 C 
ATOM      9  N   UNL A   1      32.484  25.815  24.426  1.00  0.00    -0.330 N 
ATOM     10  O   UNL A   1      31.650  26.726  27.072  1.00  0.00    -0.356 OA
ATOM     11  C   UNL A   1      32.451  24.881  25.458  1.00  0.00     0.249 C 
ATOM     12  C   UNL A   1      32.181  25.443  26.868  1.00  0.00     0.261 C 
ATOM     13  O   UNL A   1      32.799  23.711  25.308  1.00  0.00    -0.272 OA
BRANCH   8  14
ATOM     14  C   UNL A   1      30.489  27.208  24.098  1.00  0.00     0.019 A 
ATOM     15  C   UNL A   1      30.580  29.383  22.652  1.00  0.00     0.067 C 
ATOM     16  C   UNL A   1      29.941  28.198  23.288  1.00  0.00     0.040 A 
ATOM     17  N   UNL A   1      28.595  27.938  23.248  1.00  0.00    -0.273 N 
ATOM     18  C   UNL A   1      29.398  26.362  24.397  1.00  0.00     0.141 A 
ATOM     19  N   UNL A   1      28.257  26.792  23.861  1.00  0.00    -0.181 NA
ATOM     20  C   UNL A   1      27.553  28.805  22.748  1.00  0.00     0.174 C 
ENDBRANCH   8  14
BRANCH   9  21
ATOM     21  C   UNL A   1      33.280  25.500  23.230  1.00  0.00     0.123 C 
BRANCH  21  22
ATOM     22  C   UNL A   1      32.559  24.756  22.095  1.00  0.00     0.002 C 
ATOM     23  C   UNL A   1      32.532  25.578  20.807  1.00  0.00     0.009 C 
ATOM     24  C   UNL A   1      33.290  23.436  21.801  1.00  0.00     0.009 C 
ENDBRANCH  21  22
ENDBRANCH   9  21
ENDBRANCH   4   7
ENDBRANCH   2   3
ENDBRANCH   1   2
BRANCH   1  25
ATOM     25  C   UNL A   1      32.683  32.621  27.250  1.00  0.00     0.118 C 
BRANCH  25  26
ATOM     26  N   UNL A   1      32.499  34.040  27.542  1.00  0.00    -0.352 N 
ATOM     27  C   UNL A   1      33.039  34.817  28.534  1.00  0.00     0.251 C 
ATOM     28  H   UNL A   1      31.891  34.512  26.930  1.00  0.00     0.163 HD
ATOM     29  O   UNL A   1      32.577  35.925  28.769  1.00  0.00    -0.269 OA
BRANCH  27  30
ATOM     30  C   UNL A   1      34.175  34.299  29.320  1.00  0.00     0.039 A 
ATOM     31  C   UNL A   1      33.926  33.590  30.496  1.00  0.00     0.014 A 
ATOM     32  C   UNL A   1      35.482  34.507  28.880  1.00  0.00     0.014 A 
ATOM     33  C   UNL A   1      34.996  33.030  31.192  1.00  0.00     0.010 A 
ATOM     34  C   UNL A   1      36.527  33.839  29.496  1.00  0.00     0.010 A 
ATOM     35  C   UNL A   1      36.298  33.113  30.672  1.00  0.00    -0.014 A 
BRANCH  35  36
ATOM     36  C   UNL A   1      37.449  32.474  31.350  1.00  0.00     0.031 A 
ATOM     37  C   UNL A   1      38.164  31.331  30.682  1.00  0.00     0.074 A 
ATOM     38  C   UNL A   1      37.796  32.872  32.589  1.00  0.00     0.049 A 
ATOM     39  N   UNL A   1      39.130  30.578  31.141  1.00  0.00    -0.248 NA
ATOM     40  C   UNL A   1      37.706  30.956  29.332  1.00  0.00     0.031 C 
ATOM     41  C   UNL A   1      37.131  33.928  33.357  1.00  0.00     0.029 A 
ATOM     42  N   UNL A   1      38.787  32.429  33.425  1.00  0.00    -0.354 N 
ATOM     43  C   UNL A   1      39.375  29.636  30.150  1.00  0.00     0.074 A 
ATOM     44  C   UNL A   1      38.411  29.862  29.097  1.00  0.00     0.031 C 
ATOM     45  C   UNL A   1      37.758  34.074  34.536  1.00  0.00     0.029 A 
ATOM     46  C   UNL A   1      38.832  33.093  34.626  1.00  0.00     0.049 A 
ATOM     47  H   UNL A   1      39.408  31.702  33.188  1.00  0.00     0.167 HD
ATOM     48  C   UNL A   1      40.340  28.689  30.108  1.00  0.00     0.037 A 
ATOM     49  C   UNL A   1      39.648  32.921  35.683  1.00  0.00     0.037 A 
ATOM     50  C   UNL A   1      41.318  28.500  31.145  1.00  0.00     0.049 A 
ATOM     51  C   UNL A   1      40.715  31.861  35.608  1.00  0.00     0.074 A 
ATOM     52  C   UNL A   1      42.382  27.616  31.176  1.00  0.00     0.029 A 
ATOM     53  N   UNL A   1      41.350  29.210  32.337  1.00  0.00    -0.354 N 
ATOM     54  N   UNL A   1      40.986  31.026  34.633  1.00  0.00    -0.248 NA
ATOM     55  C   UNL A   1      41.595  31.725  36.776  1.00  0.00     0.031 C 
ATOM     56  C   UNL A   1      43.024  27.753  32.410  1.00  0.00     0.029 A 
ATOM     57  C   UNL A   1      42.401  28.766  33.121  1.00  0.00     0.049 A 
ATOM     58  H   UNL A   1      40.719  29.923  32.586  1.00  0.00     0.167 HD
ATOM     59  C   UNL A   1      42.085  30.291  35.057  1.00  0.00     0.074 A 
ATOM     60  C   UNL A   1      42.440  30.790  36.368  1.00  0.00     0.031 C 
ATOM     61  C   UNL A   1      42.742  29.290  34.419  1.00  0.00     0.037 A 
BRANCH  48  62
ATOM     62  C   UNL A   1      40.394  27.797  28.902  1.00  0.00     0.064 A 
ATOM     63  C   UNL A   1      39.654  26.605  28.830  1.00  0.00     0.173 A 
ATOM     64  C   UNL A   1      41.165  28.156  27.785  1.00  0.00     0.173 A 
ATOM     65  F   UNL A   1      38.915  26.206  29.875  1.00  0.00    -0.203 F 
ATOM     66  C   UNL A   1      39.706  25.795  27.699  1.00  0.00     0.198 A 
ATOM     67  C   UNL A   1      41.185  27.360  26.642  1.00  0.00     0.198 A 
ATOM     68  F   UNL A   1      41.890  29.284  27.798  1.00  0.00    -0.203 F 
ATOM     69  F   UNL A   1      39.032  24.637  27.676  1.00  0.00    -0.200 F 
ATOM     70  C   UNL A   1      40.462  26.179  26.602  1.00  0.00     0.200 A 
ATOM     71  F   UNL A   1      41.906  27.740  25.577  1.00  0.00    -0.200 F 
ATOM     72  F   UNL A   1      40.500  25.404  25.509  1.00  0.00    -0.200 F 
ENDBRANCH  48  62
BRANCH  49  73
ATOM     73  C   UNL A   1      39.506  33.781  36.888  1.00  0.00     0.064 A 
ATOM     74  C   UNL A   1      38.754  33.358  37.992  1.00  0.00     0.173 A 
ATOM     75  C   UNL A   1      40.104  35.049  36.954  1.00  0.00     0.173 A 
ATOM     76  F   UNL A   1      38.150  32.161  37.971  1.00  0.00    -0.203 F 
ATOM     77  C   UNL A   1      38.577  34.181  39.103  1.00  0.00     0.198 A 
ATOM     78  C   UNL A   1      39.954  35.856  38.080  1.00  0.00     0.198 A 
ATOM     79  F   UNL A   1      40.842  35.500  35.930  1.00  0.00    -0.203 F 
ATOM     80  F   UNL A   1      37.804  33.773  40.119  1.00  0.00    -0.200 F 
ATOM     81  C   UNL A   1      39.181  35.428  39.148  1.00  0.00     0.200 A 
ATOM     82  F   UNL A   1      40.555  37.053  38.127  1.00  0.00    -0.200 F 
ATOM     83  F   UNL A   1      39.010  36.220  40.216  1.00  0.00    -0.200 F 
ENDBRANCH  49  73
BRANCH  61  84
ATOM     84  C   UNL A   1      43.938  28.703  35.111  1.00  0.00     0.064 A 
ATOM     85  C   UNL A   1      43.827  27.599  35.969  1.00  0.00     0.173 A 
ATOM     86  C   UNL A   1      45.218  29.226  34.875  1.00  0.00     0.173 A 
ATOM     87  F   UNL A   1      42.624  27.070  36.237  1.00  0.00    -0.203 F 
ATOM     88  C   UNL A   1      44.950  27.060  36.588  1.00  0.00     0.198 A 
ATOM     89  C   UNL A   1      46.344  28.661  35.467  1.00  0.00     0.198 A 
ATOM     90  F   UNL A   1      45.380  30.274  34.054  1.00  0.00    -0.203 F 
ATOM     91  F   UNL A   1      44.815  26.040  37.447  1.00  0.00    -0.200 F 
ATOM     92  C   UNL A   1      46.208  27.585  36.331  1.00  0.00     0.200 A 
ATOM     93  F   UNL A   1      47.559  29.159  35.200  1.00  0.00    -0.200 F 
ATOM     94  F   UNL A   1      47.289  27.058  36.919  1.00  0.00    -0.200 F 
ENDBRANCH  61  84
ENDBRANCH  35  36
ENDBRANCH  27  30
ENDBRANCH  25  26
ENDBRANCH   1  25
TORSDOF 13
ENDMDL
MODEL 2
REMARK VINA RESULT:     -12.2      5.770     11.177
REMARK SMILES Cc1c([C@H]2[C@H](C(=O)NCCCNC(=O)c3ccc(-c4c5nc(c(-c6c(F)c(F)c(F)c(F)c6F)c6ccc([nH]6)c(-c6c(F)c(F)c(F)c(F)c6F)c6nc(c(-c7c(F)c(F)c(F)c(F)c7F)c7ccc4[nH]7)C=C6)C=C5)cc3)OCC(=O)N2CC(C)C)cnn1C
REMARK SMILES IDX 10 1 9 2 8 3 6 4 7 5 5 7 4 8 82 9 78 10 80 11 79 12 81 13
REMARK SMILES IDX 3 14 1 15 2 16 89 17 87 18 88 19 90 20 83 21 84 22 85 23
REMARK SMILES IDX 86 24 11 25 12 26 13 27 14 29 15 30 16 31 77 32 17 33 76 34
REMARK SMILES IDX 18 35 19 36 20 37 70 38 21 39 75 40 69 41 71 42 22 43 74 44
REMARK SMILES IDX 68 45 67 46 23 48 55 49 35 50 54 51 36 52 39 53 53 54 72 55
REMARK SMILES IDX 37 56 38 57 52 59 73 60 40 61 24 62 25 63 33 64 26 65 27 66
REMARK SMILES IDX 31 67 34 68 28 69 29 70 32 71 30 72 56 73 57 74 65 75 58 76
REMARK SMILES IDX 59 77 63 78 66 79 60 80 61 81 64 82 62 83 41 84 42 85 50 86
REMARK SMILES IDX 43 87 44 88 48 89 51 90 45 91 46 92 49 93 47 94
REMARK H PARENT 8 6 12 28 71 47 39 58
REMARK Flexibility Score: inf
ROOT
ATOM      1  C   UNL A   1      38.093  19.841  24.759  1.00  0.00     0.042 C 
ENDROOT
BRANCH   1   2
ATOM      2  C   UNL A   1      36.765  20.517  25.037  1.00  0.00     0.117 C 
BRANCH   2   3
ATOM      3  N   UNL A   1      36.932  21.865  25.510  1.00  0.00    -0.354 N 
ATOM      4  C   UNL A   1      36.250  22.990  25.182  1.00  0.00     0.251 C 
ATOM      5  O   UNL A   1      36.609  24.029  25.750  1.00  0.00    -0.272 OA
ATOM      6  H   UNL A   1      37.649  21.989  26.173  1.00  0.00     0.163 HD
BRANCH   4   7
ATOM      7  C   UNL A   1      35.118  23.018  24.128  1.00  0.00     0.234 C 
ATOM      8  C   UNL A   1      33.703  22.826  24.756  1.00  0.00     0.157 C 
ATOM      9  N   UNL A   1      32.911  24.065  24.873  1.00  0.00    -0.330 N 
ATOM     10  O   UNL A   1      35.190  23.939  23.052  1.00  0.00    -0.356 OA
ATOM     11  C   UNL A   1      33.092  25.118  23.980  1.00  0.00     0.249 C 
ATOM     12  C   UNL A   1      34.403  25.096  23.168  1.00  0.00     0.261 C 
ATOM     13  O   UNL A   1      32.363  26.108  23.962  1.00  0.00    -0.272 OA
BRANCH   8  14
ATOM     14  C   UNL A   1      32.961  21.787  23.958  1.00  0.00     0.019 A 
ATOM     15  C   UNL A   1      33.327  19.688  25.472  1.00  0.00     0.067 C 
ATOM     16  C   UNL A   1      32.847  20.437  24.278  1.00  0.00     0.040 A 
ATOM     17  N   UNL A   1      32.265  19.848  23.185  1.00  0.00    -0.273 N 
ATOM     18  C   UNL A   1      32.324  21.901  22.703  1.00  0.00     0.141 A 
ATOM     19  N   UNL A   1      31.881  20.729  22.247  1.00  0.00    -0.181 NA
ATOM     20  C   UNL A   1      32.153  18.434  22.911  1.00  0.00     0.174 C 
ENDBRANCH   8  14
BRANCH   9  21
ATOM     21  C   UNL A   1      32.058  24.292  26.049  1.00  0.00     0.123 C 
BRANCH  21  22
ATOM     22  C   UNL A   1      30.558  24.000  25.883  1.00  0.00     0.002 C 
ATOM     23  C   UNL A   1      30.071  22.947  26.876  1.00  0.00     0.009 C 
ATOM     24  C   UNL A   1      29.756  25.289  26.126  1.00  0.00     0.009 C 
ENDBRANCH  21  22
ENDBRANCH   9  21
ENDBRANCH   4   7
ENDBRANCH   2   3
ENDBRANCH   1   2
BRANCH   1  25
ATOM     25  C   UNL A   1      39.158  20.259  25.752  1.00  0.00     0.118 C 
BRANCH  25  26
ATOM     26  N   UNL A   1      40.142  19.203  25.971  1.00  0.00    -0.352 N 
ATOM     27  C   UNL A   1      41.503  19.279  26.126  1.00  0.00     0.251 C 
ATOM     28  H   UNL A   1      39.770  18.293  26.013  1.00  0.00     0.163 HD
ATOM     29  O   UNL A   1      42.188  18.268  26.051  1.00  0.00    -0.269 OA
BRANCH  27  30
ATOM     30  C   UNL A   1      42.130  20.590  26.373  1.00  0.00     0.039 A 
ATOM     31  C   UNL A   1      42.554  21.361  25.290  1.00  0.00     0.014 A 
ATOM     32  C   UNL A   1      42.282  21.057  27.678  1.00  0.00     0.014 A 
ATOM     33  C   UNL A   1      43.068  22.636  25.521  1.00  0.00     0.010 A 
ATOM     34  C   UNL A   1      42.667  22.370  27.896  1.00  0.00     0.010 A 
ATOM     35  C   UNL A   1      43.086  23.165  26.822  1.00  0.00    -0.014 A 
BRANCH  35  36
ATOM     36  C   UNL A   1      43.565  24.539  27.097  1.00  0.00     0.031 A 
ATOM     37  C   UNL A   1      42.601  25.572  27.614  1.00  0.00     0.074 A 
ATOM     38  C   UNL A   1      44.839  24.869  26.810  1.00  0.00     0.049 A 
ATOM     39  N   UNL A   1      42.793  26.848  27.830  1.00  0.00    -0.248 NA
ATOM     40  C   UNL A   1      41.224  25.122  27.885  1.00  0.00     0.031 C 
ATOM     41  C   UNL A   1      45.842  23.963  26.246  1.00  0.00     0.029 A 
ATOM     42  N   UNL A   1      45.505  26.059  26.943  1.00  0.00    -0.354 N 
ATOM     43  C   UNL A   1      41.564  27.349  28.239  1.00  0.00     0.074 A 
ATOM     44  C   UNL A   1      40.615  26.262  28.171  1.00  0.00     0.031 C 
ATOM     45  C   UNL A   1      47.006  24.622  26.118  1.00  0.00     0.029 A 
ATOM     46  C   UNL A   1      46.817  26.004  26.541  1.00  0.00     0.049 A 
ATOM     47  H   UNL A   1      45.083  26.877  27.294  1.00  0.00     0.167 HD
ATOM     48  C   UNL A   1      41.263  28.597  28.666  1.00  0.00     0.037 A 
ATOM     49  C   UNL A   1      47.758  26.967  26.514  1.00  0.00     0.037 A 
ATOM     50  C   UNL A   1      42.226  29.660  28.766  1.00  0.00     0.049 A 
ATOM     51  C   UNL A   1      47.395  28.346  26.997  1.00  0.00     0.074 A 
ATOM     52  C   UNL A   1      42.045  30.943  29.249  1.00  0.00     0.029 A 
ATOM     53  N   UNL A   1      43.553  29.560  28.375  1.00  0.00    -0.354 N 
ATOM     54  N   UNL A   1      46.248  28.789  27.454  1.00  0.00    -0.248 NA
ATOM     55  C   UNL A   1      48.460  29.357  26.968  1.00  0.00     0.031 C 
ATOM     56  C   UNL A   1      43.249  31.637  29.099  1.00  0.00     0.029 A 
ATOM     57  C   UNL A   1      44.198  30.768  28.583  1.00  0.00     0.049 A 
ATOM     58  H   UNL A   1      43.974  28.751  28.006  1.00  0.00     0.167 HD
ATOM     59  C   UNL A   1      46.462  30.117  27.798  1.00  0.00     0.074 A 
ATOM     60  C   UNL A   1      47.852  30.402  27.511  1.00  0.00     0.031 C 
ATOM     61  C   UNL A   1      45.587  31.022  28.303  1.00  0.00     0.037 A 
BRANCH  48  62
ATOM     62  C   UNL A   1      39.843  28.876  29.067  1.00  0.00     0.064 A 
ATOM     63  C   UNL A   1      38.891  29.336  28.143  1.00  0.00     0.173 A 
ATOM     64  C   UNL A   1      39.417  28.644  30.384  1.00  0.00     0.173 A 
ATOM     65  F   UNL A   1      39.248  29.590  26.876  1.00  0.00    -0.203 F 
ATOM     66  C   UNL A   1      37.575  29.578  28.528  1.00  0.00     0.198 A 
ATOM     67  C   UNL A   1      38.091  28.853  30.756  1.00  0.00     0.198 A 
ATOM     68  F   UNL A   1      40.284  28.203  31.308  1.00  0.00    -0.203 F 
ATOM     69  F   UNL A   1      36.698  30.066  27.641  1.00  0.00    -0.200 F 
ATOM     70  C   UNL A   1      37.174  29.327  29.832  1.00  0.00     0.200 A 
ATOM     71  F   UNL A   1      37.703  28.596  32.014  1.00  0.00    -0.200 F 
ATOM     72  F   UNL A   1      35.904  29.547  30.198  1.00  0.00    -0.200 F 
ENDBRANCH  48  62
BRANCH  49  73
ATOM     73  C   UNL A   1      49.132  26.659  26.036  1.00  0.00     0.064 A 
ATOM     74  C   UNL A   1      49.519  26.945  24.720  1.00  0.00     0.173 A 
ATOM     75  C   UNL A   1      50.080  26.059  26.878  1.00  0.00     0.173 A 
ATOM     76  F   UNL A   1      48.644  27.504  23.872  1.00  0.00    -0.203 F 
ATOM     77  C   UNL A   1      50.789  26.612  24.253  1.00  0.00     0.198 A 
ATOM     78  C   UNL A   1      51.361  25.759  26.419  1.00  0.00     0.198 A 
ATOM     79  F   UNL A   1      49.767  25.773  28.150  1.00  0.00    -0.203 F 
ATOM     80  F   UNL A   1      51.111  26.844  22.973  1.00  0.00    -0.200 F 
ATOM     81  C   UNL A   1      51.711  26.024  25.104  1.00  0.00     0.200 A 
ATOM     82  F   UNL A   1      52.255  25.207  27.251  1.00  0.00    -0.200 F 
ATOM     83  F   UNL A   1      52.933  25.704  24.655  1.00  0.00    -0.200 F 
ENDBRANCH  49  73
BRANCH  61  84
ATOM     84  C   UNL A   1      46.120  32.389  28.621  1.00  0.00     0.064 A 
ATOM     85  C   UNL A   1      46.689  32.688  29.867  1.00  0.00     0.173 A 
ATOM     86  C   UNL A   1      46.100  33.399  27.647  1.00  0.00     0.173 A 
ATOM     87  F   UNL A   1      46.720  31.762  30.836  1.00  0.00    -0.203 F 
ATOM     88  C   UNL A   1      47.191  33.958  30.136  1.00  0.00     0.198 A 
ATOM     89  C   UNL A   1      46.637  34.656  27.907  1.00  0.00     0.198 A 
ATOM     90  F   UNL A   1      45.577  33.160  26.435  1.00  0.00    -0.203 F 
ATOM     91  F   UNL A   1      47.681  34.238  31.352  1.00  0.00    -0.200 F 
ATOM     92  C   UNL A   1      47.173  34.938  29.154  1.00  0.00     0.200 A 
ATOM     93  F   UNL A   1      46.636  35.594  26.950  1.00  0.00    -0.200 F 
ATOM     94  F   UNL A   1      47.667  36.156  29.412  1.00  0.00    -0.200 F 
ENDBRANCH  61  84
ENDBRANCH  35  36
ENDBRANCH  27  30
ENDBRANCH  25  26
ENDBRANCH   1  25
TORSDOF 13
ENDMDL
MODEL 3
REMARK VINA RESULT:     -12.1      5.606      9.836
REMARK SMILES Cc1c([C@H]2[C@H](C(=O)NCCCNC(=O)c3ccc(-c4c5nc(c(-c6c(F)c(F)c(F)c(F)c6F)c6ccc([nH]6)c(-c6c(F)c(F)c(F)c(F)c6F)c6nc(c(-c7c(F)c(F)c(F)c(F)c7F)c7ccc4[nH]7)C=C6)C=C5)cc3)OCC(=O)N2CC(C)C)cnn1C
REMARK SMILES IDX 10 1 9 2 8 3 6 4 7 5 5 7 4 8 82 9 78 10 80 11 79 12 81 13
REMARK SMILES IDX 3 14 1 15 2 16 89 17 87 18 88 19 90 20 83 21 84 22 85 23
REMARK SMILES IDX 86 24 11 25 12 26 13 27 14 29 15 30 16 31 77 32 17 33 76 34
REMARK SMILES IDX 18 35 19 36 20 37 70 38 21 39 75 40 69 41 71 42 22 43 74 44
REMARK SMILES IDX 68 45 67 46 23 48 55 49 35 50 54 51 36 52 39 53 53 54 72 55
REMARK SMILES IDX 37 56 38 57 52 59 73 60 40 61 24 62 25 63 33 64 26 65 27 66
REMARK SMILES IDX 31 67 34 68 28 69 29 70 32 71 30 72 56 73 57 74 65 75 58 76
REMARK SMILES IDX 59 77 63 78 66 79 60 80 61 81 64 82 62 83 41 84 42 85 50 86
REMARK SMILES IDX 43 87 44 88 48 89 51 90 45 91 46 92 49 93 47 94
REMARK H PARENT 8 6 12 28 71 47 39 58
REMARK Flexibility Score: inf
ROOT
ATOM      1  C   UNL A   1      38.082  19.604  24.913  1.00  0.00     0.042 C 
ENDROOT
BRANCH   1   2
ATOM      2  C   UNL A   1      36.775  20.365  25.014  1.00  0.00     0.117 C 
BRANCH   2   3
ATOM      3  N   UNL A   1      36.963  21.704  25.506  1.00  0.00    -0.354 N 
ATOM      4  C   UNL A   1      36.301  22.844  25.192  1.00  0.00     0.251 C 
ATOM      5  O   UNL A   1      36.676  23.869  25.774  1.00  0.00    -0.272 OA
ATOM      6  H   UNL A   1      37.681  21.806  26.171  1.00  0.00     0.163 HD
BRANCH   4   7
ATOM      7  C   UNL A   1      35.171  22.905  24.137  1.00  0.00     0.234 C 
ATOM      8  C   UNL A   1      33.753  22.718  24.760  1.00  0.00     0.157 C 
ATOM      9  N   UNL A   1      32.975  23.964  24.898  1.00  0.00    -0.330 N 
ATOM     10  O   UNL A   1      35.255  23.845  23.078  1.00  0.00    -0.356 OA
ATOM     11  C   UNL A   1      33.170  25.031  24.025  1.00  0.00     0.249 C 
ATOM     12  C   UNL A   1      34.482  25.008  23.215  1.00  0.00     0.261 C 
ATOM     13  O   UNL A   1      32.453  26.031  24.025  1.00  0.00    -0.272 OA
BRANCH   8  14
ATOM     14  C   UNL A   1      32.999  21.703  23.942  1.00  0.00     0.019 A 
ATOM     15  C   UNL A   1      33.324  19.575  25.424  1.00  0.00     0.067 C 
ATOM     16  C   UNL A   1      32.863  20.350  24.239  1.00  0.00     0.040 A 
ATOM     17  N   UNL A   1      32.278  19.787  23.134  1.00  0.00    -0.273 N 
ATOM     18  C   UNL A   1      32.371  21.846  22.684  1.00  0.00     0.141 A 
ATOM     19  N   UNL A   1      31.913  20.689  22.208  1.00  0.00    -0.181 NA
ATOM     20  C   UNL A   1      32.147  18.379  22.838  1.00  0.00     0.174 C 
ENDBRANCH   8  14
BRANCH   9  21
ATOM     21  C   UNL A   1      32.123  24.179  26.078  1.00  0.00     0.123 C 
BRANCH  21  22
ATOM     22  C   UNL A   1      30.614  23.953  25.891  1.00  0.00     0.002 C 
ATOM     23  C   UNL A   1      30.069  22.923  26.880  1.00  0.00     0.009 C 
ATOM     24  C   UNL A   1      29.865  25.275  26.123  1.00  0.00     0.009 C 
ENDBRANCH  21  22
ENDBRANCH   9  21
ENDBRANCH   4   7
ENDBRANCH   2   3
ENDBRANCH   1   2
BRANCH   1  25
ATOM     25  C   UNL A   1      39.131  20.159  25.854  1.00  0.00     0.118 C 
BRANCH  25  26
ATOM     26  N   UNL A   1      40.204  19.199  26.100  1.00  0.00    -0.352 N 
ATOM     27  C   UNL A   1      41.552  19.398  26.255  1.00  0.00     0.251 C 
ATOM     28  H   UNL A   1      39.913  18.261  26.163  1.00  0.00     0.163 HD
ATOM     29  O   UNL A   1      42.324  18.450  26.206  1.00  0.00    -0.269 OA
BRANCH  27  30
ATOM     30  C   UNL A   1      42.061  20.765  26.472  1.00  0.00     0.039 A 
ATOM     31  C   UNL A   1      42.261  21.603  25.375  1.00  0.00     0.014 A 
ATOM     32  C   UNL A   1      42.324  21.216  27.766  1.00  0.00     0.014 A 
ATOM     33  C   UNL A   1      42.660  22.921  25.588  1.00  0.00     0.010 A 
ATOM     34  C   UNL A   1      42.589  22.558  27.983  1.00  0.00     0.010 A 
ATOM     35  C   UNL A   1      42.783  23.419  26.896  1.00  0.00    -0.014 A 
BRANCH  35  36
ATOM     36  C   UNL A   1      43.143  24.831  27.160  1.00  0.00     0.031 A 
ATOM     37  C   UNL A   1      44.534  25.313  26.850  1.00  0.00     0.074 A 
ATOM     38  C   UNL A   1      42.247  25.647  27.747  1.00  0.00     0.049 A 
ATOM     39  N   UNL A   1      45.079  26.478  27.090  1.00  0.00    -0.248 NA
ATOM     40  C   UNL A   1      45.451  24.345  26.222  1.00  0.00     0.031 C 
ATOM     41  C   UNL A   1      40.891  25.267  28.149  1.00  0.00     0.029 A 
ATOM     42  N   UNL A   1      42.345  26.963  28.116  1.00  0.00    -0.354 N 
ATOM     43  C   UNL A   1      46.397  26.371  26.664  1.00  0.00     0.074 A 
ATOM     44  C   UNL A   1      46.594  25.011  26.220  1.00  0.00     0.031 C 
ATOM     45  C   UNL A   1      40.273  26.337  28.674  1.00  0.00     0.029 A 
ATOM     46  C   UNL A   1      41.202  27.460  28.692  1.00  0.00     0.049 A 
ATOM     47  H   UNL A   1      43.158  27.502  27.981  1.00  0.00     0.167 HD
ATOM     48  C   UNL A   1      47.347  27.333  26.616  1.00  0.00     0.037 A 
ATOM     49  C   UNL A   1      40.940  28.686  29.184  1.00  0.00     0.037 A 
ATOM     50  C   UNL A   1      47.126  28.694  27.025  1.00  0.00     0.049 A 
ATOM     51  C   UNL A   1      42.016  29.737  29.116  1.00  0.00     0.074 A 
ATOM     52  C   UNL A   1      47.997  29.766  26.957  1.00  0.00     0.029 A 
ATOM     53  N   UNL A   1      45.946  29.168  27.579  1.00  0.00    -0.354 N 
ATOM     54  N   UNL A   1      43.235  29.646  28.640  1.00  0.00    -0.248 NA
ATOM     55  C   UNL A   1      41.676  31.065  29.645  1.00  0.00     0.031 C 
ATOM     56  C   UNL A   1      47.363  30.877  27.521  1.00  0.00     0.029 A 
ATOM     57  C   UNL A   1      46.074  30.514  27.881  1.00  0.00     0.049 A 
ATOM     58  H   UNL A   1      45.137  28.629  27.734  1.00  0.00     0.167 HD
ATOM     59  C   UNL A   1      43.794  30.909  28.782  1.00  0.00     0.074 A 
ATOM     60  C   UNL A   1      42.776  31.751  29.373  1.00  0.00     0.031 C 
ATOM     61  C   UNL A   1      45.040  31.334  28.456  1.00  0.00     0.037 A 
BRANCH  48  62
ATOM     62  C   UNL A   1      48.703  26.953  26.095  1.00  0.00     0.064 A 
ATOM     63  C   UNL A   1      49.031  27.069  24.735  1.00  0.00     0.173 A 
ATOM     64  C   UNL A   1      49.701  26.503  26.972  1.00  0.00     0.173 A 
ATOM     65  F   UNL A   1      48.109  27.478  23.850  1.00  0.00    -0.203 F 
ATOM     66  C   UNL A   1      50.298  26.724  24.270  1.00  0.00     0.198 A 
ATOM     67  C   UNL A   1      50.977  26.193  26.508  1.00  0.00     0.198 A 
ATOM     68  F   UNL A   1      49.443  26.373  28.282  1.00  0.00    -0.203 F 
ATOM     69  F   UNL A   1      50.570  26.794  22.960  1.00  0.00    -0.200 F 
ATOM     70  C   UNL A   1      51.272  26.296  25.158  1.00  0.00     0.200 A 
ATOM     71  F   UNL A   1      51.922  25.792  27.371  1.00  0.00    -0.200 F 
ATOM     72  F   UNL A   1      52.495  25.977  24.711  1.00  0.00    -0.200 F 
ENDBRANCH  48  62
BRANCH  49  73
ATOM     73  C   UNL A   1      39.604  28.992  29.759  1.00  0.00     0.064 A 
ATOM     74  C   UNL A   1      38.573  29.502  28.959  1.00  0.00     0.173 A 
ATOM     75  C   UNL A   1      39.333  28.799  31.123  1.00  0.00     0.173 A 
ATOM     76  F   UNL A   1      38.786  29.720  27.652  1.00  0.00    -0.203 F 
ATOM     77  C   UNL A   1      37.334  29.838  29.503  1.00  0.00     0.198 A 
ATOM     78  C   UNL A   1      38.084  29.103  31.658  1.00  0.00     0.198 A 
ATOM     79  F   UNL A   1      40.280  28.304  31.933  1.00  0.00    -0.203 F 
ATOM     80  F   UNL A   1      36.388  30.379  28.723  1.00  0.00    -0.200 F 
ATOM     81  C   UNL A   1      37.089  29.633  30.852  1.00  0.00     0.200 A 
ATOM     82  F   UNL A   1      37.845  28.886  32.959  1.00  0.00    -0.200 F 
ATOM     83  F   UNL A   1      35.899  29.957  31.375  1.00  0.00    -0.200 F 
ENDBRANCH  49  73
BRANCH  61  84
ATOM     84  C   UNL A   1      45.354  32.784  28.687  1.00  0.00     0.064 A 
ATOM     85  C   UNL A   1      45.978  33.227  29.862  1.00  0.00     0.173 A 
ATOM     86  C   UNL A   1      45.065  33.735  27.696  1.00  0.00     0.173 A 
ATOM     87  F   UNL A   1      46.263  32.359  30.844  1.00  0.00    -0.203 F 
ATOM     88  C   UNL A   1      46.273  34.574  30.049  1.00  0.00     0.198 A 
ATOM     89  C   UNL A   1      45.396  35.075  27.871  1.00  0.00     0.198 A 
ATOM     90  F   UNL A   1      44.478  33.361  26.550  1.00  0.00    -0.203 F 
ATOM     91  F   UNL A   1      46.820  34.984  31.202  1.00  0.00    -0.200 F 
ATOM     92  C   UNL A   1      45.991  35.495  29.051  1.00  0.00     0.200 A 
ATOM     93  F   UNL A   1      45.139  35.959  26.898  1.00  0.00    -0.200 F 
ATOM     94  F   UNL A   1      46.286  36.789  29.229  1.00  0.00    -0.200 F 
ENDBRANCH  61  84
ENDBRANCH  35  36
ENDBRANCH  27  30
ENDBRANCH  25  26
ENDBRANCH   1  25
TORSDOF 13
ENDMDL
