MODEL 1
REMARK VINA RESULT:     -12.7      0.000      0.000
REMARK SMILES C[C@H]1CN(C(=O)N2CC[NH+]([C@@H](C)C(=O)NCCCNC(=O)c3ccc(-c4c5nc(c(-c6c(F)c(F)c(F)c(F)c6F)c6ccc([nH]6)c(-c6c(F)c(F)c(F)c(F)c6F)c6nc(c(-c7c(F)c(F)c(F)c(F)c7F)c7ccc4[nH]7)C=C6)C=C5)cc3)CC2)C[C@@H]1C
REMARK SMILES IDX 17 1 16 2 15 3 13 4 14 5 11 7 12 8 10 9 1 10 2 11 3 12 88 13
REMARK SMILES IDX 4 14 87 15 89 16 5 17 6 18 7 19 8 20 86 21 9 22 85 23 18 25
REMARK SMILES IDX 19 26 20 27 21 29 22 30 23 31 84 32 24 33 83 34 25 35 26 36
REMARK SMILES IDX 27 37 77 38 28 39 82 40 76 41 78 42 29 43 81 44 75 45 74 46
REMARK SMILES IDX 30 48 62 49 42 50 61 51 43 52 46 53 60 54 79 55 44 56 45 57
REMARK SMILES IDX 59 59 80 60 47 61 31 62 32 63 40 64 33 65 34 66 38 67 41 68
REMARK SMILES IDX 35 69 36 70 39 71 37 72 63 73 64 74 72 75 65 76 66 77 70 78
REMARK SMILES IDX 73 79 67 80 68 81 71 82 69 83 48 84 49 85 57 86 50 87 51 88
REMARK SMILES IDX 55 89 58 90 52 91 53 92 56 93 54 94
REMARK H PARENT 15 6 10 24 19 28 78 47 46 58
REMARK Flexibility Score: inf
ROOT
ATOM      1  C   UNL A   1      35.600  24.011  25.828  1.00  0.00     0.042 C 
ENDROOT
BRANCH   1   2
ATOM      2  C   UNL A   1      34.527  24.960  25.286  1.00  0.00     0.118 C 
BRANCH   2   3
ATOM      3  N   UNL A   1      33.352  25.002  26.139  1.00  0.00    -0.351 N 
ATOM      4  C   UNL A   1      32.015  24.868  25.896  1.00  0.00     0.278 C 
ATOM      5  O   UNL A   1      31.281  25.061  26.874  1.00  0.00    -0.268 OA
ATOM      6  H   UNL A   1      33.563  25.159  27.087  1.00  0.00     0.163 HD
BRANCH   4   7
ATOM      7  C   UNL A   1      31.395  24.495  24.517  1.00  0.00     0.271 C 
ATOM      8  C   UNL A   1      30.322  25.461  24.023  1.00  0.00     0.086 C 
BRANCH   7   9
ATOM      9  N   UNL A   1      31.204  23.036  24.337  1.00  0.00    -0.322 N 
ATOM     10  C   UNL A   1      32.572  16.386  26.043  1.00  0.00     0.010 C 
ATOM     11  C   UNL A   1      32.753  16.981  24.646  1.00  0.00     0.010 C 
ATOM     12  C   UNL A   1      32.674  18.505  24.680  1.00  0.00     0.125 C 
ATOM     13  C   UNL A   1      34.169  16.726  24.088  1.00  0.00     0.010 C 
ATOM     14  N   UNL A   1      34.046  18.954  24.848  1.00  0.00    -0.324 N 
ATOM     15  C   UNL A   1      34.993  17.860  24.715  1.00  0.00     0.125 C 
ATOM     16  C   UNL A   1      34.201  16.820  22.559  1.00  0.00     0.010 C 
ATOM     17  C   UNL A   1      34.449  20.269  24.823  1.00  0.00     0.320 C 
ATOM     18  O   UNL A   1      35.621  20.622  24.751  1.00  0.00    -0.248 OA
ATOM     19  N   UNL A   1      33.405  21.159  24.711  1.00  0.00    -0.313 N 
ATOM     20  C   UNL A   1      33.371  22.011  23.543  1.00  0.00     0.183 C 
ATOM     21  C   UNL A   1      32.733  21.681  25.895  1.00  0.00     0.183 C 
ATOM     22  C   UNL A   1      31.917  22.384  23.237  1.00  0.00     0.284 C 
ATOM     23  C   UNL A   1      31.321  22.223  25.567  1.00  0.00     0.284 C 
ATOM     24  H   UNL A   1      30.225  23.050  24.052  1.00  0.00     0.348 HD
ENDBRANCH   7   9
ENDBRANCH   4   7
ENDBRANCH   2   3
ENDBRANCH   1   2
BRANCH   1  25
ATOM     25  C   UNL A   1      36.778  23.800  24.887  1.00  0.00     0.118 C 
BRANCH  25  26
ATOM     26  N   UNL A   1      37.676  22.764  25.361  1.00  0.00    -0.352 N 
ATOM     27  C   UNL A   1      38.842  22.852  26.088  1.00  0.00     0.251 C 
ATOM     28  H   UNL A   1      37.408  21.847  25.125  1.00  0.00     0.163 HD
ATOM     29  O   UNL A   1      39.551  21.857  26.196  1.00  0.00    -0.269 OA
BRANCH  27  30
ATOM     30  C   UNL A   1      39.270  24.123  26.729  1.00  0.00     0.039 A 
ATOM     31  C   UNL A   1      40.052  25.014  25.985  1.00  0.00     0.014 A 
ATOM     32  C   UNL A   1      38.980  24.420  28.062  1.00  0.00     0.014 A 
ATOM     33  C   UNL A   1      40.496  26.211  26.558  1.00  0.00     0.010 A 
ATOM     34  C   UNL A   1      39.346  25.653  28.605  1.00  0.00     0.010 A 
ATOM     35  C   UNL A   1      40.125  26.556  27.866  1.00  0.00    -0.014 A 
BRANCH  35  36
ATOM     36  C   UNL A   1      40.571  27.833  28.486  1.00  0.00     0.031 A 
ATOM     37  C   UNL A   1      42.010  28.018  28.891  1.00  0.00     0.074 A 
ATOM     38  C   UNL A   1      39.674  28.807  28.739  1.00  0.00     0.049 A 
ATOM     39  N   UNL A   1      42.576  29.025  29.509  1.00  0.00    -0.248 NA
ATOM     40  C   UNL A   1      42.932  26.911  28.590  1.00  0.00     0.031 C 
ATOM     41  C   UNL A   1      38.241  28.735  28.446  1.00  0.00     0.029 A 
ATOM     42  N   UNL A   1      39.834  30.046  29.309  1.00  0.00    -0.354 N 
ATOM     43  C   UNL A   1      43.904  28.662  29.693  1.00  0.00     0.074 A 
ATOM     44  C   UNL A   1      44.053  27.323  29.164  1.00  0.00     0.031 C 
ATOM     45  C   UNL A   1      37.658  29.885  28.820  1.00  0.00     0.029 A 
ATOM     46  C   UNL A   1      38.666  30.763  29.407  1.00  0.00     0.049 A 
ATOM     47  H   UNL A   1      40.704  30.389  29.619  1.00  0.00     0.167 HD
ATOM     48  C   UNL A   1      44.914  29.385  30.231  1.00  0.00     0.037 A 
ATOM     49  C   UNL A   1      38.433  31.988  29.916  1.00  0.00     0.037 A 
ATOM     50  C   UNL A   1      44.781  30.735  30.710  1.00  0.00     0.049 A 
ATOM     51  C   UNL A   1      39.581  32.784  30.476  1.00  0.00     0.074 A 
ATOM     52  C   UNL A   1      45.763  31.580  31.197  1.00  0.00     0.029 A 
ATOM     53  N   UNL A   1      43.588  31.441  30.756  1.00  0.00    -0.354 N 
ATOM     54  N   UNL A   1      40.845  32.453  30.578  1.00  0.00    -0.248 NA
ATOM     55  C   UNL A   1      39.270  34.128  30.984  1.00  0.00     0.031 C 
ATOM     56  C   UNL A   1      45.159  32.785  31.571  1.00  0.00     0.029 A 
ATOM     57  C   UNL A   1      43.807  32.705  31.279  1.00  0.00     0.049 A 
ATOM     58  H   UNL A   1      42.715  31.095  30.460  1.00  0.00     0.167 HD
ATOM     59  C   UNL A   1      41.481  33.553  31.139  1.00  0.00     0.074 A 
ATOM     60  C   UNL A   1      40.469  34.568  31.338  1.00  0.00     0.031 C 
ATOM     61  C   UNL A   1      42.788  33.706  31.464  1.00  0.00     0.037 A 
BRANCH  48  62
ATOM     62  C   UNL A   1      46.265  28.737  30.323  1.00  0.00     0.064 A 
ATOM     63  C   UNL A   1      46.660  28.017  31.461  1.00  0.00     0.173 A 
ATOM     64  C   UNL A   1      47.156  28.791  29.240  1.00  0.00     0.173 A 
ATOM     65  F   UNL A   1      45.850  27.943  32.527  1.00  0.00    -0.203 F 
ATOM     66  C   UNL A   1      47.906  27.398  31.521  1.00  0.00     0.198 A 
ATOM     67  C   UNL A   1      48.389  28.147  29.292  1.00  0.00     0.198 A 
ATOM     68  F   UNL A   1      46.825  29.460  28.125  1.00  0.00    -0.203 F 
ATOM     69  F   UNL A   1      48.278  26.753  32.635  1.00  0.00    -0.200 F 
ATOM     70  C   UNL A   1      48.766  27.457  30.435  1.00  0.00     0.200 A 
ATOM     71  F   UNL A   1      49.215  28.195  28.237  1.00  0.00    -0.200 F 
ATOM     72  F   UNL A   1      49.961  26.853  30.490  1.00  0.00    -0.200 F 
ENDBRANCH  48  62
BRANCH  49  73
ATOM     73  C   UNL A   1      37.057  32.550  29.900  1.00  0.00     0.064 A 
ATOM     74  C   UNL A   1      36.589  33.274  28.795  1.00  0.00     0.173 A 
ATOM     75  C   UNL A   1      36.188  32.385  30.987  1.00  0.00     0.173 A 
ATOM     76  F   UNL A   1      37.392  33.477  27.739  1.00  0.00    -0.203 F 
ATOM     77  C   UNL A   1      35.312  33.831  28.787  1.00  0.00     0.198 A 
ATOM     78  C   UNL A   1      34.901  32.919  30.968  1.00  0.00     0.198 A 
ATOM     79  F   UNL A   1      36.587  31.697  32.068  1.00  0.00    -0.203 F 
ATOM     80  F   UNL A   1      34.907  34.559  27.737  1.00  0.00    -0.200 F 
ATOM     81  C   UNL A   1      34.467  33.648  29.872  1.00  0.00     0.200 A 
ATOM     82  F   UNL A   1      34.083  32.729  32.012  1.00  0.00    -0.200 F 
ATOM     83  F   UNL A   1      33.238  34.182  29.863  1.00  0.00    -0.200 F 
ENDBRANCH  49  73
BRANCH  61  84
ATOM     84  C   UNL A   1      43.202  35.026  32.043  1.00  0.00     0.064 A 
ATOM     85  C   UNL A   1      43.687  36.062  31.231  1.00  0.00     0.173 A 
ATOM     86  C   UNL A   1      43.079  35.269  33.419  1.00  0.00     0.173 A 
ATOM     87  F   UNL A   1      43.838  35.871  29.912  1.00  0.00    -0.203 F 
ATOM     88  C   UNL A   1      44.057  37.286  31.780  1.00  0.00     0.198 A 
ATOM     89  C   UNL A   1      43.423  36.503  33.960  1.00  0.00     0.198 A 
ATOM     90  F   UNL A   1      42.613  34.312  34.235  1.00  0.00    -0.203 F 
ATOM     91  F   UNL A   1      44.560  38.247  30.994  1.00  0.00    -0.200 F 
ATOM     92  C   UNL A   1      43.918  37.508  33.142  1.00  0.00     0.200 A 
ATOM     93  F   UNL A   1      43.278  36.721  35.275  1.00  0.00    -0.200 F 
ATOM     94  F   UNL A   1      44.270  38.690  33.670  1.00  0.00    -0.200 F 
ENDBRANCH  61  84
ENDBRANCH  35  36
ENDBRANCH  27  30
ENDBRANCH  25  26
ENDBRANCH   1  25
TORSDOF 11
ENDMDL
MODEL 2
REMARK VINA RESULT:     -12.4      3.936      8.674
REMARK SMILES C[C@H]1CN(C(=O)N2CC[NH+]([C@@H](C)C(=O)NCCCNC(=O)c3ccc(-c4c5nc(c(-c6c(F)c(F)c(F)c(F)c6F)c6ccc([nH]6)c(-c6c(F)c(F)c(F)c(F)c6F)c6nc(c(-c7c(F)c(F)c(F)c(F)c7F)c7ccc4[nH]7)C=C6)C=C5)cc3)CC2)C[C@@H]1C
REMARK SMILES IDX 17 1 16 2 15 3 13 4 14 5 11 7 12 8 10 9 1 10 2 11 3 12 88 13
REMARK SMILES IDX 4 14 87 15 89 16 5 17 6 18 7 19 8 20 86 21 9 22 85 23 18 25
REMARK SMILES IDX 19 26 20 27 21 29 22 30 23 31 84 32 24 33 83 34 25 35 26 36
REMARK SMILES IDX 27 37 77 38 28 39 82 40 76 41 78 42 29 43 81 44 75 45 74 46
REMARK SMILES IDX 30 48 62 49 42 50 61 51 43 52 46 53 60 54 79 55 44 56 45 57
REMARK SMILES IDX 59 59 80 60 47 61 31 62 32 63 40 64 33 65 34 66 38 67 41 68
REMARK SMILES IDX 35 69 36 70 39 71 37 72 63 73 64 74 72 75 65 76 66 77 70 78
REMARK SMILES IDX 73 79 67 80 68 81 71 82 69 83 48 84 49 85 57 86 50 87 51 88
REMARK SMILES IDX 55 89 58 90 52 91 53 92 56 93 54 94
REMARK H PARENT 15 6 10 24 19 28 78 47 46 58
REMARK Flexibility Score: inf
ROOT
ATOM      1  C   UNL A   1      31.009  31.575  25.887  1.00  0.00     0.042 C 
ENDROOT
BRANCH   1   2
ATOM      2  C   UNL A   1      31.115  30.186  25.251  1.00  0.00     0.118 C 
BRANCH   2   3
ATOM      3  N   UNL A   1      30.684  30.185  23.863  1.00  0.00    -0.351 N 
ATOM      4  C   UNL A   1      30.311  29.194  23.002  1.00  0.00     0.278 C 
ATOM      5  O   UNL A   1      30.094  29.563  21.840  1.00  0.00    -0.268 OA
ATOM      6  H   UNL A   1      30.657  31.083  23.462  1.00  0.00     0.163 HD
BRANCH   4   7
ATOM      7  C   UNL A   1      30.143  27.696  23.389  1.00  0.00     0.271 C 
ATOM      8  C   UNL A   1      28.699  27.262  23.628  1.00  0.00     0.086 C 
BRANCH   7   9
ATOM      9  N   UNL A   1      31.213  27.199  24.286  1.00  0.00    -0.322 N 
ATOM     10  C   UNL A   1      37.131  23.640  25.433  1.00  0.00     0.010 C 
ATOM     11  C   UNL A   1      35.803  23.373  26.144  1.00  0.00     0.010 C 
ATOM     12  C   UNL A   1      34.651  24.095  25.451  1.00  0.00     0.125 C 
ATOM     13  C   UNL A   1      35.383  21.891  26.048  1.00  0.00     0.010 C 
ATOM     14  N   UNL A   1      34.120  23.136  24.496  1.00  0.00    -0.324 N 
ATOM     15  C   UNL A   1      34.702  21.817  24.675  1.00  0.00     0.125 C 
ATOM     16  C   UNL A   1      34.399  21.508  27.159  1.00  0.00     0.010 C 
ATOM     17  C   UNL A   1      32.997  23.336  23.726  1.00  0.00     0.320 C 
ATOM     18  O   UNL A   1      32.441  22.448  23.089  1.00  0.00    -0.248 OA
ATOM     19  N   UNL A   1      32.450  24.589  23.873  1.00  0.00    -0.313 N 
ATOM     20  C   UNL A   1      31.101  24.678  24.387  1.00  0.00     0.183 C 
ATOM     21  C   UNL A   1      32.880  25.700  23.031  1.00  0.00     0.183 C 
ATOM     22  C   UNL A   1      30.926  26.020  25.105  1.00  0.00     0.284 C 
ATOM     23  C   UNL A   1      32.551  27.071  23.669  1.00  0.00     0.284 C 
ATOM     24  H   UNL A   1      31.232  27.982  24.939  1.00  0.00     0.348 HD
ENDBRANCH   7   9
ENDBRANCH   4   7
ENDBRANCH   2   3
ENDBRANCH   1   2
BRANCH   1  25
ATOM     25  C   UNL A   1      32.136  31.905  26.855  1.00  0.00     0.118 C 
BRANCH  25  26
ATOM     26  N   UNL A   1      32.229  33.328  27.120  1.00  0.00    -0.352 N 
ATOM     27  C   UNL A   1      33.075  34.033  27.946  1.00  0.00     0.251 C 
ATOM     28  H   UNL A   1      31.580  33.882  26.628  1.00  0.00     0.163 HD
ATOM     29  O   UNL A   1      32.834  35.214  28.176  1.00  0.00    -0.269 OA
BRANCH  27  30
ATOM     30  C   UNL A   1      34.259  33.396  28.579  1.00  0.00     0.039 A 
ATOM     31  C   UNL A   1      34.075  32.672  29.762  1.00  0.00     0.014 A 
ATOM     32  C   UNL A   1      35.551  33.558  28.074  1.00  0.00     0.014 A 
ATOM     33  C   UNL A   1      35.167  32.077  30.403  1.00  0.00     0.010 A 
ATOM     34  C   UNL A   1      36.627  32.891  28.662  1.00  0.00     0.010 A 
ATOM     35  C   UNL A   1      36.451  32.158  29.845  1.00  0.00    -0.014 A 
BRANCH  35  36
ATOM     36  C   UNL A   1      37.623  31.515  30.501  1.00  0.00     0.031 A 
ATOM     37  C   UNL A   1      38.026  31.916  31.896  1.00  0.00     0.074 A 
ATOM     38  C   UNL A   1      38.360  30.612  29.824  1.00  0.00     0.049 A 
ATOM     39  N   UNL A   1      39.054  31.525  32.608  1.00  0.00    -0.248 NA
ATOM     40  C   UNL A   1      37.177  32.911  32.571  1.00  0.00     0.031 C 
ATOM     41  C   UNL A   1      38.112  30.175  28.450  1.00  0.00     0.029 A 
ATOM     42  N   UNL A   1      39.477  29.906  30.200  1.00  0.00    -0.354 N 
ATOM     43  C   UNL A   1      38.990  32.244  33.795  1.00  0.00     0.074 A 
ATOM     44  C   UNL A   1      37.850  33.129  33.692  1.00  0.00     0.031 C 
ATOM     45  C   UNL A   1      39.035  29.262  28.105  1.00  0.00     0.029 A 
ATOM     46  C   UNL A   1      39.958  29.073  29.219  1.00  0.00     0.049 A 
ATOM     47  H   UNL A   1      39.893  29.988  31.088  1.00  0.00     0.167 HD
ATOM     48  C   UNL A   1      39.794  32.159  34.882  1.00  0.00     0.037 A 
ATOM     49  C   UNL A   1      41.026  28.252  29.216  1.00  0.00     0.037 A 
ATOM     50  C   UNL A   1      40.896  31.243  35.007  1.00  0.00     0.049 A 
ATOM     51  C   UNL A   1      41.881  28.151  30.451  1.00  0.00     0.074 A 
ATOM     52  C   UNL A   1      41.717  31.025  36.099  1.00  0.00     0.029 A 
ATOM     53  N   UNL A   1      41.328  30.388  34.005  1.00  0.00    -0.354 N 
ATOM     54  N   UNL A   1      41.766  28.786  31.591  1.00  0.00    -0.248 NA
ATOM     55  C   UNL A   1      43.011  27.211  30.399  1.00  0.00     0.031 C 
ATOM     56  C   UNL A   1      42.669  30.062  35.746  1.00  0.00     0.029 A 
ATOM     57  C   UNL A   1      42.414  29.652  34.448  1.00  0.00     0.049 A 
ATOM     58  H   UNL A   1      40.921  30.314  33.111  1.00  0.00     0.167 HD
ATOM     59  C   UNL A   1      42.790  28.308  32.398  1.00  0.00     0.074 A 
ATOM     60  C   UNL A   1      43.505  27.316  31.625  1.00  0.00     0.031 C 
ATOM     61  C   UNL A   1      43.111  28.663  33.666  1.00  0.00     0.037 A 
BRANCH  48  62
ATOM     62  C   UNL A   1      39.505  33.074  36.036  1.00  0.00     0.064 A 
ATOM     63  C   UNL A   1      38.636  32.699  37.072  1.00  0.00     0.173 A 
ATOM     64  C   UNL A   1      40.144  34.319  36.135  1.00  0.00     0.173 A 
ATOM     65  F   UNL A   1      37.992  31.524  37.020  1.00  0.00    -0.203 F 
ATOM     66  C   UNL A   1      38.398  33.547  38.151  1.00  0.00     0.198 A 
ATOM     67  C   UNL A   1      39.925  35.153  37.229  1.00  0.00     0.198 A 
ATOM     68  F   UNL A   1      40.990  34.723  35.176  1.00  0.00    -0.203 F 
ATOM     69  F   UNL A   1      37.530  33.186  39.106  1.00  0.00    -0.200 F 
ATOM     70  C   UNL A   1      39.048  34.769  38.232  1.00  0.00     0.200 A 
ATOM     71  F   UNL A   1      40.563  36.328  37.312  1.00  0.00    -0.200 F 
ATOM     72  F   UNL A   1      38.825  35.581  39.275  1.00  0.00    -0.200 F 
ENDBRANCH  48  62
BRANCH  49  73
ATOM     73  C   UNL A   1      41.336  27.439  28.011  1.00  0.00     0.064 A 
ATOM     74  C   UNL A   1      40.848  26.133  27.879  1.00  0.00     0.173 A 
ATOM     75  C   UNL A   1      42.132  27.946  26.974  1.00  0.00     0.173 A 
ATOM     76  F   UNL A   1      40.100  25.596  28.855  1.00  0.00    -0.203 F 
ATOM     77  C   UNL A   1      41.162  25.355  26.767  1.00  0.00     0.198 A 
ATOM     78  C   UNL A   1      42.423  27.179  25.849  1.00  0.00     0.198 A 
ATOM     79  F   UNL A   1      42.621  29.193  27.051  1.00  0.00    -0.203 F 
ATOM     80  F   UNL A   1      40.720  24.092  26.688  1.00  0.00    -0.200 F 
ATOM     81  C   UNL A   1      41.945  25.880  25.749  1.00  0.00     0.200 A 
ATOM     82  F   UNL A   1      43.169  27.694  24.862  1.00  0.00    -0.200 F 
ATOM     83  F   UNL A   1      42.245  25.134  24.678  1.00  0.00    -0.200 F 
ENDBRANCH  49  73
BRANCH  61  84
ATOM     84  C   UNL A   1      44.269  27.956  34.305  1.00  0.00     0.064 A 
ATOM     85  C   UNL A   1      45.567  28.482  34.253  1.00  0.00     0.173 A 
ATOM     86  C   UNL A   1      44.071  26.757  35.007  1.00  0.00     0.173 A 
ATOM     87  F   UNL A   1      45.809  29.617  33.580  1.00  0.00    -0.203 F 
ATOM     88  C   UNL A   1      46.631  27.821  34.861  1.00  0.00     0.198 A 
ATOM     89  C   UNL A   1      45.132  26.114  35.636  1.00  0.00     0.198 A 
ATOM     90  F   UNL A   1      42.845  26.217  35.091  1.00  0.00    -0.203 F 
ATOM     91  F   UNL A   1      47.871  28.318  34.761  1.00  0.00    -0.200 F 
ATOM     92  C   UNL A   1      46.412  26.642  35.557  1.00  0.00     0.200 A 
ATOM     93  F   UNL A   1      44.917  24.980  36.319  1.00  0.00    -0.200 F 
ATOM     94  F   UNL A   1      47.436  26.009  36.146  1.00  0.00    -0.200 F 
ENDBRANCH  61  84
ENDBRANCH  35  36
ENDBRANCH  27  30
ENDBRANCH  25  26
ENDBRANCH   1  25
TORSDOF 11
ENDMDL
MODEL 3
REMARK VINA RESULT:     -12.4      3.633      8.097
REMARK SMILES C[C@H]1CN(C(=O)N2CC[NH+]([C@@H](C)C(=O)NCCCNC(=O)c3ccc(-c4c5nc(c(-c6c(F)c(F)c(F)c(F)c6F)c6ccc([nH]6)c(-c6c(F)c(F)c(F)c(F)c6F)c6nc(c(-c7c(F)c(F)c(F)c(F)c7F)c7ccc4[nH]7)C=C6)C=C5)cc3)CC2)C[C@@H]1C
REMARK SMILES IDX 17 1 16 2 15 3 13 4 14 5 11 7 12 8 10 9 1 10 2 11 3 12 88 13
REMARK SMILES IDX 4 14 87 15 89 16 5 17 6 18 7 19 8 20 86 21 9 22 85 23 18 25
REMARK SMILES IDX 19 26 20 27 21 29 22 30 23 31 84 32 24 33 83 34 25 35 26 36
REMARK SMILES IDX 27 37 77 38 28 39 82 40 76 41 78 42 29 43 81 44 75 45 74 46
REMARK SMILES IDX 30 48 62 49 42 50 61 51 43 52 46 53 60 54 79 55 44 56 45 57
REMARK SMILES IDX 59 59 80 60 47 61 31 62 32 63 40 64 33 65 34 66 38 67 41 68
REMARK SMILES IDX 35 69 36 70 39 71 37 72 63 73 64 74 72 75 65 76 66 77 70 78
REMARK SMILES IDX 73 79 67 80 68 81 71 82 69 83 48 84 49 85 57 86 50 87 51 88
REMARK SMILES IDX 55 89 58 90 52 91 53 92 56 93 54 94
REMARK H PARENT 15 6 10 24 19 28 78 47 46 58
REMARK Flexibility Score: inf
ROOT
ATOM      1  C   UNL A   1      31.930  28.424  25.765  1.00  0.00     0.042 C 
ENDROOT
BRANCH   1   2
ATOM      2  C   UNL A   1      32.378  27.174  26.529  1.00  0.00     0.118 C 
BRANCH   2   3
ATOM      3  N   UNL A   1      31.278  26.255  26.769  1.00  0.00    -0.351 N 
ATOM      4  C   UNL A   1      30.751  25.221  26.052  1.00  0.00     0.278 C 
ATOM      5  O   UNL A   1      29.731  24.711  26.534  1.00  0.00    -0.268 OA
ATOM      6  H   UNL A   1      30.818  26.412  27.625  1.00  0.00     0.163 HD
BRANCH   4   7
ATOM      7  C   UNL A   1      31.344  24.668  24.722  1.00  0.00     0.271 C 
ATOM      8  C   UNL A   1      31.179  25.595  23.521  1.00  0.00     0.086 C 
BRANCH   7   9
ATOM      9  N   UNL A   1      31.142  23.209  24.552  1.00  0.00    -0.322 N 
ATOM     10  C   UNL A   1      32.649  16.556  26.124  1.00  0.00     0.010 C 
ATOM     11  C   UNL A   1      32.720  17.157  24.719  1.00  0.00     0.010 C 
ATOM     12  C   UNL A   1      32.641  18.680  24.764  1.00  0.00     0.125 C 
ATOM     13  C   UNL A   1      34.089  16.906  24.052  1.00  0.00     0.010 C 
ATOM     14  N   UNL A   1      34.021  19.131  24.826  1.00  0.00    -0.324 N 
ATOM     15  C   UNL A   1      34.957  18.039  24.617  1.00  0.00     0.125 C 
ATOM     16  C   UNL A   1      34.002  17.005  22.525  1.00  0.00     0.010 C 
ATOM     17  C   UNL A   1      34.419  20.447  24.775  1.00  0.00     0.320 C 
ATOM     18  O   UNL A   1      35.582  20.802  24.614  1.00  0.00    -0.248 OA
ATOM     19  N   UNL A   1      33.368  21.335  24.747  1.00  0.00    -0.313 N 
ATOM     20  C   UNL A   1      33.242  22.192  23.589  1.00  0.00     0.183 C 
ATOM     21  C   UNL A   1      32.789  21.852  25.982  1.00  0.00     0.183 C 
ATOM     22  C   UNL A   1      31.768  22.562  23.398  1.00  0.00     0.284 C 
ATOM     23  C   UNL A   1      31.355  22.393  25.766  1.00  0.00     0.284 C 
ATOM     24  H   UNL A   1      30.143  23.223  24.343  1.00  0.00     0.348 HD
ENDBRANCH   7   9
ENDBRANCH   4   7
ENDBRANCH   2   3
ENDBRANCH   1   2
BRANCH   1  25
ATOM     25  C   UNL A   1      33.048  29.417  25.485  1.00  0.00     0.118 C 
BRANCH  25  26
ATOM     26  N   UNL A   1      32.702  30.761  25.907  1.00  0.00    -0.352 N 
ATOM     27  C   UNL A   1      33.210  31.540  26.923  1.00  0.00     0.251 C 
ATOM     28  H   UNL A   1      31.988  31.188  25.381  1.00  0.00     0.163 HD
ATOM     29  O   UNL A   1      32.619  32.570  27.233  1.00  0.00    -0.269 OA
BRANCH  27  30
ATOM     30  C   UNL A   1      34.440  31.157  27.662  1.00  0.00     0.039 A 
ATOM     31  C   UNL A   1      34.542  29.850  28.155  1.00  0.00     0.014 A 
ATOM     32  C   UNL A   1      35.457  32.071  27.941  1.00  0.00     0.014 A 
ATOM     33  C   UNL A   1      35.674  29.455  28.877  1.00  0.00     0.010 A 
ATOM     34  C   UNL A   1      36.625  31.654  28.583  1.00  0.00     0.010 A 
ATOM     35  C   UNL A   1      36.739  30.345  29.076  1.00  0.00    -0.014 A 
BRANCH  35  36
ATOM     36  C   UNL A   1      37.960  29.938  29.824  1.00  0.00     0.031 A 
ATOM     37  C   UNL A   1      38.198  30.447  31.222  1.00  0.00     0.074 A 
ATOM     38  C   UNL A   1      38.884  29.157  29.230  1.00  0.00     0.049 A 
ATOM     39  N   UNL A   1      39.231  30.265  32.007  1.00  0.00    -0.248 NA
ATOM     40  C   UNL A   1      37.149  31.299  31.805  1.00  0.00     0.031 C 
ATOM     41  C   UNL A   1      38.803  28.641  27.863  1.00  0.00     0.029 A 
ATOM     42  N   UNL A   1      40.080  28.670  29.698  1.00  0.00    -0.354 N 
ATOM     43  C   UNL A   1      38.968  30.999  33.157  1.00  0.00     0.074 A 
ATOM     44  C   UNL A   1      37.701  31.667  32.953  1.00  0.00     0.031 C 
ATOM     45  C   UNL A   1      39.889  27.894  27.610  1.00  0.00     0.029 A 
ATOM     46  C   UNL A   1      40.759  27.904  28.782  1.00  0.00     0.049 A 
ATOM     47  H   UNL A   1      40.418  28.852  30.605  1.00  0.00     0.167 HD
ATOM     48  C   UNL A   1      39.703  31.090  34.291  1.00  0.00     0.037 A 
ATOM     49  C   UNL A   1      41.950  27.282  28.875  1.00  0.00     0.037 A 
ATOM     50  C   UNL A   1      40.937  30.386  34.518  1.00  0.00     0.049 A 
ATOM     51  C   UNL A   1      42.730  27.371  30.160  1.00  0.00     0.074 A 
ATOM     52  C   UNL A   1      41.712  30.349  35.664  1.00  0.00     0.029 A 
ATOM     53  N   UNL A   1      41.573  29.588  33.579  1.00  0.00    -0.354 N 
ATOM     54  N   UNL A   1      42.434  28.012  31.264  1.00  0.00    -0.248 NA
ATOM     55  C   UNL A   1      44.005  26.642  30.213  1.00  0.00     0.031 C 
ATOM     56  C   UNL A   1      42.837  29.556  35.407  1.00  0.00     0.029 A 
ATOM     57  C   UNL A   1      42.740  29.068  34.114  1.00  0.00     0.049 A 
ATOM     58  H   UNL A   1      41.243  29.416  32.667  1.00  0.00     0.167 HD
ATOM     59  C   UNL A   1      43.472  27.746  32.147  1.00  0.00     0.074 A 
ATOM     60  C   UNL A   1      44.395  26.870  31.459  1.00  0.00     0.031 C 
ATOM     61  C   UNL A   1      43.645  28.191  33.416  1.00  0.00     0.037 A 
BRANCH  48  62
ATOM     62  C   UNL A   1      39.187  31.976  35.388  1.00  0.00     0.064 A 
ATOM     63  C   UNL A   1      38.402  31.470  36.434  1.00  0.00     0.173 A 
ATOM     64  C   UNL A   1      39.526  33.337  35.421  1.00  0.00     0.173 A 
ATOM     65  F   UNL A   1      38.042  30.178  36.444  1.00  0.00    -0.203 F 
ATOM     66  C   UNL A   1      37.953  32.299  37.459  1.00  0.00     0.198 A 
ATOM     67  C   UNL A   1      39.099  34.158  36.463  1.00  0.00     0.198 A 
ATOM     68  F   UNL A   1      40.281  33.871  34.450  1.00  0.00    -0.203 F 
ATOM     69  F   UNL A   1      37.167  31.802  38.425  1.00  0.00    -0.200 F 
ATOM     70  C   UNL A   1      38.307  33.639  37.477  1.00  0.00     0.200 A 
ATOM     71  F   UNL A   1      39.452  35.450  36.485  1.00  0.00    -0.200 F 
ATOM     72  F   UNL A   1      37.882  34.434  38.469  1.00  0.00    -0.200 F 
ENDBRANCH  48  62
BRANCH  49  73
ATOM     73  C   UNL A   1      42.472  26.499  27.725  1.00  0.00     0.064 A 
ATOM     74  C   UNL A   1      43.368  27.072  26.812  1.00  0.00     0.173 A 
ATOM     75  C   UNL A   1      42.081  25.170  27.509  1.00  0.00     0.173 A 
ATOM     76  F   UNL A   1      43.754  28.348  26.965  1.00  0.00    -0.203 F 
ATOM     77  C   UNL A   1      43.835  26.353  25.714  1.00  0.00     0.198 A 
ATOM     78  C   UNL A   1      42.570  24.443  26.426  1.00  0.00     0.198 A 
ATOM     79  F   UNL A   1      41.228  24.574  28.356  1.00  0.00    -0.203 F 
ATOM     80  F   UNL A   1      44.654  26.941  24.830  1.00  0.00    -0.200 F 
ATOM     81  C   UNL A   1      43.441  25.037  25.524  1.00  0.00     0.200 A 
ATOM     82  F   UNL A   1      42.197  23.168  26.253  1.00  0.00    -0.200 F 
ATOM     83  F   UNL A   1      43.892  24.345  24.470  1.00  0.00    -0.200 F 
ENDBRANCH  49  73
BRANCH  61  84
ATOM     84  C   UNL A   1      44.865  27.718  34.149  1.00  0.00     0.064 A 
ATOM     85  C   UNL A   1      46.056  28.458  34.143  1.00  0.00     0.173 A 
ATOM     86  C   UNL A   1      44.830  26.530  34.895  1.00  0.00     0.173 A 
ATOM     87  F   UNL A   1      46.142  29.592  33.432  1.00  0.00    -0.203 F 
ATOM     88  C   UNL A   1      47.177  28.013  34.838  1.00  0.00     0.198 A 
ATOM     89  C   UNL A   1      45.944  26.103  35.610  1.00  0.00     0.198 A 
ATOM     90  F   UNL A   1      43.711  25.791  34.937  1.00  0.00    -0.203 F 
ATOM     91  F   UNL A   1      48.318  28.712  34.783  1.00  0.00    -0.200 F 
ATOM     92  C   UNL A   1      47.118  26.840  35.576  1.00  0.00     0.200 A 
ATOM     93  F   UNL A   1      45.883  24.975  36.333  1.00  0.00    -0.200 F 
ATOM     94  F   UNL A   1      48.197  26.415  36.249  1.00  0.00    -0.200 F 
ENDBRANCH  61  84
ENDBRANCH  35  36
ENDBRANCH  27  30
ENDBRANCH  25  26
ENDBRANCH   1  25
TORSDOF 11
ENDMDL
