MODEL 1
REMARK VINA RESULT:     -12.7      0.000      0.000
REMARK SMILES O=C(NCCCNC(=O)c1ccccc1Sc1ccc(S(=O)(=O)N2CCCC2)cc1[N+](=O)[O-])c1ccc(-c2c3nc(c(-c4c(F)c(F)c(F)c(F)c4F)c4ccc([nH]4)c(-c4c(F)c(F)c(F)c(F)c4F)c4nc(c(-c5c(F)c(F)c(F)c(F)c5F)c5ccc2[nH]5)C=C4)C=C3)cc1
REMARK SMILES IDX 6 1 5 2 4 3 3 4 1 5 2 6 34 8 35 9 96 10 36 11 95 12 37 13
REMARK SMILES IDX 38 14 39 15 89 16 40 17 94 18 88 19 90 20 41 21 93 22 87 23
REMARK SMILES IDX 86 24 42 26 74 27 54 28 73 29 55 30 58 31 72 32 91 33 56 34
REMARK SMILES IDX 57 35 71 37 92 38 59 39 43 40 44 41 52 42 45 43 46 44 50 45
REMARK SMILES IDX 53 46 47 47 48 48 51 49 49 50 75 51 76 52 84 53 77 54 78 55
REMARK SMILES IDX 82 56 85 57 79 58 80 59 83 60 81 61 60 62 61 63 69 64 62 65
REMARK SMILES IDX 63 66 67 67 70 68 64 69 65 70 68 71 66 72 7 73 8 74 9 76
REMARK SMILES IDX 10 77 11 78 15 79 12 80 14 81 13 82 16 83 17 84 18 85 30 86
REMARK SMILES IDX 19 87 29 88 20 89 31 90 32 91 33 92 21 93 22 94 23 95 24 96
REMARK SMILES IDX 25 97 28 98 26 99 27 100
REMARK H PARENT 3 7 90 25 58 36 7 75
REMARK Flexibility Score: inf
ROOT
ATOM      1  C   UNL A   1      31.447  27.938  26.772  1.00  0.00     0.118 C 
ENDROOT
BRANCH   1   2
ATOM      2  C   UNL A   1      32.878  27.922  27.269  1.00  0.00     0.042 C 
BRANCH   2   3
ATOM      3  C   UNL A   1      33.731  29.075  26.771  1.00  0.00     0.118 C 
BRANCH   3   4
ATOM      4  N   UNL A   1      33.736  30.253  27.627  1.00  0.00    -0.352 N 
ATOM      5  O   UNL A   1      34.675  31.858  28.923  1.00  0.00    -0.269 OA
ATOM      6  C   UNL A   1      34.793  30.793  28.329  1.00  0.00     0.251 C 
ATOM      7  H   UNL A   1      32.876  30.723  27.715  1.00  0.00     0.163 HD
BRANCH   6   8
ATOM      8  C   UNL A   1      36.019  29.984  28.455  1.00  0.00     0.039 A 
ATOM      9  C   UNL A   1      36.314  29.334  29.654  1.00  0.00     0.014 A 
ATOM     10  C   UNL A   1      36.974  30.106  27.445  1.00  0.00     0.014 A 
ATOM     11  C   UNL A   1      37.641  29.043  29.939  1.00  0.00     0.010 A 
ATOM     12  C   UNL A   1      38.280  29.693  27.690  1.00  0.00     0.010 A 
ATOM     13  C   UNL A   1      38.638  29.227  28.963  1.00  0.00    -0.014 A 
BRANCH  13  14
ATOM     14  C   UNL A   1      40.045  28.883  29.274  1.00  0.00     0.031 A 
ATOM     15  C   UNL A   1      40.933  29.825  30.040  1.00  0.00     0.074 A 
ATOM     16  C   UNL A   1      40.512  27.699  28.838  1.00  0.00     0.049 A 
ATOM     17  N   UNL A   1      42.205  29.706  30.334  1.00  0.00    -0.248 NA
ATOM     18  C   UNL A   1      40.324  31.072  30.532  1.00  0.00     0.031 C 
ATOM     19  C   UNL A   1      39.730  26.718  28.081  1.00  0.00     0.029 A 
ATOM     20  N   UNL A   1      41.744  27.116  28.966  1.00  0.00    -0.354 N 
ATOM     21  C   UNL A   1      42.553  30.866  31.016  1.00  0.00     0.074 A 
ATOM     22  C   UNL A   1      41.364  31.691  31.074  1.00  0.00     0.031 C 
ATOM     23  C   UNL A   1      40.488  25.641  27.842  1.00  0.00     0.029 A 
ATOM     24  C   UNL A   1      41.828  25.891  28.353  1.00  0.00     0.049 A 
ATOM     25  H   UNL A   1      42.493  27.533  29.450  1.00  0.00     0.167 HD
ATOM     26  C   UNL A   1      43.756  31.203  31.543  1.00  0.00     0.037 A 
ATOM     27  C   UNL A   1      42.881  25.075  28.184  1.00  0.00     0.037 A 
ATOM     28  C   UNL A   1      44.924  30.358  31.479  1.00  0.00     0.049 A 
ATOM     29  C   UNL A   1      44.207  25.490  28.747  1.00  0.00     0.074 A 
ATOM     30  C   UNL A   1      46.184  30.580  32.010  1.00  0.00     0.029 A 
ATOM     31  N   UNL A   1      44.976  29.128  30.834  1.00  0.00    -0.354 N 
ATOM     32  N   UNL A   1      44.518  26.574  29.415  1.00  0.00    -0.248 NA
ATOM     33  C   UNL A   1      45.328  24.569  28.533  1.00  0.00     0.031 C 
ATOM     34  C   UNL A   1      47.011  29.517  31.635  1.00  0.00     0.029 A 
ATOM     35  C   UNL A   1      46.253  28.596  30.930  1.00  0.00     0.049 A 
ATOM     36  H   UNL A   1      44.218  28.698  30.379  1.00  0.00     0.167 HD
ATOM     37  C   UNL A   1      45.865  26.458  29.721  1.00  0.00     0.074 A 
ATOM     38  C   UNL A   1      46.304  25.185  29.183  1.00  0.00     0.031 C 
ATOM     39  C   UNL A   1      46.667  27.326  30.385  1.00  0.00     0.037 A 
BRANCH  26  40
ATOM     40  C   UNL A   1      43.889  32.546  32.210  1.00  0.00     0.064 A 
ATOM     41  C   UNL A   1      43.656  32.721  33.583  1.00  0.00     0.173 A 
ATOM     42  C   UNL A   1      44.308  33.667  31.474  1.00  0.00     0.173 A 
ATOM     43  F   UNL A   1      43.248  31.690  34.336  1.00  0.00    -0.203 F 
ATOM     44  C   UNL A   1      43.810  33.970  34.186  1.00  0.00     0.198 A 
ATOM     45  C   UNL A   1      44.493  34.905  32.086  1.00  0.00     0.198 A 
ATOM     46  F   UNL A   1      44.556  33.559  30.161  1.00  0.00    -0.203 F 
ATOM     47  F   UNL A   1      43.536  34.121  35.489  1.00  0.00    -0.200 F 
ATOM     48  C   UNL A   1      44.235  35.057  33.440  1.00  0.00     0.200 A 
ATOM     49  F   UNL A   1      44.920  35.951  31.365  1.00  0.00    -0.200 F 
ATOM     50  F   UNL A   1      44.391  36.255  34.023  1.00  0.00    -0.200 F 
ENDBRANCH  26  40
BRANCH  27  51
ATOM     51  C   UNL A   1      42.708  23.802  27.438  1.00  0.00     0.064 A 
ATOM     52  C   UNL A   1      43.047  23.710  26.083  1.00  0.00     0.173 A 
ATOM     53  C   UNL A   1      42.235  22.644  28.075  1.00  0.00     0.173 A 
ATOM     54  F   UNL A   1      43.493  24.793  25.429  1.00  0.00    -0.203 F 
ATOM     55  C   UNL A   1      42.902  22.513  25.387  1.00  0.00     0.198 A 
ATOM     56  C   UNL A   1      42.125  21.439  27.387  1.00  0.00     0.198 A 
ATOM     57  F   UNL A   1      41.910  22.676  29.376  1.00  0.00    -0.203 F 
ATOM     58  F   UNL A   1      43.191  22.462  24.079  1.00  0.00    -0.200 F 
ATOM     59  C   UNL A   1      42.448  21.376  26.041  1.00  0.00     0.200 A 
ATOM     60  F   UNL A   1      41.710  20.339  28.030  1.00  0.00    -0.200 F 
ATOM     61  F   UNL A   1      42.321  20.223  25.373  1.00  0.00    -0.200 F 
ENDBRANCH  27  51
BRANCH  39  62
ATOM     62  C   UNL A   1      48.092  26.904  30.595  1.00  0.00     0.064 A 
ATOM     63  C   UNL A   1      49.117  27.306  29.724  1.00  0.00     0.173 A 
ATOM     64  C   UNL A   1      48.438  26.100  31.691  1.00  0.00     0.173 A 
ATOM     65  F   UNL A   1      48.835  28.059  28.650  1.00  0.00    -0.203 F 
ATOM     66  C   UNL A   1      50.430  26.890  29.926  1.00  0.00     0.198 A 
ATOM     67  C   UNL A   1      49.757  25.717  31.910  1.00  0.00     0.198 A 
ATOM     68  F   UNL A   1      47.496  25.694  32.555  1.00  0.00    -0.203 F 
ATOM     69  F   UNL A   1      51.382  27.234  29.048  1.00  0.00    -0.200 F 
ATOM     70  C   UNL A   1      50.750  26.103  31.023  1.00  0.00     0.200 A 
ATOM     71  F   UNL A   1      50.067  24.969  32.978  1.00  0.00    -0.200 F 
ATOM     72  F   UNL A   1      52.015  25.707  31.219  1.00  0.00    -0.200 F 
ENDBRANCH  39  62
ENDBRANCH  13  14
ENDBRANCH   6   8
ENDBRANCH   3   4
ENDBRANCH   2   3
ENDBRANCH   1   2
BRANCH   1  73
ATOM     73  N   UNL A   1      31.012  26.653  26.267  1.00  0.00    -0.352 N 
ATOM     74  C   UNL A   1      30.585  26.361  25.003  1.00  0.00     0.252 C 
ATOM     75  H   UNL A   1      31.025  25.905  26.906  1.00  0.00     0.163 HD
ATOM     76  O   UNL A   1      30.200  25.226  24.734  1.00  0.00    -0.269 OA
BRANCH  74  77
ATOM     77  C   UNL A   1      30.518  27.418  23.981  1.00  0.00     0.053 A 
ATOM     78  C   UNL A   1      29.189  27.777  23.670  1.00  0.00     0.015 A 
ATOM     79  C   UNL A   1      31.607  28.049  23.346  1.00  0.00     0.025 A 
ATOM     80  C   UNL A   1      28.922  28.824  22.797  1.00  0.00     0.001 A 
ATOM     81  C   UNL A   1      31.298  29.136  22.501  1.00  0.00     0.016 A 
ATOM     82  C   UNL A   1      29.979  29.524  22.237  1.00  0.00     0.001 A 
BRANCH  79  83
ATOM     83  S   UNL A   1      33.380  27.698  23.388  1.00  0.00    -0.082 SA
BRANCH  83  84
ATOM     84  C   UNL A   1      33.628  25.941  23.233  1.00  0.00     0.090 A 
ATOM     85  C   UNL A   1      34.409  25.355  24.252  1.00  0.00     0.024 A 
ATOM     86  C   UNL A   1      33.039  25.079  22.309  1.00  0.00     0.284 A 
ATOM     87  C   UNL A   1      34.414  23.971  24.471  1.00  0.00     0.023 A 
ATOM     88  C   UNL A   1      32.902  23.719  22.631  1.00  0.00     0.108 A 
ATOM     89  C   UNL A   1      33.566  23.166  23.720  1.00  0.00     0.089 A 
BRANCH  86  90
ATOM     90  N   UNL A   1      32.553  25.516  20.987  1.00  0.00     0.063 N 
ATOM     91  O   UNL A   1      31.396  25.958  20.923  1.00  0.00    -0.258 OA
ATOM     92  O   UNL A   1      33.272  25.329  19.998  1.00  0.00    -0.258 OA
ENDBRANCH  86  90
BRANCH  89  93
ATOM     93  S   UNL A   1      33.314  21.469  24.207  1.00  0.00     0.243 S 
ATOM     94  O   UNL A   1      32.282  20.942  23.336  1.00  0.00    -0.207 OA
ATOM     95  O   UNL A   1      34.630  20.871  24.248  1.00  0.00    -0.207 OA
BRANCH  93  96
ATOM     96  N   UNL A   1      32.676  21.505  25.762  1.00  0.00    -0.198 NA
ATOM     97  C   UNL A   1      31.541  22.388  26.071  1.00  0.00     0.102 C 
ATOM     98  C   UNL A   1      33.549  21.407  26.948  1.00  0.00     0.102 C 
ATOM     99  C   UNL A   1      32.101  23.369  27.083  1.00  0.00     0.018 C 
ATOM    100  C   UNL A   1      33.142  22.570  27.856  1.00  0.00     0.018 C 
ENDBRANCH  93  96
ENDBRANCH  89  93
ENDBRANCH  83  84
ENDBRANCH  79  83
ENDBRANCH  74  77
ENDBRANCH   1  73
TORSDOF 15
ENDMDL
MODEL 2
REMARK VINA RESULT:     -12.6      2.812      7.394
REMARK SMILES O=C(NCCCNC(=O)c1ccccc1Sc1ccc(S(=O)(=O)N2CCCC2)cc1[N+](=O)[O-])c1ccc(-c2c3nc(c(-c4c(F)c(F)c(F)c(F)c4F)c4ccc([nH]4)c(-c4c(F)c(F)c(F)c(F)c4F)c4nc(c(-c5c(F)c(F)c(F)c(F)c5F)c5ccc2[nH]5)C=C4)C=C3)cc1
REMARK SMILES IDX 6 1 5 2 4 3 3 4 1 5 2 6 34 8 35 9 96 10 36 11 95 12 37 13
REMARK SMILES IDX 38 14 39 15 89 16 40 17 94 18 88 19 90 20 41 21 93 22 87 23
REMARK SMILES IDX 86 24 42 26 74 27 54 28 73 29 55 30 58 31 72 32 91 33 56 34
REMARK SMILES IDX 57 35 71 37 92 38 59 39 43 40 44 41 52 42 45 43 46 44 50 45
REMARK SMILES IDX 53 46 47 47 48 48 51 49 49 50 75 51 76 52 84 53 77 54 78 55
REMARK SMILES IDX 82 56 85 57 79 58 80 59 83 60 81 61 60 62 61 63 69 64 62 65
REMARK SMILES IDX 63 66 67 67 70 68 64 69 65 70 68 71 66 72 7 73 8 74 9 76
REMARK SMILES IDX 10 77 11 78 15 79 12 80 14 81 13 82 16 83 17 84 18 85 30 86
REMARK SMILES IDX 19 87 29 88 20 89 31 90 32 91 33 92 21 93 22 94 23 95 24 96
REMARK SMILES IDX 25 97 28 98 26 99 27 100
REMARK H PARENT 3 7 90 25 58 36 7 75
REMARK Flexibility Score: inf
ROOT
ATOM      1  C   UNL A   1      31.056  27.996  26.844  1.00  0.00     0.118 C 
ENDROOT
BRANCH   1   2
ATOM      2  C   UNL A   1      32.521  28.318  27.052  1.00  0.00     0.042 C 
BRANCH   2   3
ATOM      3  C   UNL A   1      33.014  29.534  26.286  1.00  0.00     0.118 C 
BRANCH   3   4
ATOM      4  N   UNL A   1      32.752  30.814  26.929  1.00  0.00    -0.352 N 
ATOM      5  O   UNL A   1      33.304  32.766  27.942  1.00  0.00    -0.269 OA
ATOM      6  C   UNL A   1      33.653  31.662  27.539  1.00  0.00     0.251 C 
ATOM      7  H   UNL A   1      31.814  31.112  26.928  1.00  0.00     0.163 HD
BRANCH   6   8
ATOM      8  C   UNL A   1      35.006  31.146  27.813  1.00  0.00     0.039 A 
ATOM      9  C   UNL A   1      35.191  29.815  28.187  1.00  0.00     0.014 A 
ATOM     10  C   UNL A   1      36.035  32.080  27.936  1.00  0.00     0.014 A 
ATOM     11  C   UNL A   1      36.318  29.486  28.926  1.00  0.00     0.010 A 
ATOM     12  C   UNL A   1      37.219  31.710  28.567  1.00  0.00     0.010 A 
ATOM     13  C   UNL A   1      37.339  30.432  29.131  1.00  0.00    -0.014 A 
BRANCH  13  14
ATOM     14  C   UNL A   1      38.550  30.055  29.897  1.00  0.00     0.031 A 
ATOM     15  C   UNL A   1      39.574  29.108  29.332  1.00  0.00     0.074 A 
ATOM     16  C   UNL A   1      38.702  30.580  31.126  1.00  0.00     0.049 A 
ATOM     17  N   UNL A   1      40.651  28.623  29.899  1.00  0.00    -0.248 NA
ATOM     18  C   UNL A   1      39.359  28.629  27.957  1.00  0.00     0.031 C 
ATOM     19  C   UNL A   1      37.761  31.503  31.765  1.00  0.00     0.029 A 
ATOM     20  N   UNL A   1      39.695  30.421  32.055  1.00  0.00    -0.354 N 
ATOM     21  C   UNL A   1      41.225  27.766  28.967  1.00  0.00     0.074 A 
ATOM     22  C   UNL A   1      40.365  27.777  27.803  1.00  0.00     0.031 C 
ATOM     23  C   UNL A   1      38.236  31.857  32.965  1.00  0.00     0.029 A 
ATOM     24  C   UNL A   1      39.468  31.121  33.213  1.00  0.00     0.049 A 
ATOM     25  H   UNL A   1      40.491  29.861  31.907  1.00  0.00     0.167 HD
ATOM     26  C   UNL A   1      42.365  27.041  29.082  1.00  0.00     0.037 A 
ATOM     27  C   UNL A   1      40.155  31.138  34.367  1.00  0.00     0.037 A 
ATOM     28  C   UNL A   1      43.211  27.055  30.251  1.00  0.00     0.049 A 
ATOM     29  C   UNL A   1      41.393  30.301  34.476  1.00  0.00     0.074 A 
ATOM     30  C   UNL A   1      44.407  26.391  30.462  1.00  0.00     0.029 A 
ATOM     31  N   UNL A   1      42.940  27.766  31.414  1.00  0.00    -0.354 N 
ATOM     32  N   UNL A   1      41.943  29.517  33.579  1.00  0.00    -0.248 NA
ATOM     33  C   UNL A   1      42.107  30.348  35.755  1.00  0.00     0.031 C 
ATOM     34  C   UNL A   1      44.827  26.651  31.771  1.00  0.00     0.029 A 
ATOM     35  C   UNL A   1      43.932  27.533  32.355  1.00  0.00     0.049 A 
ATOM     36  H   UNL A   1      42.160  28.351  31.549  1.00  0.00     0.167 HD
ATOM     37  C   UNL A   1      43.079  28.994  34.177  1.00  0.00     0.074 A 
ATOM     38  C   UNL A   1      43.149  29.568  35.506  1.00  0.00     0.031 C 
ATOM     39  C   UNL A   1      43.980  28.115  33.673  1.00  0.00     0.037 A 
BRANCH  26  40
ATOM     40  C   UNL A   1      42.760  26.152  27.933  1.00  0.00     0.064 A 
ATOM     41  C   UNL A   1      42.236  24.860  27.778  1.00  0.00     0.173 A 
ATOM     42  C   UNL A   1      43.635  26.621  26.939  1.00  0.00     0.173 A 
ATOM     43  F   UNL A   1      41.400  24.354  28.697  1.00  0.00    -0.203 F 
ATOM     44  C   UNL A   1      42.595  24.062  26.691  1.00  0.00     0.198 A 
ATOM     45  C   UNL A   1      43.966  25.834  25.837  1.00  0.00     0.198 A 
ATOM     46  F   UNL A   1      44.160  27.852  27.026  1.00  0.00    -0.203 F 
ATOM     47  F   UNL A   1      42.117  22.814  26.591  1.00  0.00    -0.200 F 
ATOM     48  C   UNL A   1      43.453  24.552  25.719  1.00  0.00     0.200 A 
ATOM     49  F   UNL A   1      44.782  26.317  24.891  1.00  0.00    -0.200 F 
ATOM     50  F   UNL A   1      43.789  23.788  24.670  1.00  0.00    -0.200 F 
ENDBRANCH  26  40
BRANCH  27  51
ATOM     51  C   UNL A   1      39.667  31.969  35.497  1.00  0.00     0.064 A 
ATOM     52  C   UNL A   1      40.124  33.280  35.676  1.00  0.00     0.173 A 
ATOM     53  C   UNL A   1      38.707  31.480  36.398  1.00  0.00     0.173 A 
ATOM     54  F   UNL A   1      41.048  33.787  34.847  1.00  0.00    -0.203 F 
ATOM     55  C   UNL A   1      39.653  34.066  36.726  1.00  0.00     0.198 A 
ATOM     56  C   UNL A   1      38.212  32.279  37.424  1.00  0.00     0.198 A 
ATOM     57  F   UNL A   1      38.227  30.235  36.261  1.00  0.00    -0.203 F 
ATOM     58  F   UNL A   1      40.139  35.303  36.902  1.00  0.00    -0.200 F 
ATOM     59  C   UNL A   1      38.692  33.568  37.593  1.00  0.00     0.200 A 
ATOM     60  F   UNL A   1      37.265  31.802  38.244  1.00  0.00    -0.200 F 
ATOM     61  F   UNL A   1      38.232  34.330  38.594  1.00  0.00    -0.200 F 
ENDBRANCH  27  51
BRANCH  39  62
ATOM     62  C   UNL A   1      45.139  27.756  34.556  1.00  0.00     0.064 A 
ATOM     63  C   UNL A   1      45.093  26.654  35.423  1.00  0.00     0.173 A 
ATOM     64  C   UNL A   1      46.317  28.517  34.522  1.00  0.00     0.173 A 
ATOM     65  F   UNL A   1      43.982  25.906  35.507  1.00  0.00    -0.203 F 
ATOM     66  C   UNL A   1      46.172  26.347  36.247  1.00  0.00     0.198 A 
ATOM     67  C   UNL A   1      47.408  28.185  35.320  1.00  0.00     0.198 A 
ATOM     68  F   UNL A   1      46.414  29.578  33.707  1.00  0.00    -0.203 F 
ATOM     69  F   UNL A   1      46.084  25.327  37.112  1.00  0.00    -0.200 F 
ATOM     70  C   UNL A   1      47.330  27.108  36.189  1.00  0.00     0.200 A 
ATOM     71  F   UNL A   1      48.532  28.912  35.252  1.00  0.00    -0.200 F 
ATOM     72  F   UNL A   1      48.371  26.808  36.979  1.00  0.00    -0.200 F 
ENDBRANCH  39  62
ENDBRANCH  13  14
ENDBRANCH   6   8
ENDBRANCH   3   4
ENDBRANCH   2   3
ENDBRANCH   1   2
BRANCH   1  73
ATOM     73  N   UNL A   1      30.842  26.670  26.302  1.00  0.00    -0.352 N 
ATOM     74  C   UNL A   1      30.592  26.337  25.001  1.00  0.00     0.252 C 
ATOM     75  H   UNL A   1      30.880  25.925  26.943  1.00  0.00     0.163 HD
ATOM     76  O   UNL A   1      30.384  25.165  24.698  1.00  0.00    -0.269 OA
BRANCH  74  77
ATOM     77  C   UNL A   1      30.504  27.386  23.972  1.00  0.00     0.053 A 
ATOM     78  C   UNL A   1      29.169  27.752  23.696  1.00  0.00     0.015 A 
ATOM     79  C   UNL A   1      31.578  28.004  23.301  1.00  0.00     0.025 A 
ATOM     80  C   UNL A   1      28.883  28.793  22.822  1.00  0.00     0.001 A 
ATOM     81  C   UNL A   1      31.252  29.086  22.456  1.00  0.00     0.016 A 
ATOM     82  C   UNL A   1      29.928  29.481  22.225  1.00  0.00     0.001 A 
BRANCH  79  83
ATOM     83  S   UNL A   1      33.349  27.643  23.296  1.00  0.00    -0.082 SA
BRANCH  83  84
ATOM     84  C   UNL A   1      33.581  25.882  23.156  1.00  0.00     0.090 A 
ATOM     85  C   UNL A   1      34.363  25.300  24.176  1.00  0.00     0.024 A 
ATOM     86  C   UNL A   1      32.979  25.016  22.244  1.00  0.00     0.284 A 
ATOM     87  C   UNL A   1      34.358  23.917  24.409  1.00  0.00     0.023 A 
ATOM     88  C   UNL A   1      32.833  23.660  22.580  1.00  0.00     0.108 A 
ATOM     89  C   UNL A   1      33.499  23.113  23.670  1.00  0.00     0.089 A 
BRANCH  86  90
ATOM     90  N   UNL A   1      32.490  25.445  20.921  1.00  0.00     0.063 N 
ATOM     91  O   UNL A   1      33.261  25.313  19.958  1.00  0.00    -0.258 OA
ATOM     92  O   UNL A   1      31.390  26.005  20.846  1.00  0.00    -0.258 OA
ENDBRANCH  86  90
BRANCH  89  93
ATOM     93  S   UNL A   1      33.235  21.422  24.175  1.00  0.00     0.243 S 
ATOM     94  O   UNL A   1      32.194  20.895  23.315  1.00  0.00    -0.207 OA
ATOM     95  O   UNL A   1      34.547  20.814  24.215  1.00  0.00    -0.207 OA
BRANCH  93  96
ATOM     96  N   UNL A   1      32.607  21.478  25.733  1.00  0.00    -0.198 NA
ATOM     97  C   UNL A   1      31.487  22.382  26.042  1.00  0.00     0.102 C 
ATOM     98  C   UNL A   1      33.484  21.373  26.915  1.00  0.00     0.102 C 
ATOM     99  C   UNL A   1      32.069  23.360  27.045  1.00  0.00     0.018 C 
ATOM    100  C   UNL A   1      33.101  22.548  27.818  1.00  0.00     0.018 C 
ENDBRANCH  93  96
ENDBRANCH  89  93
ENDBRANCH  83  84
ENDBRANCH  79  83
ENDBRANCH  74  77
ENDBRANCH   1  73
TORSDOF 15
ENDMDL
MODEL 3
REMARK VINA RESULT:     -12.6      3.385      7.893
REMARK SMILES O=C(NCCCNC(=O)c1ccccc1Sc1ccc(S(=O)(=O)N2CCCC2)cc1[N+](=O)[O-])c1ccc(-c2c3nc(c(-c4c(F)c(F)c(F)c(F)c4F)c4ccc([nH]4)c(-c4c(F)c(F)c(F)c(F)c4F)c4nc(c(-c5c(F)c(F)c(F)c(F)c5F)c5ccc2[nH]5)C=C4)C=C3)cc1
REMARK SMILES IDX 6 1 5 2 4 3 3 4 1 5 2 6 34 8 35 9 96 10 36 11 95 12 37 13
REMARK SMILES IDX 38 14 39 15 89 16 40 17 94 18 88 19 90 20 41 21 93 22 87 23
REMARK SMILES IDX 86 24 42 26 74 27 54 28 73 29 55 30 58 31 72 32 91 33 56 34
REMARK SMILES IDX 57 35 71 37 92 38 59 39 43 40 44 41 52 42 45 43 46 44 50 45
REMARK SMILES IDX 53 46 47 47 48 48 51 49 49 50 75 51 76 52 84 53 77 54 78 55
REMARK SMILES IDX 82 56 85 57 79 58 80 59 83 60 81 61 60 62 61 63 69 64 62 65
REMARK SMILES IDX 63 66 67 67 70 68 64 69 65 70 68 71 66 72 7 73 8 74 9 76
REMARK SMILES IDX 10 77 11 78 15 79 12 80 14 81 13 82 16 83 17 84 18 85 30 86
REMARK SMILES IDX 19 87 29 88 20 89 31 90 32 91 33 92 21 93 22 94 23 95 24 96
REMARK SMILES IDX 25 97 28 98 26 99 27 100
REMARK H PARENT 3 7 90 25 58 36 7 75
REMARK Flexibility Score: inf
ROOT
ATOM      1  C   UNL A   1      36.777  20.778  25.017  1.00  0.00     0.118 C 
ENDROOT
BRANCH   1   2
ATOM      2  C   UNL A   1      38.116  21.486  25.000  1.00  0.00     0.042 C 
BRANCH   2   3
ATOM      3  C   UNL A   1      39.069  21.060  26.103  1.00  0.00     0.118 C 
BRANCH   3   4
ATOM      4  N   UNL A   1      39.806  19.833  25.839  1.00  0.00    -0.352 N 
ATOM      5  O   UNL A   1      41.603  18.452  25.895  1.00  0.00    -0.269 OA
ATOM      6  C   UNL A   1      41.142  19.575  26.064  1.00  0.00     0.251 C 
ATOM      7  H   UNL A   1      39.285  19.093  25.452  1.00  0.00     0.163 HD
BRANCH   6   8
ATOM      8  C   UNL A   1      42.019  20.717  26.377  1.00  0.00     0.039 A 
ATOM      9  C   UNL A   1      42.276  21.065  27.703  1.00  0.00     0.014 A 
ATOM     10  C   UNL A   1      42.359  21.571  25.327  1.00  0.00     0.014 A 
ATOM     11  C   UNL A   1      42.631  22.377  27.986  1.00  0.00     0.010 A 
ATOM     12  C   UNL A   1      42.838  22.846  25.615  1.00  0.00     0.010 A 
ATOM     13  C   UNL A   1      42.907  23.283  26.945  1.00  0.00    -0.014 A 
BRANCH  13  14
ATOM     14  C   UNL A   1      43.313  24.671  27.265  1.00  0.00     0.031 A 
ATOM     15  C   UNL A   1      42.337  25.662  27.841  1.00  0.00     0.074 A 
ATOM     16  C   UNL A   1      44.585  25.026  27.014  1.00  0.00     0.049 A 
ATOM     17  N   UNL A   1      42.513  26.932  28.111  1.00  0.00    -0.248 NA
ATOM     18  C   UNL A   1      40.981  25.172  28.141  1.00  0.00     0.031 C 
ATOM     19  C   UNL A   1      45.606  24.139  26.450  1.00  0.00     0.029 A 
ATOM     20  N   UNL A   1      45.241  26.213  27.198  1.00  0.00    -0.354 N 
ATOM     21  C   UNL A   1      41.291  27.398  28.585  1.00  0.00     0.074 A 
ATOM     22  C   UNL A   1      40.373  26.280  28.544  1.00  0.00     0.031 C 
ATOM     23  C   UNL A   1      46.767  24.800  26.367  1.00  0.00     0.029 A 
ATOM     24  C   UNL A   1      46.551  26.176  26.790  1.00  0.00     0.049 A 
ATOM     25  H   UNL A   1      44.816  27.013  27.584  1.00  0.00     0.167 HD
ATOM     26  C   UNL A   1      40.976  28.645  29.013  1.00  0.00     0.037 A 
ATOM     27  C   UNL A   1      47.468  27.155  26.724  1.00  0.00     0.037 A 
ATOM     28  C   UNL A   1      41.914  29.740  29.052  1.00  0.00     0.049 A 
ATOM     29  C   UNL A   1      47.080  28.532  27.171  1.00  0.00     0.074 A 
ATOM     30  C   UNL A   1      41.716  31.035  29.501  1.00  0.00     0.029 A 
ATOM     31  N   UNL A   1      43.232  29.670  28.615  1.00  0.00    -0.354 N 
ATOM     32  N   UNL A   1      45.933  28.955  27.645  1.00  0.00    -0.248 NA
ATOM     33  C   UNL A   1      48.113  29.568  27.076  1.00  0.00     0.031 C 
ATOM     34  C   UNL A   1      42.890  31.761  29.279  1.00  0.00     0.029 A 
ATOM     35  C   UNL A   1      43.846  30.904  28.757  1.00  0.00     0.049 A 
ATOM     36  H   UNL A   1      43.664  28.861  28.258  1.00  0.00     0.167 HD
ATOM     37  C   UNL A   1      46.110  30.300  27.925  1.00  0.00     0.074 A 
ATOM     38  C   UNL A   1      47.484  30.616  27.587  1.00  0.00     0.031 C 
ATOM     39  C   UNL A   1      45.216  31.195  28.413  1.00  0.00     0.037 A 
BRANCH  26  40
ATOM     40  C   UNL A   1      39.560  28.909  29.448  1.00  0.00     0.064 A 
ATOM     41  C   UNL A   1      39.137  28.705  30.771  1.00  0.00     0.173 A 
ATOM     42  C   UNL A   1      38.622  29.428  28.540  1.00  0.00     0.173 A 
ATOM     43  F   UNL A   1      39.985  28.206  31.682  1.00  0.00    -0.203 F 
ATOM     44  C   UNL A   1      37.826  28.981  31.159  1.00  0.00     0.198 A 
ATOM     45  C   UNL A   1      37.322  29.734  28.939  1.00  0.00     0.198 A 
ATOM     46  F   UNL A   1      38.969  29.655  27.265  1.00  0.00    -0.203 F 
ATOM     47  F   UNL A   1      37.434  28.732  32.417  1.00  0.00    -0.200 F 
ATOM     48  C   UNL A   1      36.923  29.502  30.246  1.00  0.00     0.200 A 
ATOM     49  F   UNL A   1      36.456  30.253  28.058  1.00  0.00    -0.200 F 
ATOM     50  F   UNL A   1      35.666  29.776  30.623  1.00  0.00    -0.200 F 
ENDBRANCH  26  40
BRANCH  27  51
ATOM     51  C   UNL A   1      48.825  26.852  26.201  1.00  0.00     0.064 A 
ATOM     52  C   UNL A   1      49.823  26.345  27.042  1.00  0.00     0.173 A 
ATOM     53  C   UNL A   1      49.138  27.028  24.844  1.00  0.00     0.173 A 
ATOM     54  F   UNL A   1      49.574  26.170  28.347  1.00  0.00    -0.203 F 
ATOM     55  C   UNL A   1      51.091  26.044  26.549  1.00  0.00     0.198 A 
ATOM     56  C   UNL A   1      50.393  26.692  24.346  1.00  0.00     0.198 A 
ATOM     57  F   UNL A   1      48.212  27.497  23.994  1.00  0.00    -0.203 F 
ATOM     58  F   UNL A   1      52.042  25.602  27.383  1.00  0.00    -0.200 F 
ATOM     59  C   UNL A   1      51.372  26.210  25.201  1.00  0.00     0.200 A 
ATOM     60  F   UNL A   1      50.652  26.830  23.039  1.00  0.00    -0.200 F 
ATOM     61  F   UNL A   1      52.588  25.908  24.727  1.00  0.00    -0.200 F 
ENDBRANCH  27  51
BRANCH  39  62
ATOM     62  C   UNL A   1      45.716  32.591  28.646  1.00  0.00     0.064 A 
ATOM     63  C   UNL A   1      46.312  32.970  29.858  1.00  0.00     0.173 A 
ATOM     64  C   UNL A   1      45.611  33.558  27.634  1.00  0.00     0.173 A 
ATOM     65  F   UNL A   1      46.419  32.088  30.864  1.00  0.00    -0.203 F 
ATOM     66  C   UNL A   1      46.753  34.274  30.061  1.00  0.00     0.198 A 
ATOM     67  C   UNL A   1      46.087  34.851  27.827  1.00  0.00     0.198 A 
ATOM     68  F   UNL A   1      45.053  33.245  26.455  1.00  0.00    -0.203 F 
ATOM     69  F   UNL A   1      47.263  34.631  31.247  1.00  0.00    -0.200 F 
ATOM     70  C   UNL A   1      46.648  35.211  29.042  1.00  0.00     0.200 A 
ATOM     71  F   UNL A   1      45.998  35.750  26.837  1.00  0.00    -0.200 F 
ATOM     72  F   UNL A   1      47.078  36.465  29.237  1.00  0.00    -0.200 F 
ENDBRANCH  39  62
ENDBRANCH  13  14
ENDBRANCH   6   8
ENDBRANCH   3   4
ENDBRANCH   2   3
ENDBRANCH   1   2
BRANCH   1  73
ATOM     73  N   UNL A   1      35.930  21.201  26.112  1.00  0.00    -0.352 N 
ATOM     74  C   UNL A   1      34.567  21.137  26.178  1.00  0.00     0.252 C 
ATOM     75  H   UNL A   1      36.387  21.578  26.897  1.00  0.00     0.163 HD
ATOM     76  O   UNL A   1      33.980  21.581  27.161  1.00  0.00    -0.269 OA
BRANCH  74  77
ATOM     77  C   UNL A   1      33.795  20.600  25.045  1.00  0.00     0.053 A 
ATOM     78  C   UNL A   1      33.447  19.245  25.231  1.00  0.00     0.015 A 
ATOM     79  C   UNL A   1      33.407  21.295  23.883  1.00  0.00     0.025 A 
ATOM     80  C   UNL A   1      32.636  18.587  24.314  1.00  0.00     0.001 A 
ATOM     81  C   UNL A   1      32.548  20.609  22.998  1.00  0.00     0.016 A 
ATOM     82  C   UNL A   1      32.161  19.281  23.213  1.00  0.00     0.001 A 
BRANCH  79  83
ATOM     83  S   UNL A   1      33.838  22.943  23.277  1.00  0.00    -0.082 SA
BRANCH  83  84
ATOM     84  C   UNL A   1      33.351  24.153  24.490  1.00  0.00     0.090 A 
ATOM     85  C   UNL A   1      34.413  24.864  25.085  1.00  0.00     0.024 A 
ATOM     86  C   UNL A   1      32.055  24.557  24.812  1.00  0.00     0.284 A 
ATOM     87  C   UNL A   1      34.198  26.060  25.785  1.00  0.00     0.023 A 
ATOM     88  C   UNL A   1      31.852  25.836  25.356  1.00  0.00     0.108 A 
ATOM     89  C   UNL A   1      32.917  26.598  25.821  1.00  0.00     0.089 A 
BRANCH  86  90
ATOM     90  N   UNL A   1      30.869  23.703  24.623  1.00  0.00     0.063 N 
ATOM     91  O   UNL A   1      30.588  22.908  25.533  1.00  0.00    -0.258 OA
ATOM     92  O   UNL A   1      30.274  23.742  23.539  1.00  0.00    -0.258 OA
ENDBRANCH  86  90
BRANCH  89  93
ATOM     93  S   UNL A   1      32.688  28.266  26.410  1.00  0.00     0.243 S 
ATOM     94  O   UNL A   1      31.473  28.258  27.202  1.00  0.00    -0.207 OA
ATOM     95  O   UNL A   1      33.953  28.656  26.992  1.00  0.00    -0.207 OA
BRANCH  93  96
ATOM     96  N   UNL A   1      32.387  29.217  25.057  1.00  0.00    -0.198 NA
ATOM     97  C   UNL A   1      31.030  29.722  24.800  1.00  0.00     0.102 C 
ATOM     98  C   UNL A   1      33.054  28.945  23.769  1.00  0.00     0.102 C 
ATOM     99  C   UNL A   1      30.630  29.057  23.496  1.00  0.00     0.018 C 
ATOM    100  C   UNL A   1      31.935  28.908  22.726  1.00  0.00     0.018 C 
ENDBRANCH  93  96
ENDBRANCH  89  93
ENDBRANCH  83  84
ENDBRANCH  79  83
ENDBRANCH  74  77
ENDBRANCH   1  73
TORSDOF 15
ENDMDL
