MODEL 1
REMARK VINA RESULT:     -12.5      0.000      0.000
REMARK SMILES Cc1oc2c(C)c3oc(=O)c(CCC(=O)N[C@H](Cc4ccc(Cl)cc4)C(=O)NCCCNC(=O)c4ccc(-c5c6nc(c(-c7c(F)c(F)c(F)c(F)c7F)c7ccc([nH]7)c(-c7c(F)c(F)c(F)c(F)c7F)c7nc(c(-c8c(F)c(F)c(F)c(F)c8F)c8ccc5[nH]8)C=C7)C=C6)cc4)c(C)c3cc2c1C
REMARK SMILES IDX 29 1 28 2 26 3 27 4 17 6 16 7 14 8 15 9 13 11 12 12 11 13
REMARK SMILES IDX 1 14 2 15 3 16 103 17 4 18 102 19 104 20 5 21 101 22 6 23
REMARK SMILES IDX 7 24 100 25 8 26 98 27 9 28 99 29 10 30 18 31 19 32 20 33
REMARK SMILES IDX 25 34 21 35 24 36 22 37 23 38 30 39 31 40 32 41 33 42 34 44
REMARK SMILES IDX 35 45 36 46 97 47 37 48 96 49 38 50 39 51 40 52 90 53 41 54
REMARK SMILES IDX 95 55 89 56 91 57 42 58 94 59 88 60 87 61 43 63 75 64 55 65
REMARK SMILES IDX 74 66 56 67 59 68 73 69 92 70 57 71 58 72 72 74 93 75 60 76
REMARK SMILES IDX 44 77 45 78 53 79 46 80 47 81 51 82 54 83 48 84 49 85 52 86
REMARK SMILES IDX 50 87 76 88 77 89 85 90 78 91 79 92 83 93 86 94 80 95 81 96
REMARK SMILES IDX 84 97 82 98 61 99 62 100 70 101 63 102 64 103 68 104 71 105
REMARK SMILES IDX 65 106 66 107 69 108 67 109
REMARK H PARENT 28 5 16 10 32 43 91 62 59 73
REMARK Flexibility Score: inf
ROOT
ATOM      1  C   UNL A   1      45.792  27.587  38.337  1.00  0.00     0.117 C 
ENDROOT
BRANCH   1   2
ATOM      2  N   UNL A   1      45.219  28.978  38.317  1.00  0.00    -0.354 N 
ATOM      3  C   UNL A   1      44.388  29.882  37.636  1.00  0.00     0.242 C 
ATOM      4  O   UNL A   1      43.585  30.645  38.195  1.00  0.00    -0.273 OA
ATOM      5  H   UNL A   1      45.572  29.448  39.107  1.00  0.00     0.163 HD
BRANCH   3   6
ATOM      6  C   UNL A   1      44.194  29.880  36.194  1.00  0.00     0.175 C 
BRANCH   6   7
ATOM      7  N   UNL A   1      42.889  29.177  36.512  1.00  0.00    -0.344 N 
ATOM      8  C   UNL A   1      41.621  29.210  35.842  1.00  0.00     0.220 C 
ATOM      9  O   UNL A   1      40.905  28.228  36.119  1.00  0.00    -0.275 OA
ATOM     10  H   UNL A   1      42.917  28.602  37.310  1.00  0.00     0.164 HD
BRANCH   8  11
ATOM     11  C   UNL A   1      40.898  30.392  34.760  1.00  0.00     0.105 C 
BRANCH  11  12
ATOM     12  C   UNL A   1      39.510  30.680  33.727  1.00  0.00     0.053 C 
BRANCH  12  13
ATOM     13  C   UNL A   1      38.465  31.927  33.670  1.00  0.00     0.042 A 
ATOM     14  C   UNL A   1      33.226  36.057  28.964  1.00  0.00     0.088 C 
ATOM     15  C   UNL A   1      33.900  35.115  29.882  1.00  0.00     0.105 A 
ATOM     16  O   UNL A   1      33.898  35.428  31.217  1.00  0.00    -0.461 OA
ATOM     17  C   UNL A   1      34.645  33.980  29.638  1.00  0.00    -0.002 A 
ATOM     18  C   UNL A   1      34.774  34.576  31.838  1.00  0.00     0.141 A 
ATOM     19  C   UNL A   1      35.319  33.741  30.869  1.00  0.00     0.025 A 
ATOM     20  C   UNL A   1      34.837  33.299  28.324  1.00  0.00     0.049 C 
ATOM     21  C   UNL A   1      35.135  34.552  33.214  1.00  0.00     0.036 A 
ATOM     22  C   UNL A   1      36.431  32.990  31.226  1.00  0.00     0.024 A 
ATOM     23  C   UNL A   1      34.484  35.420  34.228  1.00  0.00     0.052 C 
ATOM     24  C   UNL A   1      36.231  33.741  33.520  1.00  0.00     0.145 A 
ATOM     25  C   UNL A   1      36.959  33.199  32.502  1.00  0.00     0.022 A 
ATOM     26  O   UNL A   1      36.755  33.433  34.808  1.00  0.00    -0.422 OA
ATOM     27  C   UNL A   1      38.352  33.034  32.895  1.00  0.00    -0.030 A 
ATOM     28  C   UNL A   1      37.789  32.417  34.952  1.00  0.00     0.339 A 
ATOM     29  C   UNL A   1      39.210  34.162  32.352  1.00  0.00     0.046 C 
ATOM     30  O   UNL A   1      38.205  32.081  36.043  1.00  0.00    -0.246 OA
ENDBRANCH  12  13
ENDBRANCH  11  12
ENDBRANCH   8  11
ENDBRANCH   6   7
BRANCH   6  31
ATOM     31  C   UNL A   1      45.671  29.399  35.757  1.00  0.00     0.070 C 
BRANCH  31  32
ATOM     32  C   UNL A   1      46.170  28.482  34.564  1.00  0.00    -0.045 A 
ATOM     33  C   UNL A   1      46.693  27.197  34.739  1.00  0.00     0.005 A 
ATOM     34  C   UNL A   1      46.470  29.053  33.292  1.00  0.00     0.005 A 
ATOM     35  C   UNL A   1      47.524  26.592  33.748  1.00  0.00     0.021 A 
ATOM     36  C   UNL A   1      47.298  28.479  32.311  1.00  0.00     0.021 A 
ATOM     37  C   UNL A   1      47.849  27.246  32.557  1.00  0.00     0.041 A 
ATOM     38  Cl  UNL A   1      48.930  26.554  31.409  1.00  0.00    -0.084 Cl
ENDBRANCH  31  32
ENDBRANCH   6  31
ENDBRANCH   3   6
ENDBRANCH   1   2
BRANCH   1  39
ATOM     39  C   UNL A   1      44.670  26.539  37.913  1.00  0.00     0.042 C 
BRANCH  39  40
ATOM     40  C   UNL A   1      44.862  25.001  37.764  1.00  0.00     0.118 C 
BRANCH  40  41
ATOM     41  N   UNL A   1      43.762  24.322  37.135  1.00  0.00    -0.352 N 
ATOM     42  C   UNL A   1      43.165  24.408  35.902  1.00  0.00     0.251 C 
ATOM     43  H   UNL A   1      43.345  23.647  37.716  1.00  0.00     0.163 HD
ATOM     44  O   UNL A   1      42.050  23.883  35.821  1.00  0.00    -0.269 OA
BRANCH  42  45
ATOM     45  C   UNL A   1      43.705  25.035  34.650  1.00  0.00     0.039 A 
ATOM     46  C   UNL A   1      43.190  26.309  34.337  1.00  0.00     0.014 A 
ATOM     47  C   UNL A   1      44.430  24.370  33.658  1.00  0.00     0.014 A 
ATOM     48  C   UNL A   1      43.360  26.899  33.072  1.00  0.00     0.010 A 
ATOM     49  C   UNL A   1      44.604  24.971  32.379  1.00  0.00     0.010 A 
ATOM     50  C   UNL A   1      44.062  26.237  32.065  1.00  0.00    -0.014 A 
BRANCH  50  51
ATOM     51  C   UNL A   1      44.381  26.998  30.815  1.00  0.00     0.031 A 
ATOM     52  C   UNL A   1      44.471  26.129  29.606  1.00  0.00     0.074 A 
ATOM     53  C   UNL A   1      44.202  28.327  30.592  1.00  0.00     0.049 A 
ATOM     54  N   UNL A   1      43.411  25.770  28.943  1.00  0.00    -0.248 NA
ATOM     55  C   UNL A   1      45.680  25.395  29.234  1.00  0.00     0.031 C 
ATOM     56  C   UNL A   1      43.166  29.140  31.238  1.00  0.00     0.029 A 
ATOM     57  N   UNL A   1      44.726  29.177  29.626  1.00  0.00    -0.354 N 
ATOM     58  C   UNL A   1      43.780  24.735  28.109  1.00  0.00     0.074 A 
ATOM     59  C   UNL A   1      45.201  24.548  28.306  1.00  0.00     0.031 C 
ATOM     60  C   UNL A   1      43.019  30.293  30.548  1.00  0.00     0.029 A 
ATOM     61  C   UNL A   1      44.038  30.390  29.495  1.00  0.00     0.049 A 
ATOM     62  H   UNL A   1      45.514  28.947  29.080  1.00  0.00     0.167 HD
ATOM     63  C   UNL A   1      42.884  24.092  27.317  1.00  0.00     0.037 A 
ATOM     64  C   UNL A   1      43.823  31.072  28.329  1.00  0.00     0.037 A 
ATOM     65  C   UNL A   1      41.527  24.543  27.420  1.00  0.00     0.049 A 
ATOM     66  C   UNL A   1      42.973  30.098  27.558  1.00  0.00     0.074 A 
ATOM     67  C   UNL A   1      40.400  24.204  28.138  1.00  0.00     0.029 A 
ATOM     68  N   UNL A   1      41.169  25.671  26.722  1.00  0.00    -0.354 N 
ATOM     69  N   UNL A   1      41.697  29.881  27.724  1.00  0.00    -0.248 NA
ATOM     70  C   UNL A   1      43.683  29.077  26.787  1.00  0.00     0.031 C 
ATOM     71  C   UNL A   1      39.618  25.402  28.203  1.00  0.00     0.029 A 
ATOM     72  C   UNL A   1      40.339  26.394  27.542  1.00  0.00     0.049 A 
ATOM     73  H   UNL A   1      41.451  25.914  25.811  1.00  0.00     0.167 HD
ATOM     74  C   UNL A   1      41.501  28.562  27.315  1.00  0.00     0.074 A 
ATOM     75  C   UNL A   1      42.760  28.130  26.743  1.00  0.00     0.031 C 
ATOM     76  C   UNL A   1      40.391  27.833  27.622  1.00  0.00     0.037 A 
BRANCH  63  77
ATOM     77  C   UNL A   1      43.247  23.146  26.251  1.00  0.00     0.064 A 
ATOM     78  C   UNL A   1      43.090  21.780  26.521  1.00  0.00     0.173 A 
ATOM     79  C   UNL A   1      43.942  23.524  25.100  1.00  0.00     0.173 A 
ATOM     80  F   UNL A   1      42.450  21.387  27.635  1.00  0.00    -0.203 F 
ATOM     81  C   UNL A   1      43.646  20.816  25.690  1.00  0.00     0.198 A 
ATOM     82  C   UNL A   1      44.490  22.555  24.261  1.00  0.00     0.198 A 
ATOM     83  F   UNL A   1      44.126  24.821  24.815  1.00  0.00    -0.203 F 
ATOM     84  F   UNL A   1      43.525  19.519  26.002  1.00  0.00    -0.200 F 
ATOM     85  C   UNL A   1      44.355  21.204  24.565  1.00  0.00     0.200 A 
ATOM     86  F   UNL A   1      45.183  22.924  23.174  1.00  0.00    -0.200 F 
ATOM     87  F   UNL A   1      44.923  20.277  23.782  1.00  0.00    -0.200 F 
ENDBRANCH  63  77
BRANCH  64  88
ATOM     88  C   UNL A   1      44.962  31.803  27.666  1.00  0.00     0.064 A 
ATOM     89  C   UNL A   1      44.774  33.128  27.229  1.00  0.00     0.173 A 
ATOM     90  C   UNL A   1      46.227  31.247  27.388  1.00  0.00     0.173 A 
ATOM     91  F   UNL A   1      43.563  33.698  27.311  1.00  0.00    -0.203 F 
ATOM     92  C   UNL A   1      45.818  33.888  26.692  1.00  0.00     0.198 A 
ATOM     93  C   UNL A   1      47.281  32.016  26.885  1.00  0.00     0.198 A 
ATOM     94  F   UNL A   1      46.475  29.948  27.604  1.00  0.00    -0.203 F 
ATOM     95  F   UNL A   1      45.598  35.156  26.319  1.00  0.00    -0.200 F 
ATOM     96  C   UNL A   1      47.083  33.343  26.558  1.00  0.00     0.200 A 
ATOM     97  F   UNL A   1      48.496  31.466  26.738  1.00  0.00    -0.200 F 
ATOM     98  F   UNL A   1      48.100  34.089  26.107  1.00  0.00    -0.200 F 
ENDBRANCH  64  88
BRANCH  76  99
ATOM     99  C   UNL A   1      39.284  28.580  28.276  1.00  0.00     0.064 A 
ATOM    100  C   UNL A   1      38.440  29.389  27.506  1.00  0.00     0.173 A 
ATOM    101  C   UNL A   1      39.009  28.447  29.645  1.00  0.00     0.173 A 
ATOM    102  F   UNL A   1      38.662  29.541  26.191  1.00  0.00    -0.203 F 
ATOM    103  C   UNL A   1      37.336  30.014  28.078  1.00  0.00     0.198 A 
ATOM    104  C   UNL A   1      37.892  29.058  30.210  1.00  0.00     0.198 A 
ATOM    105  F   UNL A   1      39.796  27.699  30.434  1.00  0.00    -0.203 F 
ATOM    106  F   UNL A   1      36.526  30.766  27.319  1.00  0.00    -0.200 F 
ATOM    107  C   UNL A   1      37.054  29.835  29.424  1.00  0.00     0.200 A 
ATOM    108  F   UNL A   1      37.610  28.871  31.507  1.00  0.00    -0.200 F 
ATOM    109  F   UNL A   1      35.962  30.398  29.961  1.00  0.00    -0.200 F 
ENDBRANCH  76  99
ENDBRANCH  50  51
ENDBRANCH  42  45
ENDBRANCH  40  41
ENDBRANCH  39  40
ENDBRANCH   1  39
TORSDOF 16
ENDMDL
MODEL 2
REMARK VINA RESULT:     -12.3      5.226     10.686
REMARK SMILES Cc1oc2c(C)c3oc(=O)c(CCC(=O)N[C@H](Cc4ccc(Cl)cc4)C(=O)NCCCNC(=O)c4ccc(-c5c6nc(c(-c7c(F)c(F)c(F)c(F)c7F)c7ccc([nH]7)c(-c7c(F)c(F)c(F)c(F)c7F)c7nc(c(-c8c(F)c(F)c(F)c(F)c8F)c8ccc5[nH]8)C=C7)C=C6)cc4)c(C)c3cc2c1C
REMARK SMILES IDX 29 1 28 2 26 3 27 4 17 6 16 7 14 8 15 9 13 11 12 12 11 13
REMARK SMILES IDX 1 14 2 15 3 16 103 17 4 18 102 19 104 20 5 21 101 22 6 23
REMARK SMILES IDX 7 24 100 25 8 26 98 27 9 28 99 29 10 30 18 31 19 32 20 33
REMARK SMILES IDX 25 34 21 35 24 36 22 37 23 38 30 39 31 40 32 41 33 42 34 44
REMARK SMILES IDX 35 45 36 46 97 47 37 48 96 49 38 50 39 51 40 52 90 53 41 54
REMARK SMILES IDX 95 55 89 56 91 57 42 58 94 59 88 60 87 61 43 63 75 64 55 65
REMARK SMILES IDX 74 66 56 67 59 68 73 69 92 70 57 71 58 72 72 74 93 75 60 76
REMARK SMILES IDX 44 77 45 78 53 79 46 80 47 81 51 82 54 83 48 84 49 85 52 86
REMARK SMILES IDX 50 87 76 88 77 89 85 90 78 91 79 92 83 93 86 94 80 95 81 96
REMARK SMILES IDX 84 97 82 98 61 99 62 100 70 101 63 102 64 103 68 104 71 105
REMARK SMILES IDX 65 106 66 107 69 108 67 109
REMARK H PARENT 28 5 16 10 32 43 91 62 59 73
REMARK Flexibility Score: inf
ROOT
ATOM      1  C   UNL A   1      43.239  23.706  25.502  1.00  0.00     0.117 C 
ENDROOT
BRANCH   1   2
ATOM      2  N   UNL A   1      43.042  23.744  26.993  1.00  0.00    -0.354 N 
ATOM      3  C   UNL A   1      42.128  23.589  28.048  1.00  0.00     0.242 C 
ATOM      4  O   UNL A   1      42.384  23.000  29.109  1.00  0.00    -0.273 OA
ATOM      5  H   UNL A   1      43.912  23.969  27.395  1.00  0.00     0.163 HD
BRANCH   3   6
ATOM      6  C   UNL A   1      40.709  23.893  27.945  1.00  0.00     0.175 C 
BRANCH   6   7
ATOM      7  N   UNL A   1      40.588  22.477  27.418  1.00  0.00    -0.344 N 
ATOM      8  C   UNL A   1      39.650  21.896  26.501  1.00  0.00     0.220 C 
ATOM      9  O   UNL A   1      40.071  20.843  25.984  1.00  0.00    -0.275 OA
ATOM     10  H   UNL A   1      41.265  21.851  27.763  1.00  0.00     0.164 HD
BRANCH   8  11
ATOM     11  C   UNL A   1      38.027  22.375  26.025  1.00  0.00     0.105 C 
BRANCH  11  12
ATOM     12  C   UNL A   1      36.882  23.701  26.094  1.00  0.00     0.053 C 
BRANCH  12  13
ATOM     13  C   UNL A   1      35.674  24.119  25.086  1.00  0.00     0.042 A 
ATOM     14  C   UNL A   1      29.900  29.671  23.501  1.00  0.00     0.088 C 
ATOM     15  C   UNL A   1      31.141  28.873  23.599  1.00  0.00     0.105 A 
ATOM     16  O   UNL A   1      31.358  27.926  22.633  1.00  0.00    -0.461 OA
ATOM     17  C   UNL A   1      32.122  28.829  24.568  1.00  0.00    -0.002 A 
ATOM     18  C   UNL A   1      32.410  27.151  23.048  1.00  0.00     0.141 A 
ATOM     19  C   UNL A   1      32.832  27.629  24.283  1.00  0.00     0.025 A 
ATOM     20  C   UNL A   1      32.259  29.735  25.746  1.00  0.00     0.049 C 
ATOM     21  C   UNL A   1      32.966  26.017  22.392  1.00  0.00     0.036 A 
ATOM     22  C   UNL A   1      33.698  26.827  25.015  1.00  0.00     0.024 A 
ATOM     23  C   UNL A   1      32.527  25.576  21.044  1.00  0.00     0.052 C 
ATOM     24  C   UNL A   1      33.867  25.277  23.162  1.00  0.00     0.145 A 
ATOM     25  C   UNL A   1      34.006  25.572  24.486  1.00  0.00     0.022 A 
ATOM     26  O   UNL A   1      34.657  24.166  22.751  1.00  0.00    -0.422 OA
ATOM     27  C   UNL A   1      34.353  24.378  25.248  1.00  0.00    -0.030 A 
ATOM     28  C   UNL A   1      35.685  23.633  23.636  1.00  0.00     0.339 A 
ATOM     29  C   UNL A   1      33.131  23.794  25.932  1.00  0.00     0.046 C 
ATOM     30  O   UNL A   1      36.423  22.733  23.287  1.00  0.00    -0.246 OA
ENDBRANCH  12  13
ENDBRANCH  11  12
ENDBRANCH   8  11
ENDBRANCH   6   7
BRANCH   6  31
ATOM     31  C   UNL A   1      40.827  25.354  27.270  1.00  0.00     0.070 C 
BRANCH  31  32
ATOM     32  C   UNL A   1      40.332  26.780  27.752  1.00  0.00    -0.045 A 
ATOM     33  C   UNL A   1      39.489  26.980  28.849  1.00  0.00     0.005 A 
ATOM     34  C   UNL A   1      40.405  27.904  26.876  1.00  0.00     0.005 A 
ATOM     35  C   UNL A   1      38.719  28.175  28.987  1.00  0.00     0.021 A 
ATOM     36  C   UNL A   1      39.644  29.080  26.987  1.00  0.00     0.021 A 
ATOM     37  C   UNL A   1      38.774  29.202  28.042  1.00  0.00     0.041 A 
ATOM     38  Cl  UNL A   1      37.772  30.597  28.160  1.00  0.00    -0.084 Cl
ENDBRANCH  31  32
ENDBRANCH   6  31
ENDBRANCH   3   6
ENDBRANCH   1   2
BRANCH   1  39
ATOM     39  C   UNL A   1      44.137  24.940  25.049  1.00  0.00     0.042 C 
BRANCH  39  40
ATOM     40  C   UNL A   1      43.895  26.435  25.414  1.00  0.00     0.118 C 
BRANCH  40  41
ATOM     41  N   UNL A   1      45.089  27.179  25.702  1.00  0.00    -0.352 N 
ATOM     42  C   UNL A   1      45.356  28.318  26.421  1.00  0.00     0.251 C 
ATOM     43  H   UNL A   1      45.894  26.786  25.295  1.00  0.00     0.163 HD
ATOM     44  O   UNL A   1      46.455  28.834  26.197  1.00  0.00    -0.269 OA
BRANCH  42  45
ATOM     45  C   UNL A   1      44.495  28.990  27.449  1.00  0.00     0.039 A 
ATOM     46  C   UNL A   1      44.039  28.162  28.495  1.00  0.00     0.014 A 
ATOM     47  C   UNL A   1      43.895  30.244  27.311  1.00  0.00     0.014 A 
ATOM     48  C   UNL A   1      43.002  28.548  29.363  1.00  0.00     0.010 A 
ATOM     49  C   UNL A   1      42.848  30.634  28.193  1.00  0.00     0.010 A 
ATOM     50  C   UNL A   1      42.379  29.788  29.222  1.00  0.00    -0.014 A 
BRANCH  50  51
ATOM     51  C   UNL A   1      41.428  30.221  30.295  1.00  0.00     0.031 A 
ATOM     52  C   UNL A   1      41.633  29.501  31.585  1.00  0.00     0.074 A 
ATOM     53  C   UNL A   1      40.734  31.388  30.358  1.00  0.00     0.049 A 
ATOM     54  N   UNL A   1      42.540  29.875  32.440  1.00  0.00    -0.248 NA
ATOM     55  C   UNL A   1      41.054  28.190  31.873  1.00  0.00     0.031 C 
ATOM     56  C   UNL A   1      41.186  32.651  29.766  1.00  0.00     0.029 A 
ATOM     57  N   UNL A   1      39.627  31.760  31.111  1.00  0.00    -0.354 N 
ATOM     58  C   UNL A   1      42.701  28.847  33.344  1.00  0.00     0.074 A 
ATOM     59  C   UNL A   1      41.744  27.828  32.968  1.00  0.00     0.031 C 
ATOM     60  C   UNL A   1      40.478  33.668  30.306  1.00  0.00     0.029 A 
ATOM     61  C   UNL A   1      39.416  33.144  31.174  1.00  0.00     0.049 A 
ATOM     62  H   UNL A   1      39.041  31.109  31.562  1.00  0.00     0.167 HD
ATOM     63  C   UNL A   1      43.623  28.898  34.340  1.00  0.00     0.037 A 
ATOM     64  C   UNL A   1      38.945  33.838  32.255  1.00  0.00     0.037 A 
ATOM     65  C   UNL A   1      44.433  30.081  34.376  1.00  0.00     0.049 A 
ATOM     66  C   UNL A   1      40.032  33.600  33.269  1.00  0.00     0.074 A 
ATOM     67  C   UNL A   1      45.655  30.485  33.884  1.00  0.00     0.029 A 
ATOM     68  N   UNL A   1      43.902  31.207  34.958  1.00  0.00    -0.354 N 
ATOM     69  N   UNL A   1      41.189  34.202  33.323  1.00  0.00    -0.248 NA
ATOM     70  C   UNL A   1      39.932  32.372  34.059  1.00  0.00     0.031 C 
ATOM     71  C   UNL A   1      45.566  31.911  33.772  1.00  0.00     0.029 A 
ATOM     72  C   UNL A   1      44.282  32.270  34.178  1.00  0.00     0.049 A 
ATOM     73  H   UNL A   1      43.355  31.245  35.776  1.00  0.00     0.167 HD
ATOM     74  C   UNL A   1      42.044  33.284  33.933  1.00  0.00     0.074 A 
ATOM     75  C   UNL A   1      41.205  32.185  34.367  1.00  0.00     0.031 C 
ATOM     76  C   UNL A   1      43.403  33.377  33.895  1.00  0.00     0.037 A 
BRANCH  63  77
ATOM     77  C   UNL A   1      43.689  27.948  35.460  1.00  0.00     0.064 A 
ATOM     78  C   UNL A   1      44.828  27.135  35.548  1.00  0.00     0.173 A 
ATOM     79  C   UNL A   1      42.598  27.661  36.283  1.00  0.00     0.173 A 
ATOM     80  F   UNL A   1      45.882  27.370  34.750  1.00  0.00    -0.203 F 
ATOM     81  C   UNL A   1      44.862  26.041  36.403  1.00  0.00     0.198 A 
ATOM     82  C   UNL A   1      42.639  26.568  37.147  1.00  0.00     0.198 A 
ATOM     83  F   UNL A   1      41.486  28.407  36.217  1.00  0.00    -0.203 F 
ATOM     84  F   UNL A   1      45.943  25.250  36.427  1.00  0.00    -0.200 F 
ATOM     85  C   UNL A   1      43.763  25.752  37.195  1.00  0.00     0.200 A 
ATOM     86  F   UNL A   1      41.576  26.280  37.913  1.00  0.00    -0.200 F 
ATOM     87  F   UNL A   1      43.781  24.675  37.993  1.00  0.00    -0.200 F 
ENDBRANCH  63  77
BRANCH  64  88
ATOM     88  C   UNL A   1      37.492  33.736  32.637  1.00  0.00     0.064 A 
ATOM     89  C   UNL A   1      36.560  33.256  31.696  1.00  0.00     0.173 A 
ATOM     90  C   UNL A   1      36.950  34.137  33.875  1.00  0.00     0.173 A 
ATOM     91  F   UNL A   1      36.948  32.989  30.441  1.00  0.00    -0.203 F 
ATOM     92  C   UNL A   1      35.215  33.052  32.021  1.00  0.00     0.198 A 
ATOM     93  C   UNL A   1      35.614  33.900  34.212  1.00  0.00     0.198 A 
ATOM     94  F   UNL A   1      37.703  34.761  34.790  1.00  0.00    -0.203 F 
ATOM     95  F   UNL A   1      34.373  32.564  31.099  1.00  0.00    -0.200 F 
ATOM     96  C   UNL A   1      34.751  33.336  33.293  1.00  0.00     0.200 A 
ATOM     97  F   UNL A   1      35.173  34.203  35.442  1.00  0.00    -0.200 F 
ATOM     98  F   UNL A   1      33.479  33.078  33.626  1.00  0.00    -0.200 F 
ENDBRANCH  64  88
BRANCH  76  99
ATOM     99  C   UNL A   1      43.952  34.631  33.315  1.00  0.00     0.064 A 
ATOM    100  C   UNL A   1      44.180  34.719  31.936  1.00  0.00     0.173 A 
ATOM    101  C   UNL A   1      44.190  35.769  34.101  1.00  0.00     0.173 A 
ATOM    102  F   UNL A   1      43.960  33.658  31.145  1.00  0.00    -0.203 F 
ATOM    103  C   UNL A   1      44.594  35.915  31.358  1.00  0.00     0.198 A 
ATOM    104  C   UNL A   1      44.586  36.969  33.515  1.00  0.00     0.198 A 
ATOM    105  F   UNL A   1      44.007  35.735  35.430  1.00  0.00    -0.203 F 
ATOM    106  F   UNL A   1      44.784  35.985  30.033  1.00  0.00    -0.200 F 
ATOM    107  C   UNL A   1      44.781  37.042  32.145  1.00  0.00     0.200 A 
ATOM    108  F   UNL A   1      44.750  38.062  34.274  1.00  0.00    -0.200 F 
ATOM    109  F   UNL A   1      45.133  38.205  31.578  1.00  0.00    -0.200 F 
ENDBRANCH  76  99
ENDBRANCH  50  51
ENDBRANCH  42  45
ENDBRANCH  40  41
ENDBRANCH  39  40
ENDBRANCH   1  39
TORSDOF 16
ENDMDL
MODEL 3
REMARK VINA RESULT:     -12.3      4.357     10.402
REMARK SMILES Cc1oc2c(C)c3oc(=O)c(CCC(=O)N[C@H](Cc4ccc(Cl)cc4)C(=O)NCCCNC(=O)c4ccc(-c5c6nc(c(-c7c(F)c(F)c(F)c(F)c7F)c7ccc([nH]7)c(-c7c(F)c(F)c(F)c(F)c7F)c7nc(c(-c8c(F)c(F)c(F)c(F)c8F)c8ccc5[nH]8)C=C7)C=C6)cc4)c(C)c3cc2c1C
REMARK SMILES IDX 29 1 28 2 26 3 27 4 17 6 16 7 14 8 15 9 13 11 12 12 11 13
REMARK SMILES IDX 1 14 2 15 3 16 103 17 4 18 102 19 104 20 5 21 101 22 6 23
REMARK SMILES IDX 7 24 100 25 8 26 98 27 9 28 99 29 10 30 18 31 19 32 20 33
REMARK SMILES IDX 25 34 21 35 24 36 22 37 23 38 30 39 31 40 32 41 33 42 34 44
REMARK SMILES IDX 35 45 36 46 97 47 37 48 96 49 38 50 39 51 40 52 90 53 41 54
REMARK SMILES IDX 95 55 89 56 91 57 42 58 94 59 88 60 87 61 43 63 75 64 55 65
REMARK SMILES IDX 74 66 56 67 59 68 73 69 92 70 57 71 58 72 72 74 93 75 60 76
REMARK SMILES IDX 44 77 45 78 53 79 46 80 47 81 51 82 54 83 48 84 49 85 52 86
REMARK SMILES IDX 50 87 76 88 77 89 85 90 78 91 79 92 83 93 86 94 80 95 81 96
REMARK SMILES IDX 84 97 82 98 61 99 62 100 70 101 63 102 64 103 68 104 71 105
REMARK SMILES IDX 65 106 66 107 69 108 67 109
REMARK H PARENT 28 5 16 10 32 43 91 62 59 73
REMARK Flexibility Score: inf
ROOT
ATOM      1  C   UNL A   1      35.733  32.097  31.632  1.00  0.00     0.117 C 
ENDROOT
BRANCH   1   2
ATOM      2  N   UNL A   1      36.663  32.664  30.596  1.00  0.00    -0.354 N 
ATOM      3  C   UNL A   1      36.995  32.707  29.231  1.00  0.00     0.242 C 
ATOM      4  O   UNL A   1      37.310  33.741  28.625  1.00  0.00    -0.273 OA
ATOM      5  H   UNL A   1      37.303  33.245  31.067  1.00  0.00     0.163 HD
BRANCH   3   6
ATOM      6  C   UNL A   1      36.791  31.598  28.311  1.00  0.00     0.175 C 
BRANCH   6   7
ATOM      7  N   UNL A   1      35.495  32.304  27.969  1.00  0.00    -0.344 N 
ATOM      8  C   UNL A   1      34.178  31.784  27.736  1.00  0.00     0.220 C 
ATOM      9  O   UNL A   1      33.287  32.643  27.881  1.00  0.00    -0.275 OA
ATOM     10  H   UNL A   1      35.567  33.283  27.894  1.00  0.00     0.164 HD
BRANCH   8  11
ATOM     11  C   UNL A   1      33.618  30.191  27.246  1.00  0.00     0.105 C 
BRANCH  11  12
ATOM     12  C   UNL A   1      34.174  28.604  26.746  1.00  0.00     0.053 C 
BRANCH  12  13
ATOM     13  C   UNL A   1      33.350  27.231  26.453  1.00  0.00     0.042 A 
ATOM     14  C   UNL A   1      34.000  19.297  24.637  1.00  0.00     0.088 C 
ATOM     15  C   UNL A   1      33.906  20.621  25.289  1.00  0.00     0.105 A 
ATOM     16  O   UNL A   1      32.655  21.070  25.624  1.00  0.00    -0.461 OA
ATOM     17  C   UNL A   1      34.865  21.578  25.552  1.00  0.00    -0.002 A 
ATOM     18  C   UNL A   1      32.773  22.390  25.973  1.00  0.00     0.141 A 
ATOM     19  C   UNL A   1      34.110  22.749  25.840  1.00  0.00     0.025 A 
ATOM     20  C   UNL A   1      36.340  21.441  25.373  1.00  0.00     0.049 C 
ATOM     21  C   UNL A   1      31.734  23.285  26.351  1.00  0.00     0.036 A 
ATOM     22  C   UNL A   1      34.412  24.105  25.871  1.00  0.00     0.024 A 
ATOM     23  C   UNL A   1      30.328  22.847  26.541  1.00  0.00     0.052 C 
ATOM     24  C   UNL A   1      32.111  24.630  26.413  1.00  0.00     0.145 A 
ATOM     25  C   UNL A   1      33.339  24.995  25.949  1.00  0.00     0.022 A 
ATOM     26  O   UNL A   1      31.330  25.733  26.860  1.00  0.00    -0.422 OA
ATOM     27  C   UNL A   1      33.309  26.353  25.420  1.00  0.00    -0.030 A 
ATOM     28  C   UNL A   1      31.947  27.042  27.033  1.00  0.00     0.339 A 
ATOM     29  C   UNL A   1      33.199  26.348  23.907  1.00  0.00     0.046 C 
ATOM     30  O   UNL A   1      31.326  27.986  27.481  1.00  0.00    -0.246 OA
ENDBRANCH  12  13
ENDBRANCH  11  12
ENDBRANCH   8  11
ENDBRANCH   6   7
BRANCH   6  31
ATOM     31  C   UNL A   1      37.206  30.391  29.297  1.00  0.00     0.070 C 
BRANCH  31  32
ATOM     32  C   UNL A   1      38.338  29.286  29.193  1.00  0.00    -0.045 A 
ATOM     33  C   UNL A   1      39.127  29.087  28.056  1.00  0.00     0.005 A 
ATOM     34  C   UNL A   1      38.360  28.188  30.104  1.00  0.00     0.005 A 
ATOM     35  C   UNL A   1      39.797  27.847  27.824  1.00  0.00     0.021 A 
ATOM     36  C   UNL A   1      39.001  26.956  29.885  1.00  0.00     0.021 A 
ATOM     37  C   UNL A   1      39.705  26.779  28.719  1.00  0.00     0.041 A 
ATOM     38  Cl  UNL A   1      40.433  25.255  28.389  1.00  0.00    -0.084 Cl
ENDBRANCH  31  32
ENDBRANCH   6  31
ENDBRANCH   3   6
ENDBRANCH   1   2
BRANCH   1  39
ATOM     39  C   UNL A   1      36.573  31.577  32.881  1.00  0.00     0.042 C 
BRANCH  39  40
ATOM     40  C   UNL A   1      37.831  32.266  33.490  1.00  0.00     0.118 C 
BRANCH  40  41
ATOM     41  N   UNL A   1      38.599  31.430  34.370  1.00  0.00    -0.352 N 
ATOM     42  C   UNL A   1      39.451  30.370  34.181  1.00  0.00     0.251 C 
ATOM     43  H   UNL A   1      38.490  31.669  35.319  1.00  0.00     0.163 HD
ATOM     44  O   UNL A   1      39.692  29.703  35.192  1.00  0.00    -0.269 OA
BRANCH  42  45
ATOM     45  C   UNL A   1      40.135  29.943  32.915  1.00  0.00     0.039 A 
ATOM     46  C   UNL A   1      40.740  28.671  32.950  1.00  0.00     0.014 A 
ATOM     47  C   UNL A   1      40.457  30.781  31.845  1.00  0.00     0.014 A 
ATOM     48  C   UNL A   1      41.659  28.247  31.974  1.00  0.00     0.010 A 
ATOM     49  C   UNL A   1      41.384  30.349  30.855  1.00  0.00     0.010 A 
ATOM     50  C   UNL A   1      42.006  29.082  30.912  1.00  0.00    -0.014 A 
BRANCH  50  51
ATOM     51  C   UNL A   1      42.827  28.502  29.803  1.00  0.00     0.031 A 
ATOM     52  C   UNL A   1      43.609  29.527  29.053  1.00  0.00     0.074 A 
ATOM     53  C   UNL A   1      43.239  27.213  29.670  1.00  0.00     0.049 A 
ATOM     54  N   UNL A   1      44.759  29.959  29.483  1.00  0.00    -0.248 NA
ATOM     55  C   UNL A   1      43.050  30.322  27.960  1.00  0.00     0.031 C 
ATOM     56  C   UNL A   1      43.486  26.306  30.795  1.00  0.00     0.029 A 
ATOM     57  N   UNL A   1      43.721  26.509  28.574  1.00  0.00    -0.354 N 
ATOM     58  C   UNL A   1      45.061  31.101  28.773  1.00  0.00     0.074 A 
ATOM     59  C   UNL A   1      43.983  31.279  27.823  1.00  0.00     0.031 C 
ATOM     60  C   UNL A   1      44.216  25.255  30.360  1.00  0.00     0.029 A 
ATOM     61  C   UNL A   1      44.376  25.315  28.902  1.00  0.00     0.049 A 
ATOM     62  H   UNL A   1      43.612  26.821  27.646  1.00  0.00     0.167 HD
ATOM     63  C   UNL A   1      46.177  31.834  29.023  1.00  0.00     0.037 A 
ATOM     64  C   UNL A   1      45.469  24.794  28.263  1.00  0.00     0.037 A 
ATOM     65  C   UNL A   1      47.009  31.354  30.087  1.00  0.00     0.049 A 
ATOM     66  C   UNL A   1      46.508  25.852  28.524  1.00  0.00     0.074 A 
ATOM     67  C   UNL A   1      47.150  31.577  31.440  1.00  0.00     0.029 A 
ATOM     68  N   UNL A   1      47.878  30.325  29.812  1.00  0.00    -0.354 N 
ATOM     69  N   UNL A   1      47.177  26.027  29.630  1.00  0.00    -0.248 NA
ATOM     70  C   UNL A   1      46.544  26.977  27.589  1.00  0.00     0.031 C 
ATOM     71  C   UNL A   1      47.715  30.370  31.967  1.00  0.00     0.029 A 
ATOM     72  C   UNL A   1      47.852  29.487  30.898  1.00  0.00     0.049 A 
ATOM     73  H   UNL A   1      48.415  30.212  28.995  1.00  0.00     0.167 HD
ATOM     74  C   UNL A   1      47.489  27.386  29.650  1.00  0.00     0.074 A 
ATOM     75  C   UNL A   1      47.078  27.909  28.363  1.00  0.00     0.031 C 
ATOM     76  C   UNL A   1      47.895  28.051  30.768  1.00  0.00     0.037 A 
BRANCH  63  77
ATOM     77  C   UNL A   1      46.668  32.920  28.162  1.00  0.00     0.064 A 
ATOM     78  C   UNL A   1      47.676  32.605  27.240  1.00  0.00     0.173 A 
ATOM     79  C   UNL A   1      46.352  34.263  28.373  1.00  0.00     0.173 A 
ATOM     80  F   UNL A   1      48.020  31.322  27.037  1.00  0.00    -0.203 F 
ATOM     81  C   UNL A   1      48.378  33.603  26.578  1.00  0.00     0.198 A 
ATOM     82  C   UNL A   1      47.051  35.263  27.700  1.00  0.00     0.198 A 
ATOM     83  F   UNL A   1      45.404  34.605  29.257  1.00  0.00    -0.203 F 
ATOM     84  F   UNL A   1      49.373  33.274  25.743  1.00  0.00    -0.200 F 
ATOM     85  C   UNL A   1      48.073  34.933  26.815  1.00  0.00     0.200 A 
ATOM     86  F   UNL A   1      46.764  36.553  27.930  1.00  0.00    -0.200 F 
ATOM     87  F   UNL A   1      48.775  35.898  26.205  1.00  0.00    -0.200 F 
ENDBRANCH  63  77
BRANCH  64  88
ATOM     88  C   UNL A   1      45.315  24.176  26.898  1.00  0.00     0.064 A 
ATOM     89  C   UNL A   1      44.068  23.647  26.513  1.00  0.00     0.173 A 
ATOM     90  C   UNL A   1      46.353  24.026  25.957  1.00  0.00     0.173 A 
ATOM     91  F   UNL A   1      43.055  23.604  27.391  1.00  0.00    -0.203 F 
ATOM     92  C   UNL A   1      43.839  23.144  25.228  1.00  0.00     0.198 A 
ATOM     93  C   UNL A   1      46.117  23.557  24.660  1.00  0.00     0.198 A 
ATOM     94  F   UNL A   1      47.619  24.337  26.266  1.00  0.00    -0.203 F 
ATOM     95  F   UNL A   1      42.625  22.681  24.899  1.00  0.00    -0.200 F 
ATOM     96  C   UNL A   1      44.855  23.138  24.289  1.00  0.00     0.200 A 
ATOM     97  F   UNL A   1      47.118  23.535  23.767  1.00  0.00    -0.200 F 
ATOM     98  F   UNL A   1      44.620  22.720  23.037  1.00  0.00    -0.200 F 
ENDBRANCH  64  88
BRANCH  76  99
ATOM     99  C   UNL A   1      48.176  27.207  31.960  1.00  0.00     0.064 A 
ATOM    100  C   UNL A   1      47.144  26.903  32.856  1.00  0.00     0.173 A 
ATOM    101  C   UNL A   1      49.440  26.641  32.186  1.00  0.00     0.173 A 
ATOM    102  F   UNL A   1      45.918  27.417  32.676  1.00  0.00    -0.203 F 
ATOM    103  C   UNL A   1      47.359  26.032  33.920  1.00  0.00     0.198 A 
ATOM    104  C   UNL A   1      49.645  25.755  33.240  1.00  0.00     0.198 A 
ATOM    105  F   UNL A   1      50.470  26.915  31.370  1.00  0.00    -0.203 F 
ATOM    106  F   UNL A   1      46.351  25.735  34.753  1.00  0.00    -0.200 F 
ATOM    107  C   UNL A   1      48.603  25.447  34.102  1.00  0.00     0.200 A 
ATOM    108  F   UNL A   1      50.843  25.176  33.405  1.00  0.00    -0.200 F 
ATOM    109  F   UNL A   1      48.793  24.570  35.098  1.00  0.00    -0.200 F 
ENDBRANCH  76  99
ENDBRANCH  50  51
ENDBRANCH  42  45
ENDBRANCH  40  41
ENDBRANCH  39  40
ENDBRANCH   1  39
TORSDOF 16
ENDMDL
