MODEL 1
REMARK VINA RESULT:     -13.2      0.000      0.000
REMARK SMILES Cc1ccc2nc(NC(=O)[C@H]3CC=CC[C@@H]3C(=O)NCCCNC(=O)c3ccc(-c4c5nc(c(-c6c(F)c(F)c(F)c(F)c6F)c6ccc([nH]6)c(-c6c(F)c(F)c(F)c(F)c6F)c6nc(c(-c7c(F)c(F)c(F)c(F)c7F)c7ccc4[nH]7)C=C6)C=C5)cc3)sc2c1
REMARK SMILES IDX 21 1 20 2 19 3 17 4 18 5 16 7 11 8 12 9 13 10 15 11 14 12
REMARK SMILES IDX 9 13 8 14 10 16 7 17 1 18 2 19 3 20 91 21 4 22 90 23 5 24
REMARK SMILES IDX 89 25 6 26 22 27 23 28 24 29 25 31 26 32 27 33 88 34 28 35
REMARK SMILES IDX 87 36 29 37 30 38 31 39 81 40 32 41 86 42 80 43 82 44 33 45
REMARK SMILES IDX 85 46 79 47 78 48 34 50 66 51 46 52 65 53 47 54 50 55 64 56
REMARK SMILES IDX 83 57 48 58 49 59 63 61 84 62 51 63 35 64 36 65 44 66 37 67
REMARK SMILES IDX 38 68 42 69 45 70 39 71 40 72 43 73 41 74 67 75 68 76 76 77
REMARK SMILES IDX 69 78 70 79 74 80 77 81 71 82 72 83 75 84 73 85 52 86 53 87
REMARK SMILES IDX 61 88 54 89 55 90 59 91 62 92 56 93 57 94 60 95 58 96
REMARK H PARENT 19 6 8 15 23 30 82 49 50 60
REMARK Flexibility Score: inf
ROOT
ATOM      1  C   UNL A   1      32.207  28.127  25.938  1.00  0.00     0.042 C 
ENDROOT
BRANCH   1   2
ATOM      2  C   UNL A   1      32.924  26.828  26.306  1.00  0.00     0.117 C 
BRANCH   2   3
ATOM      3  N   UNL A   1      32.031  25.736  26.657  1.00  0.00    -0.356 N 
ATOM      4  C   UNL A   1      32.258  24.388  26.748  1.00  0.00     0.224 C 
ATOM      5  O   UNL A   1      31.376  23.700  27.262  1.00  0.00    -0.275 OA
ATOM      6  H   UNL A   1      31.108  26.011  26.865  1.00  0.00     0.163 HD
BRANCH   4   7
ATOM      7  C   UNL A   1      33.579  23.801  26.245  1.00  0.00     0.095 C 
ATOM      8  C   UNL A   1      33.429  23.228  24.801  1.00  0.00     0.095 C 
ATOM      9  C   UNL A   1      33.391  21.694  24.654  1.00  0.00     0.041 C 
ATOM     10  C   UNL A   1      33.286  20.912  25.923  1.00  0.00    -0.030 C 
ATOM     11  C   UNL A   1      34.124  22.807  27.279  1.00  0.00     0.041 C 
ATOM     12  C   UNL A   1      33.624  21.411  27.115  1.00  0.00    -0.030 C 
BRANCH   8  13
ATOM     13  C   UNL A   1      34.521  23.874  23.923  1.00  0.00     0.230 C 
ATOM     14  N   UNL A   1      34.258  25.017  23.208  1.00  0.00    -0.302 N 
ATOM     15  H   UNL A   1      35.024  25.529  22.861  1.00  0.00     0.172 HD
ATOM     16  O   UNL A   1      35.695  23.492  23.974  1.00  0.00    -0.274 OA
BRANCH  14  17
ATOM     17  C   UNL A   1      33.007  25.494  22.945  1.00  0.00     0.190 A 
ATOM     18  C   UNL A   1      28.216  29.301  23.132  1.00  0.00     0.044 C 
ATOM     19  C   UNL A   1      29.126  28.107  23.074  1.00  0.00    -0.050 A 
ATOM     20  C   UNL A   1      28.769  26.961  23.789  1.00  0.00     0.006 A 
ATOM     21  C   UNL A   1      30.364  28.172  22.403  1.00  0.00     0.024 A 
ATOM     22  C   UNL A   1      29.630  25.871  23.864  1.00  0.00     0.030 A 
ATOM     23  C   UNL A   1      31.252  27.093  22.543  1.00  0.00     0.057 A 
ATOM     24  C   UNL A   1      30.898  25.956  23.269  1.00  0.00     0.084 A 
ATOM     25  S   UNL A   1      32.884  26.889  21.979  1.00  0.00    -0.097 S 
ATOM     26  N   UNL A   1      31.889  25.020  23.408  1.00  0.00    -0.220 NA
ENDBRANCH  14  17
ENDBRANCH   8  13
ENDBRANCH   4   7
ENDBRANCH   2   3
ENDBRANCH   1   2
BRANCH   1  27
ATOM     27  C   UNL A   1      33.111  29.282  25.500  1.00  0.00     0.118 C 
BRANCH  27  28
ATOM     28  N   UNL A   1      32.690  30.580  26.000  1.00  0.00    -0.352 N 
ATOM     29  C   UNL A   1      33.221  31.393  26.972  1.00  0.00     0.251 C 
ATOM     30  H   UNL A   1      31.883  30.941  25.566  1.00  0.00     0.163 HD
ATOM     31  O   UNL A   1      32.615  32.430  27.259  1.00  0.00    -0.269 OA
BRANCH  29  32
ATOM     32  C   UNL A   1      34.477  31.079  27.703  1.00  0.00     0.039 A 
ATOM     33  C   UNL A   1      34.609  29.809  28.279  1.00  0.00     0.014 A 
ATOM     34  C   UNL A   1      35.488  32.018  27.916  1.00  0.00     0.014 A 
ATOM     35  C   UNL A   1      35.749  29.477  29.022  1.00  0.00     0.010 A 
ATOM     36  C   UNL A   1      36.650  31.677  28.620  1.00  0.00     0.010 A 
ATOM     37  C   UNL A   1      36.790  30.403  29.188  1.00  0.00    -0.014 A 
BRANCH  37  38
ATOM     38  C   UNL A   1      38.022  30.024  29.932  1.00  0.00     0.031 A 
ATOM     39  C   UNL A   1      38.277  30.525  31.328  1.00  0.00     0.074 A 
ATOM     40  C   UNL A   1      38.935  29.232  29.336  1.00  0.00     0.049 A 
ATOM     41  N   UNL A   1      39.258  30.229  32.145  1.00  0.00    -0.248 NA
ATOM     42  C   UNL A   1      37.320  31.499  31.869  1.00  0.00     0.031 C 
ATOM     43  C   UNL A   1      38.846  28.734  27.964  1.00  0.00     0.029 A 
ATOM     44  N   UNL A   1      40.114  28.709  29.807  1.00  0.00    -0.354 N 
ATOM     45  C   UNL A   1      39.030  30.967  33.299  1.00  0.00     0.074 A 
ATOM     46  C   UNL A   1      37.851  31.772  33.053  1.00  0.00     0.031 C 
ATOM     47  C   UNL A   1      39.915  27.962  27.709  1.00  0.00     0.029 A 
ATOM     48  C   UNL A   1      40.766  27.917  28.895  1.00  0.00     0.049 A 
ATOM     49  H   UNL A   1      40.457  28.884  30.713  1.00  0.00     0.167 HD
ATOM     50  C   UNL A   1      39.722  30.956  34.465  1.00  0.00     0.037 A 
ATOM     51  C   UNL A   1      41.915  27.221  29.003  1.00  0.00     0.037 A 
ATOM     52  C   UNL A   1      40.894  30.155  34.714  1.00  0.00     0.049 A 
ATOM     53  C   UNL A   1      42.654  27.207  30.313  1.00  0.00     0.074 A 
ATOM     54  C   UNL A   1      41.625  30.032  35.884  1.00  0.00     0.029 A 
ATOM     55  N   UNL A   1      41.511  29.343  33.773  1.00  0.00    -0.354 N 
ATOM     56  N   UNL A   1      42.367  27.827  31.432  1.00  0.00    -0.248 NA
ATOM     57  C   UNL A   1      43.865  26.376  30.381  1.00  0.00     0.031 C 
ATOM     58  C   UNL A   1      42.709  29.180  35.638  1.00  0.00     0.029 A 
ATOM     59  C   UNL A   1      42.625  28.735  34.329  1.00  0.00     0.049 A 
ATOM     60  H   UNL A   1      41.203  29.218  32.847  1.00  0.00     0.167 HD
ATOM     61  C   UNL A   1      43.343  27.443  32.342  1.00  0.00     0.074 A 
ATOM     62  C   UNL A   1      44.221  26.522  31.650  1.00  0.00     0.031 C 
ATOM     63  C   UNL A   1      43.493  27.819  33.635  1.00  0.00     0.037 A 
BRANCH  50  64
ATOM     64  C   UNL A   1      39.222  31.833  35.578  1.00  0.00     0.064 A 
ATOM     65  C   UNL A   1      38.350  31.338  36.560  1.00  0.00     0.173 A 
ATOM     66  C   UNL A   1      39.658  33.160  35.699  1.00  0.00     0.173 A 
ATOM     67  F   UNL A   1      37.898  30.077  36.488  1.00  0.00    -0.203 F 
ATOM     68  C   UNL A   1      37.912  32.148  37.605  1.00  0.00     0.198 A 
ATOM     69  C   UNL A   1      39.241  33.959  36.760  1.00  0.00     0.198 A 
ATOM     70  F   UNL A   1      40.501  33.680  34.793  1.00  0.00    -0.203 F 
ATOM     71  F   UNL A   1      37.045  31.666  38.506  1.00  0.00    -0.200 F 
ATOM     72  C   UNL A   1      38.363  33.455  37.708  1.00  0.00     0.200 A 
ATOM     73  F   UNL A   1      39.689  35.218  36.867  1.00  0.00    -0.200 F 
ATOM     74  F   UNL A   1      37.948  34.230  38.719  1.00  0.00    -0.200 F 
ENDBRANCH  50  64
BRANCH  51  75
ATOM     75  C   UNL A   1      42.406  26.433  27.845  1.00  0.00     0.064 A 
ATOM     76  C   UNL A   1      43.349  26.966  26.957  1.00  0.00     0.173 A 
ATOM     77  C   UNL A   1      41.949  25.128  27.609  1.00  0.00     0.173 A 
ATOM     78  F   UNL A   1      43.800  28.217  27.133  1.00  0.00    -0.203 F 
ATOM     79  C   UNL A   1      43.807  26.230  25.867  1.00  0.00     0.198 A 
ATOM     80  C   UNL A   1      42.427  24.383  26.533  1.00  0.00     0.198 A 
ATOM     81  F   UNL A   1      41.051  24.571  28.435  1.00  0.00    -0.203 F 
ATOM     82  F   UNL A   1      44.682  26.778  25.012  1.00  0.00    -0.200 F 
ATOM     83  C   UNL A   1      43.351  24.937  25.659  1.00  0.00     0.200 A 
ATOM     84  F   UNL A   1      41.994  23.130  26.344  1.00  0.00    -0.200 F 
ATOM     85  F   UNL A   1      43.797  24.227  24.614  1.00  0.00    -0.200 F 
ENDBRANCH  51  75
BRANCH  63  86
ATOM     86  C   UNL A   1      44.638  27.215  34.398  1.00  0.00     0.064 A 
ATOM     87  C   UNL A   1      45.894  27.836  34.454  1.00  0.00     0.173 A 
ATOM     88  C   UNL A   1      44.468  26.013  35.102  1.00  0.00     0.173 A 
ATOM     89  F   UNL A   1      46.112  28.979  33.786  1.00  0.00    -0.203 F 
ATOM     90  C   UNL A   1      46.946  27.262  35.164  1.00  0.00     0.198 A 
ATOM     91  C   UNL A   1      45.513  25.456  35.832  1.00  0.00     0.198 A 
ATOM     92  F   UNL A   1      43.285  25.381  35.085  1.00  0.00    -0.203 F 
ATOM     93  F   UNL A   1      48.152  27.848  35.164  1.00  0.00    -0.200 F 
ATOM     94  C   UNL A   1      46.753  26.076  35.857  1.00  0.00     0.200 A 
ATOM     95  F   UNL A   1      45.323  24.315  36.510  1.00  0.00    -0.200 F 
ATOM     96  F   UNL A   1      47.766  25.526  36.541  1.00  0.00    -0.200 F 
ENDBRANCH  63  86
ENDBRANCH  37  38
ENDBRANCH  29  32
ENDBRANCH  27  28
ENDBRANCH   1  27
TORSDOF 12
ENDMDL
MODEL 2
REMARK VINA RESULT:     -13.2      0.122      1.579
REMARK SMILES Cc1ccc2nc(NC(=O)[C@H]3CC=CC[C@@H]3C(=O)NCCCNC(=O)c3ccc(-c4c5nc(c(-c6c(F)c(F)c(F)c(F)c6F)c6ccc([nH]6)c(-c6c(F)c(F)c(F)c(F)c6F)c6nc(c(-c7c(F)c(F)c(F)c(F)c7F)c7ccc4[nH]7)C=C6)C=C5)cc3)sc2c1
REMARK SMILES IDX 21 1 20 2 19 3 17 4 18 5 16 7 11 8 12 9 13 10 15 11 14 12
REMARK SMILES IDX 9 13 8 14 10 16 7 17 1 18 2 19 3 20 91 21 4 22 90 23 5 24
REMARK SMILES IDX 89 25 6 26 22 27 23 28 24 29 25 31 26 32 27 33 88 34 28 35
REMARK SMILES IDX 87 36 29 37 30 38 31 39 81 40 32 41 86 42 80 43 82 44 33 45
REMARK SMILES IDX 85 46 79 47 78 48 34 50 66 51 46 52 65 53 47 54 50 55 64 56
REMARK SMILES IDX 83 57 48 58 49 59 63 61 84 62 51 63 35 64 36 65 44 66 37 67
REMARK SMILES IDX 38 68 42 69 45 70 39 71 40 72 43 73 41 74 67 75 68 76 76 77
REMARK SMILES IDX 69 78 70 79 74 80 77 81 71 82 72 83 75 84 73 85 52 86 53 87
REMARK SMILES IDX 61 88 54 89 55 90 59 91 62 92 56 93 57 94 60 95 58 96
REMARK H PARENT 19 6 8 15 23 30 82 49 50 60
REMARK Flexibility Score: inf
ROOT
ATOM      1  C   UNL A   1      32.281  28.039  25.822  1.00  0.00     0.042 C 
ENDROOT
BRANCH   1   2
ATOM      2  C   UNL A   1      32.986  26.726  26.161  1.00  0.00     0.117 C 
BRANCH   2   3
ATOM      3  N   UNL A   1      32.088  25.655  26.561  1.00  0.00    -0.356 N 
ATOM      4  C   UNL A   1      32.305  24.310  26.705  1.00  0.00     0.224 C 
ATOM      5  O   UNL A   1      31.422  23.649  27.251  1.00  0.00    -0.275 OA
ATOM      6  H   UNL A   1      31.168  25.945  26.763  1.00  0.00     0.163 HD
BRANCH   4   7
ATOM      7  C   UNL A   1      33.620  23.694  26.219  1.00  0.00     0.095 C 
ATOM      8  C   UNL A   1      33.458  23.066  24.800  1.00  0.00     0.095 C 
ATOM      9  C   UNL A   1      33.408  21.527  24.714  1.00  0.00     0.041 C 
ATOM     10  C   UNL A   1      33.305  20.797  26.013  1.00  0.00    -0.030 C 
ATOM     11  C   UNL A   1      34.163  22.738  27.288  1.00  0.00     0.041 C 
ATOM     12  C   UNL A   1      33.652  21.340  27.183  1.00  0.00    -0.030 C 
BRANCH   8  13
ATOM     13  C   UNL A   1      34.550  23.667  23.891  1.00  0.00     0.230 C 
ATOM     14  N   UNL A   1      34.299  24.798  23.151  1.00  0.00    -0.302 N 
ATOM     15  H   UNL A   1      35.070  25.286  22.782  1.00  0.00     0.172 HD
ATOM     16  O   UNL A   1      35.716  23.264  23.936  1.00  0.00    -0.274 OA
BRANCH  14  17
ATOM     17  C   UNL A   1      33.054  25.293  22.894  1.00  0.00     0.190 A 
ATOM     18  C   UNL A   1      28.306  29.150  23.131  1.00  0.00     0.044 C 
ATOM     19  C   UNL A   1      29.203  27.948  23.056  1.00  0.00    -0.050 A 
ATOM     20  C   UNL A   1      28.831  26.795  23.754  1.00  0.00     0.006 A 
ATOM     21  C   UNL A   1      30.443  28.009  22.388  1.00  0.00     0.024 A 
ATOM     22  C   UNL A   1      29.680  25.695  23.813  1.00  0.00     0.030 A 
ATOM     23  C   UNL A   1      31.318  26.917  22.513  1.00  0.00     0.057 A 
ATOM     24  C   UNL A   1      30.950  25.774  23.222  1.00  0.00     0.084 A 
ATOM     25  S   UNL A   1      32.949  26.704  21.949  1.00  0.00    -0.097 S 
ATOM     26  N   UNL A   1      31.930  24.825  23.349  1.00  0.00    -0.220 NA
ENDBRANCH  14  17
ENDBRANCH   8  13
ENDBRANCH   4   7
ENDBRANCH   2   3
ENDBRANCH   1   2
BRANCH   1  27
ATOM     27  C   UNL A   1      33.197  29.207  25.452  1.00  0.00     0.118 C 
BRANCH  27  28
ATOM     28  N   UNL A   1      32.750  30.490  25.968  1.00  0.00    -0.352 N 
ATOM     29  C   UNL A   1      33.261  31.300  26.953  1.00  0.00     0.251 C 
ATOM     30  H   UNL A   1      31.938  30.842  25.534  1.00  0.00     0.163 HD
ATOM     31  O   UNL A   1      32.634  32.321  27.250  1.00  0.00    -0.269 OA
BRANCH  29  32
ATOM     32  C   UNL A   1      34.520  31.000  27.685  1.00  0.00     0.039 A 
ATOM     33  C   UNL A   1      34.682  29.718  28.225  1.00  0.00     0.014 A 
ATOM     34  C   UNL A   1      35.501  31.960  27.936  1.00  0.00     0.014 A 
ATOM     35  C   UNL A   1      35.825  29.395  28.968  1.00  0.00     0.010 A 
ATOM     36  C   UNL A   1      36.667  31.631  28.640  1.00  0.00     0.010 A 
ATOM     37  C   UNL A   1      36.839  30.346  29.170  1.00  0.00    -0.014 A 
BRANCH  37  38
ATOM     38  C   UNL A   1      38.075  29.979  29.915  1.00  0.00     0.031 A 
ATOM     39  C   UNL A   1      38.328  30.487  31.308  1.00  0.00     0.074 A 
ATOM     40  C   UNL A   1      38.993  29.193  29.320  1.00  0.00     0.049 A 
ATOM     41  N   UNL A   1      39.312  30.202  32.125  1.00  0.00    -0.248 NA
ATOM     42  C   UNL A   1      37.363  31.455  31.847  1.00  0.00     0.031 C 
ATOM     43  C   UNL A   1      38.907  28.689  27.949  1.00  0.00     0.029 A 
ATOM     44  N   UNL A   1      40.177  28.681  29.791  1.00  0.00    -0.354 N 
ATOM     45  C   UNL A   1      39.079  30.942  33.276  1.00  0.00     0.074 A 
ATOM     46  C   UNL A   1      37.893  31.736  33.030  1.00  0.00     0.031 C 
ATOM     47  C   UNL A   1      39.982  27.926  27.696  1.00  0.00     0.029 A 
ATOM     48  C   UNL A   1      40.835  27.891  28.881  1.00  0.00     0.049 A 
ATOM     49  H   UNL A   1      40.520  28.862  30.696  1.00  0.00     0.167 HD
ATOM     50  C   UNL A   1      39.773  30.941  34.442  1.00  0.00     0.037 A 
ATOM     51  C   UNL A   1      41.989  27.205  28.990  1.00  0.00     0.037 A 
ATOM     52  C   UNL A   1      40.951  30.150  34.692  1.00  0.00     0.049 A 
ATOM     53  C   UNL A   1      42.730  27.202  30.299  1.00  0.00     0.074 A 
ATOM     54  C   UNL A   1      41.686  30.038  35.861  1.00  0.00     0.029 A 
ATOM     55  N   UNL A   1      41.574  29.340  33.753  1.00  0.00    -0.354 N 
ATOM     56  N   UNL A   1      42.439  27.824  31.415  1.00  0.00    -0.248 NA
ATOM     57  C   UNL A   1      43.948  26.381  30.368  1.00  0.00     0.031 C 
ATOM     58  C   UNL A   1      42.776  29.194  35.617  1.00  0.00     0.029 A 
ATOM     59  C   UNL A   1      42.694  28.743  34.310  1.00  0.00     0.049 A 
ATOM     60  H   UNL A   1      41.266  29.210  32.828  1.00  0.00     0.167 HD
ATOM     61  C   UNL A   1      43.420  27.450  32.326  1.00  0.00     0.074 A 
ATOM     62  C   UNL A   1      44.305  26.534  31.636  1.00  0.00     0.031 C 
ATOM     63  C   UNL A   1      43.569  27.832  33.618  1.00  0.00     0.037 A 
BRANCH  50  64
ATOM     64  C   UNL A   1      39.267  31.817  35.553  1.00  0.00     0.064 A 
ATOM     65  C   UNL A   1      38.367  31.330  36.513  1.00  0.00     0.173 A 
ATOM     66  C   UNL A   1      39.725  33.135  35.694  1.00  0.00     0.173 A 
ATOM     67  F   UNL A   1      37.893  30.079  36.421  1.00  0.00    -0.203 F 
ATOM     68  C   UNL A   1      37.924  32.139  37.556  1.00  0.00     0.198 A 
ATOM     69  C   UNL A   1      39.302  33.933  36.754  1.00  0.00     0.198 A 
ATOM     70  F   UNL A   1      40.595  33.647  34.809  1.00  0.00    -0.203 F 
ATOM     71  F   UNL A   1      37.030  31.666  38.436  1.00  0.00    -0.200 F 
ATOM     72  C   UNL A   1      38.396  33.437  37.680  1.00  0.00     0.200 A 
ATOM     73  F   UNL A   1      39.771  35.182  36.880  1.00  0.00    -0.200 F 
ATOM     74  F   UNL A   1      37.975  34.211  38.689  1.00  0.00    -0.200 F 
ENDBRANCH  50  64
BRANCH  51  75
ATOM     75  C   UNL A   1      42.485  26.417  27.834  1.00  0.00     0.064 A 
ATOM     76  C   UNL A   1      42.016  25.120  27.590  1.00  0.00     0.173 A 
ATOM     77  C   UNL A   1      43.430  26.950  26.945  1.00  0.00     0.173 A 
ATOM     78  F   UNL A   1      41.126  24.562  28.424  1.00  0.00    -0.203 F 
ATOM     79  C   UNL A   1      42.485  24.377  26.508  1.00  0.00     0.198 A 
ATOM     80  C   UNL A   1      43.879  26.215  25.850  1.00  0.00     0.198 A 
ATOM     81  F   UNL A   1      43.905  28.190  27.133  1.00  0.00    -0.203 F 
ATOM     82  F   UNL A   1      42.048  23.124  26.319  1.00  0.00    -0.200 F 
ATOM     83  C   UNL A   1      43.411  24.928  25.636  1.00  0.00     0.200 A 
ATOM     84  F   UNL A   1      44.764  26.756  25.001  1.00  0.00    -0.200 F 
ATOM     85  F   UNL A   1      43.857  24.216  24.592  1.00  0.00    -0.200 F 
ENDBRANCH  51  75
BRANCH  63  86
ATOM     86  C   UNL A   1      44.720  27.240  34.381  1.00  0.00     0.064 A 
ATOM     87  C   UNL A   1      44.605  26.014  35.051  1.00  0.00     0.173 A 
ATOM     88  C   UNL A   1      45.959  27.897  34.421  1.00  0.00     0.173 A 
ATOM     89  F   UNL A   1      43.437  25.354  35.056  1.00  0.00    -0.203 F 
ATOM     90  C   UNL A   1      45.681  25.480  35.756  1.00  0.00     0.198 A 
ATOM     91  C   UNL A   1      47.040  27.348  35.104  1.00  0.00     0.198 A 
ATOM     92  F   UNL A   1      46.123  29.071  33.792  1.00  0.00    -0.203 F 
ATOM     93  F   UNL A   1      45.534  24.330  36.430  1.00  0.00    -0.200 F 
ATOM     94  C   UNL A   1      46.899  26.144  35.778  1.00  0.00     0.200 A 
ATOM     95  F   UNL A   1      48.219  27.985  35.114  1.00  0.00    -0.200 F 
ATOM     96  F   UNL A   1      47.933  25.628  36.455  1.00  0.00    -0.200 F 
ENDBRANCH  63  86
ENDBRANCH  37  38
ENDBRANCH  29  32
ENDBRANCH  27  28
ENDBRANCH   1  27
TORSDOF 12
ENDMDL
MODEL 3
REMARK VINA RESULT:     -13.1      1.992      4.092
REMARK SMILES Cc1ccc2nc(NC(=O)[C@H]3CC=CC[C@@H]3C(=O)NCCCNC(=O)c3ccc(-c4c5nc(c(-c6c(F)c(F)c(F)c(F)c6F)c6ccc([nH]6)c(-c6c(F)c(F)c(F)c(F)c6F)c6nc(c(-c7c(F)c(F)c(F)c(F)c7F)c7ccc4[nH]7)C=C6)C=C5)cc3)sc2c1
REMARK SMILES IDX 21 1 20 2 19 3 17 4 18 5 16 7 11 8 12 9 13 10 15 11 14 12
REMARK SMILES IDX 9 13 8 14 10 16 7 17 1 18 2 19 3 20 91 21 4 22 90 23 5 24
REMARK SMILES IDX 89 25 6 26 22 27 23 28 24 29 25 31 26 32 27 33 88 34 28 35
REMARK SMILES IDX 87 36 29 37 30 38 31 39 81 40 32 41 86 42 80 43 82 44 33 45
REMARK SMILES IDX 85 46 79 47 78 48 34 50 66 51 46 52 65 53 47 54 50 55 64 56
REMARK SMILES IDX 83 57 48 58 49 59 63 61 84 62 51 63 35 64 36 65 44 66 37 67
REMARK SMILES IDX 38 68 42 69 45 70 39 71 40 72 43 73 41 74 67 75 68 76 76 77
REMARK SMILES IDX 69 78 70 79 74 80 77 81 71 82 72 83 75 84 73 85 52 86 53 87
REMARK SMILES IDX 61 88 54 89 55 90 59 91 62 92 56 93 57 94 60 95 58 96
REMARK H PARENT 19 6 8 15 23 30 82 49 50 60
REMARK Flexibility Score: inf
ROOT
ATOM      1  C   UNL A   1      31.405  31.940  26.850  1.00  0.00     0.042 C 
ENDROOT
BRANCH   1   2
ATOM      2  C   UNL A   1      31.803  30.464  26.859  1.00  0.00     0.117 C 
BRANCH   2   3
ATOM      3  N   UNL A   1      32.699  30.085  25.778  1.00  0.00    -0.356 N 
ATOM      4  C   UNL A   1      32.563  29.146  24.790  1.00  0.00     0.224 C 
ATOM      5  O   UNL A   1      33.389  29.162  23.877  1.00  0.00    -0.275 OA
ATOM      6  H   UNL A   1      33.547  30.587  25.753  1.00  0.00     0.163 HD
BRANCH   4   7
ATOM      7  C   UNL A   1      31.401  28.150  24.840  1.00  0.00     0.095 C 
ATOM      8  C   UNL A   1      31.907  26.684  24.670  1.00  0.00     0.095 C 
ATOM      9  C   UNL A   1      31.641  26.000  23.314  1.00  0.00     0.041 C 
ATOM     10  C   UNL A   1      31.116  26.878  22.225  1.00  0.00    -0.030 C 
ATOM     11  C   UNL A   1      30.319  28.577  23.839  1.00  0.00     0.041 C 
ATOM     12  C   UNL A   1      30.510  28.045  22.459  1.00  0.00    -0.030 C 
BRANCH   8  13
ATOM     13  C   UNL A   1      31.367  25.859  25.857  1.00  0.00     0.230 C 
ATOM     14  N   UNL A   1      32.118  24.847  26.405  1.00  0.00    -0.302 N 
ATOM     15  H   UNL A   1      31.858  24.511  27.293  1.00  0.00     0.172 HD
ATOM     16  O   UNL A   1      30.339  26.194  26.456  1.00  0.00    -0.274 OA
BRANCH  14  17
ATOM     17  C   UNL A   1      33.200  24.275  25.802  1.00  0.00     0.190 A 
ATOM     18  C   UNL A   1      37.684  20.223  24.827  1.00  0.00     0.044 C 
ATOM     19  C   UNL A   1      36.837  21.458  24.941  1.00  0.00    -0.050 A 
ATOM     20  C   UNL A   1      37.440  22.642  25.373  1.00  0.00     0.006 A 
ATOM     21  C   UNL A   1      35.445  21.405  24.720  1.00  0.00     0.024 A 
ATOM     22  C   UNL A   1      36.679  23.784  25.606  1.00  0.00     0.030 A 
ATOM     23  C   UNL A   1      34.681  22.544  25.025  1.00  0.00     0.057 A 
ATOM     24  C   UNL A   1      35.284  23.720  25.470  1.00  0.00     0.084 A 
ATOM     25  S   UNL A   1      32.960  22.791  25.005  1.00  0.00    -0.097 S 
ATOM     26  N   UNL A   1      34.420  24.722  25.823  1.00  0.00    -0.220 NA
ENDBRANCH  14  17
ENDBRANCH   8  13
ENDBRANCH   4   7
ENDBRANCH   2   3
ENDBRANCH   1   2
BRANCH   1  27
ATOM     27  C   UNL A   1      32.563  32.939  26.802  1.00  0.00     0.118 C 
BRANCH  27  28
ATOM     28  N   UNL A   1      32.337  34.139  27.590  1.00  0.00    -0.352 N 
ATOM     29  C   UNL A   1      33.014  34.659  28.667  1.00  0.00     0.251 C 
ATOM     30  H   UNL A   1      31.562  34.675  27.301  1.00  0.00     0.163 HD
ATOM     31  O   UNL A   1      32.560  35.673  29.206  1.00  0.00    -0.269 OA
BRANCH  29  32
ATOM     32  C   UNL A   1      34.254  34.054  29.221  1.00  0.00     0.039 A 
ATOM     33  C   UNL A   1      34.127  33.072  30.212  1.00  0.00     0.014 A 
ATOM     34  C   UNL A   1      35.534  34.482  28.865  1.00  0.00     0.014 A 
ATOM     35  C   UNL A   1      35.262  32.505  30.805  1.00  0.00     0.010 A 
ATOM     36  C   UNL A   1      36.673  33.886  29.422  1.00  0.00     0.010 A 
ATOM     37  C   UNL A   1      36.549  32.896  30.405  1.00  0.00    -0.014 A 
BRANCH  37  38
ATOM     38  C   UNL A   1      37.750  32.249  31.001  1.00  0.00     0.031 A 
ATOM     39  C   UNL A   1      38.258  32.646  32.360  1.00  0.00     0.074 A 
ATOM     40  C   UNL A   1      38.406  31.303  30.300  1.00  0.00     0.049 A 
ATOM     41  N   UNL A   1      39.240  32.130  33.058  1.00  0.00    -0.248 NA
ATOM     42  C   UNL A   1      37.590  33.781  33.013  1.00  0.00     0.031 C 
ATOM     43  C   UNL A   1      38.063  30.874  28.944  1.00  0.00     0.029 A 
ATOM     44  N   UNL A   1      39.494  30.534  30.630  1.00  0.00    -0.354 N 
ATOM     45  C   UNL A   1      39.301  32.866  34.234  1.00  0.00     0.074 A 
ATOM     46  C   UNL A   1      38.295  33.904  34.130  1.00  0.00     0.031 C 
ATOM     47  C   UNL A   1      38.913  29.906  28.565  1.00  0.00     0.029 A 
ATOM     48  C   UNL A   1      39.862  29.652  29.645  1.00  0.00     0.049 A 
ATOM     49  H   UNL A   1      39.966  30.609  31.491  1.00  0.00     0.167 HD
ATOM     50  C   UNL A   1      40.101  32.680  35.313  1.00  0.00     0.037 A 
ATOM     51  C   UNL A   1      40.845  28.731  29.617  1.00  0.00     0.037 A 
ATOM     52  C   UNL A   1      41.100  31.646  35.422  1.00  0.00     0.049 A 
ATOM     53  C   UNL A   1      41.707  28.527  30.834  1.00  0.00     0.074 A 
ATOM     54  C   UNL A   1      41.915  31.342  36.499  1.00  0.00     0.029 A 
ATOM     55  N   UNL A   1      41.426  30.752  34.413  1.00  0.00    -0.354 N 
ATOM     56  N   UNL A   1      41.681  29.161  31.980  1.00  0.00    -0.248 NA
ATOM     57  C   UNL A   1      42.718  27.462  30.758  1.00  0.00     0.031 C 
ATOM     58  C   UNL A   1      42.764  30.292  36.127  1.00  0.00     0.029 A 
ATOM     59  C   UNL A   1      42.444  29.911  34.834  1.00  0.00     0.049 A 
ATOM     60  H   UNL A   1      40.998  30.721  33.527  1.00  0.00     0.167 HD
ATOM     61  C   UNL A   1      42.651  28.557  32.771  1.00  0.00     0.074 A 
ATOM     62  C   UNL A   1      43.235  27.495  31.978  1.00  0.00     0.031 C 
ATOM     63  C   UNL A   1      43.019  28.856  34.040  1.00  0.00     0.037 A 
BRANCH  50  64
ATOM     64  C   UNL A   1      39.921  33.608  36.481  1.00  0.00     0.064 A 
ATOM     65  C   UNL A   1      40.607  34.829  36.554  1.00  0.00     0.173 A 
ATOM     66  C   UNL A   1      39.016  33.302  37.508  1.00  0.00     0.173 A 
ATOM     67  F   UNL A   1      41.489  35.166  35.601  1.00  0.00    -0.203 F 
ATOM     68  C   UNL A   1      40.415  35.697  37.626  1.00  0.00     0.198 A 
ATOM     69  C   UNL A   1      38.805  34.185  38.564  1.00  0.00     0.198 A 
ATOM     70  F   UNL A   1      38.326  32.152  37.482  1.00  0.00    -0.203 F 
ATOM     71  F   UNL A   1      41.115  36.838  37.696  1.00  0.00    -0.200 F 
ATOM     72  C   UNL A   1      39.510  35.378  38.626  1.00  0.00     0.200 A 
ATOM     73  F   UNL A   1      37.918  33.882  39.523  1.00  0.00    -0.200 F 
ATOM     74  F   UNL A   1      39.319  36.219  39.653  1.00  0.00    -0.200 F 
ENDBRANCH  50  64
BRANCH  51  75
ATOM     75  C   UNL A   1      41.029  27.892  28.406  1.00  0.00     0.064 A 
ATOM     76  C   UNL A   1      41.900  28.285  27.382  1.00  0.00     0.173 A 
ATOM     77  C   UNL A   1      40.346  26.676  28.255  1.00  0.00     0.173 A 
ATOM     78  F   UNL A   1      42.560  29.449  27.474  1.00  0.00    -0.203 F 
ATOM     79  C   UNL A   1      42.070  27.502  26.242  1.00  0.00     0.198 A 
ATOM     80  C   UNL A   1      40.537  25.881  27.127  1.00  0.00     0.198 A 
ATOM     81  F   UNL A   1      39.507  26.254  29.212  1.00  0.00    -0.203 F 
ATOM     82  F   UNL A   1      42.880  27.919  25.260  1.00  0.00    -0.200 F 
ATOM     83  C   UNL A   1      41.393  26.298  26.118  1.00  0.00     0.200 A 
ATOM     84  F   UNL A   1      39.892  24.712  27.017  1.00  0.00    -0.200 F 
ATOM     85  F   UNL A   1      41.562  25.541  25.026  1.00  0.00    -0.200 F 
ENDBRANCH  51  75
BRANCH  63  86
ATOM     86  C   UNL A   1      44.091  28.008  34.663  1.00  0.00     0.064 A 
ATOM     87  C   UNL A   1      45.441  28.383  34.626  1.00  0.00     0.173 A 
ATOM     88  C   UNL A   1      43.758  26.817  35.327  1.00  0.00     0.173 A 
ATOM     89  F   UNL A   1      45.813  29.504  33.990  1.00  0.00    -0.203 F 
ATOM     90  C   UNL A   1      46.423  27.583  35.206  1.00  0.00     0.198 A 
ATOM     91  C   UNL A   1      44.738  26.034  35.930  1.00  0.00     0.198 A 
ATOM     92  F   UNL A   1      42.480  26.415  35.396  1.00  0.00    -0.203 F 
ATOM     93  F   UNL A   1      47.713  27.937  35.116  1.00  0.00    -0.200 F 
ATOM     94  C   UNL A   1      46.070  26.413  35.863  1.00  0.00     0.200 A 
ATOM     95  F   UNL A   1      44.395  24.909  36.573  1.00  0.00    -0.200 F 
ATOM     96  F   UNL A   1      47.016  25.646  36.423  1.00  0.00    -0.200 F 
ENDBRANCH  63  86
ENDBRANCH  37  38
ENDBRANCH  29  32
ENDBRANCH  27  28
ENDBRANCH   1  27
TORSDOF 12
ENDMDL
