MODEL 1
REMARK VINA RESULT:     -14.6      0.000      0.000
REMARK SMILES O=C(NCCCNC(=O)c1ccn(-c2cc(-c3ccncc3)nc(-c3ccccc3F)n2)n1)c1ccc(-c2c3nc(c(-c4c(F)c(F)c(F)c(F)c4F)c4ccc([nH]4)c(-c4c(F)c(F)c(F)c(F)c4F)c4nc(c(-c5c(F)c(F)c(F)c(F)c5F)c5ccc2[nH]5)C=C4)C=C3)cc1
REMARK SMILES IDX 5 1 4 2 3 3 1 4 2 5 34 7 35 8 96 9 36 10 95 11 37 12 38 13
REMARK SMILES IDX 39 14 89 15 40 16 94 17 88 18 90 19 41 20 93 21 87 22 86 23
REMARK SMILES IDX 42 25 74 26 54 27 73 28 55 29 58 30 72 31 91 32 56 33 57 34
REMARK SMILES IDX 71 36 92 37 59 38 43 39 44 40 52 41 45 42 46 43 50 44 53 45
REMARK SMILES IDX 47 46 48 47 51 48 49 49 75 50 76 51 84 52 77 53 78 54 82 55
REMARK SMILES IDX 85 56 79 57 80 58 83 59 81 60 60 61 61 62 69 63 62 64 63 65
REMARK SMILES IDX 67 66 70 67 64 68 65 69 68 70 66 71 6 72 7 73 8 74 9 76
REMARK SMILES IDX 10 77 11 78 33 79 12 80 13 81 14 82 15 83 32 84 16 85 24 86
REMARK SMILES IDX 23 87 17 88 18 89 22 90 19 91 21 92 20 93 25 94 26 95 30 96
REMARK SMILES IDX 27 97 29 98 31 99 28 100
REMARK H PARENT 3 6 90 24 58 35 7 75
REMARK Flexibility Score: inf
ROOT
ATOM      1  C   UNL A   1      36.213  21.659  25.738  1.00  0.00     0.042 C 
ENDROOT
BRANCH   1   2
ATOM      2  C   UNL A   1      37.424  22.508  25.359  1.00  0.00     0.118 C 
BRANCH   2   3
ATOM      3  N   UNL A   1      38.698  21.963  25.788  1.00  0.00    -0.352 N 
ATOM      4  O   UNL A   1      40.597  21.555  26.827  1.00  0.00    -0.269 OA
ATOM      5  C   UNL A   1      39.716  22.386  26.595  1.00  0.00     0.251 C 
ATOM      6  H   UNL A   1      38.870  21.072  25.405  1.00  0.00     0.163 HD
BRANCH   5   7
ATOM      7  C   UNL A   1      39.876  23.760  27.142  1.00  0.00     0.039 A 
ATOM      8  C   UNL A   1      39.005  24.834  26.953  1.00  0.00     0.014 A 
ATOM      9  C   UNL A   1      41.036  23.967  27.916  1.00  0.00     0.014 A 
ATOM     10  C   UNL A   1      39.328  26.098  27.454  1.00  0.00     0.010 A 
ATOM     11  C   UNL A   1      41.358  25.220  28.423  1.00  0.00     0.010 A 
ATOM     12  C   UNL A   1      40.519  26.297  28.163  1.00  0.00    -0.014 A 
BRANCH  12  13
ATOM     13  C   UNL A   1      40.771  27.603  28.776  1.00  0.00     0.031 A 
ATOM     14  C   UNL A   1      42.020  28.278  28.299  1.00  0.00     0.074 A 
ATOM     15  C   UNL A   1      39.887  28.246  29.568  1.00  0.00     0.049 A 
ATOM     16  N   UNL A   1      43.022  28.707  28.998  1.00  0.00    -0.248 NA
ATOM     17  C   UNL A   1      42.210  28.412  26.844  1.00  0.00     0.031 C 
ATOM     18  C   UNL A   1      38.508  27.867  29.887  1.00  0.00     0.029 A 
ATOM     19  N   UNL A   1      40.019  29.449  30.202  1.00  0.00    -0.354 N 
ATOM     20  C   UNL A   1      43.907  29.291  28.091  1.00  0.00     0.074 A 
ATOM     21  C   UNL A   1      43.411  28.988  26.774  1.00  0.00     0.031 C 
ATOM     22  C   UNL A   1      37.873  28.914  30.467  1.00  0.00     0.029 A 
ATOM     23  C   UNL A   1      38.830  29.985  30.687  1.00  0.00     0.049 A 
ATOM     24  H   UNL A   1      40.887  29.901  30.308  1.00  0.00     0.167 HD
ATOM     25  C   UNL A   1      44.905  30.132  28.486  1.00  0.00     0.037 A 
ATOM     26  C   UNL A   1      38.644  31.236  31.184  1.00  0.00     0.037 A 
ATOM     27  C   UNL A   1      45.209  29.976  29.880  1.00  0.00     0.049 A 
ATOM     28  C   UNL A   1      39.978  31.762  31.565  1.00  0.00     0.074 A 
ATOM     29  C   UNL A   1      45.718  28.944  30.645  1.00  0.00     0.029 A 
ATOM     30  N   UNL A   1      44.654  30.857  30.772  1.00  0.00    -0.354 N 
ATOM     31  N   UNL A   1      40.697  31.289  32.542  1.00  0.00    -0.248 NA
ATOM     32  C   UNL A   1      40.698  32.534  30.567  1.00  0.00     0.031 C 
ATOM     33  C   UNL A   1      44.997  29.009  31.872  1.00  0.00     0.029 A 
ATOM     34  C   UNL A   1      44.147  30.114  31.807  1.00  0.00     0.049 A 
ATOM     35  H   UNL A   1      44.625  31.837  30.684  1.00  0.00     0.167 HD
ATOM     36  C   UNL A   1      41.998  31.329  32.066  1.00  0.00     0.074 A 
ATOM     37  C   UNL A   1      41.945  32.170  30.873  1.00  0.00     0.031 C 
ATOM     38  C   UNL A   1      42.939  30.452  32.520  1.00  0.00     0.037 A 
BRANCH  25  39
ATOM     39  C   UNL A   1      45.412  31.289  27.667  1.00  0.00     0.064 A 
ATOM     40  C   UNL A   1      44.697  32.499  27.530  1.00  0.00     0.173 A 
ATOM     41  C   UNL A   1      46.751  31.320  27.232  1.00  0.00     0.173 A 
ATOM     42  F   UNL A   1      43.458  32.643  28.018  1.00  0.00    -0.203 F 
ATOM     43  C   UNL A   1      45.268  33.645  26.980  1.00  0.00     0.198 A 
ATOM     44  C   UNL A   1      47.336  32.486  26.728  1.00  0.00     0.198 A 
ATOM     45  F   UNL A   1      47.535  30.240  27.359  1.00  0.00    -0.203 F 
ATOM     46  F   UNL A   1      44.539  34.766  26.891  1.00  0.00    -0.200 F 
ATOM     47  C   UNL A   1      46.594  33.648  26.601  1.00  0.00     0.200 A 
ATOM     48  F   UNL A   1      48.640  32.499  26.421  1.00  0.00    -0.200 F 
ATOM     49  F   UNL A   1      47.164  34.777  26.162  1.00  0.00    -0.200 F 
ENDBRANCH  25  39
BRANCH  26  50
ATOM     50  C   UNL A   1      37.482  32.149  31.018  1.00  0.00     0.064 A 
ATOM     51  C   UNL A   1      36.410  32.133  31.930  1.00  0.00     0.173 A 
ATOM     52  C   UNL A   1      37.249  32.811  29.798  1.00  0.00     0.173 A 
ATOM     53  F   UNL A   1      36.507  31.468  33.091  1.00  0.00    -0.203 F 
ATOM     54  C   UNL A   1      35.173  32.708  31.627  1.00  0.00     0.198 A 
ATOM     55  C   UNL A   1      36.008  33.383  29.493  1.00  0.00     0.198 A 
ATOM     56  F   UNL A   1      38.201  32.838  28.853  1.00  0.00    -0.203 F 
ATOM     57  F   UNL A   1      34.162  32.603  32.501  1.00  0.00    -0.200 F 
ATOM     58  C   UNL A   1      34.967  33.317  30.403  1.00  0.00     0.200 A 
ATOM     59  F   UNL A   1      35.802  33.939  28.291  1.00  0.00    -0.200 F 
ATOM     60  F   UNL A   1      33.756  33.797  30.085  1.00  0.00    -0.200 F 
ENDBRANCH  26  50
BRANCH  38  61
ATOM     61  C   UNL A   1      42.597  29.603  33.713  1.00  0.00     0.064 A 
ATOM     62  C   UNL A   1      43.107  29.981  34.962  1.00  0.00     0.173 A 
ATOM     63  C   UNL A   1      41.941  28.360  33.635  1.00  0.00     0.173 A 
ATOM     64  F   UNL A   1      43.786  31.132  35.088  1.00  0.00    -0.203 F 
ATOM     65  C   UNL A   1      42.982  29.156  36.075  1.00  0.00     0.198 A 
ATOM     66  C   UNL A   1      41.783  27.552  34.760  1.00  0.00     0.198 A 
ATOM     67  F   UNL A   1      41.504  27.882  32.464  1.00  0.00    -0.203 F 
ATOM     68  F   UNL A   1      43.544  29.516  37.238  1.00  0.00    -0.200 F 
ATOM     69  C   UNL A   1      42.316  27.945  35.976  1.00  0.00     0.200 A 
ATOM     70  F   UNL A   1      41.157  26.370  34.658  1.00  0.00    -0.200 F 
ATOM     71  F   UNL A   1      42.216  27.143  37.047  1.00  0.00    -0.200 F 
ENDBRANCH  38  61
ENDBRANCH  12  13
ENDBRANCH   5   7
ENDBRANCH   2   3
ENDBRANCH   1   2
BRANCH   1  72
ATOM     72  C   UNL A   1      34.866  22.315  25.425  1.00  0.00     0.118 C 
BRANCH  72  73
ATOM     73  N   UNL A   1      34.066  21.510  24.520  1.00  0.00    -0.351 N 
ATOM     74  C   UNL A   1      32.715  21.575  24.267  1.00  0.00     0.271 C 
ATOM     75  H   UNL A   1      34.560  20.824  24.015  1.00  0.00     0.163 HD
ATOM     76  O   UNL A   1      32.203  20.701  23.578  1.00  0.00    -0.267 OA
BRANCH  74  77
ATOM     77  C   UNL A   1      31.957  22.717  24.788  1.00  0.00     0.150 A 
ATOM     78  C   UNL A   1      31.098  22.722  25.915  1.00  0.00     0.056 A 
ATOM     79  N   UNL A   1      32.041  23.941  24.236  1.00  0.00    -0.161 NA
ATOM     80  C   UNL A   1      30.779  24.040  26.114  1.00  0.00     0.118 A 
ATOM     81  N   UNL A   1      31.405  24.755  25.120  1.00  0.00    -0.222 N 
BRANCH  81  82
ATOM     82  C   UNL A   1      31.414  26.170  24.986  1.00  0.00     0.158 A 
ATOM     83  C   UNL A   1      30.617  26.745  24.017  1.00  0.00     0.078 A 
ATOM     84  N   UNL A   1      32.186  26.888  25.834  1.00  0.00    -0.209 NA
ATOM     85  C   UNL A   1      30.602  28.124  23.991  1.00  0.00     0.077 A 
ATOM     86  C   UNL A   1      32.170  28.220  25.663  1.00  0.00     0.165 A 
ATOM     87  N   UNL A   1      31.401  28.874  24.775  1.00  0.00    -0.228 NA
BRANCH  85  88
ATOM     88  C   UNL A   1      29.656  28.863  23.152  1.00  0.00     0.003 A 
ATOM     89  C   UNL A   1      30.111  29.813  22.227  1.00  0.00     0.030 A 
ATOM     90  C   UNL A   1      28.280  28.633  23.231  1.00  0.00     0.030 A 
ATOM     91  C   UNL A   1      29.188  30.489  21.449  1.00  0.00     0.111 A 
ATOM     92  C   UNL A   1      27.434  29.368  22.417  1.00  0.00     0.111 A 
ATOM     93  N   UNL A   1      27.857  30.296  21.532  1.00  0.00    -0.265 NA
ENDBRANCH  85  88
BRANCH  86  94
ATOM     94  C   UNL A   1      33.130  29.002  26.429  1.00  0.00     0.055 A 
ATOM     95  C   UNL A   1      34.435  28.523  26.656  1.00  0.00     0.015 A 
ATOM     96  C   UNL A   1      32.794  30.253  26.953  1.00  0.00     0.134 A 
ATOM     97  C   UNL A   1      35.366  29.282  27.374  1.00  0.00     0.001 A 
ATOM     98  C   UNL A   1      33.714  31.011  27.677  1.00  0.00     0.040 A 
ATOM     99  F   UNL A   1      31.556  30.744  26.790  1.00  0.00    -0.206 F 
ATOM    100  C   UNL A   1      35.004  30.527  27.885  1.00  0.00     0.003 A 
ENDBRANCH  86  94
ENDBRANCH  81  82
ENDBRANCH  74  77
ENDBRANCH  72  73
ENDBRANCH   1  72
TORSDOF 13
ENDMDL
MODEL 2
REMARK VINA RESULT:     -14.3      4.878     11.079
REMARK SMILES O=C(NCCCNC(=O)c1ccn(-c2cc(-c3ccncc3)nc(-c3ccccc3F)n2)n1)c1ccc(-c2c3nc(c(-c4c(F)c(F)c(F)c(F)c4F)c4ccc([nH]4)c(-c4c(F)c(F)c(F)c(F)c4F)c4nc(c(-c5c(F)c(F)c(F)c(F)c5F)c5ccc2[nH]5)C=C4)C=C3)cc1
REMARK SMILES IDX 5 1 4 2 3 3 1 4 2 5 34 7 35 8 96 9 36 10 95 11 37 12 38 13
REMARK SMILES IDX 39 14 89 15 40 16 94 17 88 18 90 19 41 20 93 21 87 22 86 23
REMARK SMILES IDX 42 25 74 26 54 27 73 28 55 29 58 30 72 31 91 32 56 33 57 34
REMARK SMILES IDX 71 36 92 37 59 38 43 39 44 40 52 41 45 42 46 43 50 44 53 45
REMARK SMILES IDX 47 46 48 47 51 48 49 49 75 50 76 51 84 52 77 53 78 54 82 55
REMARK SMILES IDX 85 56 79 57 80 58 83 59 81 60 60 61 61 62 69 63 62 64 63 65
REMARK SMILES IDX 67 66 70 67 64 68 65 69 68 70 66 71 6 72 7 73 8 74 9 76
REMARK SMILES IDX 10 77 11 78 33 79 12 80 13 81 14 82 15 83 32 84 16 85 24 86
REMARK SMILES IDX 23 87 17 88 18 89 22 90 19 91 21 92 20 93 25 94 26 95 30 96
REMARK SMILES IDX 27 97 29 98 31 99 28 100
REMARK H PARENT 3 6 90 24 58 35 7 75
REMARK Flexibility Score: inf
ROOT
ATOM      1  C   UNL A   1      34.173  35.507  28.961  1.00  0.00     0.042 C 
ENDROOT
BRANCH   1   2
ATOM      2  C   UNL A   1      34.957  34.216  29.191  1.00  0.00     0.118 C 
BRANCH   2   3
ATOM      3  N   UNL A   1      34.376  33.042  28.571  1.00  0.00    -0.352 N 
ATOM      4  O   UNL A   1      33.915  30.991  27.910  1.00  0.00    -0.269 OA
ATOM      5  C   UNL A   1      34.772  31.750  28.371  1.00  0.00     0.251 C 
ATOM      6  H   UNL A   1      33.477  33.217  28.208  1.00  0.00     0.163 HD
BRANCH   5   7
ATOM      7  C   UNL A   1      36.144  31.219  28.591  1.00  0.00     0.039 A 
ATOM      8  C   UNL A   1      37.228  31.919  29.120  1.00  0.00     0.014 A 
ATOM      9  C   UNL A   1      36.336  29.876  28.208  1.00  0.00     0.014 A 
ATOM     10  C   UNL A   1      38.489  31.318  29.187  1.00  0.00     0.010 A 
ATOM     11  C   UNL A   1      37.586  29.271  28.280  1.00  0.00     0.010 A 
ATOM     12  C   UNL A   1      38.673  30.005  28.740  1.00  0.00    -0.014 A 
BRANCH  12  13
ATOM     13  C   UNL A   1      39.976  29.365  28.933  1.00  0.00     0.031 A 
ATOM     14  C   UNL A   1      40.327  29.096  30.364  1.00  0.00     0.074 A 
ATOM     15  C   UNL A   1      40.737  28.887  27.924  1.00  0.00     0.049 A 
ATOM     16  N   UNL A   1      41.371  29.481  31.024  1.00  0.00    -0.248 NA
ATOM     17  C   UNL A   1      39.338  28.374  31.184  1.00  0.00     0.031 C 
ATOM     18  C   UNL A   1      40.406  28.797  26.500  1.00  0.00     0.029 A 
ATOM     19  N   UNL A   1      41.964  28.292  27.983  1.00  0.00    -0.354 N 
ATOM     20  C   UNL A   1      41.246  28.937  32.303  1.00  0.00     0.074 A 
ATOM     21  C   UNL A   1      39.930  28.357  32.379  1.00  0.00     0.031 C 
ATOM     22  C   UNL A   1      41.304  27.999  25.876  1.00  0.00     0.029 A 
ATOM     23  C   UNL A   1      42.348  27.634  26.818  1.00  0.00     0.049 A 
ATOM     24  H   UNL A   1      42.533  28.326  28.785  1.00  0.00     0.167 HD
ATOM     25  C   UNL A   1      42.298  28.853  33.165  1.00  0.00     0.037 A 
ATOM     26  C   UNL A   1      43.418  26.810  26.664  1.00  0.00     0.037 A 
ATOM     27  C   UNL A   1      43.353  29.756  32.804  1.00  0.00     0.049 A 
ATOM     28  C   UNL A   1      44.361  27.099  27.772  1.00  0.00     0.074 A 
ATOM     29  C   UNL A   1      43.463  31.131  32.739  1.00  0.00     0.029 A 
ATOM     30  N   UNL A   1      44.414  29.267  32.086  1.00  0.00    -0.354 N 
ATOM     31  N   UNL A   1      45.016  28.217  27.901  1.00  0.00    -0.248 NA
ATOM     32  C   UNL A   1      44.233  26.299  28.978  1.00  0.00     0.031 C 
ATOM     33  C   UNL A   1      44.258  31.380  31.583  1.00  0.00     0.029 A 
ATOM     34  C   UNL A   1      44.641  30.145  31.057  1.00  0.00     0.049 A 
ATOM     35  H   UNL A   1      44.916  28.441  32.273  1.00  0.00     0.167 HD
ATOM     36  C   UNL A   1      45.006  28.469  29.263  1.00  0.00     0.074 A 
ATOM     37  C   UNL A   1      44.573  27.219  29.882  1.00  0.00     0.031 C 
ATOM     38  C   UNL A   1      45.079  29.744  29.742  1.00  0.00     0.037 A 
BRANCH  25  39
ATOM     39  C   UNL A   1      42.481  27.750  34.174  1.00  0.00     0.064 A 
ATOM     40  C   UNL A   1      41.850  27.757  35.437  1.00  0.00     0.173 A 
ATOM     41  C   UNL A   1      43.066  26.527  33.792  1.00  0.00     0.173 A 
ATOM     42  F   UNL A   1      41.148  28.814  35.866  1.00  0.00    -0.203 F 
ATOM     43  C   UNL A   1      41.824  26.636  36.265  1.00  0.00     0.198 A 
ATOM     44  C   UNL A   1      42.993  25.390  34.603  1.00  0.00     0.198 A 
ATOM     45  F   UNL A   1      43.652  26.395  32.593  1.00  0.00    -0.203 F 
ATOM     46  F   UNL A   1      41.194  26.704  37.446  1.00  0.00    -0.200 F 
ATOM     47  C   UNL A   1      42.374  25.445  35.839  1.00  0.00     0.200 A 
ATOM     48  F   UNL A   1      43.474  24.221  34.157  1.00  0.00    -0.200 F 
ATOM     49  F   UNL A   1      42.263  24.347  36.597  1.00  0.00    -0.200 F 
ENDBRANCH  25  39
BRANCH  26  50
ATOM     50  C   UNL A   1      43.531  25.557  25.871  1.00  0.00     0.064 A 
ATOM     51  C   UNL A   1      42.593  24.518  26.017  1.00  0.00     0.173 A 
ATOM     52  C   UNL A   1      44.728  25.225  25.208  1.00  0.00     0.173 A 
ATOM     53  F   UNL A   1      41.453  24.713  26.694  1.00  0.00    -0.203 F 
ATOM     54  C   UNL A   1      42.851  23.221  25.565  1.00  0.00     0.198 A 
ATOM     55  C   UNL A   1      44.987  23.924  24.759  1.00  0.00     0.198 A 
ATOM     56  F   UNL A   1      45.695  26.142  25.062  1.00  0.00    -0.203 F 
ATOM     57  F   UNL A   1      41.955  22.250  25.792  1.00  0.00    -0.200 F 
ATOM     58  C   UNL A   1      44.053  22.920  24.952  1.00  0.00     0.200 A 
ATOM     59  F   UNL A   1      46.169  23.629  24.200  1.00  0.00    -0.200 F 
ATOM     60  F   UNL A   1      44.328  21.659  24.591  1.00  0.00    -0.200 F 
ENDBRANCH  26  50
BRANCH  38  61
ATOM     61  C   UNL A   1      45.407  30.846  28.773  1.00  0.00     0.064 A 
ATOM     62  C   UNL A   1      46.734  31.288  28.698  1.00  0.00     0.173 A 
ATOM     63  C   UNL A   1      44.442  31.580  28.057  1.00  0.00     0.173 A 
ATOM     64  F   UNL A   1      47.691  30.658  29.399  1.00  0.00    -0.203 F 
ATOM     65  C   UNL A   1      47.082  32.414  27.959  1.00  0.00     0.198 A 
ATOM     66  C   UNL A   1      44.799  32.686  27.286  1.00  0.00     0.198 A 
ATOM     67  F   UNL A   1      43.141  31.282  28.146  1.00  0.00    -0.203 F 
ATOM     68  F   UNL A   1      48.349  32.850  27.967  1.00  0.00    -0.200 F 
ATOM     69  C   UNL A   1      46.116  33.109  27.249  1.00  0.00     0.200 A 
ATOM     70  F   UNL A   1      43.860  33.371  26.616  1.00  0.00    -0.200 F 
ATOM     71  F   UNL A   1      46.452  34.207  26.554  1.00  0.00    -0.200 F 
ENDBRANCH  38  61
ENDBRANCH  12  13
ENDBRANCH   5   7
ENDBRANCH   2   3
ENDBRANCH   1   2
BRANCH   1  72
ATOM     72  C   UNL A   1      32.852  35.582  29.730  1.00  0.00     0.118 C 
BRANCH  72  73
ATOM     73  N   UNL A   1      32.780  36.757  30.578  1.00  0.00    -0.351 N 
ATOM     74  C   UNL A   1      33.196  36.913  31.881  1.00  0.00     0.271 C 
ATOM     75  H   UNL A   1      32.380  37.555  30.162  1.00  0.00     0.163 HD
ATOM     76  O   UNL A   1      32.905  37.946  32.472  1.00  0.00    -0.267 OA
BRANCH  74  77
ATOM     77  C   UNL A   1      34.015  35.859  32.487  1.00  0.00     0.150 A 
ATOM     78  C   UNL A   1      33.586  34.561  32.861  1.00  0.00     0.056 A 
ATOM     79  N   UNL A   1      35.329  36.024  32.723  1.00  0.00    -0.161 NA
ATOM     80  C   UNL A   1      34.734  33.890  33.197  1.00  0.00     0.118 A 
ATOM     81  N   UNL A   1      35.772  34.781  33.052  1.00  0.00    -0.222 N 
BRANCH  81  82
ATOM     82  C   UNL A   1      37.153  34.489  33.219  1.00  0.00     0.158 A 
ATOM     83  C   UNL A   1      37.617  34.199  34.485  1.00  0.00     0.078 A 
ATOM     84  N   UNL A   1      37.943  34.487  32.121  1.00  0.00    -0.209 NA
ATOM     85  C   UNL A   1      38.946  33.842  34.573  1.00  0.00     0.077 A 
ATOM     86  C   UNL A   1      39.242  34.216  32.328  1.00  0.00     0.165 A 
ATOM     87  N   UNL A   1      39.781  33.886  33.515  1.00  0.00    -0.228 NA
BRANCH  85  88
ATOM     88  C   UNL A   1      39.519  33.319  35.815  1.00  0.00     0.003 A 
ATOM     89  C   UNL A   1      38.914  33.592  37.050  1.00  0.00     0.030 A 
ATOM     90  C   UNL A   1      40.665  32.521  35.809  1.00  0.00     0.030 A 
ATOM     91  C   UNL A   1      39.481  33.078  38.204  1.00  0.00     0.111 A 
ATOM     92  C   UNL A   1      41.163  32.062  37.017  1.00  0.00     0.111 A 
ATOM     93  N   UNL A   1      40.600  32.328  38.216  1.00  0.00    -0.265 NA
ENDBRANCH  85  88
BRANCH  86  94
ATOM     94  C   UNL A   1      40.149  34.393  31.202  1.00  0.00     0.055 A 
ATOM     95  C   UNL A   1      41.536  34.202  31.354  1.00  0.00     0.015 A 
ATOM     96  C   UNL A   1      39.673  34.747  29.937  1.00  0.00     0.134 A 
ATOM     97  C   UNL A   1      42.406  34.350  30.268  1.00  0.00     0.001 A 
ATOM     98  C   UNL A   1      40.536  34.904  28.853  1.00  0.00     0.040 A 
ATOM     99  F   UNL A   1      38.364  34.968  29.744  1.00  0.00    -0.206 F 
ATOM    100  C   UNL A   1      41.905  34.703  29.017  1.00  0.00     0.003 A 
ENDBRANCH  86  94
ENDBRANCH  81  82
ENDBRANCH  74  77
ENDBRANCH  72  73
ENDBRANCH   1  72
TORSDOF 13
ENDMDL
MODEL 3
REMARK VINA RESULT:     -14.2      3.314      9.001
REMARK SMILES O=C(NCCCNC(=O)c1ccn(-c2cc(-c3ccncc3)nc(-c3ccccc3F)n2)n1)c1ccc(-c2c3nc(c(-c4c(F)c(F)c(F)c(F)c4F)c4ccc([nH]4)c(-c4c(F)c(F)c(F)c(F)c4F)c4nc(c(-c5c(F)c(F)c(F)c(F)c5F)c5ccc2[nH]5)C=C4)C=C3)cc1
REMARK SMILES IDX 5 1 4 2 3 3 1 4 2 5 34 7 35 8 96 9 36 10 95 11 37 12 38 13
REMARK SMILES IDX 39 14 89 15 40 16 94 17 88 18 90 19 41 20 93 21 87 22 86 23
REMARK SMILES IDX 42 25 74 26 54 27 73 28 55 29 58 30 72 31 91 32 56 33 57 34
REMARK SMILES IDX 71 36 92 37 59 38 43 39 44 40 52 41 45 42 46 43 50 44 53 45
REMARK SMILES IDX 47 46 48 47 51 48 49 49 75 50 76 51 84 52 77 53 78 54 82 55
REMARK SMILES IDX 85 56 79 57 80 58 83 59 81 60 60 61 61 62 69 63 62 64 63 65
REMARK SMILES IDX 67 66 70 67 64 68 65 69 68 70 66 71 6 72 7 73 8 74 9 76
REMARK SMILES IDX 10 77 11 78 33 79 12 80 13 81 14 82 15 83 32 84 16 85 24 86
REMARK SMILES IDX 23 87 17 88 18 89 22 90 19 91 21 92 20 93 25 94 26 95 30 96
REMARK SMILES IDX 27 97 29 98 31 99 28 100
REMARK H PARENT 3 6 90 24 58 35 7 75
REMARK Flexibility Score: inf
ROOT
ATOM      1  C   UNL A   1      33.750  28.894  25.924  1.00  0.00     0.042 C 
ENDROOT
BRANCH   1   2
ATOM      2  C   UNL A   1      33.319  29.376  27.308  1.00  0.00     0.118 C 
BRANCH   2   3
ATOM      3  N   UNL A   1      33.687  30.746  27.608  1.00  0.00    -0.352 N 
ATOM      4  O   UNL A   1      34.768  32.641  27.916  1.00  0.00    -0.269 OA
ATOM      5  C   UNL A   1      34.859  31.414  27.823  1.00  0.00     0.251 C 
ATOM      6  H   UNL A   1      32.902  31.338  27.671  1.00  0.00     0.163 HD
BRANCH   5   7
ATOM      7  C   UNL A   1      36.193  30.786  28.019  1.00  0.00     0.039 A 
ATOM      8  C   UNL A   1      36.570  29.501  27.626  1.00  0.00     0.014 A 
ATOM      9  C   UNL A   1      37.144  31.590  28.680  1.00  0.00     0.014 A 
ATOM     10  C   UNL A   1      37.835  29.007  27.957  1.00  0.00     0.010 A 
ATOM     11  C   UNL A   1      38.405  31.107  29.005  1.00  0.00     0.010 A 
ATOM     12  C   UNL A   1      38.741  29.799  28.672  1.00  0.00    -0.014 A 
BRANCH  12  13
ATOM     13  C   UNL A   1      40.098  29.297  28.900  1.00  0.00     0.031 A 
ATOM     14  C   UNL A   1      40.403  28.969  30.329  1.00  0.00     0.074 A 
ATOM     15  C   UNL A   1      40.959  28.980  27.910  1.00  0.00     0.049 A 
ATOM     16  N   UNL A   1      41.360  29.421  31.074  1.00  0.00    -0.248 NA
ATOM     17  C   UNL A   1      39.463  28.085  31.042  1.00  0.00     0.031 C 
ATOM     18  C   UNL A   1      40.715  28.954  26.465  1.00  0.00     0.029 A 
ATOM     19  N   UNL A   1      42.243  28.523  28.003  1.00  0.00    -0.354 N 
ATOM     20  C   UNL A   1      41.233  28.778  32.305  1.00  0.00     0.074 A 
ATOM     21  C   UNL A   1      39.991  28.050  32.266  1.00  0.00     0.031 C 
ATOM     22  C   UNL A   1      41.730  28.307  25.846  1.00  0.00     0.029 A 
ATOM     23  C   UNL A   1      42.760  27.996  26.823  1.00  0.00     0.049 A 
ATOM     24  H   UNL A   1      42.762  28.563  28.838  1.00  0.00     0.167 HD
ATOM     25  C   UNL A   1      42.242  28.751  33.221  1.00  0.00     0.037 A 
ATOM     26  C   UNL A   1      43.924  27.310  26.679  1.00  0.00     0.037 A 
ATOM     27  C   UNL A   1      43.203  29.790  32.981  1.00  0.00     0.049 A 
ATOM     28  C   UNL A   1      44.769  27.624  27.858  1.00  0.00     0.074 A 
ATOM     29  C   UNL A   1      43.156  31.170  33.011  1.00  0.00     0.029 A 
ATOM     30  N   UNL A   1      44.349  29.475  32.298  1.00  0.00    -0.354 N 
ATOM     31  N   UNL A   1      45.283  28.796  28.097  1.00  0.00    -0.248 NA
ATOM     32  C   UNL A   1      44.673  26.731  29.001  1.00  0.00     0.031 C 
ATOM     33  C   UNL A   1      43.975  31.587  31.923  1.00  0.00     0.029 A 
ATOM     34  C   UNL A   1      44.526  30.443  31.343  1.00  0.00     0.049 A 
ATOM     35  H   UNL A   1      44.933  28.699  32.461  1.00  0.00     0.167 HD
ATOM     36  C   UNL A   1      45.173  28.949  29.469  1.00  0.00     0.074 A 
ATOM     37  C   UNL A   1      44.856  27.618  29.980  1.00  0.00     0.031 C 
ATOM     38  C   UNL A   1      45.073  30.187  30.033  1.00  0.00     0.037 A 
BRANCH  25  39
ATOM     39  C   UNL A   1      42.499  27.608  34.166  1.00  0.00     0.064 A 
ATOM     40  C   UNL A   1      41.900  27.521  35.441  1.00  0.00     0.173 A 
ATOM     41  C   UNL A   1      43.128  26.434  33.707  1.00  0.00     0.173 A 
ATOM     42  F   UNL A   1      41.163  28.520  35.941  1.00  0.00    -0.203 F 
ATOM     43  C   UNL A   1      41.945  26.359  36.210  1.00  0.00     0.198 A 
ATOM     44  C   UNL A   1      43.127  25.254  34.459  1.00  0.00     0.198 A 
ATOM     45  F   UNL A   1      43.690  26.391  32.490  1.00  0.00    -0.203 F 
ATOM     46  F   UNL A   1      41.343  26.337  37.407  1.00  0.00    -0.200 F 
ATOM     47  C   UNL A   1      42.536  25.218  35.710  1.00  0.00     0.200 A 
ATOM     48  F   UNL A   1      43.648  24.133  33.941  1.00  0.00    -0.200 F 
ATOM     49  F   UNL A   1      42.493  24.078  36.411  1.00  0.00    -0.200 F 
ENDBRANCH  25  39
BRANCH  26  50
ATOM     50  C   UNL A   1      44.222  26.136  25.816  1.00  0.00     0.064 A 
ATOM     51  C   UNL A   1      43.297  25.085  25.675  1.00  0.00     0.173 A 
ATOM     52  C   UNL A   1      45.535  25.871  25.382  1.00  0.00     0.173 A 
ATOM     53  F   UNL A   1      42.040  25.212  26.123  1.00  0.00    -0.203 F 
ATOM     54  C   UNL A   1      43.669  23.836  25.169  1.00  0.00     0.198 A 
ATOM     55  C   UNL A   1      45.907  24.619  24.879  1.00  0.00     0.198 A 
ATOM     56  F   UNL A   1      46.491  26.802  25.518  1.00  0.00    -0.203 F 
ATOM     57  F   UNL A   1      42.768  22.845  25.122  1.00  0.00    -0.200 F 
ATOM     58  C   UNL A   1      44.977  23.598  24.788  1.00  0.00     0.200 A 
ATOM     59  F   UNL A   1      47.184  24.381  24.546  1.00  0.00    -0.200 F 
ATOM     60  F   UNL A   1      45.346  22.377  24.378  1.00  0.00    -0.200 F 
ENDBRANCH  26  50
BRANCH  38  61
ATOM     61  C   UNL A   1      45.321  31.384  29.157  1.00  0.00     0.064 A 
ATOM     62  C   UNL A   1      44.248  31.893  28.413  1.00  0.00     0.173 A 
ATOM     63  C   UNL A   1      46.595  31.925  28.902  1.00  0.00     0.173 A 
ATOM     64  F   UNL A   1      43.018  31.381  28.576  1.00  0.00    -0.203 F 
ATOM     65  C   UNL A   1      44.438  32.881  27.452  1.00  0.00     0.198 A 
ATOM     66  C   UNL A   1      46.777  32.943  27.967  1.00  0.00     0.198 A 
ATOM     67  F   UNL A   1      47.687  31.435  29.502  1.00  0.00    -0.203 F 
ATOM     68  F   UNL A   1      43.402  33.295  26.710  1.00  0.00    -0.200 F 
ATOM     69  C   UNL A   1      45.699  33.411  27.234  1.00  0.00     0.200 A 
ATOM     70  F   UNL A   1      48.002  33.439  27.740  1.00  0.00    -0.200 F 
ATOM     71  F   UNL A   1      45.881  34.349  26.292  1.00  0.00    -0.200 F 
ENDBRANCH  38  61
ENDBRANCH  12  13
ENDBRANCH   5   7
ENDBRANCH   2   3
ENDBRANCH   1   2
BRANCH   1  72
ATOM     72  C   UNL A   1      32.615  28.834  24.900  1.00  0.00     0.118 C 
BRANCH  72  73
ATOM     73  N   UNL A   1      33.107  28.894  23.536  1.00  0.00    -0.351 N 
ATOM     74  C   UNL A   1      33.494  27.865  22.709  1.00  0.00     0.271 C 
ATOM     75  H   UNL A   1      33.172  29.797  23.149  1.00  0.00     0.163 HD
ATOM     76  O   UNL A   1      34.028  28.139  21.640  1.00  0.00    -0.267 OA
BRANCH  74  77
ATOM     77  C   UNL A   1      33.201  26.488  23.117  1.00  0.00     0.150 A 
ATOM     78  C   UNL A   1      32.029  25.747  22.821  1.00  0.00     0.056 A 
ATOM     79  N   UNL A   1      34.081  25.748  23.815  1.00  0.00    -0.161 NA
ATOM     80  C   UNL A   1      32.299  24.471  23.244  1.00  0.00     0.118 A 
ATOM     81  N   UNL A   1      33.562  24.492  23.788  1.00  0.00    -0.222 N 
BRANCH  81  82
ATOM     82  C   UNL A   1      34.278  23.366  24.281  1.00  0.00     0.158 A 
ATOM     83  C   UNL A   1      33.645  22.141  24.304  1.00  0.00     0.078 A 
ATOM     84  N   UNL A   1      35.557  23.548  24.681  1.00  0.00    -0.209 NA
ATOM     85  C   UNL A   1      34.416  21.072  24.711  1.00  0.00     0.077 A 
ATOM     86  C   UNL A   1      36.190  22.459  25.148  1.00  0.00     0.165 A 
ATOM     87  N   UNL A   1      35.673  21.219  25.175  1.00  0.00    -0.228 NA
BRANCH  85  88
ATOM     88  C   UNL A   1      33.936  19.693  24.594  1.00  0.00     0.003 A 
ATOM     89  C   UNL A   1      32.571  19.424  24.426  1.00  0.00     0.030 A 
ATOM     90  C   UNL A   1      34.818  18.611  24.626  1.00  0.00     0.030 A 
ATOM     91  C   UNL A   1      32.154  18.109  24.315  1.00  0.00     0.111 A 
ATOM     92  C   UNL A   1      34.304  17.329  24.518  1.00  0.00     0.111 A 
ATOM     93  N   UNL A   1      32.990  17.054  24.370  1.00  0.00    -0.265 NA
ENDBRANCH  85  88
BRANCH  86  94
ATOM     94  C   UNL A   1      37.496  22.659  25.762  1.00  0.00     0.055 A 
ATOM     95  C   UNL A   1      37.819  23.875  26.395  1.00  0.00     0.015 A 
ATOM     96  C   UNL A   1      38.464  21.652  25.750  1.00  0.00     0.134 A 
ATOM     97  C   UNL A   1      39.065  24.061  27.003  1.00  0.00     0.001 A 
ATOM     98  C   UNL A   1      39.711  21.834  26.347  1.00  0.00     0.040 A 
ATOM     99  F   UNL A   1      38.219  20.484  25.136  1.00  0.00    -0.206 F 
ATOM    100  C   UNL A   1      40.012  23.039  26.978  1.00  0.00     0.003 A 
ENDBRANCH  86  94
ENDBRANCH  81  82
ENDBRANCH  74  77
ENDBRANCH  72  73
ENDBRANCH   1  72
TORSDOF 13
ENDMDL
