MODEL 1
REMARK VINA RESULT:     -12.7      0.000      0.000
REMARK SMILES CC[C@H](NC(=O)Cc1c(C)c2cc(Cl)c(OC)cc2oc1=O)C(=O)NCCCNC(=O)c1ccc(-c2c3nc(c(-c4c(F)c(F)c(F)c(F)c4F)c4ccc([nH]4)c(-c4c(F)c(F)c(F)c(F)c4F)c4nc(c(-c5c(F)c(F)c(F)c(F)c5F)c5ccc2[nH]5)C=C4)C=C3)cc1
REMARK SMILES IDX 26 1 25 2 23 3 24 4 3 6 2 7 1 8 4 9 5 10 6 12 7 13 8 14 9 15
REMARK SMILES IDX 21 16 10 17 11 18 20 19 22 20 12 21 19 22 13 23 18 24 14 25
REMARK SMILES IDX 15 26 16 27 17 28 27 29 28 30 29 31 30 32 31 34 32 35 33 36
REMARK SMILES IDX 94 37 34 38 93 39 35 40 36 41 37 42 87 43 38 44 92 45 86 46
REMARK SMILES IDX 88 47 39 48 91 49 85 50 84 51 40 53 72 54 52 55 71 56 53 57
REMARK SMILES IDX 56 58 70 59 89 60 54 61 55 62 69 64 90 65 57 66 41 67 42 68
REMARK SMILES IDX 50 69 43 70 44 71 48 72 51 73 45 74 46 75 49 76 47 77 73 78
REMARK SMILES IDX 74 79 82 80 75 81 76 82 80 83 83 84 77 85 78 86 81 87 79 88
REMARK SMILES IDX 58 89 59 90 67 91 60 92 61 93 65 94 68 95 62 96 63 97 66 98
REMARK SMILES IDX 64 99
REMARK H PARENT 25 5 4 11 29 33 88 52 56 63
REMARK Flexibility Score: inf
ROOT
ATOM      1  C   UNL A   1      31.990  30.633  26.247  1.00  0.00     0.117 C 
ENDROOT
BRANCH   1   2
ATOM      2  N   UNL A   1      31.435  29.460  26.883  1.00  0.00    -0.354 N 
ATOM      3  C   UNL A   1      31.490  28.145  26.549  1.00  0.00     0.242 C 
ATOM      4  O   UNL A   1      31.366  27.346  27.488  1.00  0.00    -0.273 OA
ATOM      5  H   UNL A   1      30.926  29.649  27.704  1.00  0.00     0.163 HD
BRANCH   3   6
ATOM      6  C   UNL A   1      31.794  27.604  25.138  1.00  0.00     0.171 C 
BRANCH   6   7
ATOM      7  C   UNL A   1      33.326  27.627  24.894  1.00  0.00     0.031 C 
ATOM      8  C   UNL A   1      34.186  26.714  25.769  1.00  0.00     0.006 C 
ENDBRANCH   6   7
BRANCH   6   9
ATOM      9  N   UNL A   1      31.047  28.118  23.992  1.00  0.00    -0.344 N 
ATOM     10  C   UNL A   1      30.918  27.628  22.725  1.00  0.00     0.225 C 
ATOM     11  H   UNL A   1      30.557  28.954  24.162  1.00  0.00     0.164 HD
ATOM     12  O   UNL A   1      30.646  28.447  21.843  1.00  0.00    -0.275 OA
BRANCH  10  13
ATOM     13  C   UNL A   1      30.862  26.126  22.447  1.00  0.00     0.143 C 
BRANCH  13  14
ATOM     14  C   UNL A   1      31.997  25.246  22.893  1.00  0.00     0.051 A 
ATOM     15  C   UNL A   1      31.905  24.316  23.873  1.00  0.00    -0.029 A 
ATOM     16  C   UNL A   1      33.243  25.379  22.087  1.00  0.00     0.340 A 
ATOM     17  C   UNL A   1      30.629  23.884  24.555  1.00  0.00     0.046 C 
ATOM     18  C   UNL A   1      33.137  23.656  24.334  1.00  0.00     0.023 A 
ATOM     19  O   UNL A   1      34.288  24.522  22.380  1.00  0.00    -0.422 OA
ATOM     20  O   UNL A   1      33.325  26.160  21.148  1.00  0.00    -0.246 OA
ATOM     21  C   UNL A   1      33.242  22.969  25.549  1.00  0.00     0.036 A 
ATOM     22  C   UNL A   1      34.280  23.760  23.555  1.00  0.00     0.142 A 
ATOM     23  C   UNL A   1      34.459  22.399  25.945  1.00  0.00     0.083 A 
ATOM     24  C   UNL A   1      35.490  23.162  23.911  1.00  0.00     0.095 A 
ATOM     25  Cl  UNL A   1      34.516  21.616  27.487  1.00  0.00    -0.080 Cl
ATOM     26  C   UNL A   1      35.594  22.480  25.124  1.00  0.00     0.141 A 
BRANCH  26  27
ATOM     27  O   UNL A   1      36.741  21.895  25.588  1.00  0.00    -0.495 OA
ATOM     28  C   UNL A   1      37.197  20.731  24.913  1.00  0.00     0.278 C 
ENDBRANCH  26  27
ENDBRANCH  13  14
ENDBRANCH  10  13
ENDBRANCH   6   9
ENDBRANCH   3   6
ENDBRANCH   1   2
BRANCH   1  29
ATOM     29  C   UNL A   1      31.619  31.972  26.864  1.00  0.00     0.042 C 
BRANCH  29  30
ATOM     30  C   UNL A   1      32.770  32.906  27.222  1.00  0.00     0.118 C 
BRANCH  30  31
ATOM     31  N   UNL A   1      32.383  34.213  27.718  1.00  0.00    -0.352 N 
ATOM     32  C   UNL A   1      32.999  34.974  28.681  1.00  0.00     0.251 C 
ATOM     33  H   UNL A   1      31.575  34.604  27.312  1.00  0.00     0.163 HD
ATOM     34  O   UNL A   1      32.536  36.064  29.004  1.00  0.00    -0.269 OA
BRANCH  32  35
ATOM     35  C   UNL A   1      34.205  34.452  29.357  1.00  0.00     0.039 A 
ATOM     36  C   UNL A   1      35.478  34.682  28.828  1.00  0.00     0.014 A 
ATOM     37  C   UNL A   1      34.048  33.692  30.518  1.00  0.00     0.014 A 
ATOM     38  C   UNL A   1      36.579  34.041  29.388  1.00  0.00     0.010 A 
ATOM     39  C   UNL A   1      35.165  33.102  31.117  1.00  0.00     0.010 A 
ATOM     40  C   UNL A   1      36.434  33.239  30.535  1.00  0.00    -0.014 A 
BRANCH  40  41
ATOM     41  C   UNL A   1      37.628  32.570  31.113  1.00  0.00     0.031 A 
ATOM     42  C   UNL A   1      38.112  32.910  32.496  1.00  0.00     0.074 A 
ATOM     43  C   UNL A   1      38.247  31.609  30.401  1.00  0.00     0.049 A 
ATOM     44  N   UNL A   1      39.092  32.373  33.181  1.00  0.00    -0.248 NA
ATOM     45  C   UNL A   1      37.414  33.993  33.204  1.00  0.00     0.031 C 
ATOM     46  C   UNL A   1      37.874  31.201  29.045  1.00  0.00     0.029 A 
ATOM     47  N   UNL A   1      39.294  30.783  30.722  1.00  0.00    -0.354 N 
ATOM     48  C   UNL A   1      39.128  33.053  34.391  1.00  0.00     0.074 A 
ATOM     49  C   UNL A   1      38.099  34.067  34.337  1.00  0.00     0.031 C 
ATOM     50  C   UNL A   1      38.638  30.163  28.674  1.00  0.00     0.029 A 
ATOM     51  C   UNL A   1      39.586  29.864  29.743  1.00  0.00     0.049 A 
ATOM     52  H   UNL A   1      39.788  30.843  31.571  1.00  0.00     0.167 HD
ATOM     53  C   UNL A   1      39.937  32.835  35.456  1.00  0.00     0.037 A 
ATOM     54  C   UNL A   1      40.511  28.885  29.711  1.00  0.00     0.037 A 
ATOM     55  C   UNL A   1      40.944  31.809  35.516  1.00  0.00     0.049 A 
ATOM     56  C   UNL A   1      41.413  28.685  30.896  1.00  0.00     0.074 A 
ATOM     57  C   UNL A   1      41.790  31.493  36.567  1.00  0.00     0.029 A 
ATOM     58  N   UNL A   1      41.242  30.930  34.486  1.00  0.00    -0.354 N 
ATOM     59  N   UNL A   1      41.415  29.315  32.045  1.00  0.00    -0.248 NA
ATOM     60  C   UNL A   1      42.446  27.646  30.779  1.00  0.00     0.031 C 
ATOM     61  C   UNL A   1      42.628  30.454  36.157  1.00  0.00     0.029 A 
ATOM     62  C   UNL A   1      42.274  30.089  34.867  1.00  0.00     0.049 A 
ATOM     63  H   UNL A   1      40.787  30.908  33.612  1.00  0.00     0.167 HD
ATOM     64  C   UNL A   1      42.433  28.740  32.793  1.00  0.00     0.074 A 
ATOM     65  C   UNL A   1      43.021  27.702  31.973  1.00  0.00     0.031 C 
ATOM     66  C   UNL A   1      42.843  29.052  34.045  1.00  0.00     0.037 A 
BRANCH  53  67
ATOM     67  C   UNL A   1      39.769  33.714  36.662  1.00  0.00     0.064 A 
ATOM     68  C   UNL A   1      40.390  34.967  36.746  1.00  0.00     0.173 A 
ATOM     69  C   UNL A   1      38.904  33.338  37.702  1.00  0.00     0.173 A 
ATOM     70  F   UNL A   1      41.232  35.369  35.782  1.00  0.00    -0.203 F 
ATOM     71  C   UNL A   1      40.160  35.810  37.830  1.00  0.00     0.198 A 
ATOM     72  C   UNL A   1      38.657  34.193  38.772  1.00  0.00     0.198 A 
ATOM     73  F   UNL A   1      38.278  32.153  37.665  1.00  0.00    -0.203 F 
ATOM     74  F   UNL A   1      40.784  36.994  37.901  1.00  0.00    -0.200 F 
ATOM     75  C   UNL A   1      39.286  35.427  38.836  1.00  0.00     0.200 A 
ATOM     76  F   UNL A   1      37.800  33.828  39.737  1.00  0.00    -0.200 F 
ATOM     77  F   UNL A   1      39.050  36.247  39.870  1.00  0.00    -0.200 F 
ENDBRANCH  53  67
BRANCH  54  78
ATOM     78  C   UNL A   1      40.599  28.004  28.519  1.00  0.00     0.064 A 
ATOM     79  C   UNL A   1      41.374  28.369  27.411  1.00  0.00     0.173 A 
ATOM     80  C   UNL A   1      39.948  26.761  28.480  1.00  0.00     0.173 A 
ATOM     81  F   UNL A   1      42.001  29.555  27.395  1.00  0.00    -0.203 F 
ATOM     82  C   UNL A   1      41.495  27.526  26.308  1.00  0.00     0.198 A 
ATOM     83  C   UNL A   1      40.090  25.908  27.390  1.00  0.00     0.198 A 
ATOM     84  F   UNL A   1      39.196  26.365  29.518  1.00  0.00    -0.203 F 
ATOM     85  F   UNL A   1      42.223  27.909  25.251  1.00  0.00    -0.200 F 
ATOM     86  C   UNL A   1      40.861  26.292  26.303  1.00  0.00     0.200 A 
ATOM     87  F   UNL A   1      39.491  24.710  27.396  1.00  0.00    -0.200 F 
ATOM     88  F   UNL A   1      40.993  25.474  25.250  1.00  0.00    -0.200 F 
ENDBRANCH  54  78
BRANCH  66  89
ATOM     89  C   UNL A   1      43.974  28.262  34.629  1.00  0.00     0.064 A 
ATOM     90  C   UNL A   1      43.748  27.047  35.291  1.00  0.00     0.173 A 
ATOM     91  C   UNL A   1      45.302  28.668  34.431  1.00  0.00     0.173 A 
ATOM     92  F   UNL A   1      42.495  26.624  35.514  1.00  0.00    -0.203 F 
ATOM     93  C   UNL A   1      44.812  26.266  35.732  1.00  0.00     0.198 A 
ATOM     94  C   UNL A   1      46.364  27.874  34.852  1.00  0.00     0.198 A 
ATOM     95  F   UNL A   1      45.568  29.820  33.795  1.00  0.00    -0.203 F 
ATOM     96  F   UNL A   1      44.575  25.115  36.377  1.00  0.00    -0.200 F 
ATOM     97  C   UNL A   1      46.118  26.674  35.502  1.00  0.00     0.200 A 
ATOM     98  F   UNL A   1      47.625  28.262  34.616  1.00  0.00    -0.200 F 
ATOM     99  F   UNL A   1      47.142  25.908  35.905  1.00  0.00    -0.200 F 
ENDBRANCH  66  89
ENDBRANCH  40  41
ENDBRANCH  32  35
ENDBRANCH  30  31
ENDBRANCH  29  30
ENDBRANCH   1  29
TORSDOF 15
ENDMDL
MODEL 2
REMARK VINA RESULT:     -12.4      0.585      7.215
REMARK SMILES CC[C@H](NC(=O)Cc1c(C)c2cc(Cl)c(OC)cc2oc1=O)C(=O)NCCCNC(=O)c1ccc(-c2c3nc(c(-c4c(F)c(F)c(F)c(F)c4F)c4ccc([nH]4)c(-c4c(F)c(F)c(F)c(F)c4F)c4nc(c(-c5c(F)c(F)c(F)c(F)c5F)c5ccc2[nH]5)C=C4)C=C3)cc1
REMARK SMILES IDX 26 1 25 2 23 3 24 4 3 6 2 7 1 8 4 9 5 10 6 12 7 13 8 14 9 15
REMARK SMILES IDX 21 16 10 17 11 18 20 19 22 20 12 21 19 22 13 23 18 24 14 25
REMARK SMILES IDX 15 26 16 27 17 28 27 29 28 30 29 31 30 32 31 34 32 35 33 36
REMARK SMILES IDX 94 37 34 38 93 39 35 40 36 41 37 42 87 43 38 44 92 45 86 46
REMARK SMILES IDX 88 47 39 48 91 49 85 50 84 51 40 53 72 54 52 55 71 56 53 57
REMARK SMILES IDX 56 58 70 59 89 60 54 61 55 62 69 64 90 65 57 66 41 67 42 68
REMARK SMILES IDX 50 69 43 70 44 71 48 72 51 73 45 74 46 75 49 76 47 77 73 78
REMARK SMILES IDX 74 79 82 80 75 81 76 82 80 83 83 84 77 85 78 86 81 87 79 88
REMARK SMILES IDX 58 89 59 90 67 91 60 92 61 93 65 94 68 95 62 96 63 97 66 98
REMARK SMILES IDX 64 99
REMARK H PARENT 25 5 4 11 29 33 88 52 56 63
REMARK Flexibility Score: inf
ROOT
ATOM      1  C   UNL A   1      31.779  30.690  26.141  1.00  0.00     0.117 C 
ENDROOT
BRANCH   1   2
ATOM      2  N   UNL A   1      31.405  29.507  26.881  1.00  0.00    -0.354 N 
ATOM      3  C   UNL A   1      31.596  28.187  26.625  1.00  0.00     0.242 C 
ATOM      4  O   UNL A   1      31.621  27.445  27.616  1.00  0.00    -0.273 OA
ATOM      5  H   UNL A   1      30.925  29.691  27.722  1.00  0.00     0.163 HD
BRANCH   3   6
ATOM      6  C   UNL A   1      31.878  27.590  25.232  1.00  0.00     0.171 C 
BRANCH   6   7
ATOM      7  C   UNL A   1      33.410  27.507  25.007  1.00  0.00     0.031 C 
ATOM      8  C   UNL A   1      34.027  28.502  24.023  1.00  0.00     0.006 C 
ENDBRANCH   6   7
BRANCH   6   9
ATOM      9  N   UNL A   1      31.179  28.122  24.063  1.00  0.00    -0.344 N 
ATOM     10  C   UNL A   1      31.018  27.602  22.813  1.00  0.00     0.225 C 
ATOM     11  H   UNL A   1      30.756  29.000  24.202  1.00  0.00     0.164 HD
ATOM     12  O   UNL A   1      30.816  28.409  21.902  1.00  0.00    -0.275 OA
BRANCH  10  13
ATOM     13  C   UNL A   1      30.846  26.099  22.585  1.00  0.00     0.143 C 
BRANCH  13  14
ATOM     14  C   UNL A   1      31.934  25.154  23.014  1.00  0.00     0.051 A 
ATOM     15  C   UNL A   1      31.821  24.268  24.031  1.00  0.00    -0.029 A 
ATOM     16  C   UNL A   1      33.147  25.168  22.149  1.00  0.00     0.340 A 
ATOM     17  C   UNL A   1      30.550  23.954  24.783  1.00  0.00     0.046 C 
ATOM     18  C   UNL A   1      33.022  23.535  24.461  1.00  0.00     0.023 A 
ATOM     19  O   UNL A   1      34.141  24.247  22.428  1.00  0.00    -0.422 OA
ATOM     20  O   UNL A   1      33.241  25.907  21.179  1.00  0.00    -0.246 OA
ATOM     21  C   UNL A   1      33.134  22.884  25.696  1.00  0.00     0.036 A 
ATOM     22  C   UNL A   1      34.132  23.528  23.630  1.00  0.00     0.142 A 
ATOM     23  C   UNL A   1      34.324  22.240  26.060  1.00  0.00     0.083 A 
ATOM     24  C   UNL A   1      35.311  22.855  23.955  1.00  0.00     0.095 A 
ATOM     25  Cl  UNL A   1      34.395  21.508  27.626  1.00  0.00    -0.080 Cl
ATOM     26  C   UNL A   1      35.422  22.209  25.187  1.00  0.00     0.141 A 
BRANCH  26  27
ATOM     27  O   UNL A   1      36.545  21.558  25.622  1.00  0.00    -0.495 OA
ATOM     28  C   UNL A   1      37.781  21.919  25.021  1.00  0.00     0.278 C 
ENDBRANCH  26  27
ENDBRANCH  13  14
ENDBRANCH  10  13
ENDBRANCH   6   9
ENDBRANCH   3   6
ENDBRANCH   1   2
BRANCH   1  29
ATOM     29  C   UNL A   1      31.470  32.024  26.802  1.00  0.00     0.042 C 
BRANCH  29  30
ATOM     30  C   UNL A   1      32.662  32.862  27.249  1.00  0.00     0.118 C 
BRANCH  30  31
ATOM     31  N   UNL A   1      32.357  34.228  27.631  1.00  0.00    -0.352 N 
ATOM     32  C   UNL A   1      32.973  35.002  28.584  1.00  0.00     0.251 C 
ATOM     33  H   UNL A   1      31.615  34.654  27.145  1.00  0.00     0.163 HD
ATOM     34  O   UNL A   1      32.586  36.146  28.803  1.00  0.00    -0.269 OA
BRANCH  32  35
ATOM     35  C   UNL A   1      34.083  34.432  29.376  1.00  0.00     0.039 A 
ATOM     36  C   UNL A   1      35.401  34.504  28.916  1.00  0.00     0.014 A 
ATOM     37  C   UNL A   1      33.787  33.786  30.578  1.00  0.00     0.014 A 
ATOM     38  C   UNL A   1      36.402  33.815  29.595  1.00  0.00     0.010 A 
ATOM     39  C   UNL A   1      34.807  33.151  31.293  1.00  0.00     0.010 A 
ATOM     40  C   UNL A   1      36.115  33.126  30.787  1.00  0.00    -0.014 A 
BRANCH  40  41
ATOM     41  C   UNL A   1      37.205  32.403  31.492  1.00  0.00     0.031 A 
ATOM     42  C   UNL A   1      37.950  31.280  30.822  1.00  0.00     0.074 A 
ATOM     43  C   UNL A   1      37.559  32.800  32.729  1.00  0.00     0.049 A 
ATOM     44  N   UNL A   1      38.973  30.591  31.263  1.00  0.00    -0.248 NA
ATOM     45  C   UNL A   1      37.488  30.873  29.486  1.00  0.00     0.031 C 
ATOM     46  C   UNL A   1      36.904  33.870  33.484  1.00  0.00     0.029 A 
ATOM     47  N   UNL A   1      38.569  32.378  33.557  1.00  0.00    -0.354 N 
ATOM     48  C   UNL A   1      39.271  29.671  30.267  1.00  0.00     0.074 A 
ATOM     49  C   UNL A   1      38.301  29.862  29.211  1.00  0.00     0.031 C 
ATOM     50  C   UNL A   1      37.564  34.062  34.635  1.00  0.00     0.029 A 
ATOM     51  C   UNL A   1      38.658  33.099  34.723  1.00  0.00     0.049 A 
ATOM     52  H   UNL A   1      39.171  31.632  33.336  1.00  0.00     0.167 HD
ATOM     53  C   UNL A   1      40.276  28.764  30.231  1.00  0.00     0.037 A 
ATOM     54  C   UNL A   1      39.526  32.999  35.749  1.00  0.00     0.037 A 
ATOM     55  C   UNL A   1      41.255  28.593  31.272  1.00  0.00     0.049 A 
ATOM     56  C   UNL A   1      40.614  31.965  35.694  1.00  0.00     0.074 A 
ATOM     57  C   UNL A   1      42.330  27.720  31.309  1.00  0.00     0.029 A 
ATOM     58  N   UNL A   1      41.281  29.309  32.460  1.00  0.00    -0.354 N 
ATOM     59  N   UNL A   1      40.903  31.123  34.732  1.00  0.00    -0.248 NA
ATOM     60  C   UNL A   1      41.491  31.858  36.869  1.00  0.00     0.031 C 
ATOM     61  C   UNL A   1      42.979  27.877  32.535  1.00  0.00     0.029 A 
ATOM     62  C   UNL A   1      42.339  28.880  33.245  1.00  0.00     0.049 A 
ATOM     63  H   UNL A   1      40.643  30.016  32.708  1.00  0.00     0.167 HD
ATOM     64  C   UNL A   1      42.002  30.401  35.175  1.00  0.00     0.074 A 
ATOM     65  C   UNL A   1      42.337  30.909  36.488  1.00  0.00     0.031 C 
ATOM     66  C   UNL A   1      42.668  29.403  34.546  1.00  0.00     0.037 A 
BRANCH  53  67
ATOM     67  C   UNL A   1      40.389  27.882  29.022  1.00  0.00     0.064 A 
ATOM     68  C   UNL A   1      39.655  26.692  28.913  1.00  0.00     0.173 A 
ATOM     69  C   UNL A   1      41.167  28.276  27.922  1.00  0.00     0.173 A 
ATOM     70  F   UNL A   1      38.902  26.268  29.939  1.00  0.00    -0.203 F 
ATOM     71  C   UNL A   1      39.701  25.925  27.752  1.00  0.00     0.198 A 
ATOM     72  C   UNL A   1      41.192  27.519  26.754  1.00  0.00     0.198 A 
ATOM     73  F   UNL A   1      41.882  29.410  27.971  1.00  0.00    -0.203 F 
ATOM     74  F   UNL A   1      39.010  24.779  27.680  1.00  0.00    -0.200 F 
ATOM     75  C   UNL A   1      40.461  26.344  26.670  1.00  0.00     0.200 A 
ATOM     76  F   UNL A   1      41.915  27.933  25.703  1.00  0.00    -0.200 F 
ATOM     77  F   UNL A   1      40.490  25.614  25.546  1.00  0.00    -0.200 F 
ENDBRANCH  53  67
BRANCH  54  78
ATOM     78  C   UNL A   1      39.410  33.935  36.895  1.00  0.00     0.064 A 
ATOM     79  C   UNL A   1      38.698  33.575  38.047  1.00  0.00     0.173 A 
ATOM     80  C   UNL A   1      40.043  35.187  36.884  1.00  0.00     0.173 A 
ATOM     81  F   UNL A   1      38.060  32.395  38.098  1.00  0.00    -0.203 F 
ATOM     82  C   UNL A   1      38.622  34.431  39.143  1.00  0.00     0.198 A 
ATOM     83  C   UNL A   1      39.990  36.031  37.990  1.00  0.00     0.198 A 
ATOM     84  F   UNL A   1      40.741  35.575  35.806  1.00  0.00    -0.203 F 
ATOM     85  F   UNL A   1      37.914  34.073  40.223  1.00  0.00    -0.200 F 
ATOM     86  C   UNL A   1      39.277  35.654  39.118  1.00  0.00     0.200 A 
ATOM     87  F   UNL A   1      40.639  37.203  37.968  1.00  0.00    -0.200 F 
ATOM     88  F   UNL A   1      39.220  36.469  40.180  1.00  0.00    -0.200 F 
ENDBRANCH  54  78
BRANCH  66  89
ATOM     89  C   UNL A   1      43.839  28.789  35.252  1.00  0.00     0.064 A 
ATOM     90  C   UNL A   1      43.680  27.682  36.097  1.00  0.00     0.173 A 
ATOM     91  C   UNL A   1      45.141  29.244  34.997  1.00  0.00     0.173 A 
ATOM     92  F   UNL A   1      42.453  27.218  36.379  1.00  0.00    -0.203 F 
ATOM     93  C   UNL A   1      44.785  27.050  36.660  1.00  0.00     0.198 A 
ATOM     94  C   UNL A   1      46.245  28.596  35.543  1.00  0.00     0.198 A 
ATOM     95  F   UNL A   1      45.342  30.295  34.188  1.00  0.00    -0.203 F 
ATOM     96  F   UNL A   1      44.612  26.002  37.477  1.00  0.00    -0.200 F 
ATOM     97  C   UNL A   1      46.066  27.500  36.373  1.00  0.00     0.200 A 
ATOM     98  F   UNL A   1      47.481  29.023  35.253  1.00  0.00    -0.200 F 
ATOM     99  F   UNL A   1      47.130  26.874  36.895  1.00  0.00    -0.200 F 
ENDBRANCH  66  89
ENDBRANCH  40  41
ENDBRANCH  32  35
ENDBRANCH  30  31
ENDBRANCH  29  30
ENDBRANCH   1  29
TORSDOF 15
ENDMDL
MODEL 3
REMARK VINA RESULT:     -12.1      1.628      2.139
REMARK SMILES CC[C@H](NC(=O)Cc1c(C)c2cc(Cl)c(OC)cc2oc1=O)C(=O)NCCCNC(=O)c1ccc(-c2c3nc(c(-c4c(F)c(F)c(F)c(F)c4F)c4ccc([nH]4)c(-c4c(F)c(F)c(F)c(F)c4F)c4nc(c(-c5c(F)c(F)c(F)c(F)c5F)c5ccc2[nH]5)C=C4)C=C3)cc1
REMARK SMILES IDX 26 1 25 2 23 3 24 4 3 6 2 7 1 8 4 9 5 10 6 12 7 13 8 14 9 15
REMARK SMILES IDX 21 16 10 17 11 18 20 19 22 20 12 21 19 22 13 23 18 24 14 25
REMARK SMILES IDX 15 26 16 27 17 28 27 29 28 30 29 31 30 32 31 34 32 35 33 36
REMARK SMILES IDX 94 37 34 38 93 39 35 40 36 41 37 42 87 43 38 44 92 45 86 46
REMARK SMILES IDX 88 47 39 48 91 49 85 50 84 51 40 53 72 54 52 55 71 56 53 57
REMARK SMILES IDX 56 58 70 59 89 60 54 61 55 62 69 64 90 65 57 66 41 67 42 68
REMARK SMILES IDX 50 69 43 70 44 71 48 72 51 73 45 74 46 75 49 76 47 77 73 78
REMARK SMILES IDX 74 79 82 80 75 81 76 82 80 83 83 84 77 85 78 86 81 87 79 88
REMARK SMILES IDX 58 89 59 90 67 91 60 92 61 93 65 94 68 95 62 96 63 97 66 98
REMARK SMILES IDX 64 99
REMARK H PARENT 25 5 4 11 29 33 88 52 56 63
REMARK Flexibility Score: inf
ROOT
ATOM      1  C   UNL A   1      31.770  30.763  26.147  1.00  0.00     0.117 C 
ENDROOT
BRANCH   1   2
ATOM      2  N   UNL A   1      32.936  30.156  26.748  1.00  0.00    -0.354 N 
ATOM      3  C   UNL A   1      33.809  29.227  26.280  1.00  0.00     0.242 C 
ATOM      4  O   UNL A   1      34.943  29.257  26.776  1.00  0.00    -0.273 OA
ATOM      5  H   UNL A   1      33.131  30.472  27.660  1.00  0.00     0.163 HD
BRANCH   3   6
ATOM      6  C   UNL A   1      33.517  28.241  25.131  1.00  0.00     0.171 C 
BRANCH   6   7
ATOM      7  C   UNL A   1      33.559  28.997  23.778  1.00  0.00     0.031 C 
ATOM      8  C   UNL A   1      32.303  28.942  22.907  1.00  0.00     0.006 C 
ENDBRANCH   6   7
BRANCH   6   9
ATOM      9  N   UNL A   1      32.366  27.345  25.224  1.00  0.00    -0.344 N 
ATOM     10  C   UNL A   1      32.184  26.082  24.740  1.00  0.00     0.225 C 
ATOM     11  H   UNL A   1      31.598  27.712  25.717  1.00  0.00     0.164 HD
ATOM     12  O   UNL A   1      31.018  25.734  24.537  1.00  0.00    -0.275 OA
BRANCH  10  13
ATOM     13  C   UNL A   1      33.328  25.069  24.690  1.00  0.00     0.143 C 
BRANCH  13  14
ATOM     14  C   UNL A   1      33.048  23.655  24.260  1.00  0.00     0.051 A 
ATOM     15  C   UNL A   1      32.672  22.660  25.098  1.00  0.00    -0.029 A 
ATOM     16  C   UNL A   1      33.096  23.430  22.788  1.00  0.00     0.340 A 
ATOM     17  C   UNL A   1      32.303  22.832  26.553  1.00  0.00     0.046 C 
ATOM     18  C   UNL A   1      32.610  21.286  24.575  1.00  0.00     0.023 A 
ATOM     19  O   UNL A   1      32.744  22.176  22.322  1.00  0.00    -0.422 OA
ATOM     20  O   UNL A   1      33.360  24.333  22.004  1.00  0.00    -0.246 OA
ATOM     21  C   UNL A   1      32.596  20.146  25.388  1.00  0.00     0.036 A 
ATOM     22  C   UNL A   1      32.620  21.095  23.202  1.00  0.00     0.142 A 
ATOM     23  C   UNL A   1      32.579  18.865  24.822  1.00  0.00     0.083 A 
ATOM     24  C   UNL A   1      32.560  19.828  22.619  1.00  0.00     0.095 A 
ATOM     25  Cl  UNL A   1      32.619  17.510  25.898  1.00  0.00    -0.080 Cl
ATOM     26  C   UNL A   1      32.549  18.692  23.430  1.00  0.00     0.141 A 
BRANCH  26  27
ATOM     27  O   UNL A   1      32.533  17.406  22.962  1.00  0.00    -0.495 OA
ATOM     28  C   UNL A   1      33.781  16.735  22.858  1.00  0.00     0.278 C 
ENDBRANCH  26  27
ENDBRANCH  13  14
ENDBRANCH  10  13
ENDBRANCH   6   9
ENDBRANCH   3   6
ENDBRANCH   1   2
BRANCH   1  29
ATOM     29  C   UNL A   1      31.531  32.228  26.475  1.00  0.00     0.042 C 
BRANCH  29  30
ATOM     30  C   UNL A   1      32.397  32.837  27.572  1.00  0.00     0.118 C 
BRANCH  30  31
ATOM     31  N   UNL A   1      32.150  34.238  27.857  1.00  0.00    -0.352 N 
ATOM     32  C   UNL A   1      32.897  35.093  28.631  1.00  0.00     0.251 C 
ATOM     33  H   UNL A   1      31.346  34.625  27.442  1.00  0.00     0.163 HD
ATOM     34  O   UNL A   1      32.545  36.258  28.789  1.00  0.00    -0.269 OA
BRANCH  32  35
ATOM     35  C   UNL A   1      34.108  34.587  29.309  1.00  0.00     0.039 A 
ATOM     36  C   UNL A   1      35.366  34.712  28.714  1.00  0.00     0.014 A 
ATOM     37  C   UNL A   1      33.970  33.947  30.543  1.00  0.00     0.014 A 
ATOM     38  C   UNL A   1      36.464  34.080  29.293  1.00  0.00     0.010 A 
ATOM     39  C   UNL A   1      35.087  33.370  31.155  1.00  0.00     0.010 A 
ATOM     40  C   UNL A   1      36.335  33.398  30.515  1.00  0.00    -0.014 A 
BRANCH  40  41
ATOM     41  C   UNL A   1      37.526  32.737  31.111  1.00  0.00     0.031 A 
ATOM     42  C   UNL A   1      38.012  33.110  32.485  1.00  0.00     0.074 A 
ATOM     43  C   UNL A   1      38.138  31.754  30.424  1.00  0.00     0.049 A 
ATOM     44  N   UNL A   1      38.988  32.585  33.183  1.00  0.00    -0.248 NA
ATOM     45  C   UNL A   1      37.320  34.216  33.163  1.00  0.00     0.031 C 
ATOM     46  C   UNL A   1      37.762  31.313  29.080  1.00  0.00     0.029 A 
ATOM     47  N   UNL A   1      39.181  30.930  30.766  1.00  0.00    -0.354 N 
ATOM     48  C   UNL A   1      39.030  33.296  34.375  1.00  0.00     0.074 A 
ATOM     49  C   UNL A   1      38.007  34.315  34.294  1.00  0.00     0.031 C 
ATOM     50  C   UNL A   1      38.520  30.261  28.736  1.00  0.00     0.029 A 
ATOM     51  C   UNL A   1      39.467  29.984  29.812  1.00  0.00     0.049 A 
ATOM     52  H   UNL A   1      39.675  31.010  31.613  1.00  0.00     0.167 HD
ATOM     53  C   UNL A   1      39.837  33.102  35.445  1.00  0.00     0.037 A 
ATOM     54  C   UNL A   1      40.386  28.999  29.805  1.00  0.00     0.037 A 
ATOM     55  C   UNL A   1      40.838  32.072  35.532  1.00  0.00     0.049 A 
ATOM     56  C   UNL A   1      41.287  28.824  30.995  1.00  0.00     0.074 A 
ATOM     57  C   UNL A   1      41.683  31.778  36.590  1.00  0.00     0.029 A 
ATOM     58  N   UNL A   1      41.130  31.164  34.525  1.00  0.00    -0.354 N 
ATOM     59  N   UNL A   1      41.293  29.484  32.127  1.00  0.00    -0.248 NA
ATOM     60  C   UNL A   1      42.313  27.776  30.905  1.00  0.00     0.031 C 
ATOM     61  C   UNL A   1      42.514  30.723  36.208  1.00  0.00     0.029 A 
ATOM     62  C   UNL A   1      42.158  30.326  34.928  1.00  0.00     0.049 A 
ATOM     63  H   UNL A   1      40.675  31.122  33.652  1.00  0.00     0.167 HD
ATOM     64  C   UNL A   1      42.308  28.923  32.890  1.00  0.00     0.074 A 
ATOM     65  C   UNL A   1      42.889  27.860  32.097  1.00  0.00     0.031 C 
ATOM     66  C   UNL A   1      42.720  29.265  34.133  1.00  0.00     0.037 A 
BRANCH  53  67
ATOM     67  C   UNL A   1      39.675  34.012  36.627  1.00  0.00     0.064 A 
ATOM     68  C   UNL A   1      38.860  33.663  37.713  1.00  0.00     0.173 A 
ATOM     69  C   UNL A   1      40.414  35.203  36.716  1.00  0.00     0.173 A 
ATOM     70  F   UNL A   1      38.129  32.540  37.674  1.00  0.00    -0.203 F 
ATOM     71  C   UNL A   1      38.784  34.475  38.842  1.00  0.00     0.198 A 
ATOM     72  C   UNL A   1      40.354  35.999  37.856  1.00  0.00     0.198 A 
ATOM     73  F   UNL A   1      41.214  35.578  35.708  1.00  0.00    -0.203 F 
ATOM     74  F   UNL A   1      37.980  34.134  39.859  1.00  0.00    -0.200 F 
ATOM     75  C   UNL A   1      39.538  35.637  38.917  1.00  0.00     0.200 A 
ATOM     76  F   UNL A   1      41.095  37.115  37.933  1.00  0.00    -0.200 F 
ATOM     77  F   UNL A   1      39.478  36.408  40.012  1.00  0.00    -0.200 F 
ENDBRANCH  53  67
BRANCH  54  78
ATOM     78  C   UNL A   1      40.467  28.086  28.637  1.00  0.00     0.064 A 
ATOM     79  C   UNL A   1      41.244  28.417  27.520  1.00  0.00     0.173 A 
ATOM     80  C   UNL A   1      39.809  26.847  28.631  1.00  0.00     0.173 A 
ATOM     81  F   UNL A   1      41.878  29.599  27.472  1.00  0.00    -0.203 F 
ATOM     82  C   UNL A   1      41.359  27.546  26.439  1.00  0.00     0.198 A 
ATOM     83  C   UNL A   1      39.946  25.964  27.563  1.00  0.00     0.198 A 
ATOM     84  F   UNL A   1      39.056  26.482  29.679  1.00  0.00    -0.203 F 
ATOM     85  F   UNL A   1      42.090  27.897  25.372  1.00  0.00    -0.200 F 
ATOM     86  C   UNL A   1      40.719  26.315  26.466  1.00  0.00     0.200 A 
ATOM     87  F   UNL A   1      39.340  24.770  27.601  1.00  0.00    -0.200 F 
ATOM     88  F   UNL A   1      40.845  25.469  25.435  1.00  0.00    -0.200 F 
ENDBRANCH  54  78
BRANCH  66  89
ATOM     89  C   UNL A   1      43.846  28.483  34.738  1.00  0.00     0.064 A 
ATOM     90  C   UNL A   1      43.611  27.294  35.440  1.00  0.00     0.173 A 
ATOM     91  C   UNL A   1      45.177  28.870  34.520  1.00  0.00     0.173 A 
ATOM     92  F   UNL A   1      42.356  26.890  35.683  1.00  0.00    -0.203 F 
ATOM     93  C   UNL A   1      44.670  26.517  35.902  1.00  0.00     0.198 A 
ATOM     94  C   UNL A   1      46.234  28.080  34.962  1.00  0.00     0.198 A 
ATOM     95  F   UNL A   1      45.451  29.998  33.845  1.00  0.00    -0.203 F 
ATOM     96  F   UNL A   1      44.426  25.390  36.585  1.00  0.00    -0.200 F 
ATOM     97  C   UNL A   1      45.979  26.904  35.653  1.00  0.00     0.200 A 
ATOM     98  F   UNL A   1      47.496  28.448  34.708  1.00  0.00    -0.200 F 
ATOM     99  F   UNL A   1      46.997  26.142  36.075  1.00  0.00    -0.200 F 
ENDBRANCH  66  89
ENDBRANCH  40  41
ENDBRANCH  32  35
ENDBRANCH  30  31
ENDBRANCH  29  30
ENDBRANCH   1  29
TORSDOF 15
ENDMDL
