MODEL 1
REMARK VINA RESULT:     -11.9      0.000      0.000
REMARK SMILES CC(C)(C)OC(=O)N[C@@H](C(=O)NCCCNC(=O)c1ccc(-c2c3nc(c(-c4c(F)c(F)c(F)c(F)c4F)c4ccc([nH]4)c(-c4c(F)c(F)c(F)c(F)c4F)c4nc(c(-c5c(F)c(F)c(F)c(F)c5F)c5ccc2[nH]5)C=C4)C=C3)cc1)c1ccc([N+](=O)[O-])cc1
REMARK SMILES IDX 13 1 12 2 10 3 11 4 9 6 8 7 6 8 7 9 5 11 2 12 1 13 3 14 4 15
REMARK SMILES IDX 82 16 83 17 90 18 84 19 89 20 85 21 86 22 87 23 88 24 14 25
REMARK SMILES IDX 15 26 16 27 17 28 18 30 19 31 20 32 81 33 21 34 80 35 22 36
REMARK SMILES IDX 23 37 24 38 74 39 25 40 79 41 73 42 75 43 26 44 78 45 72 46
REMARK SMILES IDX 71 47 27 49 59 50 39 51 58 52 40 53 43 54 57 55 76 56 41 57
REMARK SMILES IDX 42 58 56 60 77 61 44 62 28 63 29 64 37 65 30 66 31 67 35 68
REMARK SMILES IDX 38 69 32 70 33 71 36 72 34 73 60 74 61 75 69 76 62 77 63 78
REMARK SMILES IDX 67 79 70 80 64 81 65 82 68 83 66 84 45 85 46 86 54 87 47 88
REMARK SMILES IDX 48 89 52 90 55 91 49 92 50 93 53 94 51 95
REMARK H PARENT 12 5 8 10 16 29 75 48 43 59
REMARK Flexibility Score: inf
ROOT
ATOM      1  C   UNL A   1      31.677  30.470  26.663  1.00  0.00     0.117 C 
ENDROOT
BRANCH   1   2
ATOM      2  N   UNL A   1      32.515  30.273  25.500  1.00  0.00    -0.354 N 
ATOM      3  C   UNL A   1      32.364  29.347  24.505  1.00  0.00     0.247 C 
ATOM      4  O   UNL A   1      33.407  28.957  23.974  1.00  0.00    -0.272 OA
ATOM      5  H   UNL A   1      33.285  30.879  25.414  1.00  0.00     0.163 HD
BRANCH   3   6
ATOM      6  C   UNL A   1      30.951  28.784  24.157  1.00  0.00     0.205 C 
BRANCH   6   7
ATOM      7  N   UNL A   1      31.182  27.578  23.365  1.00  0.00    -0.306 N 
ATOM      8  C   UNL A   1      31.168  26.284  23.783  1.00  0.00     0.408 C 
ATOM      9  O   UNL A   1      31.449  25.376  23.010  1.00  0.00    -0.225 OA
ATOM     10  H   UNL A   1      31.373  27.719  22.410  1.00  0.00     0.168 HD
BRANCH   8  11
ATOM     11  O   UNL A   1      30.853  26.137  25.091  1.00  0.00    -0.444 OA
BRANCH  11  12
ATOM     12  C   UNL A   1      31.869  25.773  26.069  1.00  0.00     0.106 C 
ATOM     13  C   UNL A   1      31.780  26.848  27.166  1.00  0.00     0.056 C 
ATOM     14  C   UNL A   1      33.282  25.830  25.471  1.00  0.00     0.056 C 
ATOM     15  C   UNL A   1      31.577  24.408  26.697  1.00  0.00     0.056 C 
ENDBRANCH  11  12
ENDBRANCH   8  11
ENDBRANCH   6   7
BRANCH   6  16
ATOM     16  C   UNL A   1      30.054  29.758  23.372  1.00  0.00    -0.016 A 
ATOM     17  C   UNL A   1      29.837  29.552  21.995  1.00  0.00     0.013 A 
ATOM     18  C   UNL A   1      29.403  30.852  23.975  1.00  0.00     0.013 A 
ATOM     19  C   UNL A   1      29.080  30.449  21.232  1.00  0.00     0.086 A 
ATOM     20  C   UNL A   1      28.657  31.765  23.220  1.00  0.00     0.086 A 
ATOM     21  C   UNL A   1      28.511  31.568  21.846  1.00  0.00     0.269 A 
BRANCH  21  22
ATOM     22  N   UNL A   1      27.762  32.543  21.044  1.00  0.00     0.062 N 
ATOM     23  O   UNL A   1      27.284  32.158  19.968  1.00  0.00    -0.258 OA
ATOM     24  O   UNL A   1      27.654  33.695  21.490  1.00  0.00    -0.258 OA
ENDBRANCH  21  22
ENDBRANCH   6  16
ENDBRANCH   3   6
ENDBRANCH   1   2
BRANCH   1  25
ATOM     25  C   UNL A   1      31.405  31.959  26.886  1.00  0.00     0.042 C 
BRANCH  25  26
ATOM     26  C   UNL A   1      32.666  32.820  26.876  1.00  0.00     0.118 C 
BRANCH  26  27
ATOM     27  N   UNL A   1      32.464  34.095  27.548  1.00  0.00    -0.352 N 
ATOM     28  C   UNL A   1      33.036  34.600  28.685  1.00  0.00     0.251 C 
ATOM     29  H   UNL A   1      31.811  34.691  27.115  1.00  0.00     0.163 HD
ATOM     30  O   UNL A   1      32.548  35.596  29.211  1.00  0.00    -0.269 OA
BRANCH  28  31
ATOM     31  C   UNL A   1      34.226  33.961  29.284  1.00  0.00     0.039 A 
ATOM     32  C   UNL A   1      34.036  32.924  30.200  1.00  0.00     0.014 A 
ATOM     33  C   UNL A   1      35.518  34.412  28.998  1.00  0.00     0.014 A 
ATOM     34  C   UNL A   1      35.139  32.315  30.799  1.00  0.00     0.010 A 
ATOM     35  C   UNL A   1      36.621  33.749  29.531  1.00  0.00     0.010 A 
ATOM     36  C   UNL A   1      36.443  32.704  30.449  1.00  0.00    -0.014 A 
BRANCH  36  37
ATOM     37  C   UNL A   1      37.622  32.027  31.046  1.00  0.00     0.031 A 
ATOM     38  C   UNL A   1      38.094  32.391  32.426  1.00  0.00     0.074 A 
ATOM     39  C   UNL A   1      38.287  31.103  30.326  1.00  0.00     0.049 A 
ATOM     40  N   UNL A   1      39.103  31.912  33.110  1.00  0.00    -0.248 NA
ATOM     41  C   UNL A   1      37.349  33.450  33.125  1.00  0.00     0.031 C 
ATOM     42  C   UNL A   1      37.955  30.700  28.959  1.00  0.00     0.029 A 
ATOM     43  N   UNL A   1      39.378  30.333  30.644  1.00  0.00    -0.354 N 
ATOM     44  C   UNL A   1      39.117  32.612  34.309  1.00  0.00     0.074 A 
ATOM     45  C   UNL A   1      38.057  33.594  34.236  1.00  0.00     0.031 C 
ATOM     46  C   UNL A   1      38.799  29.733  28.569  1.00  0.00     0.029 A 
ATOM     47  C   UNL A   1      39.757  29.477  29.639  1.00  0.00     0.049 A 
ATOM     48  H   UNL A   1      39.844  30.390  31.509  1.00  0.00     0.167 HD
ATOM     49  C   UNL A   1      39.922  32.434  35.384  1.00  0.00     0.037 A 
ATOM     50  C   UNL A   1      40.765  28.586  29.588  1.00  0.00     0.037 A 
ATOM     51  C   UNL A   1      40.970  31.449  35.455  1.00  0.00     0.049 A 
ATOM     52  C   UNL A   1      41.657  28.423  30.789  1.00  0.00     0.074 A 
ATOM     53  C   UNL A   1      41.812  31.157  36.513  1.00  0.00     0.029 A 
ATOM     54  N   UNL A   1      41.325  30.598  34.417  1.00  0.00    -0.354 N 
ATOM     55  N   UNL A   1      41.614  29.039  31.946  1.00  0.00    -0.248 NA
ATOM     56  C   UNL A   1      42.734  27.429  30.680  1.00  0.00     0.031 C 
ATOM     57  C   UNL A   1      42.714  30.173  36.096  1.00  0.00     0.029 A 
ATOM     58  C   UNL A   1      42.389  29.799  34.802  1.00  0.00     0.049 A 
ATOM     59  H   UNL A   1      40.885  30.566  33.537  1.00  0.00     0.167 HD
ATOM     60  C   UNL A   1      42.630  28.484  32.713  1.00  0.00     0.074 A 
ATOM     61  C   UNL A   1      43.261  27.470  31.895  1.00  0.00     0.031 C 
ATOM     62  C   UNL A   1      43.003  28.786  33.981  1.00  0.00     0.037 A 
BRANCH  49  63
ATOM     63  C   UNL A   1      39.700  33.327  36.574  1.00  0.00     0.064 A 
ATOM     64  C   UNL A   1      40.368  34.555  36.712  1.00  0.00     0.173 A 
ATOM     65  C   UNL A   1      38.784  32.968  37.575  1.00  0.00     0.173 A 
ATOM     66  F   UNL A   1      41.263  34.943  35.791  1.00  0.00    -0.203 F 
ATOM     67  C   UNL A   1      40.155  35.369  37.821  1.00  0.00     0.198 A 
ATOM     68  C   UNL A   1      38.545  33.803  38.663  1.00  0.00     0.198 A 
ATOM     69  F   UNL A   1      38.110  31.811  37.492  1.00  0.00    -0.203 F 
ATOM     70  F   UNL A   1      40.848  36.508  37.958  1.00  0.00    -0.200 F 
ATOM     71  C   UNL A   1      39.237  34.996  38.791  1.00  0.00     0.200 A 
ATOM     72  F   UNL A   1      37.645  33.449  39.593  1.00  0.00    -0.200 F 
ATOM     73  F   UNL A   1      39.026  35.786  39.854  1.00  0.00    -0.200 F 
ENDBRANCH  49  63
BRANCH  50  74
ATOM     74  C   UNL A   1      40.965  27.758  28.369  1.00  0.00     0.064 A 
ATOM     75  C   UNL A   1      40.325  26.518  28.226  1.00  0.00     0.173 A 
ATOM     76  C   UNL A   1      41.804  28.181  27.328  1.00  0.00     0.173 A 
ATOM     77  F   UNL A   1      39.526  26.061  29.202  1.00  0.00    -0.203 F 
ATOM     78  C   UNL A   1      40.537  25.723  27.102  1.00  0.00     0.198 A 
ATOM     79  C   UNL A   1      41.989  27.401  26.189  1.00  0.00     0.198 A 
ATOM     80  F   UNL A   1      42.434  29.362  27.411  1.00  0.00    -0.203 F 
ATOM     81  F   UNL A   1      39.955  24.519  27.017  1.00  0.00    -0.200 F 
ATOM     82  C   UNL A   1      41.364  26.167  26.082  1.00  0.00     0.200 A 
ATOM     83  F   UNL A   1      42.774  27.842  25.197  1.00  0.00    -0.200 F 
ATOM     84  F   UNL A   1      41.565  25.403  24.999  1.00  0.00    -0.200 F 
ENDBRANCH  50  74
BRANCH  62  85
ATOM     85  C   UNL A   1      44.114  27.971  34.584  1.00  0.00     0.064 A 
ATOM     86  C   UNL A   1      43.871  26.766  35.258  1.00  0.00     0.173 A 
ATOM     87  C   UNL A   1      45.447  28.395  34.460  1.00  0.00     0.173 A 
ATOM     88  F   UNL A   1      42.615  26.321  35.415  1.00  0.00    -0.203 F 
ATOM     89  C   UNL A   1      44.916  26.035  35.818  1.00  0.00     0.198 A 
ATOM     90  C   UNL A   1      46.492  27.643  34.988  1.00  0.00     0.198 A 
ATOM     91  F   UNL A   1      45.738  29.537  33.818  1.00  0.00    -0.203 F 
ATOM     92  F   UNL A   1      44.653  24.919  36.512  1.00  0.00    -0.200 F 
ATOM     93  C   UNL A   1      46.225  26.469  35.676  1.00  0.00     0.200 A 
ATOM     94  F   UNL A   1      47.758  28.056  34.833  1.00  0.00    -0.200 F 
ATOM     95  F   UNL A   1      47.230  25.762  36.211  1.00  0.00    -0.200 F 
ENDBRANCH  62  85
ENDBRANCH  36  37
ENDBRANCH  28  31
ENDBRANCH  26  27
ENDBRANCH  25  26
ENDBRANCH   1  25
TORSDOF 15
ENDMDL
MODEL 2
REMARK VINA RESULT:     -11.8      6.112     11.730
REMARK SMILES CC(C)(C)OC(=O)N[C@@H](C(=O)NCCCNC(=O)c1ccc(-c2c3nc(c(-c4c(F)c(F)c(F)c(F)c4F)c4ccc([nH]4)c(-c4c(F)c(F)c(F)c(F)c4F)c4nc(c(-c5c(F)c(F)c(F)c(F)c5F)c5ccc2[nH]5)C=C4)C=C3)cc1)c1ccc([N+](=O)[O-])cc1
REMARK SMILES IDX 13 1 12 2 10 3 11 4 9 6 8 7 6 8 7 9 5 11 2 12 1 13 3 14 4 15
REMARK SMILES IDX 82 16 83 17 90 18 84 19 89 20 85 21 86 22 87 23 88 24 14 25
REMARK SMILES IDX 15 26 16 27 17 28 18 30 19 31 20 32 81 33 21 34 80 35 22 36
REMARK SMILES IDX 23 37 24 38 74 39 25 40 79 41 73 42 75 43 26 44 78 45 72 46
REMARK SMILES IDX 71 47 27 49 59 50 39 51 58 52 40 53 43 54 57 55 76 56 41 57
REMARK SMILES IDX 42 58 56 60 77 61 44 62 28 63 29 64 37 65 30 66 31 67 35 68
REMARK SMILES IDX 38 69 32 70 33 71 36 72 34 73 60 74 61 75 69 76 62 77 63 78
REMARK SMILES IDX 67 79 70 80 64 81 65 82 68 83 66 84 45 85 46 86 54 87 47 88
REMARK SMILES IDX 48 89 52 90 55 91 49 92 50 93 53 94 51 95
REMARK H PARENT 12 5 8 10 16 29 75 48 43 59
REMARK Flexibility Score: inf
ROOT
ATOM      1  C   UNL A   1      37.141  20.994  24.704  1.00  0.00     0.117 C 
ENDROOT
BRANCH   1   2
ATOM      2  N   UNL A   1      36.324  21.165  25.886  1.00  0.00    -0.354 N 
ATOM      3  C   UNL A   1      34.970  21.351  25.949  1.00  0.00     0.247 C 
ATOM      4  O   UNL A   1      34.566  22.026  26.899  1.00  0.00    -0.272 OA
ATOM      5  H   UNL A   1      36.798  21.144  26.747  1.00  0.00     0.163 HD
BRANCH   3   6
ATOM      6  C   UNL A   1      34.043  20.798  24.822  1.00  0.00     0.205 C 
BRANCH   6   7
ATOM      7  N   UNL A   1      32.781  21.523  24.948  1.00  0.00    -0.306 N 
ATOM      8  C   UNL A   1      32.402  22.666  24.315  1.00  0.00     0.408 C 
ATOM      9  O   UNL A   1      31.329  23.196  24.576  1.00  0.00    -0.225 OA
ATOM     10  H   UNL A   1      32.122  21.137  25.569  1.00  0.00     0.168 HD
BRANCH   8  11
ATOM     11  O   UNL A   1      33.320  23.131  23.436  1.00  0.00    -0.444 OA
BRANCH  11  12
ATOM     12  C   UNL A   1      34.035  24.374  23.689  1.00  0.00     0.106 C 
ATOM     13  C   UNL A   1      35.523  24.031  23.500  1.00  0.00     0.056 C 
ATOM     14  C   UNL A   1      33.845  24.856  25.134  1.00  0.00     0.056 C 
ATOM     15  C   UNL A   1      33.650  25.457  22.677  1.00  0.00     0.056 C 
ENDBRANCH  11  12
ENDBRANCH   8  11
ENDBRANCH   6   7
BRANCH   6  16
ATOM     16  C   UNL A   1      33.783  19.283  24.898  1.00  0.00    -0.016 A 
ATOM     17  C   UNL A   1      32.663  18.801  25.606  1.00  0.00     0.013 A 
ATOM     18  C   UNL A   1      34.606  18.334  24.261  1.00  0.00     0.013 A 
ATOM     19  C   UNL A   1      32.427  17.429  25.752  1.00  0.00     0.086 A 
ATOM     20  C   UNL A   1      34.389  16.959  24.413  1.00  0.00     0.086 A 
ATOM     21  C   UNL A   1      33.307  16.511  25.172  1.00  0.00     0.269 A 
BRANCH  21  22
ATOM     22  N   UNL A   1      33.097  15.071  25.366  1.00  0.00     0.062 N 
ATOM     23  O   UNL A   1      31.933  14.672  25.512  1.00  0.00    -0.258 OA
ATOM     24  O   UNL A   1      34.097  14.339  25.376  1.00  0.00    -0.258 OA
ENDBRANCH  21  22
ENDBRANCH   6  16
ENDBRANCH   3   6
ENDBRANCH   1   2
BRANCH   1  25
ATOM     25  C   UNL A   1      38.147  19.858  24.904  1.00  0.00     0.042 C 
BRANCH  25  26
ATOM     26  C   UNL A   1      39.044  20.042  26.127  1.00  0.00     0.118 C 
BRANCH  26  27
ATOM     27  N   UNL A   1      40.230  19.202  26.067  1.00  0.00    -0.352 N 
ATOM     28  C   UNL A   1      41.557  19.537  26.064  1.00  0.00     0.251 C 
ATOM     29  H   UNL A   1      40.048  18.235  26.022  1.00  0.00     0.163 HD
ATOM     30  O   UNL A   1      42.392  18.687  25.767  1.00  0.00    -0.269 OA
BRANCH  28  31
ATOM     31  C   UNL A   1      41.994  20.906  26.411  1.00  0.00     0.039 A 
ATOM     32  C   UNL A   1      42.180  21.828  25.378  1.00  0.00     0.014 A 
ATOM     33  C   UNL A   1      42.278  21.269  27.730  1.00  0.00     0.014 A 
ATOM     34  C   UNL A   1      42.613  23.121  25.672  1.00  0.00     0.010 A 
ATOM     35  C   UNL A   1      42.629  22.582  28.031  1.00  0.00     0.010 A 
ATOM     36  C   UNL A   1      42.815  23.518  27.004  1.00  0.00    -0.014 A 
BRANCH  36  37
ATOM     37  C   UNL A   1      43.228  24.908  27.327  1.00  0.00     0.031 A 
ATOM     38  C   UNL A   1      44.634  25.368  27.057  1.00  0.00     0.074 A 
ATOM     39  C   UNL A   1      42.339  25.746  27.893  1.00  0.00     0.049 A 
ATOM     40  N   UNL A   1      45.178  26.540  27.275  1.00  0.00    -0.248 NA
ATOM     41  C   UNL A   1      45.561  24.376  26.490  1.00  0.00     0.031 C 
ATOM     42  C   UNL A   1      40.962  25.401  28.247  1.00  0.00     0.029 A 
ATOM     43  N   UNL A   1      42.460  27.060  28.269  1.00  0.00    -0.354 N 
ATOM     44  C   UNL A   1      46.504  26.423  26.878  1.00  0.00     0.074 A 
ATOM     45  C   UNL A   1      46.702  25.050  26.468  1.00  0.00     0.031 C 
ATOM     46  C   UNL A   1      40.354  26.484  28.753  1.00  0.00     0.029 A 
ATOM     47  C   UNL A   1      41.308  27.588  28.800  1.00  0.00     0.049 A 
ATOM     48  H   UNL A   1      43.293  27.576  28.168  1.00  0.00     0.167 HD
ATOM     49  C   UNL A   1      47.462  27.380  26.834  1.00  0.00     0.037 A 
ATOM     50  C   UNL A   1      41.052  28.822  29.271  1.00  0.00     0.037 A 
ATOM     51  C   UNL A   1      47.257  28.747  27.236  1.00  0.00     0.049 A 
ATOM     52  C   UNL A   1      42.140  29.861  29.230  1.00  0.00     0.074 A 
ATOM     53  C   UNL A   1      48.148  29.805  27.189  1.00  0.00     0.029 A 
ATOM     54  N   UNL A   1      46.075  29.245  27.768  1.00  0.00    -0.354 N 
ATOM     55  N   UNL A   1      43.369  29.759  28.784  1.00  0.00    -0.248 NA
ATOM     56  C   UNL A   1      41.800  31.193  29.748  1.00  0.00     0.031 C 
ATOM     57  C   UNL A   1      47.527  30.926  27.747  1.00  0.00     0.029 A 
ATOM     58  C   UNL A   1      46.224  30.588  28.077  1.00  0.00     0.049 A 
ATOM     59  H   UNL A   1      45.253  28.722  27.907  1.00  0.00     0.167 HD
ATOM     60  C   UNL A   1      43.936  31.017  28.933  1.00  0.00     0.074 A 
ATOM     61  C   UNL A   1      42.910  31.871  29.496  1.00  0.00     0.031 C 
ATOM     62  C   UNL A   1      45.191  31.429  28.629  1.00  0.00     0.037 A 
BRANCH  49  63
ATOM     63  C   UNL A   1      48.823  26.979  26.334  1.00  0.00     0.064 A 
ATOM     64  C   UNL A   1      49.172  27.084  24.978  1.00  0.00     0.173 A 
ATOM     65  C   UNL A   1      49.803  26.515  27.226  1.00  0.00     0.173 A 
ATOM     66  F   UNL A   1      48.272  27.511  24.080  1.00  0.00    -0.203 F 
ATOM     67  C   UNL A   1      50.435  26.705  24.530  1.00  0.00     0.198 A 
ATOM     68  C   UNL A   1      51.076  26.174  26.779  1.00  0.00     0.198 A 
ATOM     69  F   UNL A   1      49.528  26.402  28.534  1.00  0.00    -0.203 F 
ATOM     70  F   UNL A   1      50.724  26.760  23.222  1.00  0.00    -0.200 F 
ATOM     71  C   UNL A   1      51.389  26.259  25.432  1.00  0.00     0.200 A 
ATOM     72  F   UNL A   1      52.003  25.757  27.655  1.00  0.00    -0.200 F 
ATOM     73  F   UNL A   1      52.607  25.904  25.000  1.00  0.00    -0.200 F 
ENDBRANCH  49  63
BRANCH  50  74
ATOM     74  C   UNL A   1      39.699  29.153  29.794  1.00  0.00     0.064 A 
ATOM     75  C   UNL A   1      39.405  29.036  31.160  1.00  0.00     0.173 A 
ATOM     76  C   UNL A   1      38.672  29.582  28.941  1.00  0.00     0.173 A 
ATOM     77  F   UNL A   1      40.348  28.613  32.014  1.00  0.00    -0.203 F 
ATOM     78  C   UNL A   1      38.129  29.311  31.648  1.00  0.00     0.198 A 
ATOM     79  C   UNL A   1      37.406  29.889  29.435  1.00  0.00     0.198 A 
ATOM     80  F   UNL A   1      38.902  29.718  27.626  1.00  0.00    -0.203 F 
ATOM     81  F   UNL A   1      37.862  29.139  32.950  1.00  0.00    -0.200 F 
ATOM     82  C   UNL A   1      37.132  29.742  30.787  1.00  0.00     0.200 A 
ATOM     83  F   UNL A   1      36.450  30.323  28.602  1.00  0.00    -0.200 F 
ATOM     84  F   UNL A   1      35.906  30.010  31.257  1.00  0.00    -0.200 F 
ENDBRANCH  50  74
BRANCH  62  85
ATOM     85  C   UNL A   1      45.511  32.882  28.847  1.00  0.00     0.064 A 
ATOM     86  C   UNL A   1      45.261  33.854  27.868  1.00  0.00     0.173 A 
ATOM     87  C   UNL A   1      46.054  33.309  30.070  1.00  0.00     0.173 A 
ATOM     88  F   UNL A   1      44.754  33.499  26.677  1.00  0.00    -0.203 F 
ATOM     89  C   UNL A   1      45.577  35.192  28.089  1.00  0.00     0.198 A 
ATOM     90  C   UNL A   1      46.333  34.652  30.302  1.00  0.00     0.198 A 
ATOM     91  F   UNL A   1      46.306  32.422  31.045  1.00  0.00    -0.203 F 
ATOM     92  F   UNL A   1      45.387  36.093  27.116  1.00  0.00    -0.200 F 
ATOM     93  C   UNL A   1      46.105  35.591  29.308  1.00  0.00     0.200 A 
ATOM     94  F   UNL A   1      46.826  35.037  31.487  1.00  0.00    -0.200 F 
ATOM     95  F   UNL A   1      46.403  36.880  29.522  1.00  0.00    -0.200 F 
ENDBRANCH  62  85
ENDBRANCH  36  37
ENDBRANCH  28  31
ENDBRANCH  26  27
ENDBRANCH  25  26
ENDBRANCH   1  25
TORSDOF 15
ENDMDL
MODEL 3
REMARK VINA RESULT:     -11.7      6.165     10.540
REMARK SMILES CC(C)(C)OC(=O)N[C@@H](C(=O)NCCCNC(=O)c1ccc(-c2c3nc(c(-c4c(F)c(F)c(F)c(F)c4F)c4ccc([nH]4)c(-c4c(F)c(F)c(F)c(F)c4F)c4nc(c(-c5c(F)c(F)c(F)c(F)c5F)c5ccc2[nH]5)C=C4)C=C3)cc1)c1ccc([N+](=O)[O-])cc1
REMARK SMILES IDX 13 1 12 2 10 3 11 4 9 6 8 7 6 8 7 9 5 11 2 12 1 13 3 14 4 15
REMARK SMILES IDX 82 16 83 17 90 18 84 19 89 20 85 21 86 22 87 23 88 24 14 25
REMARK SMILES IDX 15 26 16 27 17 28 18 30 19 31 20 32 81 33 21 34 80 35 22 36
REMARK SMILES IDX 23 37 24 38 74 39 25 40 79 41 73 42 75 43 26 44 78 45 72 46
REMARK SMILES IDX 71 47 27 49 59 50 39 51 58 52 40 53 43 54 57 55 76 56 41 57
REMARK SMILES IDX 42 58 56 60 77 61 44 62 28 63 29 64 37 65 30 66 31 67 35 68
REMARK SMILES IDX 38 69 32 70 33 71 36 72 34 73 60 74 61 75 69 76 62 77 63 78
REMARK SMILES IDX 67 79 70 80 64 81 65 82 68 83 66 84 45 85 46 86 54 87 47 88
REMARK SMILES IDX 48 89 52 90 55 91 49 92 50 93 53 94 51 95
REMARK H PARENT 12 5 8 10 16 29 75 48 43 59
REMARK Flexibility Score: inf
ROOT
ATOM      1  C   UNL A   1      37.131  20.893  24.726  1.00  0.00     0.117 C 
ENDROOT
BRANCH   1   2
ATOM      2  N   UNL A   1      36.348  21.110  25.924  1.00  0.00    -0.354 N 
ATOM      3  C   UNL A   1      35.004  21.351  26.014  1.00  0.00     0.247 C 
ATOM      4  O   UNL A   1      34.649  22.054  26.965  1.00  0.00    -0.272 OA
ATOM      5  H   UNL A   1      36.841  21.081  26.774  1.00  0.00     0.163 HD
BRANCH   3   6
ATOM      6  C   UNL A   1      34.031  20.824  24.915  1.00  0.00     0.205 C 
BRANCH   6   7
ATOM      7  N   UNL A   1      32.773  21.539  25.114  1.00  0.00    -0.306 N 
ATOM      8  C   UNL A   1      32.329  22.653  24.473  1.00  0.00     0.408 C 
ATOM      9  O   UNL A   1      31.273  23.181  24.798  1.00  0.00    -0.225 OA
ATOM     10  H   UNL A   1      32.171  21.170  25.800  1.00  0.00     0.168 HD
BRANCH   8  11
ATOM     11  O   UNL A   1      33.167  23.095  23.506  1.00  0.00    -0.444 OA
BRANCH  11  12
ATOM     12  C   UNL A   1      33.951  24.308  23.693  1.00  0.00     0.106 C 
ATOM     13  C   UNL A   1      35.414  23.881  23.484  1.00  0.00     0.056 C 
ATOM     14  C   UNL A   1      33.822  24.855  25.122  1.00  0.00     0.056 C 
ATOM     15  C   UNL A   1      33.597  25.369  22.648  1.00  0.00     0.056 C 
ENDBRANCH  11  12
ENDBRANCH   8  11
ENDBRANCH   6   7
BRANCH   6  16
ATOM     16  C   UNL A   1      33.780  19.306  24.962  1.00  0.00    -0.016 A 
ATOM     17  C   UNL A   1      32.667  18.804  25.667  1.00  0.00     0.013 A 
ATOM     18  C   UNL A   1      34.605  18.374  24.303  1.00  0.00     0.013 A 
ATOM     19  C   UNL A   1      32.439  17.428  25.787  1.00  0.00     0.086 A 
ATOM     20  C   UNL A   1      34.397  16.995  24.429  1.00  0.00     0.086 A 
ATOM     21  C   UNL A   1      33.322  16.527  25.185  1.00  0.00     0.269 A 
BRANCH  21  22
ATOM     22  N   UNL A   1      33.121  15.082  25.352  1.00  0.00     0.062 N 
ATOM     23  O   UNL A   1      31.956  14.665  25.414  1.00  0.00    -0.258 OA
ATOM     24  O   UNL A   1      34.129  14.364  25.423  1.00  0.00    -0.258 OA
ENDBRANCH  21  22
ENDBRANCH   6  16
ENDBRANCH   3   6
ENDBRANCH   1   2
BRANCH   1  25
ATOM     25  C   UNL A   1      38.156  19.778  24.947  1.00  0.00     0.042 C 
BRANCH  25  26
ATOM     26  C   UNL A   1      39.149  20.073  26.069  1.00  0.00     0.118 C 
BRANCH  26  27
ATOM     27  N   UNL A   1      40.302  19.186  26.026  1.00  0.00    -0.352 N 
ATOM     28  C   UNL A   1      41.641  19.468  26.027  1.00  0.00     0.251 C 
ATOM     29  H   UNL A   1      40.082  18.226  25.992  1.00  0.00     0.163 HD
ATOM     30  O   UNL A   1      42.443  18.582  25.745  1.00  0.00    -0.269 OA
BRANCH  28  31
ATOM     31  C   UNL A   1      42.130  20.823  26.360  1.00  0.00     0.039 A 
ATOM     32  C   UNL A   1      42.304  21.742  25.322  1.00  0.00     0.014 A 
ATOM     33  C   UNL A   1      42.474  21.174  27.668  1.00  0.00     0.014 A 
ATOM     34  C   UNL A   1      42.785  23.021  25.602  1.00  0.00     0.010 A 
ATOM     35  C   UNL A   1      42.873  22.476  27.958  1.00  0.00     0.010 A 
ATOM     36  C   UNL A   1      43.048  23.409  26.926  1.00  0.00    -0.014 A 
BRANCH  36  37
ATOM     37  C   UNL A   1      43.513  24.785  27.235  1.00  0.00     0.031 A 
ATOM     38  C   UNL A   1      42.563  25.801  27.808  1.00  0.00     0.074 A 
ATOM     39  C   UNL A   1      44.788  25.126  26.969  1.00  0.00     0.049 A 
ATOM     40  N   UNL A   1      42.786  27.049  28.137  1.00  0.00    -0.248 NA
ATOM     41  C   UNL A   1      41.173  25.367  28.017  1.00  0.00     0.031 C 
ATOM     42  C   UNL A   1      45.789  24.244  26.368  1.00  0.00     0.029 A 
ATOM     43  N   UNL A   1      45.461  26.305  27.169  1.00  0.00    -0.354 N 
ATOM     44  C   UNL A   1      41.569  27.547  28.585  1.00  0.00     0.074 A 
ATOM     45  C   UNL A   1      40.596  26.489  28.424  1.00  0.00     0.031 C 
ATOM     46  C   UNL A   1      46.957  24.898  26.283  1.00  0.00     0.029 A 
ATOM     47  C   UNL A   1      46.779  26.258  26.782  1.00  0.00     0.049 A 
ATOM     48  H   UNL A   1      45.040  27.108  27.553  1.00  0.00     0.167 HD
ATOM     49  C   UNL A   1      41.293  28.766  29.108  1.00  0.00     0.037 A 
ATOM     50  C   UNL A   1      47.733  27.205  26.825  1.00  0.00     0.037 A 
ATOM     51  C   UNL A   1      42.269  29.813  29.273  1.00  0.00     0.049 A 
ATOM     52  C   UNL A   1      47.395  28.558  27.392  1.00  0.00     0.074 A 
ATOM     53  C   UNL A   1      42.103  31.068  29.833  1.00  0.00     0.029 A 
ATOM     54  N   UNL A   1      43.594  29.728  28.871  1.00  0.00    -0.354 N 
ATOM     55  N   UNL A   1      46.259  28.994  27.881  1.00  0.00    -0.248 NA
ATOM     56  C   UNL A   1      48.479  29.549  27.424  1.00  0.00     0.031 C 
ATOM     57  C   UNL A   1      43.310  31.762  29.714  1.00  0.00     0.029 A 
ATOM     58  C   UNL A   1      44.251  30.917  29.147  1.00  0.00     0.049 A 
ATOM     59  H   UNL A   1      44.008  28.940  28.451  1.00  0.00     0.167 HD
ATOM     60  C   UNL A   1      46.500  30.292  28.310  1.00  0.00     0.074 A 
ATOM     61  C   UNL A   1      47.896  30.567  28.039  1.00  0.00     0.031 C 
ATOM     62  C   UNL A   1      45.643  31.175  28.880  1.00  0.00     0.037 A 
BRANCH  49  63
ATOM     63  C   UNL A   1      39.877  29.034  29.538  1.00  0.00     0.064 A 
ATOM     64  C   UNL A   1      38.895  29.455  28.627  1.00  0.00     0.173 A 
ATOM     65  C   UNL A   1      39.488  28.837  30.872  1.00  0.00     0.173 A 
ATOM     66  F   UNL A   1      39.214  29.669  27.342  1.00  0.00    -0.203 F 
ATOM     67  C   UNL A   1      37.589  29.703  29.042  1.00  0.00     0.198 A 
ATOM     68  C   UNL A   1      38.172  29.049  31.275  1.00  0.00     0.198 A 
ATOM     69  F   UNL A   1      40.382  28.428  31.785  1.00  0.00    -0.203 F 
ATOM     70  F   UNL A   1      36.684  30.159  28.165  1.00  0.00    -0.200 F 
ATOM     71  C   UNL A   1      37.227  29.491  30.363  1.00  0.00     0.200 A 
ATOM     72  F   UNL A   1      37.819  28.829  32.550  1.00  0.00    -0.200 F 
ATOM     73  F   UNL A   1      35.967  29.722  30.759  1.00  0.00    -0.200 F 
ENDBRANCH  49  63
BRANCH  50  74
ATOM     74  C   UNL A   1      49.108  26.899  26.347  1.00  0.00     0.064 A 
ATOM     75  C   UNL A   1      50.075  26.376  27.217  1.00  0.00     0.173 A 
ATOM     76  C   UNL A   1      49.486  27.129  25.016  1.00  0.00     0.173 A 
ATOM     77  F   UNL A   1      49.768  26.155  28.504  1.00  0.00    -0.203 F 
ATOM     78  C   UNL A   1      51.373  26.121  26.782  1.00  0.00     0.198 A 
ATOM     79  C   UNL A   1      50.775  26.842  24.573  1.00  0.00     0.198 A 
ATOM     80  F   UNL A   1      48.597  27.621  24.140  1.00  0.00    -0.203 F 
ATOM     81  F   UNL A   1      52.292  25.673  27.648  1.00  0.00    -0.200 F 
ATOM     82  C   UNL A   1      51.721  26.348  25.459  1.00  0.00     0.200 A 
ATOM     83  F   UNL A   1      51.102  27.046  23.290  1.00  0.00    -0.200 F 
ATOM     84  F   UNL A   1      52.970  26.099  25.040  1.00  0.00    -0.200 F 
ENDBRANCH  50  74
BRANCH  62  85
ATOM     85  C   UNL A   1      46.204  32.506  29.300  1.00  0.00     0.064 A 
ATOM     86  C   UNL A   1      46.771  32.707  30.566  1.00  0.00     0.173 A 
ATOM     87  C   UNL A   1      46.195  33.589  28.405  1.00  0.00     0.173 A 
ATOM     88  F   UNL A   1      46.794  31.710  31.463  1.00  0.00    -0.203 F 
ATOM     89  C   UNL A   1      47.273  33.953  30.936  1.00  0.00     0.198 A 
ATOM     90  C   UNL A   1      46.732  34.821  28.765  1.00  0.00     0.198 A 
ATOM     91  F   UNL A   1      45.672  33.449  27.178  1.00  0.00    -0.203 F 
ATOM     92  F   UNL A   1      47.753  34.138  32.173  1.00  0.00    -0.200 F 
ATOM     93  C   UNL A   1      47.261  35.005  30.033  1.00  0.00     0.200 A 
ATOM     94  F   UNL A   1      46.736  35.831  27.884  1.00  0.00    -0.200 F 
ATOM     95  F   UNL A   1      47.750  36.202  30.389  1.00  0.00    -0.200 F 
ENDBRANCH  62  85
ENDBRANCH  36  37
ENDBRANCH  28  31
ENDBRANCH  26  27
ENDBRANCH  25  26
ENDBRANCH   1  25
TORSDOF 15
ENDMDL
