MODEL 1
REMARK VINA RESULT:     -14.7      0.000      0.000
REMARK SMILES Cc1nccn1C1(C(=O)NCCCNC(=O)c2ccc(-c3c4nc(c(-c5c(F)c(F)c(F)c(F)c5F)c5ccc([nH]5)c(-c5c(F)c(F)c(F)c(F)c5F)c5nc(c(-c6c(F)c(F)c(F)c(F)c6F)c6ccc3[nH]6)C=C5)C=C4)cc2)CCN(C(=O)[C@@H]2C[C@H]2c2ccccc2)CC1
REMARK SMILES IDX 12 1 11 2 10 3 8 4 9 5 7 7 80 8 95 9 81 10 94 11 82 12 83 13
REMARK SMILES IDX 84 14 6 15 1 16 2 17 3 18 4 19 5 20 85 21 86 22 87 23 88 24
REMARK SMILES IDX 89 25 93 26 90 27 92 28 91 29 13 30 14 31 15 32 16 34 17 35
REMARK SMILES IDX 18 36 79 37 19 38 78 39 20 40 21 41 22 42 72 43 23 44 77 45
REMARK SMILES IDX 71 46 73 47 24 48 76 49 70 50 69 51 25 53 57 54 37 55 56 56
REMARK SMILES IDX 38 57 41 58 55 59 74 60 39 61 40 62 54 64 75 65 42 66 26 67
REMARK SMILES IDX 27 68 35 69 28 70 29 71 33 72 36 73 30 74 31 75 34 76 32 77
REMARK SMILES IDX 58 78 59 79 67 80 60 81 61 82 65 83 68 84 62 85 63 86 66 87
REMARK SMILES IDX 64 88 43 89 44 90 52 91 45 92 46 93 50 94 53 95 47 96 48 97
REMARK SMILES IDX 51 98 49 99
REMARK H PARENT 10 6 14 33 73 52 41 63
REMARK Flexibility Score: inf
ROOT
ATOM      1  C   UNL A   1      32.909  30.581  26.902  1.00  0.00     0.042 C 
ENDROOT
BRANCH   1   2
ATOM      2  C   UNL A   1      32.857  29.380  25.950  1.00  0.00     0.117 C 
BRANCH   2   3
ATOM      3  N   UNL A   1      32.035  28.275  26.437  1.00  0.00    -0.354 N 
ATOM      4  C   UNL A   1      31.437  27.193  25.850  1.00  0.00     0.246 C 
ATOM      5  O   UNL A   1      30.644  26.617  26.603  1.00  0.00    -0.272 OA
ATOM      6  H   UNL A   1      31.876  28.319  27.407  1.00  0.00     0.163 HD
BRANCH   4   7
ATOM      7  C   UNL A   1      31.636  26.792  24.336  1.00  0.00     0.127 C 
ATOM      8  C   UNL A   1      33.179  26.928  24.134  1.00  0.00     0.061 C 
ATOM      9  C   UNL A   1      31.039  25.385  24.077  1.00  0.00     0.061 C 
ATOM     10  C   UNL A   1      33.967  25.696  23.652  1.00  0.00     0.122 C 
ATOM     11  C   UNL A   1      31.863  24.663  23.038  1.00  0.00     0.122 C 
ATOM     12  N   UNL A   1      33.197  24.465  23.547  1.00  0.00    -0.342 N 
ATOM     13  C   UNL A   1      33.861  23.254  23.772  1.00  0.00     0.226 C 
ATOM     14  O   UNL A   1      35.077  23.243  23.959  1.00  0.00    -0.275 OA
BRANCH   7  15
ATOM     15  N   UNL A   1      30.871  27.710  23.399  1.00  0.00    -0.320 N 
ATOM     16  C   UNL A   1      28.359  27.073  23.755  1.00  0.00     0.087 C 
ATOM     17  C   UNL A   1      29.493  27.846  23.185  1.00  0.00     0.106 A 
ATOM     18  N   UNL A   1      29.240  28.873  22.394  1.00  0.00    -0.242 NA
ATOM     19  C   UNL A   1      30.426  29.467  22.128  1.00  0.00     0.131 A 
ATOM     20  C   UNL A   1      31.437  28.809  22.773  1.00  0.00     0.108 A 
ENDBRANCH   7  15
BRANCH  13  21
ATOM     21  C   UNL A   1      33.174  21.927  23.895  1.00  0.00     0.087 C 
ATOM     22  C   UNL A   1      32.312  21.634  25.101  1.00  0.00     0.023 C 
ATOM     23  C   UNL A   1      33.497  20.765  24.789  1.00  0.00     0.032 C 
BRANCH  23  24
ATOM     24  C   UNL A   1      33.409  19.330  24.380  1.00  0.00    -0.044 A 
ATOM     25  C   UNL A   1      34.467  18.462  24.692  1.00  0.00     0.004 A 
ATOM     26  C   UNL A   1      32.481  18.921  23.410  1.00  0.00     0.004 A 
ATOM     27  C   UNL A   1      34.656  17.277  23.983  1.00  0.00     0.000 A 
ATOM     28  C   UNL A   1      32.665  17.735  22.701  1.00  0.00     0.000 A 
ATOM     29  C   UNL A   1      33.769  16.929  22.968  1.00  0.00     0.000 A 
ENDBRANCH  23  24
ENDBRANCH  13  21
ENDBRANCH   4   7
ENDBRANCH   2   3
ENDBRANCH   1   2
BRANCH   1  30
ATOM     30  C   UNL A   1      34.254  30.762  27.581  1.00  0.00     0.118 C 
BRANCH  30  31
ATOM     31  N   UNL A   1      34.230  31.674  28.730  1.00  0.00    -0.352 N 
ATOM     32  C   UNL A   1      35.148  31.737  29.763  1.00  0.00     0.251 C 
ATOM     33  H   UNL A   1      33.479  32.309  28.770  1.00  0.00     0.163 HD
ATOM     34  O   UNL A   1      34.874  32.290  30.831  1.00  0.00    -0.269 OA
BRANCH  32  35
ATOM     35  C   UNL A   1      36.473  31.136  29.557  1.00  0.00     0.039 A 
ATOM     36  C   UNL A   1      37.620  31.895  29.307  1.00  0.00     0.014 A 
ATOM     37  C   UNL A   1      36.551  29.754  29.692  1.00  0.00     0.014 A 
ATOM     38  C   UNL A   1      38.850  31.242  29.267  1.00  0.00     0.010 A 
ATOM     39  C   UNL A   1      37.763  29.163  29.890  1.00  0.00     0.010 A 
ATOM     40  C   UNL A   1      38.909  29.873  29.579  1.00  0.00    -0.014 A 
BRANCH  40  41
ATOM     41  C   UNL A   1      40.173  29.160  29.675  1.00  0.00     0.031 A 
ATOM     42  C   UNL A   1      40.644  28.986  31.069  1.00  0.00     0.074 A 
ATOM     43  C   UNL A   1      40.735  28.525  28.621  1.00  0.00     0.049 A 
ATOM     44  N   UNL A   1      41.605  29.618  31.651  1.00  0.00    -0.248 NA
ATOM     45  C   UNL A   1      39.850  28.146  31.982  1.00  0.00     0.031 C 
ATOM     46  C   UNL A   1      40.164  28.316  27.281  1.00  0.00     0.029 A 
ATOM     47  N   UNL A   1      41.911  27.837  28.548  1.00  0.00    -0.354 N 
ATOM     48  C   UNL A   1      41.706  29.060  32.922  1.00  0.00     0.074 A 
ATOM     49  C   UNL A   1      40.477  28.349  33.144  1.00  0.00     0.031 C 
ATOM     50  C   UNL A   1      40.868  27.371  26.622  1.00  0.00     0.029 A 
ATOM     51  C   UNL A   1      42.047  27.059  27.402  1.00  0.00     0.049 A 
ATOM     52  H   UNL A   1      42.604  27.887  29.246  1.00  0.00     0.167 HD
ATOM     53  C   UNL A   1      42.927  28.956  33.517  1.00  0.00     0.037 A 
ATOM     54  C   UNL A   1      43.070  26.219  27.114  1.00  0.00     0.037 A 
ATOM     55  C   UNL A   1      43.899  29.731  32.785  1.00  0.00     0.049 A 
ATOM     56  C   UNL A   1      44.228  26.647  27.930  1.00  0.00     0.074 A 
ATOM     57  C   UNL A   1      44.233  31.060  32.651  1.00  0.00     0.029 A 
ATOM     58  N   UNL A   1      44.407  29.069  31.698  1.00  0.00    -0.354 N 
ATOM     59  N   UNL A   1      44.830  27.794  27.770  1.00  0.00    -0.248 NA
ATOM     60  C   UNL A   1      44.495  25.969  29.193  1.00  0.00     0.031 C 
ATOM     61  C   UNL A   1      44.841  31.190  31.364  1.00  0.00     0.029 A 
ATOM     62  C   UNL A   1      44.916  29.933  30.769  1.00  0.00     0.049 A 
ATOM     63  H   UNL A   1      44.406  28.090  31.599  1.00  0.00     0.167 HD
ATOM     64  C   UNL A   1      45.190  28.170  29.050  1.00  0.00     0.074 A 
ATOM     65  C   UNL A   1      45.124  26.951  29.845  1.00  0.00     0.031 C 
ATOM     66  C   UNL A   1      45.173  29.482  29.420  1.00  0.00     0.037 A 
BRANCH  53  67
ATOM     67  C   UNL A   1      43.388  27.804  34.390  1.00  0.00     0.064 A 
ATOM     68  C   UNL A   1      43.454  26.511  33.823  1.00  0.00     0.173 A 
ATOM     69  C   UNL A   1      43.451  27.844  35.799  1.00  0.00     0.173 A 
ATOM     70  F   UNL A   1      43.389  26.343  32.494  1.00  0.00    -0.203 F 
ATOM     71  C   UNL A   1      43.501  25.355  34.611  1.00  0.00     0.198 A 
ATOM     72  C   UNL A   1      43.547  26.691  36.579  1.00  0.00     0.198 A 
ATOM     73  F   UNL A   1      43.310  28.979  36.491  1.00  0.00    -0.203 F 
ATOM     74  F   UNL A   1      43.440  24.149  34.029  1.00  0.00    -0.200 F 
ATOM     75  C   UNL A   1      43.540  25.447  35.988  1.00  0.00     0.200 A 
ATOM     76  F   UNL A   1      43.561  26.801  37.915  1.00  0.00    -0.200 F 
ATOM     77  F   UNL A   1      43.526  24.343  36.748  1.00  0.00    -0.200 F 
ENDBRANCH  53  67
BRANCH  54  78
ATOM     78  C   UNL A   1      43.037  24.922  26.400  1.00  0.00     0.064 A 
ATOM     79  C   UNL A   1      43.857  24.684  25.285  1.00  0.00     0.173 A 
ATOM     80  C   UNL A   1      42.433  23.794  26.988  1.00  0.00     0.173 A 
ATOM     81  F   UNL A   1      44.497  25.701  24.692  1.00  0.00    -0.203 F 
ATOM     82  C   UNL A   1      44.094  23.389  24.813  1.00  0.00     0.198 A 
ATOM     83  C   UNL A   1      42.669  22.502  26.516  1.00  0.00     0.198 A 
ATOM     84  F   UNL A   1      41.686  23.920  28.095  1.00  0.00    -0.203 F 
ATOM     85  F   UNL A   1      44.938  23.193  23.790  1.00  0.00    -0.200 F 
ATOM     86  C   UNL A   1      43.512  22.298  25.438  1.00  0.00     0.200 A 
ATOM     87  F   UNL A   1      42.134  21.453  27.155  1.00  0.00    -0.200 F 
ATOM     88  F   UNL A   1      43.800  21.052  25.036  1.00  0.00    -0.200 F 
ENDBRANCH  54  78
BRANCH  66  89
ATOM     89  C   UNL A   1      45.285  30.510  28.338  1.00  0.00     0.064 A 
ATOM     90  C   UNL A   1      44.197  31.126  27.698  1.00  0.00     0.173 A 
ATOM     91  C   UNL A   1      46.570  30.945  27.991  1.00  0.00     0.173 A 
ATOM     92  F   UNL A   1      42.937  30.815  28.026  1.00  0.00    -0.203 F 
ATOM     93  C   UNL A   1      44.397  32.108  26.727  1.00  0.00     0.198 A 
ATOM     94  C   UNL A   1      46.766  31.949  27.050  1.00  0.00     0.198 A 
ATOM     95  F   UNL A   1      47.644  30.415  28.599  1.00  0.00    -0.203 F 
ATOM     96  F   UNL A   1      43.345  32.672  26.115  1.00  0.00    -0.200 F 
ATOM     97  C   UNL A   1      45.681  32.524  26.411  1.00  0.00     0.200 A 
ATOM     98  F   UNL A   1      48.008  32.372  26.779  1.00  0.00    -0.200 F 
ATOM     99  F   UNL A   1      45.872  33.491  25.503  1.00  0.00    -0.200 F 
ENDBRANCH  66  89
ENDBRANCH  40  41
ENDBRANCH  32  35
ENDBRANCH  30  31
ENDBRANCH   1  30
TORSDOF 13
ENDMDL
MODEL 2
REMARK VINA RESULT:     -14.6      3.096      9.275
REMARK SMILES Cc1nccn1C1(C(=O)NCCCNC(=O)c2ccc(-c3c4nc(c(-c5c(F)c(F)c(F)c(F)c5F)c5ccc([nH]5)c(-c5c(F)c(F)c(F)c(F)c5F)c5nc(c(-c6c(F)c(F)c(F)c(F)c6F)c6ccc3[nH]6)C=C5)C=C4)cc2)CCN(C(=O)[C@@H]2C[C@H]2c2ccccc2)CC1
REMARK SMILES IDX 12 1 11 2 10 3 8 4 9 5 7 7 80 8 95 9 81 10 94 11 82 12 83 13
REMARK SMILES IDX 84 14 6 15 1 16 2 17 3 18 4 19 5 20 85 21 86 22 87 23 88 24
REMARK SMILES IDX 89 25 93 26 90 27 92 28 91 29 13 30 14 31 15 32 16 34 17 35
REMARK SMILES IDX 18 36 79 37 19 38 78 39 20 40 21 41 22 42 72 43 23 44 77 45
REMARK SMILES IDX 71 46 73 47 24 48 76 49 70 50 69 51 25 53 57 54 37 55 56 56
REMARK SMILES IDX 38 57 41 58 55 59 74 60 39 61 40 62 54 64 75 65 42 66 26 67
REMARK SMILES IDX 27 68 35 69 28 70 29 71 33 72 36 73 30 74 31 75 34 76 32 77
REMARK SMILES IDX 58 78 59 79 67 80 60 81 61 82 65 83 68 84 62 85 63 86 66 87
REMARK SMILES IDX 64 88 43 89 44 90 52 91 45 92 46 93 50 94 53 95 47 96 48 97
REMARK SMILES IDX 51 98 49 99
REMARK H PARENT 10 6 14 33 73 52 41 63
REMARK Flexibility Score: inf
ROOT
ATOM      1  C   UNL A   1      37.895  21.537  25.346  1.00  0.00     0.042 C 
ENDROOT
BRANCH   1   2
ATOM      2  C   UNL A   1      36.438  22.009  25.400  1.00  0.00     0.117 C 
BRANCH   2   3
ATOM      3  N   UNL A   1      35.958  22.591  24.148  1.00  0.00    -0.354 N 
ATOM      4  C   UNL A   1      34.724  22.905  23.647  1.00  0.00     0.246 C 
ATOM      5  O   UNL A   1      34.752  23.185  22.443  1.00  0.00    -0.272 OA
ATOM      6  H   UNL A   1      36.688  22.805  23.525  1.00  0.00     0.163 HD
BRANCH   4   7
ATOM      7  C   UNL A   1      33.385  22.800  24.477  1.00  0.00     0.127 C 
ATOM      8  C   UNL A   1      33.752  23.491  25.829  1.00  0.00     0.061 C 
ATOM      9  C   UNL A   1      32.217  23.441  23.683  1.00  0.00     0.061 C 
ATOM     10  C   UNL A   1      32.913  24.697  26.289  1.00  0.00     0.122 C 
ATOM     11  C   UNL A   1      31.245  24.090  24.639  1.00  0.00     0.122 C 
ATOM     12  N   UNL A   1      31.913  25.160  25.337  1.00  0.00    -0.342 N 
ATOM     13  C   UNL A   1      31.596  26.523  25.329  1.00  0.00     0.226 C 
ATOM     14  O   UNL A   1      32.086  27.275  26.171  1.00  0.00    -0.275 OA
BRANCH   7  15
ATOM     15  N   UNL A   1      32.957  21.359  24.689  1.00  0.00    -0.320 N 
ATOM     16  C   UNL A   1      32.075  20.581  22.352  1.00  0.00     0.087 C 
ATOM     17  C   UNL A   1      32.440  20.423  23.785  1.00  0.00     0.106 A 
ATOM     18  N   UNL A   1      32.347  19.230  24.344  1.00  0.00    -0.242 NA
ATOM     19  C   UNL A   1      32.856  19.341  25.593  1.00  0.00     0.131 A 
ATOM     20  C   UNL A   1      33.287  20.620  25.814  1.00  0.00     0.108 A 
ENDBRANCH   7  15
BRANCH  13  21
ATOM     21  C   UNL A   1      30.742  27.183  24.289  1.00  0.00     0.087 C 
ATOM     22  C   UNL A   1      31.233  27.278  22.862  1.00  0.00     0.023 C 
ATOM     23  C   UNL A   1      30.904  28.524  23.634  1.00  0.00     0.032 C 
BRANCH  23  24
ATOM     24  C   UNL A   1      29.776  29.449  23.305  1.00  0.00    -0.044 A 
ATOM     25  C   UNL A   1      29.819  30.774  23.768  1.00  0.00     0.004 A 
ATOM     26  C   UNL A   1      28.546  28.943  22.860  1.00  0.00     0.004 A 
ATOM     27  C   UNL A   1      28.655  31.530  23.887  1.00  0.00     0.000 A 
ATOM     28  C   UNL A   1      27.380  29.698  22.974  1.00  0.00     0.000 A 
ATOM     29  C   UNL A   1      27.432  30.980  23.515  1.00  0.00     0.000 A 
ENDBRANCH  23  24
ENDBRANCH  13  21
ENDBRANCH   4   7
ENDBRANCH   2   3
ENDBRANCH   1   2
BRANCH   1  30
ATOM     30  C   UNL A   1      38.835  22.363  26.205  1.00  0.00     0.118 C 
BRANCH  30  31
ATOM     31  N   UNL A   1      40.257  22.063  26.000  1.00  0.00    -0.352 N 
ATOM     32  C   UNL A   1      41.320  22.937  26.131  1.00  0.00     0.251 C 
ATOM     33  H   UNL A   1      40.477  21.138  25.742  1.00  0.00     0.163 HD
ATOM     34  O   UNL A   1      42.418  22.691  25.626  1.00  0.00    -0.269 OA
BRANCH  32  35
ATOM     35  C   UNL A   1      41.117  24.174  26.900  1.00  0.00     0.039 A 
ATOM     36  C   UNL A   1      41.570  24.334  28.211  1.00  0.00     0.014 A 
ATOM     37  C   UNL A   1      40.501  25.223  26.226  1.00  0.00     0.014 A 
ATOM     38  C   UNL A   1      41.454  25.590  28.803  1.00  0.00     0.010 A 
ATOM     39  C   UNL A   1      40.608  26.492  26.714  1.00  0.00     0.010 A 
ATOM     40  C   UNL A   1      40.985  26.669  28.033  1.00  0.00    -0.014 A 
BRANCH  40  41
ATOM     41  C   UNL A   1      40.954  28.027  28.551  1.00  0.00     0.031 A 
ATOM     42  C   UNL A   1      42.036  28.885  28.015  1.00  0.00     0.074 A 
ATOM     43  C   UNL A   1      39.913  28.513  29.266  1.00  0.00     0.049 A 
ATOM     44  N   UNL A   1      43.099  29.276  28.632  1.00  0.00    -0.248 NA
ATOM     45  C   UNL A   1      42.038  29.200  26.576  1.00  0.00     0.031 C 
ATOM     46  C   UNL A   1      38.620  27.865  29.536  1.00  0.00     0.029 A 
ATOM     47  N   UNL A   1      39.746  29.744  29.829  1.00  0.00    -0.354 N 
ATOM     48  C   UNL A   1      43.767  30.109  27.738  1.00  0.00     0.074 A 
ATOM     49  C   UNL A   1      43.206  29.836  26.443  1.00  0.00     0.031 C 
ATOM     50  C   UNL A   1      37.733  28.776  29.989  1.00  0.00     0.029 A 
ATOM     51  C   UNL A   1      38.442  30.014  30.235  1.00  0.00     0.049 A 
ATOM     52  H   UNL A   1      40.484  30.386  29.940  1.00  0.00     0.167 HD
ATOM     53  C   UNL A   1      44.468  31.177  28.209  1.00  0.00     0.037 A 
ATOM     54  C   UNL A   1      37.981  31.181  30.747  1.00  0.00     0.037 A 
ATOM     55  C   UNL A   1      44.611  31.080  29.642  1.00  0.00     0.049 A 
ATOM     56  C   UNL A   1      39.152  31.914  31.280  1.00  0.00     0.074 A 
ATOM     57  C   UNL A   1      45.379  30.362  30.530  1.00  0.00     0.029 A 
ATOM     58  N   UNL A   1      43.515  31.539  30.325  1.00  0.00    -0.354 N 
ATOM     59  N   UNL A   1      39.860  31.491  32.292  1.00  0.00    -0.248 NA
ATOM     60  C   UNL A   1      39.784  32.936  30.456  1.00  0.00     0.031 C 
ATOM     61  C   UNL A   1      44.625  30.290  31.742  1.00  0.00     0.029 A 
ATOM     62  C   UNL A   1      43.444  31.011  31.584  1.00  0.00     0.049 A 
ATOM     63  H   UNL A   1      42.859  32.172  29.953  1.00  0.00     0.167 HD
ATOM     64  C   UNL A   1      41.152  31.866  31.982  1.00  0.00     0.074 A 
ATOM     65  C   UNL A   1      41.023  32.891  30.953  1.00  0.00     0.031 C 
ATOM     66  C   UNL A   1      42.209  31.078  32.332  1.00  0.00     0.037 A 
BRANCH  53  67
ATOM     67  C   UNL A   1      44.569  32.533  27.534  1.00  0.00     0.064 A 
ATOM     68  C   UNL A   1      45.686  32.796  26.709  1.00  0.00     0.173 A 
ATOM     69  C   UNL A   1      43.818  33.669  27.905  1.00  0.00     0.173 A 
ATOM     70  F   UNL A   1      46.485  31.798  26.303  1.00  0.00    -0.203 F 
ATOM     71  C   UNL A   1      46.059  34.097  26.354  1.00  0.00     0.198 A 
ATOM     72  C   UNL A   1      44.166  34.960  27.508  1.00  0.00     0.198 A 
ATOM     73  F   UNL A   1      42.788  33.601  28.754  1.00  0.00    -0.203 F 
ATOM     74  F   UNL A   1      47.193  34.302  25.672  1.00  0.00    -0.200 F 
ATOM     75  C   UNL A   1      45.302  35.178  26.760  1.00  0.00     0.200 A 
ATOM     76  F   UNL A   1      43.430  35.998  27.932  1.00  0.00    -0.200 F 
ATOM     77  F   UNL A   1      45.686  36.429  26.472  1.00  0.00    -0.200 F 
ENDBRANCH  53  67
BRANCH  54  78
ATOM     78  C   UNL A   1      36.659  31.821  30.564  1.00  0.00     0.064 A 
ATOM     79  C   UNL A   1      35.826  32.097  31.661  1.00  0.00     0.173 A 
ATOM     80  C   UNL A   1      36.329  32.451  29.349  1.00  0.00     0.173 A 
ATOM     81  F   UNL A   1      36.095  31.565  32.861  1.00  0.00    -0.203 F 
ATOM     82  C   UNL A   1      34.752  32.988  31.558  1.00  0.00     0.198 A 
ATOM     83  C   UNL A   1      35.257  33.339  29.247  1.00  0.00     0.198 A 
ATOM     84  F   UNL A   1      37.105  32.295  28.266  1.00  0.00    -0.203 F 
ATOM     85  F   UNL A   1      34.020  33.282  32.643  1.00  0.00    -0.200 F 
ATOM     86  C   UNL A   1      34.478  33.619  30.356  1.00  0.00     0.200 A 
ATOM     87  F   UNL A   1      35.027  33.975  28.091  1.00  0.00    -0.200 F 
ATOM     88  F   UNL A   1      33.498  34.531  30.276  1.00  0.00    -0.200 F 
ENDBRANCH  54  78
BRANCH  66  89
ATOM     89  C   UNL A   1      42.017  30.127  33.472  1.00  0.00     0.064 A 
ATOM     90  C   UNL A   1      41.662  28.775  33.340  1.00  0.00     0.173 A 
ATOM     91  C   UNL A   1      42.286  30.603  34.761  1.00  0.00     0.173 A 
ATOM     92  F   UNL A   1      41.459  28.229  32.135  1.00  0.00    -0.203 F 
ATOM     93  C   UNL A   1      41.548  27.950  34.459  1.00  0.00     0.198 A 
ATOM     94  C   UNL A   1      42.208  29.770  35.871  1.00  0.00     0.198 A 
ATOM     95  F   UNL A   1      42.665  31.878  34.939  1.00  0.00    -0.203 F 
ATOM     96  F   UNL A   1      41.191  26.665  34.314  1.00  0.00    -0.200 F 
ATOM     97  C   UNL A   1      41.829  28.447  35.722  1.00  0.00     0.200 A 
ATOM     98  F   UNL A   1      42.519  30.248  37.083  1.00  0.00    -0.200 F 
ATOM     99  F   UNL A   1      41.752  27.646  36.794  1.00  0.00    -0.200 F 
ENDBRANCH  66  89
ENDBRANCH  40  41
ENDBRANCH  32  35
ENDBRANCH  30  31
ENDBRANCH   1  30
TORSDOF 13
ENDMDL
MODEL 3
REMARK VINA RESULT:     -14.2      2.971      9.123
REMARK SMILES Cc1nccn1C1(C(=O)NCCCNC(=O)c2ccc(-c3c4nc(c(-c5c(F)c(F)c(F)c(F)c5F)c5ccc([nH]5)c(-c5c(F)c(F)c(F)c(F)c5F)c5nc(c(-c6c(F)c(F)c(F)c(F)c6F)c6ccc3[nH]6)C=C5)C=C4)cc2)CCN(C(=O)[C@@H]2C[C@H]2c2ccccc2)CC1
REMARK SMILES IDX 12 1 11 2 10 3 8 4 9 5 7 7 80 8 95 9 81 10 94 11 82 12 83 13
REMARK SMILES IDX 84 14 6 15 1 16 2 17 3 18 4 19 5 20 85 21 86 22 87 23 88 24
REMARK SMILES IDX 89 25 93 26 90 27 92 28 91 29 13 30 14 31 15 32 16 34 17 35
REMARK SMILES IDX 18 36 79 37 19 38 78 39 20 40 21 41 22 42 72 43 23 44 77 45
REMARK SMILES IDX 71 46 73 47 24 48 76 49 70 50 69 51 25 53 57 54 37 55 56 56
REMARK SMILES IDX 38 57 41 58 55 59 74 60 39 61 40 62 54 64 75 65 42 66 26 67
REMARK SMILES IDX 27 68 35 69 28 70 29 71 33 72 36 73 30 74 31 75 34 76 32 77
REMARK SMILES IDX 58 78 59 79 67 80 60 81 61 82 65 83 68 84 62 85 63 86 66 87
REMARK SMILES IDX 64 88 43 89 44 90 52 91 45 92 46 93 50 94 53 95 47 96 48 97
REMARK SMILES IDX 51 98 49 99
REMARK H PARENT 10 6 14 33 73 52 41 63
REMARK Flexibility Score: inf
ROOT
ATOM      1  C   UNL A   1      36.598  22.687  25.811  1.00  0.00     0.042 C 
ENDROOT
BRANCH   1   2
ATOM      2  C   UNL A   1      35.971  22.075  24.553  1.00  0.00     0.117 C 
BRANCH   2   3
ATOM      3  N   UNL A   1      35.507  23.063  23.583  1.00  0.00    -0.354 N 
ATOM      4  C   UNL A   1      34.328  23.728  23.378  1.00  0.00     0.246 C 
ATOM      5  O   UNL A   1      34.296  24.326  22.297  1.00  0.00    -0.272 OA
ATOM      6  H   UNL A   1      36.200  23.306  22.928  1.00  0.00     0.163 HD
BRANCH   4   7
ATOM      7  C   UNL A   1      33.090  23.643  24.354  1.00  0.00     0.127 C 
ATOM      8  C   UNL A   1      33.570  24.446  25.605  1.00  0.00     0.061 C 
ATOM      9  C   UNL A   1      31.819  24.182  23.648  1.00  0.00     0.061 C 
ATOM     10  C   UNL A   1      32.735  25.655  26.066  1.00  0.00     0.122 C 
ATOM     11  C   UNL A   1      30.928  24.870  24.655  1.00  0.00     0.122 C 
ATOM     12  N   UNL A   1      31.622  26.012  25.197  1.00  0.00    -0.342 N 
ATOM     13  C   UNL A   1      31.250  27.359  25.126  1.00  0.00     0.226 C 
ATOM     14  O   UNL A   1      31.796  28.188  25.853  1.00  0.00    -0.275 OA
BRANCH   7  15
ATOM     15  N   UNL A   1      32.747  22.209  24.715  1.00  0.00    -0.320 N 
ATOM     16  C   UNL A   1      32.100  21.092  22.439  1.00  0.00     0.087 C 
ATOM     17  C   UNL A   1      32.365  21.134  23.901  1.00  0.00     0.106 A 
ATOM     18  N   UNL A   1      32.310  20.013  24.598  1.00  0.00    -0.242 NA
ATOM     19  C   UNL A   1      32.715  20.311  25.855  1.00  0.00     0.131 A 
ATOM     20  C   UNL A   1      33.039  21.636  25.943  1.00  0.00     0.108 A 
ENDBRANCH   7  15
BRANCH  13  21
ATOM     21  C   UNL A   1      30.265  27.909  24.140  1.00  0.00     0.087 C 
ATOM     22  C   UNL A   1      30.409  27.585  22.671  1.00  0.00     0.023 C 
ATOM     23  C   UNL A   1      30.435  29.013  23.137  1.00  0.00     0.032 C 
BRANCH  23  24
ATOM     24  C   UNL A   1      29.390  30.029  22.808  1.00  0.00    -0.044 A 
ATOM     25  C   UNL A   1      28.956  30.162  21.479  1.00  0.00     0.004 A 
ATOM     26  C   UNL A   1      29.096  31.066  23.707  1.00  0.00     0.004 A 
ATOM     27  C   UNL A   1      28.350  31.335  21.036  1.00  0.00     0.000 A 
ATOM     28  C   UNL A   1      28.486  32.240  23.268  1.00  0.00     0.000 A 
ATOM     29  C   UNL A   1      28.141  32.385  21.927  1.00  0.00     0.000 A 
ENDBRANCH  23  24
ENDBRANCH  13  21
ENDBRANCH   4   7
ENDBRANCH   2   3
ENDBRANCH   1   2
BRANCH   1  30
ATOM     30  C   UNL A   1      38.079  22.985  25.670  1.00  0.00     0.118 C 
BRANCH  30  31
ATOM     31  N   UNL A   1      38.944  22.132  26.493  1.00  0.00    -0.352 N 
ATOM     32  C   UNL A   1      40.090  22.512  27.168  1.00  0.00     0.251 C 
ATOM     33  H   UNL A   1      38.680  21.187  26.572  1.00  0.00     0.163 HD
ATOM     34  O   UNL A   1      40.916  21.679  27.548  1.00  0.00    -0.269 OA
BRANCH  32  35
ATOM     35  C   UNL A   1      40.301  23.942  27.436  1.00  0.00     0.039 A 
ATOM     36  C   UNL A   1      39.327  24.912  27.186  1.00  0.00     0.014 A 
ATOM     37  C   UNL A   1      41.513  24.286  28.024  1.00  0.00     0.014 A 
ATOM     38  C   UNL A   1      39.571  26.218  27.605  1.00  0.00     0.010 A 
ATOM     39  C   UNL A   1      41.645  25.495  28.640  1.00  0.00     0.010 A 
ATOM     40  C   UNL A   1      40.732  26.493  28.349  1.00  0.00    -0.014 A 
BRANCH  40  41
ATOM     41  C   UNL A   1      40.986  27.806  28.920  1.00  0.00     0.031 A 
ATOM     42  C   UNL A   1      42.212  28.448  28.393  1.00  0.00     0.074 A 
ATOM     43  C   UNL A   1      40.075  28.463  29.674  1.00  0.00     0.049 A 
ATOM     44  N   UNL A   1      43.340  28.589  29.002  1.00  0.00    -0.248 NA
ATOM     45  C   UNL A   1      42.259  28.816  26.967  1.00  0.00     0.031 C 
ATOM     46  C   UNL A   1      38.681  28.080  29.947  1.00  0.00     0.029 A 
ATOM     47  N   UNL A   1      40.169  29.678  30.288  1.00  0.00    -0.354 N 
ATOM     48  C   UNL A   1      44.152  29.306  28.126  1.00  0.00     0.074 A 
ATOM     49  C   UNL A   1      43.530  29.207  26.834  1.00  0.00     0.031 C 
ATOM     50  C   UNL A   1      38.004  29.133  30.454  1.00  0.00     0.029 A 
ATOM     51  C   UNL A   1      38.953  30.190  30.732  1.00  0.00     0.049 A 
ATOM     52  H   UNL A   1      41.024  30.151  30.407  1.00  0.00     0.167 HD
ATOM     53  C   UNL A   1      45.062  30.189  28.623  1.00  0.00     0.037 A 
ATOM     54  C   UNL A   1      38.747  31.403  31.299  1.00  0.00     0.037 A 
ATOM     55  C   UNL A   1      45.202  30.005  30.047  1.00  0.00     0.049 A 
ATOM     56  C   UNL A   1      40.049  31.860  31.834  1.00  0.00     0.074 A 
ATOM     57  C   UNL A   1      45.820  29.109  30.890  1.00  0.00     0.029 A 
ATOM     58  N   UNL A   1      44.232  30.647  30.770  1.00  0.00    -0.354 N 
ATOM     59  N   UNL A   1      40.670  31.260  32.813  1.00  0.00    -0.248 NA
ATOM     60  C   UNL A   1      40.865  32.767  31.035  1.00  0.00     0.031 C 
ATOM     61  C   UNL A   1      45.083  29.141  32.114  1.00  0.00     0.029 A 
ATOM     62  C   UNL A   1      44.072  30.093  32.010  1.00  0.00     0.049 A 
ATOM     63  H   UNL A   1      43.714  31.415  30.438  1.00  0.00     0.167 HD
ATOM     64  C   UNL A   1      42.008  31.378  32.489  1.00  0.00     0.074 A 
ATOM     65  C   UNL A   1      42.076  32.450  31.504  1.00  0.00     0.031 C 
ATOM     66  C   UNL A   1      42.886  30.378  32.786  1.00  0.00     0.037 A 
BRANCH  53  67
ATOM     67  C   UNL A   1      45.429  31.523  27.998  1.00  0.00     0.064 A 
ATOM     68  C   UNL A   1      44.393  32.433  27.691  1.00  0.00     0.173 A 
ATOM     69  C   UNL A   1      46.675  31.810  27.401  1.00  0.00     0.173 A 
ATOM     70  F   UNL A   1      43.159  32.257  28.188  1.00  0.00    -0.203 F 
ATOM     71  C   UNL A   1      44.576  33.495  26.799  1.00  0.00     0.198 A 
ATOM     72  C   UNL A   1      46.866  32.900  26.550  1.00  0.00     0.198 A 
ATOM     73  F   UNL A   1      47.730  30.998  27.517  1.00  0.00    -0.203 F 
ATOM     74  F   UNL A   1      43.532  34.259  26.447  1.00  0.00    -0.200 F 
ATOM     75  C   UNL A   1      45.811  33.723  26.224  1.00  0.00     0.200 A 
ATOM     76  F   UNL A   1      48.067  33.089  25.985  1.00  0.00    -0.200 F 
ATOM     77  F   UNL A   1      45.977  34.702  25.325  1.00  0.00    -0.200 F 
ENDBRANCH  53  67
BRANCH  54  78
ATOM     78  C   UNL A   1      37.581  32.305  31.169  1.00  0.00     0.064 A 
ATOM     79  C   UNL A   1      37.333  33.007  29.977  1.00  0.00     0.173 A 
ATOM     80  C   UNL A   1      36.525  32.251  32.098  1.00  0.00     0.173 A 
ATOM     81  F   UNL A   1      38.275  33.072  29.026  1.00  0.00    -0.203 F 
ATOM     82  C   UNL A   1      36.085  33.583  29.713  1.00  0.00     0.198 A 
ATOM     83  C   UNL A   1      35.280  32.827  31.834  1.00  0.00     0.198 A 
ATOM     84  F   UNL A   1      36.651  31.550  33.234  1.00  0.00    -0.203 F 
ATOM     85  F   UNL A   1      35.862  34.184  28.536  1.00  0.00    -0.200 F 
ATOM     86  C   UNL A   1      35.056  33.478  30.634  1.00  0.00     0.200 A 
ATOM     87  F   UNL A   1      34.281  32.684  32.715  1.00  0.00    -0.200 F 
ATOM     88  F   UNL A   1      33.839  33.962  30.349  1.00  0.00    -0.200 F 
ENDBRANCH  54  78
BRANCH  66  89
ATOM     89  C   UNL A   1      42.520  29.438  33.893  1.00  0.00     0.064 A 
ATOM     90  C   UNL A   1      41.864  28.209  33.720  1.00  0.00     0.173 A 
ATOM     91  C   UNL A   1      42.929  29.777  35.188  1.00  0.00     0.173 A 
ATOM     92  F   UNL A   1      41.506  27.783  32.502  1.00  0.00    -0.203 F 
ATOM     93  C   UNL A   1      41.601  27.376  34.807  1.00  0.00     0.198 A 
ATOM     94  C   UNL A   1      42.699  28.929  36.265  1.00  0.00     0.198 A 
ATOM     95  F   UNL A   1      43.592  30.924  35.403  1.00  0.00    -0.203 F 
ATOM     96  F   UNL A   1      40.959  26.213  34.625  1.00  0.00    -0.200 F 
ATOM     97  C   UNL A   1      42.026  27.733  36.077  1.00  0.00     0.200 A 
ATOM     98  F   UNL A   1      43.148  29.264  37.482  1.00  0.00    -0.200 F 
ATOM     99  F   UNL A   1      41.804  26.918  37.117  1.00  0.00    -0.200 F 
ENDBRANCH  66  89
ENDBRANCH  40  41
ENDBRANCH  32  35
ENDBRANCH  30  31
ENDBRANCH   1  30
TORSDOF 13
ENDMDL
