MODEL 1
REMARK VINA RESULT:     -11.4      0.000      0.000
REMARK SMILES O=C(COCCNC(=O)c1cc(Cl)c2c(c1)OCCO2)NCCCNC(=O)c1ccc(-c2c3nc(c(-c4c(F)c(F)c(F)c(F)c4F)c4ccc([nH]4)c(-c4c(F)c(F)c(F)c(F)c4F)c4nc(c(-c5c(F)c(F)c(F)c(F)c5F)c5ccc2[nH]5)C=C4)C=C3)cc1
REMARK SMILES IDX 1 1 2 2 21 3 3 5 4 6 5 7 6 8 7 9 8 10 9 12 10 13 11 14 16 15
REMARK SMILES IDX 12 16 15 17 13 18 14 19 17 20 20 21 18 22 19 23 22 24 23 25
REMARK SMILES IDX 24 26 25 27 26 28 27 30 28 31 29 32 90 33 30 34 89 35 31 36
REMARK SMILES IDX 32 37 33 38 83 39 34 40 88 41 82 42 84 43 35 44 87 45 81 46
REMARK SMILES IDX 80 47 36 49 68 50 48 51 67 52 49 53 52 54 66 55 85 56 50 57
REMARK SMILES IDX 51 58 65 60 86 61 53 62 37 63 38 64 46 65 39 66 40 67 44 68
REMARK SMILES IDX 47 69 41 70 42 71 45 72 43 73 69 74 70 75 78 76 71 77 72 78
REMARK SMILES IDX 76 79 79 80 73 81 74 82 77 83 75 84 54 85 55 86 63 87 56 88
REMARK SMILES IDX 57 89 61 90 64 91 58 92 59 93 62 94 60 95
REMARK H PARENT 21 4 7 11 25 29 84 48 52 59
REMARK Flexibility Score: inf
ROOT
ATOM      1  O   UNL A   1      32.644  35.007  30.045  1.00  0.00    -0.272 OA
ATOM      2  C   UNL A   1      33.353  35.890  29.577  1.00  0.00     0.245 C 
ATOM      3  N   UNL A   1      34.272  35.688  28.570  1.00  0.00    -0.354 N 
ATOM      4  H   UNL A   1      34.757  36.466  28.209  1.00  0.00     0.163 HD
ENDROOT
BRANCH   2   5
ATOM      5  C   UNL A   1      33.258  37.354  30.014  1.00  0.00     0.260 C 
BRANCH   5   6
ATOM      6  O   UNL A   1      32.903  37.569  31.374  1.00  0.00    -0.370 OA
BRANCH   6   7
ATOM      7  C   UNL A   1      33.991  37.566  32.306  1.00  0.00     0.182 C 
BRANCH   7   8
ATOM      8  C   UNL A   1      33.772  36.670  33.532  1.00  0.00     0.144 C 
BRANCH   8   9
ATOM      9  N   UNL A   1      33.391  35.303  33.188  1.00  0.00    -0.350 N 
ATOM     10  C   UNL A   1      34.138  34.157  33.112  1.00  0.00     0.251 C 
ATOM     11  H   UNL A   1      32.438  35.185  32.976  1.00  0.00     0.163 HD
ATOM     12  O   UNL A   1      33.654  33.137  32.632  1.00  0.00    -0.269 OA
BRANCH  10  13
ATOM     13  C   UNL A   1      35.525  34.119  33.609  1.00  0.00     0.045 A 
ATOM     14  C   UNL A   1      35.793  33.838  34.951  1.00  0.00     0.038 A 
ATOM     15  C   UNL A   1      36.571  34.261  32.694  1.00  0.00     0.064 A 
ATOM     16  C   UNL A   1      37.115  33.765  35.390  1.00  0.00     0.087 A 
ATOM     17  C   UNL A   1      37.891  34.183  33.138  1.00  0.00     0.163 A 
ATOM     18  Cl  UNL A   1      37.399  33.451  37.064  1.00  0.00    -0.080 Cl
ATOM     19  C   UNL A   1      38.172  33.927  34.486  1.00  0.00     0.179 A 
ATOM     20  O   UNL A   1      38.861  34.355  32.183  1.00  0.00    -0.486 OA
ATOM     21  O   UNL A   1      39.458  33.832  34.961  1.00  0.00    -0.485 OA
ATOM     22  C   UNL A   1      40.151  34.574  32.764  1.00  0.00     0.271 C 
ATOM     23  C   UNL A   1      40.399  33.610  33.908  1.00  0.00     0.271 C 
ENDBRANCH  10  13
ENDBRANCH   8   9
ENDBRANCH   7   8
ENDBRANCH   6   7
ENDBRANCH   5   6
ENDBRANCH   2   5
BRANCH   3  24
ATOM     24  C   UNL A   1      34.551  34.381  28.021  1.00  0.00     0.117 C 
BRANCH  24  25
ATOM     25  C   UNL A   1      35.674  33.663  28.758  1.00  0.00     0.042 C 
BRANCH  25  26
ATOM     26  C   UNL A   1      35.191  32.521  29.645  1.00  0.00     0.118 C 
BRANCH  26  27
ATOM     27  N   UNL A   1      34.404  31.533  28.919  1.00  0.00    -0.352 N 
ATOM     28  C   UNL A   1      34.812  30.368  28.317  1.00  0.00     0.251 C 
ATOM     29  H   UNL A   1      33.442  31.729  28.851  1.00  0.00     0.163 HD
ATOM     30  O   UNL A   1      34.038  29.724  27.620  1.00  0.00    -0.269 OA
BRANCH  28  31
ATOM     31  C   UNL A   1      36.202  29.907  28.496  1.00  0.00     0.039 A 
ATOM     32  C   UNL A   1      37.106  30.070  27.444  1.00  0.00     0.014 A 
ATOM     33  C   UNL A   1      36.610  29.330  29.703  1.00  0.00     0.014 A 
ATOM     34  C   UNL A   1      38.442  29.708  27.625  1.00  0.00     0.010 A 
ATOM     35  C   UNL A   1      37.953  29.026  29.901  1.00  0.00     0.010 A 
ATOM     36  C   UNL A   1      38.878  29.208  28.862  1.00  0.00    -0.014 A 
BRANCH  36  37
ATOM     37  C   UNL A   1      40.299  28.845  29.071  1.00  0.00     0.031 A 
ATOM     38  C   UNL A   1      41.214  29.796  29.785  1.00  0.00     0.074 A 
ATOM     39  C   UNL A   1      40.768  27.676  28.595  1.00  0.00     0.049 A 
ATOM     40  N   UNL A   1      42.483  29.661  30.074  1.00  0.00    -0.248 NA
ATOM     41  C   UNL A   1      40.632  31.077  30.218  1.00  0.00     0.031 C 
ATOM     42  C   UNL A   1      39.981  26.691  27.853  1.00  0.00     0.029 A 
ATOM     43  N   UNL A   1      42.020  27.119  28.666  1.00  0.00    -0.354 N 
ATOM     44  C   UNL A   1      42.845  30.829  30.728  1.00  0.00     0.074 A 
ATOM     45  C   UNL A   1      41.683  31.691  30.737  1.00  0.00     0.031 C 
ATOM     46  C   UNL A   1      40.763  25.638  27.560  1.00  0.00     0.029 A 
ATOM     47  C   UNL A   1      42.108  25.885  28.073  1.00  0.00     0.049 A 
ATOM     48  H   UNL A   1      42.784  27.564  29.101  1.00  0.00     0.167 HD
ATOM     49  C   UNL A   1      44.031  31.140  31.300  1.00  0.00     0.037 A 
ATOM     50  C   UNL A   1      43.156  25.046  27.962  1.00  0.00     0.037 A 
ATOM     51  C   UNL A   1      45.178  30.276  31.303  1.00  0.00     0.049 A 
ATOM     52  C   UNL A   1      44.477  25.435  28.569  1.00  0.00     0.074 A 
ATOM     53  C   UNL A   1      46.407  30.476  31.906  1.00  0.00     0.029 A 
ATOM     54  N   UNL A   1      45.238  29.043  30.669  1.00  0.00    -0.354 N 
ATOM     55  N   UNL A   1      44.788  26.510  29.253  1.00  0.00    -0.248 NA
ATOM     56  C   UNL A   1      45.594  24.495  28.389  1.00  0.00     0.031 C 
ATOM     57  C   UNL A   1      47.225  29.384  31.602  1.00  0.00     0.029 A 
ATOM     58  C   UNL A   1      46.494  28.486  30.841  1.00  0.00     0.049 A 
ATOM     59  H   UNL A   1      44.498  28.629  30.169  1.00  0.00     0.167 HD
ATOM     60  C   UNL A   1      46.123  26.368  29.601  1.00  0.00     0.074 A 
ATOM     61  C   UNL A   1      46.564  25.096  29.065  1.00  0.00     0.031 C 
ATOM     62  C   UNL A   1      46.913  27.218  30.302  1.00  0.00     0.037 A 
BRANCH  49  63
ATOM     63  C   UNL A   1      44.140  32.464  31.994  1.00  0.00     0.064 A 
ATOM     64  C   UNL A   1      44.469  33.630  31.285  1.00  0.00     0.173 A 
ATOM     65  C   UNL A   1      43.865  32.581  33.364  1.00  0.00     0.173 A 
ATOM     66  F   UNL A   1      44.752  33.566  29.976  1.00  0.00    -0.203 F 
ATOM     67  C   UNL A   1      44.539  34.862  31.928  1.00  0.00     0.198 A 
ATOM     68  C   UNL A   1      43.911  33.820  33.998  1.00  0.00     0.198 A 
ATOM     69  F   UNL A   1      43.542  31.497  34.084  1.00  0.00    -0.203 F 
ATOM     70  F   UNL A   1      44.891  35.956  31.239  1.00  0.00    -0.200 F 
ATOM     71  C   UNL A   1      44.251  34.958  33.281  1.00  0.00     0.200 A 
ATOM     72  F   UNL A   1      43.622  33.913  35.304  1.00  0.00    -0.200 F 
ATOM     73  F   UNL A   1      44.307  36.147  33.897  1.00  0.00    -0.200 F 
ENDBRANCH  49  63
BRANCH  50  74
ATOM     74  C   UNL A   1      42.985  23.736  27.285  1.00  0.00     0.064 A 
ATOM     75  C   UNL A   1      43.404  23.554  25.960  1.00  0.00     0.173 A 
ATOM     76  C   UNL A   1      42.412  22.639  27.945  1.00  0.00     0.173 A 
ATOM     77  F   UNL A   1      43.938  24.581  25.282  1.00  0.00    -0.203 F 
ATOM     78  C   UNL A   1      43.250  22.328  25.318  1.00  0.00     0.198 A 
ATOM     79  C   UNL A   1      42.278  21.406  27.308  1.00  0.00     0.198 A 
ATOM     80  F   UNL A   1      41.994  22.762  29.213  1.00  0.00    -0.203 F 
ATOM     81  F   UNL A   1      43.632  22.191  24.041  1.00  0.00    -0.200 F 
ATOM     82  C   UNL A   1      42.694  21.254  25.994  1.00  0.00     0.200 A 
ATOM     83  F   UNL A   1      41.748  20.367  27.968  1.00  0.00    -0.200 F 
ATOM     84  F   UNL A   1      42.552  20.072  25.377  1.00  0.00    -0.200 F 
ENDBRANCH  50  74
BRANCH  62  85
ATOM     85  C   UNL A   1      48.336  26.811  30.540  1.00  0.00     0.064 A 
ATOM     86  C   UNL A   1      48.681  25.965  31.603  1.00  0.00     0.173 A 
ATOM     87  C   UNL A   1      49.345  27.188  29.642  1.00  0.00     0.173 A 
ATOM     88  F   UNL A   1      47.753  25.590  32.496  1.00  0.00    -0.203 F 
ATOM     89  C   UNL A   1      49.988  25.512  31.760  1.00  0.00     0.198 A 
ATOM     90  C   UNL A   1      50.645  26.712  29.786  1.00  0.00     0.198 A 
ATOM     91  F   UNL A   1      49.062  27.990  28.603  1.00  0.00    -0.203 F 
ATOM     92  F   UNL A   1      50.301  24.719  32.794  1.00  0.00    -0.200 F 
ATOM     93  C   UNL A   1      50.965  25.876  30.845  1.00  0.00     0.200 A 
ATOM     94  F   UNL A   1      51.585  27.052  28.893  1.00  0.00    -0.200 F 
ATOM     95  F   UNL A   1      52.218  25.418  30.983  1.00  0.00    -0.200 F 
ENDBRANCH  62  85
ENDBRANCH  36  37
ENDBRANCH  28  31
ENDBRANCH  26  27
ENDBRANCH  25  26
ENDBRANCH  24  25
ENDBRANCH   3  24
TORSDOF 15
ENDMDL
MODEL 2
REMARK VINA RESULT:     -11.1      0.863      1.655
REMARK SMILES O=C(COCCNC(=O)c1cc(Cl)c2c(c1)OCCO2)NCCCNC(=O)c1ccc(-c2c3nc(c(-c4c(F)c(F)c(F)c(F)c4F)c4ccc([nH]4)c(-c4c(F)c(F)c(F)c(F)c4F)c4nc(c(-c5c(F)c(F)c(F)c(F)c5F)c5ccc2[nH]5)C=C4)C=C3)cc1
REMARK SMILES IDX 1 1 2 2 21 3 3 5 4 6 5 7 6 8 7 9 8 10 9 12 10 13 11 14 16 15
REMARK SMILES IDX 12 16 15 17 13 18 14 19 17 20 20 21 18 22 19 23 22 24 23 25
REMARK SMILES IDX 24 26 25 27 26 28 27 30 28 31 29 32 90 33 30 34 89 35 31 36
REMARK SMILES IDX 32 37 33 38 83 39 34 40 88 41 82 42 84 43 35 44 87 45 81 46
REMARK SMILES IDX 80 47 36 49 68 50 48 51 67 52 49 53 52 54 66 55 85 56 50 57
REMARK SMILES IDX 51 58 65 60 86 61 53 62 37 63 38 64 46 65 39 66 40 67 44 68
REMARK SMILES IDX 47 69 41 70 42 71 45 72 43 73 69 74 70 75 78 76 71 77 72 78
REMARK SMILES IDX 76 79 79 80 73 81 74 82 77 83 75 84 54 85 55 86 63 87 56 88
REMARK SMILES IDX 57 89 61 90 64 91 58 92 59 93 62 94 60 95
REMARK H PARENT 21 4 7 11 25 29 84 48 52 59
REMARK Flexibility Score: inf
ROOT
ATOM      1  O   UNL A   1      32.662  34.704  29.986  1.00  0.00    -0.272 OA
ATOM      2  C   UNL A   1      33.297  35.631  29.496  1.00  0.00     0.245 C 
ATOM      3  N   UNL A   1      34.062  35.522  28.355  1.00  0.00    -0.354 N 
ATOM      4  H   UNL A   1      34.491  36.332  27.994  1.00  0.00     0.163 HD
ENDROOT
BRANCH   2   5
ATOM      5  C   UNL A   1      33.268  37.052  30.063  1.00  0.00     0.260 C 
BRANCH   5   6
ATOM      6  O   UNL A   1      32.688  37.190  31.353  1.00  0.00    -0.370 OA
BRANCH   6   7
ATOM      7  C   UNL A   1      33.557  37.699  32.372  1.00  0.00     0.182 C 
BRANCH   7   8
ATOM      8  C   UNL A   1      34.295  36.620  33.174  1.00  0.00     0.144 C 
BRANCH   8   9
ATOM      9  N   UNL A   1      33.588  35.342  33.209  1.00  0.00    -0.350 N 
ATOM     10  C   UNL A   1      34.051  34.059  33.080  1.00  0.00     0.251 C 
ATOM     11  H   UNL A   1      32.618  35.415  33.350  1.00  0.00     0.163 HD
ATOM     12  O   UNL A   1      33.261  33.128  32.966  1.00  0.00    -0.269 OA
BRANCH  10  13
ATOM     13  C   UNL A   1      35.496  33.768  33.086  1.00  0.00     0.045 A 
ATOM     14  C   UNL A   1      36.251  33.886  31.917  1.00  0.00     0.038 A 
ATOM     15  C   UNL A   1      36.118  33.477  34.303  1.00  0.00     0.064 A 
ATOM     16  C   UNL A   1      37.626  33.647  31.956  1.00  0.00     0.087 A 
ATOM     17  C   UNL A   1      37.493  33.242  34.336  1.00  0.00     0.163 A 
ATOM     18  Cl  UNL A   1      38.513  33.769  30.480  1.00  0.00    -0.080 Cl
ATOM     19  C   UNL A   1      38.256  33.333  33.165  1.00  0.00     0.179 A 
ATOM     20  O   UNL A   1      38.025  32.941  35.564  1.00  0.00    -0.486 OA
ATOM     21  O   UNL A   1      39.614  33.120  33.158  1.00  0.00    -0.485 OA
ATOM     22  C   UNL A   1      39.351  32.413  35.458  1.00  0.00     0.271 C 
ATOM     23  C   UNL A   1      40.175  33.216  34.470  1.00  0.00     0.271 C 
ENDBRANCH  10  13
ENDBRANCH   8   9
ENDBRANCH   7   8
ENDBRANCH   6   7
ENDBRANCH   5   6
ENDBRANCH   2   5
BRANCH   3  24
ATOM     24  C   UNL A   1      34.257  34.268  27.664  1.00  0.00     0.117 C 
BRANCH  24  25
ATOM     25  C   UNL A   1      35.361  33.422  28.286  1.00  0.00     0.042 C 
BRANCH  25  26
ATOM     26  C   UNL A   1      34.845  32.330  29.217  1.00  0.00     0.118 C 
BRANCH  26  27
ATOM     27  N   UNL A   1      34.239  31.215  28.500  1.00  0.00    -0.352 N 
ATOM     28  C   UNL A   1      34.831  30.089  27.983  1.00  0.00     0.251 C 
ATOM     29  H   UNL A   1      33.266  31.278  28.368  1.00  0.00     0.163 HD
ATOM     30  O   UNL A   1      34.192  29.317  27.279  1.00  0.00    -0.269 OA
BRANCH  28  31
ATOM     31  C   UNL A   1      36.256  29.825  28.264  1.00  0.00     0.039 A 
ATOM     32  C   UNL A   1      36.611  29.305  29.510  1.00  0.00     0.014 A 
ATOM     33  C   UNL A   1      37.231  30.079  27.294  1.00  0.00     0.014 A 
ATOM     34  C   UNL A   1      37.944  28.980  29.764  1.00  0.00     0.010 A 
ATOM     35  C   UNL A   1      38.548  29.699  27.526  1.00  0.00     0.010 A 
ATOM     36  C   UNL A   1      38.916  29.151  28.764  1.00  0.00    -0.014 A 
BRANCH  36  37
ATOM     37  C   UNL A   1      40.329  28.785  29.016  1.00  0.00     0.031 A 
ATOM     38  C   UNL A   1      41.224  29.731  29.761  1.00  0.00     0.074 A 
ATOM     39  C   UNL A   1      40.811  27.617  28.549  1.00  0.00     0.049 A 
ATOM     40  N   UNL A   1      42.483  29.593  30.089  1.00  0.00    -0.248 NA
ATOM     41  C   UNL A   1      40.630  31.011  30.181  1.00  0.00     0.031 C 
ATOM     42  C   UNL A   1      40.046  26.636  27.779  1.00  0.00     0.029 A 
ATOM     43  N   UNL A   1      42.059  27.058  28.657  1.00  0.00    -0.354 N 
ATOM     44  C   UNL A   1      42.826  30.758  30.759  1.00  0.00     0.074 A 
ATOM     45  C   UNL A   1      41.666  31.621  30.736  1.00  0.00     0.031 C 
ATOM     46  C   UNL A   1      40.835  25.583  27.506  1.00  0.00     0.029 A 
ATOM     47  C   UNL A   1      42.164  25.826  28.061  1.00  0.00     0.049 A 
ATOM     48  H   UNL A   1      42.810  27.499  29.117  1.00  0.00     0.167 HD
ATOM     49  C   UNL A   1      43.994  31.064  31.369  1.00  0.00     0.037 A 
ATOM     50  C   UNL A   1      43.214  24.986  27.979  1.00  0.00     0.037 A 
ATOM     51  C   UNL A   1      45.140  30.198  31.404  1.00  0.00     0.049 A 
ATOM     52  C   UNL A   1      44.516  25.370  28.628  1.00  0.00     0.074 A 
ATOM     53  C   UNL A   1      46.349  30.393  32.045  1.00  0.00     0.029 A 
ATOM     54  N   UNL A   1      45.216  28.968  30.766  1.00  0.00    -0.354 N 
ATOM     55  N   UNL A   1      44.807  26.441  29.325  1.00  0.00    -0.248 NA
ATOM     56  C   UNL A   1      45.636  24.429  28.478  1.00  0.00     0.031 C 
ATOM     57  C   UNL A   1      47.174  29.302  31.761  1.00  0.00     0.029 A 
ATOM     58  C   UNL A   1      46.466  28.408  30.974  1.00  0.00     0.049 A 
ATOM     59  H   UNL A   1      44.492  28.557  30.242  1.00  0.00     0.167 HD
ATOM     60  C   UNL A   1      46.131  26.296  29.714  1.00  0.00     0.074 A 
ATOM     61  C   UNL A   1      46.586  25.026  29.187  1.00  0.00     0.031 C 
ATOM     62  C   UNL A   1      46.900  27.141  30.443  1.00  0.00     0.037 A 
BRANCH  49  63
ATOM     63  C   UNL A   1      44.083  32.385  32.071  1.00  0.00     0.064 A 
ATOM     64  C   UNL A   1      43.696  32.521  33.414  1.00  0.00     0.173 A 
ATOM     65  C   UNL A   1      44.605  33.511  31.419  1.00  0.00     0.173 A 
ATOM     66  F   UNL A   1      43.180  31.475  34.076  1.00  0.00    -0.203 F 
ATOM     67  C   UNL A   1      43.810  33.742  34.070  1.00  0.00     0.198 A 
ATOM     68  C   UNL A   1      44.741  34.725  32.087  1.00  0.00     0.198 A 
ATOM     69  F   UNL A   1      44.992  33.431  30.137  1.00  0.00    -0.203 F 
ATOM     70  F   UNL A   1      43.400  33.859  35.341  1.00  0.00    -0.200 F 
ATOM     71  C   UNL A   1      44.340  34.840  33.410  1.00  0.00     0.200 A 
ATOM     72  F   UNL A   1      45.263  35.783  31.451  1.00  0.00    -0.200 F 
ATOM     73  F   UNL A   1      44.460  36.014  34.047  1.00  0.00    -0.200 F 
ENDBRANCH  49  63
BRANCH  50  74
ATOM     74  C   UNL A   1      43.061  23.679  27.291  1.00  0.00     0.064 A 
ATOM     75  C   UNL A   1      43.505  23.507  25.973  1.00  0.00     0.173 A 
ATOM     76  C   UNL A   1      42.482  22.575  27.935  1.00  0.00     0.173 A 
ATOM     77  F   UNL A   1      44.046  24.541  25.310  1.00  0.00    -0.203 F 
ATOM     78  C   UNL A   1      43.369  22.284  25.321  1.00  0.00     0.198 A 
ATOM     79  C   UNL A   1      42.367  21.346  27.288  1.00  0.00     0.198 A 
ATOM     80  F   UNL A   1      42.042  22.688  29.196  1.00  0.00    -0.203 F 
ATOM     81  F   UNL A   1      43.774  22.157  24.050  1.00  0.00    -0.200 F 
ATOM     82  C   UNL A   1      42.806  21.203  25.981  1.00  0.00     0.200 A 
ATOM     83  F   UNL A   1      41.831  20.300  27.932  1.00  0.00    -0.200 F 
ATOM     84  F   UNL A   1      42.681  20.025  25.354  1.00  0.00    -0.200 F 
ENDBRANCH  50  74
BRANCH  62  85
ATOM     85  C   UNL A   1      48.314  26.731  30.723  1.00  0.00     0.064 A 
ATOM     86  C   UNL A   1      48.624  25.880  31.792  1.00  0.00     0.173 A 
ATOM     87  C   UNL A   1      49.351  27.111  29.859  1.00  0.00     0.173 A 
ATOM     88  F   UNL A   1      47.668  25.501  32.654  1.00  0.00    -0.203 F 
ATOM     89  C   UNL A   1      49.925  25.423  31.987  1.00  0.00     0.198 A 
ATOM     90  C   UNL A   1      50.646  26.633  30.041  1.00  0.00     0.198 A 
ATOM     91  F   UNL A   1      49.101  27.919  28.816  1.00  0.00    -0.203 F 
ATOM     92  F   UNL A   1      50.205  24.625  33.026  1.00  0.00    -0.200 F 
ATOM     93  C   UNL A   1      50.931  25.790  31.105  1.00  0.00     0.200 A 
ATOM     94  F   UNL A   1      51.613  26.976  29.180  1.00  0.00    -0.200 F 
ATOM     95  F   UNL A   1      52.178  25.330  31.280  1.00  0.00    -0.200 F 
ENDBRANCH  62  85
ENDBRANCH  36  37
ENDBRANCH  28  31
ENDBRANCH  26  27
ENDBRANCH  25  26
ENDBRANCH  24  25
ENDBRANCH   3  24
TORSDOF 15
ENDMDL
MODEL 3
REMARK VINA RESULT:     -11.0      1.376      2.051
REMARK SMILES O=C(COCCNC(=O)c1cc(Cl)c2c(c1)OCCO2)NCCCNC(=O)c1ccc(-c2c3nc(c(-c4c(F)c(F)c(F)c(F)c4F)c4ccc([nH]4)c(-c4c(F)c(F)c(F)c(F)c4F)c4nc(c(-c5c(F)c(F)c(F)c(F)c5F)c5ccc2[nH]5)C=C4)C=C3)cc1
REMARK SMILES IDX 1 1 2 2 21 3 3 5 4 6 5 7 6 8 7 9 8 10 9 12 10 13 11 14 16 15
REMARK SMILES IDX 12 16 15 17 13 18 14 19 17 20 20 21 18 22 19 23 22 24 23 25
REMARK SMILES IDX 24 26 25 27 26 28 27 30 28 31 29 32 90 33 30 34 89 35 31 36
REMARK SMILES IDX 32 37 33 38 83 39 34 40 88 41 82 42 84 43 35 44 87 45 81 46
REMARK SMILES IDX 80 47 36 49 68 50 48 51 67 52 49 53 52 54 66 55 85 56 50 57
REMARK SMILES IDX 51 58 65 60 86 61 53 62 37 63 38 64 46 65 39 66 40 67 44 68
REMARK SMILES IDX 47 69 41 70 42 71 45 72 43 73 69 74 70 75 78 76 71 77 72 78
REMARK SMILES IDX 76 79 79 80 73 81 74 82 77 83 75 84 54 85 55 86 63 87 56 88
REMARK SMILES IDX 57 89 61 90 64 91 58 92 59 93 62 94 60 95
REMARK H PARENT 21 4 7 11 25 29 84 48 52 59
REMARK Flexibility Score: inf
ROOT
ATOM      1  O   UNL A   1      33.090  37.117  29.625  1.00  0.00    -0.272 OA
ATOM      2  C   UNL A   1      32.869  36.110  30.286  1.00  0.00     0.245 C 
ATOM      3  N   UNL A   1      32.998  34.826  29.801  1.00  0.00    -0.354 N 
ATOM      4  H   UNL A   1      32.860  34.071  30.419  1.00  0.00     0.163 HD
ENDROOT
BRANCH   2   5
ATOM      5  C   UNL A   1      32.479  36.153  31.766  1.00  0.00     0.260 C 
BRANCH   5   6
ATOM      6  O   UNL A   1      33.561  36.186  32.687  1.00  0.00    -0.370 OA
BRANCH   6   7
ATOM      7  C   UNL A   1      34.105  34.910  33.049  1.00  0.00     0.182 C 
BRANCH   7   8
ATOM      8  C   UNL A   1      35.633  34.886  33.175  1.00  0.00     0.144 C 
BRANCH   8   9
ATOM      9  N   UNL A   1      36.317  34.725  31.894  1.00  0.00    -0.350 N 
ATOM     10  C   UNL A   1      37.377  33.934  31.539  1.00  0.00     0.251 C 
ATOM     11  H   UNL A   1      35.955  35.277  31.165  1.00  0.00     0.163 HD
ATOM     12  O   UNL A   1      37.914  34.079  30.444  1.00  0.00    -0.269 OA
BRANCH  10  13
ATOM     13  C   UNL A   1      37.889  32.893  32.448  1.00  0.00     0.045 A 
ATOM     14  C   UNL A   1      37.459  31.570  32.329  1.00  0.00     0.038 A 
ATOM     15  C   UNL A   1      38.891  33.232  33.362  1.00  0.00     0.064 A 
ATOM     16  C   UNL A   1      37.989  30.593  33.173  1.00  0.00     0.087 A 
ATOM     17  C   UNL A   1      39.419  32.251  34.201  1.00  0.00     0.163 A 
ATOM     18  Cl  UNL A   1      37.403  28.976  33.014  1.00  0.00    -0.080 Cl
ATOM     19  C   UNL A   1      38.978  30.924  34.107  1.00  0.00     0.179 A 
ATOM     20  O   UNL A   1      40.383  32.666  35.084  1.00  0.00    -0.486 OA
ATOM     21  O   UNL A   1      39.481  29.927  34.907  1.00  0.00    -0.485 OA
ATOM     22  C   UNL A   1      40.634  31.690  36.100  1.00  0.00     0.271 C 
ATOM     23  C   UNL A   1      40.728  30.299  35.501  1.00  0.00     0.271 C 
ENDBRANCH  10  13
ENDBRANCH   8   9
ENDBRANCH   7   8
ENDBRANCH   6   7
ENDBRANCH   5   6
ENDBRANCH   2   5
BRANCH   3  24
ATOM     24  C   UNL A   1      33.329  34.543  28.424  1.00  0.00     0.117 C 
BRANCH  24  25
ATOM     25  C   UNL A   1      34.706  33.911  28.270  1.00  0.00     0.042 C 
BRANCH  25  26
ATOM     26  C   UNL A   1      34.868  32.602  29.034  1.00  0.00     0.118 C 
BRANCH  26  27
ATOM     27  N   UNL A   1      34.096  31.509  28.456  1.00  0.00    -0.352 N 
ATOM     28  C   UNL A   1      34.525  30.285  28.005  1.00  0.00     0.251 C 
ATOM     29  H   UNL A   1      33.129  31.672  28.378  1.00  0.00     0.163 HD
ATOM     30  O   UNL A   1      33.760  29.537  27.411  1.00  0.00    -0.269 OA
BRANCH  28  31
ATOM     31  C   UNL A   1      35.929  29.884  28.221  1.00  0.00     0.039 A 
ATOM     32  C   UNL A   1      36.852  30.082  27.191  1.00  0.00     0.014 A 
ATOM     33  C   UNL A   1      36.330  29.328  29.439  1.00  0.00     0.014 A 
ATOM     34  C   UNL A   1      38.196  29.778  27.407  1.00  0.00     0.010 A 
ATOM     35  C   UNL A   1      37.679  29.082  29.673  1.00  0.00     0.010 A 
ATOM     36  C   UNL A   1      38.622  29.300  28.657  1.00  0.00    -0.014 A 
BRANCH  36  37
ATOM     37  C   UNL A   1      40.051  28.998  28.903  1.00  0.00     0.031 A 
ATOM     38  C   UNL A   1      40.909  29.993  29.628  1.00  0.00     0.074 A 
ATOM     39  C   UNL A   1      40.579  27.845  28.451  1.00  0.00     0.049 A 
ATOM     40  N   UNL A   1      42.175  29.914  29.948  1.00  0.00    -0.248 NA
ATOM     41  C   UNL A   1      40.265  31.253  30.033  1.00  0.00     0.031 C 
ATOM     42  C   UNL A   1      39.852  26.821  27.701  1.00  0.00     0.029 A 
ATOM     43  N   UNL A   1      41.851  27.341  28.557  1.00  0.00    -0.354 N 
ATOM     44  C   UNL A   1      42.473  31.102  30.598  1.00  0.00     0.074 A 
ATOM     45  C   UNL A   1      41.277  31.915  30.571  1.00  0.00     0.031 C 
ATOM     46  C   UNL A   1      40.683  25.798  27.438  1.00  0.00     0.029 A 
ATOM     47  C   UNL A   1      42.004  26.106  27.979  1.00  0.00     0.049 A 
ATOM     48  H   UNL A   1      42.585  27.821  29.005  1.00  0.00     0.167 HD
ATOM     49  C   UNL A   1      43.631  31.467  31.195  1.00  0.00     0.037 A 
ATOM     50  C   UNL A   1      43.088  25.310  27.902  1.00  0.00     0.037 A 
ATOM     51  C   UNL A   1      44.813  30.651  31.234  1.00  0.00     0.049 A 
ATOM     52  C   UNL A   1      44.377  25.759  28.535  1.00  0.00     0.074 A 
ATOM     53  C   UNL A   1      46.017  30.908  31.863  1.00  0.00     0.029 A 
ATOM     54  N   UNL A   1      44.938  29.416  30.614  1.00  0.00    -0.354 N 
ATOM     55  N   UNL A   1      44.627  26.852  29.215  1.00  0.00    -0.248 NA
ATOM     56  C   UNL A   1      45.535  24.865  28.392  1.00  0.00     0.031 C 
ATOM     57  C   UNL A   1      46.886  29.848  31.590  1.00  0.00     0.029 A 
ATOM     58  C   UNL A   1      46.211  28.913  30.822  1.00  0.00     0.049 A 
ATOM     59  H   UNL A   1      44.228  28.966  30.102  1.00  0.00     0.167 HD
ATOM     60  C   UNL A   1      45.958  26.769  29.596  1.00  0.00     0.074 A 
ATOM     61  C   UNL A   1      46.464  25.512  29.084  1.00  0.00     0.031 C 
ATOM     62  C   UNL A   1      46.695  27.658  30.306  1.00  0.00     0.037 A 
BRANCH  49  63
ATOM     63  C   UNL A   1      43.669  32.802  31.877  1.00  0.00     0.064 A 
ATOM     64  C   UNL A   1      43.894  33.982  31.151  1.00  0.00     0.173 A 
ATOM     65  C   UNL A   1      43.429  32.911  33.254  1.00  0.00     0.173 A 
ATOM     66  F   UNL A   1      44.141  33.926  29.833  1.00  0.00    -0.203 F 
ATOM     67  C   UNL A   1      43.898  35.220  31.784  1.00  0.00     0.198 A 
ATOM     68  C   UNL A   1      43.407  34.154  33.879  1.00  0.00     0.198 A 
ATOM     69  F   UNL A   1      43.204  31.812  33.990  1.00  0.00    -0.203 F 
ATOM     70  F   UNL A   1      44.152  36.331  31.078  1.00  0.00    -0.200 F 
ATOM     71  C   UNL A   1      43.646  35.307  33.144  1.00  0.00     0.200 A 
ATOM     72  F   UNL A   1      43.153  34.238  35.192  1.00  0.00    -0.200 F 
ATOM     73  F   UNL A   1      43.638  36.502  33.751  1.00  0.00    -0.200 F 
ENDBRANCH  49  63
BRANCH  50  74
ATOM     74  C   UNL A   1      42.987  23.987  27.235  1.00  0.00     0.064 A 
ATOM     75  C   UNL A   1      43.311  23.843  25.879  1.00  0.00     0.173 A 
ATOM     76  C   UNL A   1      42.577  22.843  27.935  1.00  0.00     0.173 A 
ATOM     77  F   UNL A   1      43.687  24.914  25.164  1.00  0.00    -0.203 F 
ATOM     78  C   UNL A   1      43.222  22.605  25.246  1.00  0.00     0.198 A 
ATOM     79  C   UNL A   1      42.510  21.601  27.305  1.00  0.00     0.198 A 
ATOM     80  F   UNL A   1      42.256  22.929  29.233  1.00  0.00    -0.203 F 
ATOM     81  F   UNL A   1      43.509  22.502  23.941  1.00  0.00    -0.200 F 
ATOM     82  C   UNL A   1      42.828  21.485  25.960  1.00  0.00     0.200 A 
ATOM     83  F   UNL A   1      42.138  20.519  28.001  1.00  0.00    -0.200 F 
ATOM     84  F   UNL A   1      42.749  20.294  25.351  1.00  0.00    -0.200 F 
ENDBRANCH  50  74
BRANCH  62  85
ATOM     85  C   UNL A   1      48.128  27.313  30.582  1.00  0.00     0.064 A 
ATOM     86  C   UNL A   1      49.158  27.769  29.748  1.00  0.00     0.173 A 
ATOM     87  C   UNL A   1      48.480  26.606  31.741  1.00  0.00     0.173 A 
ATOM     88  F   UNL A   1      48.869  28.437  28.622  1.00  0.00    -0.203 F 
ATOM     89  C   UNL A   1      50.492  27.529  30.065  1.00  0.00     0.198 A 
ATOM     90  C   UNL A   1      49.816  26.390  32.068  1.00  0.00     0.198 A 
ATOM     91  F   UNL A   1      47.529  26.156  32.574  1.00  0.00    -0.203 F 
ATOM     92  F   UNL A   1      51.461  27.958  29.245  1.00  0.00    -0.200 F 
ATOM     93  C   UNL A   1      50.819  26.851  31.230  1.00  0.00     0.200 A 
ATOM     94  F   UNL A   1      50.131  25.747  33.202  1.00  0.00    -0.200 F 
ATOM     95  F   UNL A   1      52.106  26.642  31.546  1.00  0.00    -0.200 F 
ENDBRANCH  62  85
ENDBRANCH  36  37
ENDBRANCH  28  31
ENDBRANCH  26  27
ENDBRANCH  25  26
ENDBRANCH  24  25
ENDBRANCH   3  24
TORSDOF 15
ENDMDL
