MODEL 1
REMARK VINA RESULT:     -12.4      0.000      0.000
REMARK SMILES CN(C)C(=O)c1ccc(N[C@@H]2CCC[C@H]2C(=O)NCCCNC(=O)c2ccc(-c3c4nc(c(-c5c(F)c(F)c(F)c(F)c5F)c5ccc([nH]5)c(-c5c(F)c(F)c(F)c(F)c5F)c5nc(c(-c6c(F)c(F)c(F)c(F)c6F)c6ccc3[nH]6)C=C5)C=C4)cc2)nc1
REMARK SMILES IDX 19 1 18 2 16 3 17 4 15 6 11 7 12 8 13 9 14 10 10 11 9 13
REMARK SMILES IDX 6 14 7 15 89 16 8 17 88 18 4 19 1 20 2 21 3 22 5 23 20 24
REMARK SMILES IDX 21 25 22 26 23 27 24 29 25 30 26 31 87 32 27 33 86 34 28 35
REMARK SMILES IDX 29 36 30 37 80 38 31 39 85 40 79 41 81 42 32 43 84 44 78 45
REMARK SMILES IDX 77 46 33 48 65 49 45 50 64 51 46 52 49 53 63 54 82 55 47 56
REMARK SMILES IDX 48 57 62 59 83 60 50 61 34 62 35 63 43 64 36 65 37 66 41 67
REMARK SMILES IDX 44 68 38 69 39 70 42 71 40 72 66 73 67 74 75 75 68 76 69 77
REMARK SMILES IDX 73 78 76 79 70 80 71 81 74 82 72 83 51 84 52 85 60 86 53 87
REMARK SMILES IDX 54 88 58 89 61 90 55 91 56 92 59 93 57 94
REMARK H PARENT 18 5 10 12 22 28 81 47 49 58
REMARK Flexibility Score: inf
ROOT
ATOM      1  C   UNL A   1      31.528  30.345  26.238  1.00  0.00     0.117 C 
ENDROOT
BRANCH   1   2
ATOM      2  N   UNL A   1      32.458  30.077  25.159  1.00  0.00    -0.356 N 
ATOM      3  C   UNL A   1      33.040  28.930  24.732  1.00  0.00     0.225 C 
ATOM      4  O   UNL A   1      33.872  29.048  23.827  1.00  0.00    -0.275 OA
ATOM      5  H   UNL A   1      32.713  30.874  24.642  1.00  0.00     0.163 HD
BRANCH   3   6
ATOM      6  C   UNL A   1      32.711  27.566  25.309  1.00  0.00     0.101 C 
ATOM      7  C   UNL A   1      31.836  26.693  24.404  1.00  0.00     0.093 C 
ATOM      8  C   UNL A   1      32.184  25.254  24.780  1.00  0.00     0.026 C 
ATOM      9  C   UNL A   1      33.664  25.305  25.138  1.00  0.00     0.003 C 
ATOM     10  C   UNL A   1      33.931  26.712  25.673  1.00  0.00     0.016 C 
BRANCH   7  11
ATOM     11  N   UNL A   1      30.408  26.993  24.442  1.00  0.00    -0.367 N 
ATOM     12  H   UNL A   1      29.845  26.522  25.099  1.00  0.00     0.162 HD
BRANCH  11  13
ATOM     13  C   UNL A   1      29.811  27.912  23.596  1.00  0.00     0.126 A 
ATOM     14  C   UNL A   1      28.602  29.772  21.958  1.00  0.00     0.058 A 
ATOM     15  C   UNL A   1      27.804  28.958  22.752  1.00  0.00     0.019 A 
ATOM     16  C   UNL A   1      29.970  29.597  22.007  1.00  0.00     0.127 A 
ATOM     17  C   UNL A   1      28.421  28.028  23.592  1.00  0.00     0.047 A 
ATOM     18  N   UNL A   1      30.577  28.707  22.824  1.00  0.00    -0.239 NA
BRANCH  14  19
ATOM     19  C   UNL A   1      28.072  30.810  21.064  1.00  0.00     0.254 C 
ATOM     20  C   UNL A   1      27.653  33.141  20.529  1.00  0.00     0.146 C 
ATOM     21  N   UNL A   1      28.122  32.141  21.471  1.00  0.00    -0.345 N 
ATOM     22  C   UNL A   1      28.770  32.609  22.688  1.00  0.00     0.146 C 
ATOM     23  O   UNL A   1      27.656  30.453  19.963  1.00  0.00    -0.269 OA
ENDBRANCH  14  19
ENDBRANCH  11  13
ENDBRANCH   7  11
ENDBRANCH   3   6
ENDBRANCH   1   2
BRANCH   1  24
ATOM     24  C   UNL A   1      31.389  31.840  26.496  1.00  0.00     0.042 C 
BRANCH  24  25
ATOM     25  C   UNL A   1      32.626  32.472  27.123  1.00  0.00     0.118 C 
BRANCH  25  26
ATOM     26  N   UNL A   1      32.421  33.870  27.475  1.00  0.00    -0.352 N 
ATOM     27  C   UNL A   1      33.002  34.623  28.463  1.00  0.00     0.251 C 
ATOM     28  H   UNL A   1      31.764  34.348  26.919  1.00  0.00     0.163 HD
ATOM     29  O   UNL A   1      32.541  35.733  28.737  1.00  0.00    -0.269 OA
BRANCH  27  30
ATOM     30  C   UNL A   1      34.163  34.106  29.212  1.00  0.00     0.039 A 
ATOM     31  C   UNL A   1      33.944  33.280  30.319  1.00  0.00     0.014 A 
ATOM     32  C   UNL A   1      35.465  34.442  28.837  1.00  0.00     0.014 A 
ATOM     33  C   UNL A   1      35.033  32.738  31.004  1.00  0.00     0.010 A 
ATOM     34  C   UNL A   1      36.546  33.828  29.460  1.00  0.00     0.010 A 
ATOM     35  C   UNL A   1      36.342  32.977  30.556  1.00  0.00    -0.014 A 
BRANCH  35  36
ATOM     36  C   UNL A   1      37.513  32.356  31.221  1.00  0.00     0.031 A 
ATOM     37  C   UNL A   1      38.281  31.263  30.530  1.00  0.00     0.074 A 
ATOM     38  C   UNL A   1      37.845  32.727  32.472  1.00  0.00     0.049 A 
ATOM     39  N   UNL A   1      39.286  30.548  30.970  1.00  0.00    -0.248 NA
ATOM     40  C   UNL A   1      37.839  30.906  29.174  1.00  0.00     0.031 C 
ATOM     41  C   UNL A   1      37.155  33.748  33.261  1.00  0.00     0.029 A 
ATOM     42  N   UNL A   1      38.844  32.284  33.301  1.00  0.00    -0.354 N 
ATOM     43  C   UNL A   1      39.586  29.653  29.951  1.00  0.00     0.074 A 
ATOM     44  C   UNL A   1      38.613  29.867  28.901  1.00  0.00     0.031 C 
ATOM     45  C   UNL A   1      37.774  33.880  34.445  1.00  0.00     0.029 A 
ATOM     46  C   UNL A   1      38.875  32.924  34.515  1.00  0.00     0.049 A 
ATOM     47  H   UNL A   1      39.479  31.575  33.049  1.00  0.00     0.167 HD
ATOM     48  C   UNL A   1      40.597  28.755  29.885  1.00  0.00     0.037 A 
ATOM     49  C   UNL A   1      39.698  32.755  35.568  1.00  0.00     0.037 A 
ATOM     50  C   UNL A   1      41.567  28.553  30.928  1.00  0.00     0.049 A 
ATOM     51  C   UNL A   1      40.786  31.720  35.487  1.00  0.00     0.074 A 
ATOM     52  C   UNL A   1      42.658  27.701  30.943  1.00  0.00     0.029 A 
ATOM     53  N   UNL A   1      41.558  29.212  32.150  1.00  0.00    -0.354 N 
ATOM     54  N   UNL A   1      41.101  30.922  34.497  1.00  0.00    -0.248 NA
ATOM     55  C   UNL A   1      41.636  31.564  36.677  1.00  0.00     0.031 C 
ATOM     56  C   UNL A   1      43.277  27.805  32.194  1.00  0.00     0.029 A 
ATOM     57  C   UNL A   1      42.608  28.765  32.938  1.00  0.00     0.049 A 
ATOM     58  H   UNL A   1      40.903  29.896  32.419  1.00  0.00     0.167 HD
ATOM     59  C   UNL A   1      42.204  30.196  34.926  1.00  0.00     0.074 A 
ATOM     60  C   UNL A   1      42.509  30.656  36.265  1.00  0.00     0.031 C 
ATOM     61  C   UNL A   1      42.903  29.238  34.267  1.00  0.00     0.037 A 
BRANCH  48  62
ATOM     62  C   UNL A   1      40.692  27.919  28.638  1.00  0.00     0.064 A 
ATOM     63  C   UNL A   1      40.018  26.692  28.520  1.00  0.00     0.173 A 
ATOM     64  C   UNL A   1      41.468  28.345  27.550  1.00  0.00     0.173 A 
ATOM     65  F   UNL A   1      39.271  26.231  29.534  1.00  0.00    -0.203 F 
ATOM     66  C   UNL A   1      40.158  25.902  27.381  1.00  0.00     0.198 A 
ATOM     67  C   UNL A   1      41.576  27.570  26.398  1.00  0.00     0.198 A 
ATOM     68  F   UNL A   1      42.128  29.511  27.603  1.00  0.00    -0.203 F 
ATOM     69  F   UNL A   1      39.564  24.703  27.323  1.00  0.00    -0.200 F 
ATOM     70  C   UNL A   1      40.934  26.343  26.320  1.00  0.00     0.200 A 
ATOM     71  F   UNL A   1      42.313  28.004  25.366  1.00  0.00    -0.200 F 
ATOM     72  F   UNL A   1      41.070  25.581  25.226  1.00  0.00    -0.200 F 
ENDBRANCH  48  62
BRANCH  49  73
ATOM     73  C   UNL A   1      39.551  33.618  36.768  1.00  0.00     0.064 A 
ATOM     74  C   UNL A   1      40.206  34.856  36.839  1.00  0.00     0.173 A 
ATOM     75  C   UNL A   1      38.755  33.238  37.858  1.00  0.00     0.173 A 
ATOM     76  F   UNL A   1      40.994  35.254  35.830  1.00  0.00    -0.203 F 
ATOM     77  C   UNL A   1      40.082  35.674  37.960  1.00  0.00     0.198 A 
ATOM     78  C   UNL A   1      38.610  34.069  38.967  1.00  0.00     0.198 A 
ATOM     79  F   UNL A   1      38.103  32.066  37.837  1.00  0.00    -0.203 F 
ATOM     80  F   UNL A   1      40.750  36.833  38.018  1.00  0.00    -0.200 F 
ATOM     81  C   UNL A   1      39.278  35.283  39.020  1.00  0.00     0.200 A 
ATOM     82  F   UNL A   1      37.819  33.694  39.983  1.00  0.00    -0.200 F 
ATOM     83  F   UNL A   1      39.152  36.072  40.095  1.00  0.00    -0.200 F 
ENDBRANCH  49  73
BRANCH  61  84
ATOM     84  C   UNL A   1      44.094  28.651  34.970  1.00  0.00     0.064 A 
ATOM     85  C   UNL A   1      45.360  29.251  34.905  1.00  0.00     0.173 A 
ATOM     86  C   UNL A   1      43.955  27.494  35.752  1.00  0.00     0.173 A 
ATOM     87  F   UNL A   1      45.550  30.349  34.159  1.00  0.00    -0.203 F 
ATOM     88  C   UNL A   1      46.449  28.698  35.574  1.00  0.00     0.198 A 
ATOM     89  C   UNL A   1      45.038  26.962  36.445  1.00  0.00     0.198 A 
ATOM     90  F   UNL A   1      42.764  26.884  35.852  1.00  0.00    -0.203 F 
ATOM     91  F   UNL A   1      47.660  29.258  35.456  1.00  0.00    -0.200 F 
ATOM     92  C   UNL A   1      46.285  27.560  36.350  1.00  0.00     0.200 A 
ATOM     93  F   UNL A   1      44.874  25.872  37.207  1.00  0.00    -0.200 F 
ATOM     94  F   UNL A   1      47.332  27.034  37.001  1.00  0.00    -0.200 F 
ENDBRANCH  61  84
ENDBRANCH  35  36
ENDBRANCH  27  30
ENDBRANCH  25  26
ENDBRANCH  24  25
ENDBRANCH   1  24
TORSDOF 13
ENDMDL
MODEL 2
REMARK VINA RESULT:     -12.4      1.741      7.698
REMARK SMILES CN(C)C(=O)c1ccc(N[C@@H]2CCC[C@H]2C(=O)NCCCNC(=O)c2ccc(-c3c4nc(c(-c5c(F)c(F)c(F)c(F)c5F)c5ccc([nH]5)c(-c5c(F)c(F)c(F)c(F)c5F)c5nc(c(-c6c(F)c(F)c(F)c(F)c6F)c6ccc3[nH]6)C=C5)C=C4)cc2)nc1
REMARK SMILES IDX 19 1 18 2 16 3 17 4 15 6 11 7 12 8 13 9 14 10 10 11 9 13
REMARK SMILES IDX 6 14 7 15 89 16 8 17 88 18 4 19 1 20 2 21 3 22 5 23 20 24
REMARK SMILES IDX 21 25 22 26 23 27 24 29 25 30 26 31 87 32 27 33 86 34 28 35
REMARK SMILES IDX 29 36 30 37 80 38 31 39 85 40 79 41 81 42 32 43 84 44 78 45
REMARK SMILES IDX 77 46 33 48 65 49 45 50 64 51 46 52 49 53 63 54 82 55 47 56
REMARK SMILES IDX 48 57 62 59 83 60 50 61 34 62 35 63 43 64 36 65 37 66 41 67
REMARK SMILES IDX 44 68 38 69 39 70 42 71 40 72 66 73 67 74 75 75 68 76 69 77
REMARK SMILES IDX 73 78 76 79 70 80 71 81 74 82 72 83 51 84 52 85 60 86 53 87
REMARK SMILES IDX 54 88 58 89 61 90 55 91 56 92 59 93 57 94
REMARK H PARENT 18 5 10 12 22 28 81 47 49 58
REMARK Flexibility Score: inf
ROOT
ATOM      1  C   UNL A   1      31.927  27.474  26.690  1.00  0.00     0.117 C 
ENDROOT
BRANCH   1   2
ATOM      2  N   UNL A   1      32.859  27.199  25.615  1.00  0.00    -0.356 N 
ATOM      3  C   UNL A   1      33.096  26.080  24.888  1.00  0.00     0.225 C 
ATOM      4  O   UNL A   1      34.037  26.140  24.091  1.00  0.00    -0.275 OA
ATOM      5  H   UNL A   1      33.424  27.967  25.369  1.00  0.00     0.163 HD
BRANCH   3   6
ATOM      6  C   UNL A   1      32.272  24.813  25.020  1.00  0.00     0.101 C 
ATOM      7  C   UNL A   1      31.088  24.727  24.054  1.00  0.00     0.093 C 
ATOM      8  C   UNL A   1      30.847  23.233  23.849  1.00  0.00     0.026 C 
ATOM      9  C   UNL A   1      32.236  22.614  23.921  1.00  0.00     0.003 C 
ATOM     10  C   UNL A   1      33.063  23.512  24.841  1.00  0.00     0.016 C 
BRANCH   7  11
ATOM     11  N   UNL A   1      29.901  25.476  24.456  1.00  0.00    -0.367 N 
ATOM     12  H   UNL A   1      29.360  25.135  25.205  1.00  0.00     0.162 HD
BRANCH  11  13
ATOM     13  C   UNL A   1      29.502  26.645  23.829  1.00  0.00     0.126 A 
ATOM     14  C   UNL A   1      28.694  28.996  22.636  1.00  0.00     0.058 A 
ATOM     15  C   UNL A   1      27.742  28.198  23.259  1.00  0.00     0.019 A 
ATOM     16  C   UNL A   1      30.004  28.562  22.621  1.00  0.00     0.127 A 
ATOM     17  C   UNL A   1      28.158  27.016  23.876  1.00  0.00     0.047 A 
ATOM     18  N   UNL A   1      30.418  27.426  23.224  1.00  0.00    -0.239 NA
BRANCH  14  19
ATOM     19  C   UNL A   1      28.384  30.277  21.986  1.00  0.00     0.254 C 
ATOM     20  C   UNL A   1      28.316  32.703  22.001  1.00  0.00     0.146 C 
ATOM     21  N   UNL A   1      28.566  31.457  22.702  1.00  0.00    -0.345 N 
ATOM     22  C   UNL A   1      29.153  31.536  24.031  1.00  0.00     0.146 C 
ATOM     23  O   UNL A   1      28.029  30.245  20.810  1.00  0.00    -0.269 OA
ENDBRANCH  14  19
ENDBRANCH  11  13
ENDBRANCH   7  11
ENDBRANCH   3   6
ENDBRANCH   1   2
BRANCH   1  24
ATOM     24  C   UNL A   1      31.737  28.972  26.896  1.00  0.00     0.042 C 
BRANCH  24  25
ATOM     25  C   UNL A   1      32.748  29.827  26.141  1.00  0.00     0.118 C 
BRANCH  25  26
ATOM     26  N   UNL A   1      32.631  31.243  26.462  1.00  0.00    -0.352 N 
ATOM     27  C   UNL A   1      33.353  32.009  27.339  1.00  0.00     0.251 C 
ATOM     28  H   UNL A   1      31.924  31.724  25.973  1.00  0.00     0.163 HD
ATOM     29  O   UNL A   1      32.964  33.143  27.626  1.00  0.00    -0.269 OA
BRANCH  27  30
ATOM     30  C   UNL A   1      34.583  31.477  27.958  1.00  0.00     0.039 A 
ATOM     31  C   UNL A   1      35.685  32.323  28.115  1.00  0.00     0.014 A 
ATOM     32  C   UNL A   1      34.659  30.145  28.371  1.00  0.00     0.014 A 
ATOM     33  C   UNL A   1      36.835  31.850  28.748  1.00  0.00     0.010 A 
ATOM     34  C   UNL A   1      35.767  29.703  29.084  1.00  0.00     0.010 A 
ATOM     35  C   UNL A   1      36.871  30.548  29.272  1.00  0.00    -0.014 A 
BRANCH  35  36
ATOM     36  C   UNL A   1      38.054  30.043  30.013  1.00  0.00     0.031 A 
ATOM     37  C   UNL A   1      38.317  30.508  31.418  1.00  0.00     0.074 A 
ATOM     38  C   UNL A   1      38.925  29.222  29.399  1.00  0.00     0.049 A 
ATOM     39  N   UNL A   1      39.329  30.241  32.206  1.00  0.00    -0.248 NA
ATOM     40  C   UNL A   1      37.325  31.420  32.006  1.00  0.00     0.031 C 
ATOM     41  C   UNL A   1      38.800  28.731  28.026  1.00  0.00     0.029 A 
ATOM     42  N   UNL A   1      40.093  28.658  29.848  1.00  0.00    -0.354 N 
ATOM     43  C   UNL A   1      39.100  30.959  33.371  1.00  0.00     0.074 A 
ATOM     44  C   UNL A   1      37.891  31.727  33.163  1.00  0.00     0.031 C 
ATOM     45  C   UNL A   1      39.827  27.910  27.758  1.00  0.00     0.029 A 
ATOM     46  C   UNL A   1      40.706  27.853  28.922  1.00  0.00     0.049 A 
ATOM     47  H   UNL A   1      40.456  28.817  30.749  1.00  0.00     0.167 HD
ATOM     48  C   UNL A   1      39.814  30.956  34.522  1.00  0.00     0.037 A 
ATOM     49  C   UNL A   1      41.852  27.148  29.003  1.00  0.00     0.037 A 
ATOM     50  C   UNL A   1      41.010  30.182  34.727  1.00  0.00     0.049 A 
ATOM     51  C   UNL A   1      42.651  27.196  30.276  1.00  0.00     0.074 A 
ATOM     52  C   UNL A   1      41.784  30.072  35.869  1.00  0.00     0.029 A 
ATOM     53  N   UNL A   1      41.608  29.386  33.760  1.00  0.00    -0.354 N 
ATOM     54  N   UNL A   1      42.394  27.828  31.394  1.00  0.00    -0.248 NA
ATOM     55  C   UNL A   1      43.904  26.427  30.295  1.00  0.00     0.031 C 
ATOM     56  C   UNL A   1      42.881  29.253  35.576  1.00  0.00     0.029 A 
ATOM     57  C   UNL A   1      42.758  28.803  34.270  1.00  0.00     0.049 A 
ATOM     58  H   UNL A   1      41.267  29.254  32.846  1.00  0.00     0.167 HD
ATOM     59  C   UNL A   1      43.430  27.508  32.262  1.00  0.00     0.074 A 
ATOM     60  C   UNL A   1      44.315  26.616  31.541  1.00  0.00     0.031 C 
ATOM     61  C   UNL A   1      43.626  27.912  33.541  1.00  0.00     0.037 A 
BRANCH  48  62
ATOM     62  C   UNL A   1      39.316  31.828  35.641  1.00  0.00     0.064 A 
ATOM     63  C   UNL A   1      39.755  33.154  35.794  1.00  0.00     0.173 A 
ATOM     64  C   UNL A   1      38.395  31.334  36.577  1.00  0.00     0.173 A 
ATOM     65  F   UNL A   1      40.644  33.674  34.934  1.00  0.00    -0.203 F 
ATOM     66  C   UNL A   1      39.329  33.933  36.866  1.00  0.00     0.198 A 
ATOM     67  C   UNL A   1      37.942  32.129  37.627  1.00  0.00     0.198 A 
ATOM     68  F   UNL A   1      37.936  30.078  36.477  1.00  0.00    -0.203 F 
ATOM     69  F   UNL A   1      39.818  35.170  37.030  1.00  0.00    -0.200 F 
ATOM     70  C   UNL A   1      38.419  33.422  37.779  1.00  0.00     0.200 A 
ATOM     71  F   UNL A   1      37.052  31.639  38.500  1.00  0.00    -0.200 F 
ATOM     72  F   UNL A   1      38.012  34.171  38.813  1.00  0.00    -0.200 F 
ENDBRANCH  48  62
BRANCH  49  73
ATOM     73  C   UNL A   1      42.283  26.303  27.860  1.00  0.00     0.064 A 
ATOM     74  C   UNL A   1      43.236  26.774  26.945  1.00  0.00     0.173 A 
ATOM     75  C   UNL A   1      41.769  25.014  27.661  1.00  0.00     0.173 A 
ATOM     76  F   UNL A   1      43.742  28.007  27.084  1.00  0.00    -0.203 F 
ATOM     77  C   UNL A   1      43.646  25.994  25.867  1.00  0.00     0.198 A 
ATOM     78  C   UNL A   1      42.200  24.224  26.597  1.00  0.00     0.198 A 
ATOM     79  F   UNL A   1      40.859  24.514  28.510  1.00  0.00    -0.203 F 
ATOM     80  F   UNL A   1      44.528  26.484  24.986  1.00  0.00    -0.200 F 
ATOM     81  C   UNL A   1      43.133  24.717  25.697  1.00  0.00     0.200 A 
ATOM     82  F   UNL A   1      41.714  22.984  26.446  1.00  0.00    -0.200 F 
ATOM     83  F   UNL A   1      43.533  23.963  24.664  1.00  0.00    -0.200 F 
ENDBRANCH  49  73
BRANCH  61  84
ATOM     84  C   UNL A   1      44.824  27.361  34.260  1.00  0.00     0.064 A 
ATOM     85  C   UNL A   1      44.773  26.146  34.960  1.00  0.00     0.173 A 
ATOM     86  C   UNL A   1      46.052  28.040  34.214  1.00  0.00     0.173 A 
ATOM     87  F   UNL A   1      43.620  25.466  35.048  1.00  0.00    -0.203 F 
ATOM     88  C   UNL A   1      45.899  25.646  35.609  1.00  0.00     0.198 A 
ATOM     89  C   UNL A   1      47.183  27.521  34.836  1.00  0.00     0.198 A 
ATOM     90  F   UNL A   1      46.157  29.203  33.553  1.00  0.00    -0.203 F 
ATOM     91  F   UNL A   1      45.814  24.510  36.314  1.00  0.00    -0.200 F 
ATOM     92  C   UNL A   1      47.104  26.329  35.539  1.00  0.00     0.200 A 
ATOM     93  F   UNL A   1      48.350  28.174  34.755  1.00  0.00    -0.200 F 
ATOM     94  F   UNL A   1      48.189  25.841  36.157  1.00  0.00    -0.200 F 
ENDBRANCH  61  84
ENDBRANCH  35  36
ENDBRANCH  27  30
ENDBRANCH  25  26
ENDBRANCH  24  25
ENDBRANCH   1  24
TORSDOF 13
ENDMDL
MODEL 3
REMARK VINA RESULT:     -12.4      1.889      3.639
REMARK SMILES CN(C)C(=O)c1ccc(N[C@@H]2CCC[C@H]2C(=O)NCCCNC(=O)c2ccc(-c3c4nc(c(-c5c(F)c(F)c(F)c(F)c5F)c5ccc([nH]5)c(-c5c(F)c(F)c(F)c(F)c5F)c5nc(c(-c6c(F)c(F)c(F)c(F)c6F)c6ccc3[nH]6)C=C5)C=C4)cc2)nc1
REMARK SMILES IDX 19 1 18 2 16 3 17 4 15 6 11 7 12 8 13 9 14 10 10 11 9 13
REMARK SMILES IDX 6 14 7 15 89 16 8 17 88 18 4 19 1 20 2 21 3 22 5 23 20 24
REMARK SMILES IDX 21 25 22 26 23 27 24 29 25 30 26 31 87 32 27 33 86 34 28 35
REMARK SMILES IDX 29 36 30 37 80 38 31 39 85 40 79 41 81 42 32 43 84 44 78 45
REMARK SMILES IDX 77 46 33 48 65 49 45 50 64 51 46 52 49 53 63 54 82 55 47 56
REMARK SMILES IDX 48 57 62 59 83 60 50 61 34 62 35 63 43 64 36 65 37 66 41 67
REMARK SMILES IDX 44 68 38 69 39 70 42 71 40 72 66 73 67 74 75 75 68 76 69 77
REMARK SMILES IDX 73 78 76 79 70 80 71 81 74 82 72 83 51 84 52 85 60 86 53 87
REMARK SMILES IDX 54 88 58 89 61 90 55 91 56 92 59 93 57 94
REMARK H PARENT 18 5 10 12 22 28 81 47 49 58
REMARK Flexibility Score: inf
ROOT
ATOM      1  C   UNL A   1      31.545  30.813  26.268  1.00  0.00     0.117 C 
ENDROOT
BRANCH   1   2
ATOM      2  N   UNL A   1      31.018  30.442  24.970  1.00  0.00    -0.356 N 
ATOM      3  C   UNL A   1      31.040  29.272  24.286  1.00  0.00     0.225 C 
ATOM      4  O   UNL A   1      30.576  29.302  23.142  1.00  0.00    -0.275 OA
ATOM      5  H   UNL A   1      30.561  31.175  24.499  1.00  0.00     0.163 HD
BRANCH   3   6
ATOM      6  C   UNL A   1      31.594  27.982  24.863  1.00  0.00     0.101 C 
ATOM      7  C   UNL A   1      32.837  27.452  24.145  1.00  0.00     0.093 C 
ATOM      8  C   UNL A   1      33.596  26.649  25.199  1.00  0.00     0.026 C 
ATOM      9  C   UNL A   1      33.329  27.390  26.502  1.00  0.00     0.003 C 
ATOM     10  C   UNL A   1      31.959  28.052  26.351  1.00  0.00     0.016 C 
BRANCH   7  11
ATOM     11  N   UNL A   1      32.576  26.722  22.908  1.00  0.00    -0.367 N 
ATOM     12  H   UNL A   1      32.475  27.231  22.072  1.00  0.00     0.162 HD
BRANCH  11  13
ATOM     13  C   UNL A   1      32.466  25.342  22.860  1.00  0.00     0.126 A 
ATOM     14  C   UNL A   1      32.205  22.600  22.721  1.00  0.00     0.058 A 
ATOM     15  C   UNL A   1      31.129  23.355  23.173  1.00  0.00     0.019 A 
ATOM     16  C   UNL A   1      33.370  23.257  22.383  1.00  0.00     0.127 A 
ATOM     17  C   UNL A   1      31.260  24.744  23.226  1.00  0.00     0.047 A 
ATOM     18  N   UNL A   1      33.503  24.602  22.422  1.00  0.00    -0.239 NA
BRANCH  14  19
ATOM     19  C   UNL A   1      32.174  21.137  22.586  1.00  0.00     0.254 C 
ATOM     20  C   UNL A   1      32.418  18.913  23.528  1.00  0.00     0.146 C 
ATOM     21  N   UNL A   1      32.529  20.352  23.680  1.00  0.00    -0.345 N 
ATOM     22  C   UNL A   1      32.829  20.870  25.008  1.00  0.00     0.146 C 
ATOM     23  O   UNL A   1      31.779  20.674  21.519  1.00  0.00    -0.269 OA
ENDBRANCH  14  19
ENDBRANCH  11  13
ENDBRANCH   7  11
ENDBRANCH   3   6
ENDBRANCH   1   2
BRANCH   1  24
ATOM     24  C   UNL A   1      31.450  32.316  26.500  1.00  0.00     0.042 C 
BRANCH  24  25
ATOM     25  C   UNL A   1      32.643  32.897  27.250  1.00  0.00     0.118 C 
BRANCH  25  26
ATOM     26  N   UNL A   1      32.435  34.284  27.640  1.00  0.00    -0.352 N 
ATOM     27  C   UNL A   1      32.993  35.004  28.664  1.00  0.00     0.251 C 
ATOM     28  H   UNL A   1      31.795  34.782  27.082  1.00  0.00     0.163 HD
ATOM     29  O   UNL A   1      32.531  36.107  28.961  1.00  0.00    -0.269 OA
BRANCH  27  30
ATOM     30  C   UNL A   1      34.133  34.457  29.427  1.00  0.00     0.039 A 
ATOM     31  C   UNL A   1      33.884  33.756  30.610  1.00  0.00     0.014 A 
ATOM     32  C   UNL A   1      35.445  34.646  28.988  1.00  0.00     0.014 A 
ATOM     33  C   UNL A   1      34.947  33.186  31.312  1.00  0.00     0.010 A 
ATOM     34  C   UNL A   1      36.491  34.000  29.636  1.00  0.00     0.010 A 
ATOM     35  C   UNL A   1      36.255  33.270  30.810  1.00  0.00    -0.014 A 
BRANCH  35  36
ATOM     36  C   UNL A   1      37.393  32.613  31.498  1.00  0.00     0.031 A 
ATOM     37  C   UNL A   1      38.110  31.466  30.842  1.00  0.00     0.074 A 
ATOM     38  C   UNL A   1      37.738  33.003  32.739  1.00  0.00     0.049 A 
ATOM     39  N   UNL A   1      39.078  30.716  31.306  1.00  0.00    -0.248 NA
ATOM     40  C   UNL A   1      37.656  31.092  29.494  1.00  0.00     0.031 C 
ATOM     41  C   UNL A   1      37.096  34.078  33.496  1.00  0.00     0.029 A 
ATOM     42  N   UNL A   1      38.712  32.537  33.586  1.00  0.00    -0.354 N 
ATOM     43  C   UNL A   1      39.337  29.779  30.315  1.00  0.00     0.074 A 
ATOM     44  C   UNL A   1      38.380  30.010  29.255  1.00  0.00     0.031 C 
ATOM     45  C   UNL A   1      37.717  34.214  34.678  1.00  0.00     0.029 A 
ATOM     46  C   UNL A   1      38.770  33.209  34.781  1.00  0.00     0.049 A 
ATOM     47  H   UNL A   1      39.313  31.791  33.357  1.00  0.00     0.167 HD
ATOM     48  C   UNL A   1      40.305  28.832  30.278  1.00  0.00     0.037 A 
ATOM     49  C   UNL A   1      39.580  33.030  35.842  1.00  0.00     0.037 A 
ATOM     50  C   UNL A   1      41.261  28.614  31.331  1.00  0.00     0.049 A 
ATOM     51  C   UNL A   1      40.618  31.943  35.796  1.00  0.00     0.074 A 
ATOM     52  C   UNL A   1      42.309  27.712  31.375  1.00  0.00     0.029 A 
ATOM     53  N   UNL A   1      41.279  29.306  32.534  1.00  0.00    -0.354 N 
ATOM     54  N   UNL A   1      40.897  31.103  34.829  1.00  0.00    -0.248 NA
ATOM     55  C   UNL A   1      41.455  31.780  36.993  1.00  0.00     0.031 C 
ATOM     56  C   UNL A   1      42.928  27.821  32.626  1.00  0.00     0.029 A 
ATOM     57  C   UNL A   1      42.304  28.833  33.339  1.00  0.00     0.049 A 
ATOM     58  H   UNL A   1      40.657  30.029  32.780  1.00  0.00     0.167 HD
ATOM     59  C   UNL A   1      41.962  30.337  35.284  1.00  0.00     0.074 A 
ATOM     60  C   UNL A   1      42.285  30.820  36.611  1.00  0.00     0.031 C 
ATOM     61  C   UNL A   1      42.617  29.328  34.656  1.00  0.00     0.037 A 
BRANCH  48  62
ATOM     62  C   UNL A   1      40.364  27.958  29.056  1.00  0.00     0.064 A 
ATOM     63  C   UNL A   1      41.133  28.310  27.934  1.00  0.00     0.173 A 
ATOM     64  C   UNL A   1      39.640  26.757  29.000  1.00  0.00     0.173 A 
ATOM     65  F   UNL A   1      41.836  29.453  27.929  1.00  0.00    -0.203 F 
ATOM     66  C   UNL A   1      41.135  27.520  26.787  1.00  0.00     0.198 A 
ATOM     67  C   UNL A   1      39.675  25.951  27.865  1.00  0.00     0.198 A 
ATOM     68  F   UNL A   1      38.894  26.367  30.044  1.00  0.00    -0.203 F 
ATOM     69  F   UNL A   1      41.818  27.915  25.705  1.00  0.00    -0.200 F 
ATOM     70  C   UNL A   1      40.409  26.339  26.756  1.00  0.00     0.200 A 
ATOM     71  F   UNL A   1      38.985  24.802  27.841  1.00  0.00    -0.200 F 
ATOM     72  F   UNL A   1      40.410  25.581  25.651  1.00  0.00    -0.200 F 
ENDBRANCH  48  62
BRANCH  49  73
ATOM     73  C   UNL A   1      39.471  33.934  37.017  1.00  0.00     0.064 A 
ATOM     74  C   UNL A   1      40.120  35.177  37.022  1.00  0.00     0.173 A 
ATOM     75  C   UNL A   1      38.717  33.587  38.147  1.00  0.00     0.173 A 
ATOM     76  F   UNL A   1      40.868  35.544  35.971  1.00  0.00    -0.203 F 
ATOM     77  C   UNL A   1      40.031  36.032  38.117  1.00  0.00     0.198 A 
ATOM     78  C   UNL A   1      38.607  34.454  39.232  1.00  0.00     0.198 A 
ATOM     79  F   UNL A   1      38.073  32.411  38.190  1.00  0.00    -0.203 F 
ATOM     80  F   UNL A   1      40.693  37.196  38.111  1.00  0.00    -0.200 F 
ATOM     81  C   UNL A   1      39.269  35.673  39.219  1.00  0.00     0.200 A 
ATOM     82  F   UNL A   1      37.856  34.110  40.288  1.00  0.00    -0.200 F 
ATOM     83  F   UNL A   1      39.176  36.498  40.270  1.00  0.00    -0.200 F 
ENDBRANCH  49  73
BRANCH  61  84
ATOM     84  C   UNL A   1      43.776  28.706  35.380  1.00  0.00     0.064 A 
ATOM     85  C   UNL A   1      45.086  29.182  35.228  1.00  0.00     0.173 A 
ATOM     86  C   UNL A   1      43.564  27.641  36.271  1.00  0.00     0.173 A 
ATOM     87  F   UNL A   1      45.344  30.187  34.377  1.00  0.00    -0.203 F 
ATOM     88  C   UNL A   1      46.145  28.599  35.918  1.00  0.00     0.198 A 
ATOM     89  C   UNL A   1      44.620  27.082  36.984  1.00  0.00     0.198 A 
ATOM     90  F   UNL A   1      42.330  27.151  36.457  1.00  0.00    -0.203 F 
ATOM     91  F   UNL A   1      47.395  29.037  35.718  1.00  0.00    -0.200 F 
ATOM     92  C   UNL A   1      45.910  27.556  36.802  1.00  0.00     0.200 A 
ATOM     93  F   UNL A   1      44.389  26.084  37.848  1.00  0.00    -0.200 F 
ATOM     94  F   UNL A   1      46.930  27.001  37.472  1.00  0.00    -0.200 F 
ENDBRANCH  61  84
ENDBRANCH  35  36
ENDBRANCH  27  30
ENDBRANCH  25  26
ENDBRANCH  24  25
ENDBRANCH   1  24
TORSDOF 13
ENDMDL
