MODEL 1
REMARK VINA RESULT:     -10.8      0.000      0.000
REMARK SMILES CCOc1cc(N2CCOCC2)ccc1[C@H]([NH3+])C(=O)NCCCNC(=O)c1ccc(-c2c3nc(c(-c4c(F)c(F)c(F)c(F)c4F)c4ccc([nH]4)c(-c4c(F)c(F)c(F)c(F)c4F)c4nc(c(-c5c(F)c(F)c(F)c(F)c5F)c5ccc2[nH]5)C=C4)C=C3)cc1
REMARK SMILES IDX 21 1 20 2 18 3 19 4 16 6 15 7 4 8 5 9 6 10 14 11 13 12 3 13
REMARK SMILES IDX 2 14 1 15 7 16 8 17 12 18 9 19 11 20 10 21 17 22 22 26 23 27
REMARK SMILES IDX 24 28 25 29 26 31 27 32 28 33 89 34 29 35 88 36 30 37 31 38
REMARK SMILES IDX 32 39 82 40 33 41 87 42 81 43 83 44 34 45 86 46 80 47 79 48
REMARK SMILES IDX 35 50 67 51 47 52 66 53 48 54 51 55 65 56 84 57 49 58 50 59
REMARK SMILES IDX 64 61 85 62 52 63 36 64 37 65 45 66 38 67 39 68 43 69 46 70
REMARK SMILES IDX 40 71 41 72 44 73 42 74 68 75 69 76 77 77 70 78 71 79 75 80
REMARK SMILES IDX 78 81 72 82 73 83 76 84 74 85 53 86 54 87 62 88 55 89 56 90
REMARK SMILES IDX 60 91 63 92 57 93 58 94 61 95 59 96
REMARK H PARENT 20 5 17 23 17 24 17 25 24 30 83 49 51 60
REMARK Flexibility Score: inf
ROOT
ATOM      1  C   UNL A   1      33.704  35.078  28.712  1.00  0.00     0.118 C 
ENDROOT
BRANCH   1   2
ATOM      2  N   UNL A   1      32.895  35.278  29.905  1.00  0.00    -0.351 N 
ATOM      3  C   UNL A   1      33.153  35.483  31.218  1.00  0.00     0.283 C 
ATOM      4  O   UNL A   1      32.157  35.312  31.948  1.00  0.00    -0.268 OA
ATOM      5  H   UNL A   1      31.929  35.260  29.710  1.00  0.00     0.163 HD
BRANCH   3   6
ATOM      6  C   UNL A   1      34.475  35.948  31.888  1.00  0.00     0.306 C 
BRANCH   6   7
ATOM      7  C   UNL A   1      35.308  34.988  32.706  1.00  0.00     0.061 A 
ATOM      8  C   UNL A   1      36.278  34.125  32.168  1.00  0.00     0.131 A 
ATOM      9  C   UNL A   1      36.988  33.238  32.992  1.00  0.00     0.072 A 
ATOM     10  C   UNL A   1      36.755  33.187  34.376  1.00  0.00     0.040 A 
ATOM     11  C   UNL A   1      35.065  34.912  34.088  1.00  0.00     0.016 A 
ATOM     12  C   UNL A   1      35.771  34.024  34.904  1.00  0.00     0.027 A 
BRANCH   8  13
ATOM     13  O   UNL A   1      36.406  34.038  30.806  1.00  0.00    -0.493 OA
BRANCH  13  14
ATOM     14  C   UNL A   1      37.192  32.935  30.358  1.00  0.00     0.226 C 
ATOM     15  C   UNL A   1      38.021  33.429  29.181  1.00  0.00     0.049 C 
ENDBRANCH  13  14
ENDBRANCH   8  13
BRANCH  10  16
ATOM     16  N   UNL A   1      37.463  32.295  35.165  1.00  0.00    -0.367 N 
ATOM     17  C   UNL A   1      38.133  32.820  36.368  1.00  0.00     0.145 C 
ATOM     18  C   UNL A   1      38.129  31.137  34.547  1.00  0.00     0.145 C 
ATOM     19  C   UNL A   1      39.645  32.981  36.124  1.00  0.00     0.181 C 
ATOM     20  C   UNL A   1      39.645  31.354  34.415  1.00  0.00     0.181 C 
ATOM     21  O   UNL A   1      40.239  31.756  35.660  1.00  0.00    -0.378 OA
ENDBRANCH  10  16
ENDBRANCH   6   7
BRANCH   6  22
ATOM     22  N   UNL A   1      34.244  37.238  32.586  1.00  0.00    -0.343 N 
ATOM     23  H   UNL A   1      34.369  38.008  31.929  1.00  0.00     0.345 HD
ATOM     24  H   UNL A   1      34.908  37.334  33.353  1.00  0.00     0.345 HD
ATOM     25  H   UNL A   1      33.292  37.259  32.955  1.00  0.00     0.345 HD
ENDBRANCH   6  22
ENDBRANCH   3   6
ENDBRANCH   1   2
BRANCH   1  26
ATOM     26  C   UNL A   1      33.373  33.730  28.058  1.00  0.00     0.042 C 
BRANCH  26  27
ATOM     27  C   UNL A   1      34.414  32.632  28.281  1.00  0.00     0.118 C 
BRANCH  27  28
ATOM     28  N   UNL A   1      33.885  31.312  27.982  1.00  0.00    -0.352 N 
ATOM     29  C   UNL A   1      34.510  30.098  27.849  1.00  0.00     0.251 C 
ATOM     30  H   UNL A   1      32.909  31.284  27.852  1.00  0.00     0.163 HD
ATOM     31  O   UNL A   1      33.866  29.161  27.360  1.00  0.00    -0.269 OA
BRANCH  29  32
ATOM     32  C   UNL A   1      35.916  29.856  28.267  1.00  0.00     0.039 A 
ATOM     33  C   UNL A   1      36.933  30.049  27.320  1.00  0.00     0.014 A 
ATOM     34  C   UNL A   1      36.254  29.333  29.517  1.00  0.00     0.014 A 
ATOM     35  C   UNL A   1      38.263  29.733  27.622  1.00  0.00     0.010 A 
ATOM     36  C   UNL A   1      37.592  29.089  29.847  1.00  0.00     0.010 A 
ATOM     37  C   UNL A   1      38.609  29.254  28.895  1.00  0.00    -0.014 A 
BRANCH  37  38
ATOM     38  C   UNL A   1      40.006  28.847  29.215  1.00  0.00     0.031 A 
ATOM     39  C   UNL A   1      40.882  29.744  30.053  1.00  0.00     0.074 A 
ATOM     40  C   UNL A   1      40.513  27.694  28.736  1.00  0.00     0.049 A 
ATOM     41  N   UNL A   1      42.142  29.606  30.387  1.00  0.00    -0.248 NA
ATOM     42  C   UNL A   1      40.261  30.977  30.563  1.00  0.00     0.031 C 
ATOM     43  C   UNL A   1      39.791  26.738  27.898  1.00  0.00     0.029 A 
ATOM     44  N   UNL A   1      41.760  27.135  28.883  1.00  0.00    -0.354 N 
ATOM     45  C   UNL A   1      42.470  30.745  31.112  1.00  0.00     0.074 A 
ATOM     46  C   UNL A   1      41.291  31.584  31.135  1.00  0.00     0.031 C 
ATOM     47  C   UNL A   1      40.596  25.699  27.625  1.00  0.00     0.029 A 
ATOM     48  C   UNL A   1      41.902  25.930  28.240  1.00  0.00     0.049 A 
ATOM     49  H   UNL A   1      42.482  27.559  29.400  1.00  0.00     0.167 HD
ATOM     50  C   UNL A   1      43.639  31.058  31.724  1.00  0.00     0.037 A 
ATOM     51  C   UNL A   1      42.964  25.104  28.154  1.00  0.00     0.037 A 
ATOM     52  C   UNL A   1      44.801  30.209  31.747  1.00  0.00     0.049 A 
ATOM     53  C   UNL A   1      44.249  25.468  28.846  1.00  0.00     0.074 A 
ATOM     54  C   UNL A   1      46.007  30.410  32.396  1.00  0.00     0.029 A 
ATOM     55  N   UNL A   1      44.898  28.990  31.091  1.00  0.00    -0.354 N 
ATOM     56  N   UNL A   1      44.531  26.524  29.569  1.00  0.00    -0.248 NA
ATOM     57  C   UNL A   1      45.365  24.518  28.712  1.00  0.00     0.031 C 
ATOM     58  C   UNL A   1      46.848  29.330  32.103  1.00  0.00     0.029 A 
ATOM     59  C   UNL A   1      46.151  28.436  31.307  1.00  0.00     0.049 A 
ATOM     60  H   UNL A   1      44.184  28.579  30.552  1.00  0.00     0.167 HD
ATOM     61  C   UNL A   1      45.839  26.353  30.001  1.00  0.00     0.074 A 
ATOM     62  C   UNL A   1      46.295  25.087  29.465  1.00  0.00     0.031 C 
ATOM     63  C   UNL A   1      46.592  27.170  30.778  1.00  0.00     0.037 A 
BRANCH  50  64
ATOM     64  C   UNL A   1      43.718  32.389  32.417  1.00  0.00     0.064 A 
ATOM     65  C   UNL A   1      43.397  32.536  33.775  1.00  0.00     0.173 A 
ATOM     66  C   UNL A   1      44.124  33.533  31.713  1.00  0.00     0.173 A 
ATOM     67  F   UNL A   1      42.993  31.474  34.491  1.00  0.00    -0.203 F 
ATOM     68  C   UNL A   1      43.439  33.783  34.391  1.00  0.00     0.198 A 
ATOM     69  C   UNL A   1      44.196  34.774  32.341  1.00  0.00     0.198 A 
ATOM     70  F   UNL A   1      44.451  33.449  30.415  1.00  0.00    -0.203 F 
ATOM     71  F   UNL A   1      43.067  33.908  35.674  1.00  0.00    -0.200 F 
ATOM     72  C   UNL A   1      43.842  34.901  33.676  1.00  0.00     0.200 A 
ATOM     73  F   UNL A   1      44.597  35.851  31.652  1.00  0.00    -0.200 F 
ATOM     74  F   UNL A   1      43.878  36.102  34.270  1.00  0.00    -0.200 F 
ENDBRANCH  50  64
BRANCH  51  75
ATOM     75  C   UNL A   1      42.837  23.821  27.418  1.00  0.00     0.064 A 
ATOM     76  C   UNL A   1      43.200  23.736  26.066  1.00  0.00     0.173 A 
ATOM     77  C   UNL A   1      42.369  22.658  28.045  1.00  0.00     0.173 A 
ATOM     78  F   UNL A   1      43.631  24.828  25.419  1.00  0.00    -0.203 F 
ATOM     79  C   UNL A   1      43.093  22.535  25.368  1.00  0.00     0.198 A 
ATOM     80  C   UNL A   1      42.284  21.453  27.350  1.00  0.00     0.198 A 
ATOM     81  F   UNL A   1      42.009  22.690  29.337  1.00  0.00    -0.203 F 
ATOM     82  F   UNL A   1      43.419  22.488  24.069  1.00  0.00    -0.200 F 
ATOM     83  C   UNL A   1      42.642  21.393  26.012  1.00  0.00     0.200 A 
ATOM     84  F   UNL A   1      41.858  20.349  27.979  1.00  0.00    -0.200 F 
ATOM     85  F   UNL A   1      42.550  20.236  25.342  1.00  0.00    -0.200 F 
ENDBRANCH  51  75
BRANCH  63  86
ATOM     86  C   UNL A   1      47.974  26.707  31.132  1.00  0.00     0.064 A 
ATOM     87  C   UNL A   1      48.209  25.851  32.218  1.00  0.00     0.173 A 
ATOM     88  C   UNL A   1      49.073  27.094  30.350  1.00  0.00     0.173 A 
ATOM     89  F   UNL A   1      47.194  25.465  33.005  1.00  0.00    -0.203 F 
ATOM     90  C   UNL A   1      49.497  25.416  32.520  1.00  0.00     0.198 A 
ATOM     91  C   UNL A   1      50.355  26.636  30.640  1.00  0.00     0.198 A 
ATOM     92  F   UNL A   1      48.901  27.907  29.298  1.00  0.00    -0.203 F 
ATOM     93  F   UNL A   1      49.705  24.631  33.586  1.00  0.00    -0.200 F 
ATOM     94  C   UNL A   1      50.568  25.804  31.728  1.00  0.00     0.200 A 
ATOM     95  F   UNL A   1      51.387  27.004  29.867  1.00  0.00    -0.200 F 
ATOM     96  F   UNL A   1      51.806  25.379  32.017  1.00  0.00    -0.200 F 
ENDBRANCH  63  86
ENDBRANCH  37  38
ENDBRANCH  29  32
ENDBRANCH  27  28
ENDBRANCH  26  27
ENDBRANCH   1  26
TORSDOF 15
ENDMDL
MODEL 2
REMARK VINA RESULT:     -10.7      4.393      7.827
REMARK SMILES CCOc1cc(N2CCOCC2)ccc1[C@H]([NH3+])C(=O)NCCCNC(=O)c1ccc(-c2c3nc(c(-c4c(F)c(F)c(F)c(F)c4F)c4ccc([nH]4)c(-c4c(F)c(F)c(F)c(F)c4F)c4nc(c(-c5c(F)c(F)c(F)c(F)c5F)c5ccc2[nH]5)C=C4)C=C3)cc1
REMARK SMILES IDX 21 1 20 2 18 3 19 4 16 6 15 7 4 8 5 9 6 10 14 11 13 12 3 13
REMARK SMILES IDX 2 14 1 15 7 16 8 17 12 18 9 19 11 20 10 21 17 22 22 26 23 27
REMARK SMILES IDX 24 28 25 29 26 31 27 32 28 33 89 34 29 35 88 36 30 37 31 38
REMARK SMILES IDX 32 39 82 40 33 41 87 42 81 43 83 44 34 45 86 46 80 47 79 48
REMARK SMILES IDX 35 50 67 51 47 52 66 53 48 54 51 55 65 56 84 57 49 58 50 59
REMARK SMILES IDX 64 61 85 62 52 63 36 64 37 65 45 66 38 67 39 68 43 69 46 70
REMARK SMILES IDX 40 71 41 72 44 73 42 74 68 75 69 76 77 77 70 78 71 79 75 80
REMARK SMILES IDX 78 81 72 82 73 83 76 84 74 85 53 86 54 87 62 88 55 89 56 90
REMARK SMILES IDX 60 91 63 92 57 93 58 94 61 95 59 96
REMARK H PARENT 20 5 17 23 17 24 17 25 24 30 83 49 51 60
REMARK Flexibility Score: inf
ROOT
ATOM      1  C   UNL A   1      33.471  27.123  24.752  1.00  0.00     0.118 C 
ENDROOT
BRANCH   1   2
ATOM      2  N   UNL A   1      33.475  26.051  25.736  1.00  0.00    -0.351 N 
ATOM      3  C   UNL A   1      33.563  24.701  25.686  1.00  0.00     0.283 C 
ATOM      4  O   UNL A   1      33.230  24.146  26.751  1.00  0.00    -0.268 OA
ATOM      5  H   UNL A   1      33.394  26.388  26.658  1.00  0.00     0.163 HD
BRANCH   3   6
ATOM      6  C   UNL A   1      34.067  23.801  24.524  1.00  0.00     0.306 C 
BRANCH   6   7
ATOM      7  C   UNL A   1      33.709  22.334  24.469  1.00  0.00     0.061 A 
ATOM      8  C   UNL A   1      34.492  21.306  25.018  1.00  0.00     0.131 A 
ATOM      9  C   UNL A   1      34.105  19.962  24.895  1.00  0.00     0.072 A 
ATOM     10  C   UNL A   1      32.925  19.604  24.224  1.00  0.00     0.040 A 
ATOM     11  C   UNL A   1      32.542  21.964  23.778  1.00  0.00     0.016 A 
ATOM     12  C   UNL A   1      32.163  20.624  23.654  1.00  0.00     0.027 A 
BRANCH   8  13
ATOM     13  O   UNL A   1      35.725  21.614  25.531  1.00  0.00    -0.493 OA
BRANCH  13  14
ATOM     14  C   UNL A   1      36.783  20.777  25.066  1.00  0.00     0.226 C 
ATOM     15  C   UNL A   1      38.088  21.495  25.375  1.00  0.00     0.049 C 
ENDBRANCH  13  14
ENDBRANCH   8  13
BRANCH  10  16
ATOM     16  N   UNL A   1      32.571  18.270  24.110  1.00  0.00    -0.367 N 
ATOM     17  C   UNL A   1      32.526  17.460  25.340  1.00  0.00     0.145 C 
ATOM     18  C   UNL A   1      32.921  17.520  22.893  1.00  0.00     0.145 C 
ATOM     19  C   UNL A   1      33.776  16.567  25.450  1.00  0.00     0.181 C 
ATOM     20  C   UNL A   1      34.130  16.598  23.118  1.00  0.00     0.181 C 
ATOM     21  O   UNL A   1      33.957  15.761  24.273  1.00  0.00    -0.378 OA
ENDBRANCH  10  16
ENDBRANCH   6   7
BRANCH   6  22
ATOM     22  N   UNL A   1      35.517  24.042  24.311  1.00  0.00    -0.343 N 
ATOM     23  H   UNL A   1      35.666  24.415  23.373  1.00  0.00     0.345 HD
ATOM     24  H   UNL A   1      36.026  23.164  24.413  1.00  0.00     0.345 HD
ATOM     25  H   UNL A   1      35.855  24.713  25.001  1.00  0.00     0.345 HD
ENDBRANCH   6  22
ENDBRANCH   3   6
ENDBRANCH   1   2
BRANCH   1  26
ATOM     26  C   UNL A   1      33.802  28.465  25.418  1.00  0.00     0.042 C 
BRANCH  26  27
ATOM     27  C   UNL A   1      33.637  28.488  26.938  1.00  0.00     0.118 C 
BRANCH  27  28
ATOM     28  N   UNL A   1      33.704  29.839  27.472  1.00  0.00    -0.352 N 
ATOM     29  C   UNL A   1      34.687  30.480  28.181  1.00  0.00     0.251 C 
ATOM     30  H   UNL A   1      32.906  30.387  27.295  1.00  0.00     0.163 HD
ATOM     31  O   UNL A   1      34.406  31.556  28.725  1.00  0.00    -0.269 OA
BRANCH  29  32
ATOM     32  C   UNL A   1      36.068  29.949  28.324  1.00  0.00     0.039 A 
ATOM     33  C   UNL A   1      36.436  29.374  29.550  1.00  0.00     0.014 A 
ATOM     34  C   UNL A   1      37.044  30.105  27.336  1.00  0.00     0.014 A 
ATOM     35  C   UNL A   1      37.752  28.956  29.779  1.00  0.00     0.010 A 
ATOM     36  C   UNL A   1      38.340  29.618  27.536  1.00  0.00     0.010 A 
ATOM     37  C   UNL A   1      38.720  29.068  28.770  1.00  0.00    -0.014 A 
BRANCH  37  38
ATOM     38  C   UNL A   1      40.142  28.692  29.015  1.00  0.00     0.031 A 
ATOM     39  C   UNL A   1      41.056  29.638  29.752  1.00  0.00     0.074 A 
ATOM     40  C   UNL A   1      40.633  27.525  28.555  1.00  0.00     0.049 A 
ATOM     41  N   UNL A   1      42.337  29.530  30.007  1.00  0.00    -0.248 NA
ATOM     42  C   UNL A   1      40.452  30.885  30.246  1.00  0.00     0.031 C 
ATOM     43  C   UNL A   1      39.872  26.524  27.810  1.00  0.00     0.029 A 
ATOM     44  N   UNL A   1      41.895  26.989  28.643  1.00  0.00    -0.354 N 
ATOM     45  C   UNL A   1      42.695  30.705  30.658  1.00  0.00     0.074 A 
ATOM     46  C   UNL A   1      41.507  31.529  30.721  1.00  0.00     0.031 C 
ATOM     47  C   UNL A   1      40.674  25.483  27.531  1.00  0.00     0.029 A 
ATOM     48  C   UNL A   1      42.013  25.758  28.047  1.00  0.00     0.049 A 
ATOM     49  H   UNL A   1      42.644  27.445  29.092  1.00  0.00     0.167 HD
ATOM     50  C   UNL A   1      43.896  31.060  31.176  1.00  0.00     0.037 A 
ATOM     51  C   UNL A   1      43.080  24.942  27.928  1.00  0.00     0.037 A 
ATOM     52  C   UNL A   1      45.070  30.227  31.160  1.00  0.00     0.049 A 
ATOM     53  C   UNL A   1      44.402  25.353  28.516  1.00  0.00     0.074 A 
ATOM     54  C   UNL A   1      46.313  30.472  31.719  1.00  0.00     0.029 A 
ATOM     55  N   UNL A   1      45.143  28.981  30.554  1.00  0.00    -0.354 N 
ATOM     56  N   UNL A   1      44.714  26.444  29.171  1.00  0.00    -0.248 NA
ATOM     57  C   UNL A   1      45.521  24.412  28.352  1.00  0.00     0.031 C 
ATOM     58  C   UNL A   1      47.150  29.391  31.418  1.00  0.00     0.029 A 
ATOM     59  C   UNL A   1      46.416  28.453  30.711  1.00  0.00     0.049 A 
ATOM     60  H   UNL A   1      44.401  28.537  30.083  1.00  0.00     0.167 HD
ATOM     61  C   UNL A   1      46.050  26.309  29.523  1.00  0.00     0.074 A 
ATOM     62  C   UNL A   1      46.490  25.026  29.015  1.00  0.00     0.031 C 
ATOM     63  C   UNL A   1      46.840  27.170  30.211  1.00  0.00     0.037 A 
BRANCH  50  64
ATOM     64  C   UNL A   1      44.000  32.422  31.802  1.00  0.00     0.064 A 
ATOM     65  C   UNL A   1      43.763  32.627  33.170  1.00  0.00     0.173 A 
ATOM     66  C   UNL A   1      44.347  33.537  31.024  1.00  0.00     0.173 A 
ATOM     67  F   UNL A   1      43.418  31.596  33.957  1.00  0.00    -0.203 F 
ATOM     68  C   UNL A   1      43.826  33.902  33.726  1.00  0.00     0.198 A 
ATOM     69  C   UNL A   1      44.441  34.806  31.590  1.00  0.00     0.198 A 
ATOM     70  F   UNL A   1      44.594  33.397  29.713  1.00  0.00    -0.203 F 
ATOM     71  F   UNL A   1      43.532  34.081  35.022  1.00  0.00    -0.200 F 
ATOM     72  C   UNL A   1      44.168  34.990  32.937  1.00  0.00     0.200 A 
ATOM     73  F   UNL A   1      44.785  35.854  30.829  1.00  0.00    -0.200 F 
ATOM     74  F   UNL A   1      44.225  36.217  33.474  1.00  0.00    -0.200 F 
ENDBRANCH  50  64
BRANCH  51  75
ATOM     75  C   UNL A   1      42.924  23.625  27.259  1.00  0.00     0.064 A 
ATOM     76  C   UNL A   1      43.370  23.437  25.944  1.00  0.00     0.173 A 
ATOM     77  C   UNL A   1      42.347  22.531  27.919  1.00  0.00     0.173 A 
ATOM     78  F   UNL A   1      43.908  24.462  25.266  1.00  0.00    -0.203 F 
ATOM     79  C   UNL A   1      43.237  22.203  25.310  1.00  0.00     0.198 A 
ATOM     80  C   UNL A   1      42.235  21.292  27.290  1.00  0.00     0.198 A 
ATOM     81  F   UNL A   1      41.905  22.663  29.178  1.00  0.00    -0.203 F 
ATOM     82  F   UNL A   1      43.645  22.058  24.041  1.00  0.00    -0.200 F 
ATOM     83  C   UNL A   1      42.677  21.130  25.985  1.00  0.00     0.200 A 
ATOM     84  F   UNL A   1      41.703  20.255  27.950  1.00  0.00    -0.200 F 
ATOM     85  F   UNL A   1      42.559  19.942  25.379  1.00  0.00    -0.200 F 
ENDBRANCH  51  75
BRANCH  63  86
ATOM     86  C   UNL A   1      48.250  26.740  30.493  1.00  0.00     0.064 A 
ATOM     87  C   UNL A   1      48.569  25.944  31.602  1.00  0.00     0.173 A 
ATOM     88  C   UNL A   1      49.288  27.098  29.619  1.00  0.00     0.173 A 
ATOM     89  F   UNL A   1      47.615  25.589  32.476  1.00  0.00    -0.203 F 
ATOM     90  C   UNL A   1      49.881  25.539  31.838  1.00  0.00     0.198 A 
ATOM     91  C   UNL A   1      50.593  26.670  29.844  1.00  0.00     0.198 A 
ATOM     92  F   UNL A   1      49.034  27.854  28.541  1.00  0.00    -0.203 F 
ATOM     93  F   UNL A   1      50.171  24.813  32.926  1.00  0.00    -0.200 F 
ATOM     94  C   UNL A   1      50.890  25.897  30.956  1.00  0.00     0.200 A 
ATOM     95  F   UNL A   1      51.565  27.008  28.984  1.00  0.00    -0.200 F 
ATOM     96  F   UNL A   1      52.150  25.501  31.181  1.00  0.00    -0.200 F 
ENDBRANCH  63  86
ENDBRANCH  37  38
ENDBRANCH  29  32
ENDBRANCH  27  28
ENDBRANCH  26  27
ENDBRANCH   1  26
TORSDOF 15
ENDMDL
MODEL 3
REMARK VINA RESULT:     -10.7      4.790     10.068
REMARK SMILES CCOc1cc(N2CCOCC2)ccc1[C@H]([NH3+])C(=O)NCCCNC(=O)c1ccc(-c2c3nc(c(-c4c(F)c(F)c(F)c(F)c4F)c4ccc([nH]4)c(-c4c(F)c(F)c(F)c(F)c4F)c4nc(c(-c5c(F)c(F)c(F)c(F)c5F)c5ccc2[nH]5)C=C4)C=C3)cc1
REMARK SMILES IDX 21 1 20 2 18 3 19 4 16 6 15 7 4 8 5 9 6 10 14 11 13 12 3 13
REMARK SMILES IDX 2 14 1 15 7 16 8 17 12 18 9 19 11 20 10 21 17 22 22 26 23 27
REMARK SMILES IDX 24 28 25 29 26 31 27 32 28 33 89 34 29 35 88 36 30 37 31 38
REMARK SMILES IDX 32 39 82 40 33 41 87 42 81 43 83 44 34 45 86 46 80 47 79 48
REMARK SMILES IDX 35 50 67 51 47 52 66 53 48 54 51 55 65 56 84 57 49 58 50 59
REMARK SMILES IDX 64 61 85 62 52 63 36 64 37 65 45 66 38 67 39 68 43 69 46 70
REMARK SMILES IDX 40 71 41 72 44 73 42 74 68 75 69 76 77 77 70 78 71 79 75 80
REMARK SMILES IDX 78 81 72 82 73 83 76 84 74 85 53 86 54 87 62 88 55 89 56 90
REMARK SMILES IDX 60 91 63 92 57 93 58 94 61 95 59 96
REMARK H PARENT 20 5 17 23 17 24 17 25 24 30 83 49 51 60
REMARK Flexibility Score: inf
ROOT
ATOM      1  C   UNL A   1      36.675  20.527  24.884  1.00  0.00     0.118 C 
ENDROOT
BRANCH   1   2
ATOM      2  N   UNL A   1      36.964  21.805  25.517  1.00  0.00    -0.351 N 
ATOM      3  C   UNL A   1      36.223  22.847  25.962  1.00  0.00     0.283 C 
ATOM      4  O   UNL A   1      36.895  23.875  26.174  1.00  0.00    -0.268 OA
ATOM      5  H   UNL A   1      37.929  21.945  25.656  1.00  0.00     0.163 HD
BRANCH   3   6
ATOM      6  C   UNL A   1      34.704  22.893  26.284  1.00  0.00     0.306 C 
BRANCH   6   7
ATOM      7  C   UNL A   1      33.878  24.115  25.953  1.00  0.00     0.061 A 
ATOM      8  C   UNL A   1      32.552  24.313  26.373  1.00  0.00     0.131 A 
ATOM      9  C   UNL A   1      31.842  25.462  25.994  1.00  0.00     0.072 A 
ATOM     10  C   UNL A   1      32.431  26.449  25.188  1.00  0.00     0.040 A 
ATOM     11  C   UNL A   1      34.452  25.097  25.127  1.00  0.00     0.016 A 
ATOM     12  C   UNL A   1      33.739  26.238  24.748  1.00  0.00     0.027 A 
BRANCH   8  13
ATOM     13  O   UNL A   1      31.902  23.293  27.018  1.00  0.00    -0.493 OA
BRANCH  13  14
ATOM     14  C   UNL A   1      30.818  22.728  26.283  1.00  0.00     0.226 C 
ATOM     15  C   UNL A   1      29.599  22.757  27.193  1.00  0.00     0.049 C 
ENDBRANCH  13  14
ENDBRANCH   8  13
BRANCH  10  16
ATOM     16  N   UNL A   1      31.705  27.570  24.822  1.00  0.00    -0.367 N 
ATOM     17  C   UNL A   1      30.363  27.366  24.247  1.00  0.00     0.145 C 
ATOM     18  C   UNL A   1      32.403  28.771  24.338  1.00  0.00     0.145 C 
ATOM     19  C   UNL A   1      30.392  27.541  22.718  1.00  0.00     0.181 C 
ATOM     20  C   UNL A   1      32.314  28.906  22.809  1.00  0.00     0.181 C 
ATOM     21  O   UNL A   1      30.959  28.807  22.341  1.00  0.00    -0.378 OA
ENDBRANCH  10  16
ENDBRANCH   6   7
BRANCH   6  22
ATOM     22  N   UNL A   1      34.482  22.415  27.672  1.00  0.00    -0.343 N 
ATOM     23  H   UNL A   1      33.488  22.470  27.896  1.00  0.00     0.345 HD
ATOM     24  H   UNL A   1      35.010  22.998  28.321  1.00  0.00     0.345 HD
ATOM     25  H   UNL A   1      34.794  21.447  27.753  1.00  0.00     0.345 HD
ENDBRANCH   6  22
ENDBRANCH   3   6
ENDBRANCH   1   2
BRANCH   1  26
ATOM     26  C   UNL A   1      37.882  19.587  24.994  1.00  0.00     0.042 C 
BRANCH  26  27
ATOM     27  C   UNL A   1      39.078  20.160  25.755  1.00  0.00     0.118 C 
BRANCH  27  28
ATOM     28  N   UNL A   1      40.149  19.187  25.899  1.00  0.00    -0.352 N 
ATOM     29  C   UNL A   1      41.498  19.351  26.083  1.00  0.00     0.251 C 
ATOM     30  H   UNL A   1      39.854  18.248  25.855  1.00  0.00     0.163 HD
ATOM     31  O   UNL A   1      42.229  18.363  25.940  1.00  0.00    -0.269 OA
BRANCH  29  32
ATOM     32  C   UNL A   1      42.118  20.652  26.448  1.00  0.00     0.039 A 
ATOM     33  C   UNL A   1      42.155  21.013  27.802  1.00  0.00     0.014 A 
ATOM     34  C   UNL A   1      42.553  21.575  25.493  1.00  0.00     0.014 A 
ATOM     35  C   UNL A   1      42.628  22.272  28.195  1.00  0.00     0.010 A 
ATOM     36  C   UNL A   1      43.097  22.802  25.890  1.00  0.00     0.010 A 
ATOM     37  C   UNL A   1      43.111  23.180  27.241  1.00  0.00    -0.014 A 
BRANCH  37  38
ATOM     38  C   UNL A   1      43.554  24.549  27.630  1.00  0.00     0.031 A 
ATOM     39  C   UNL A   1      42.535  25.594  28.008  1.00  0.00     0.074 A 
ATOM     40  C   UNL A   1      44.861  24.877  27.616  1.00  0.00     0.049 A 
ATOM     41  N   UNL A   1      42.708  26.858  28.310  1.00  0.00    -0.248 NA
ATOM     42  C   UNL A   1      41.128  25.164  28.023  1.00  0.00     0.031 C 
ATOM     43  C   UNL A   1      45.954  23.977  27.254  1.00  0.00     0.029 A 
ATOM     44  N   UNL A   1      45.487  26.064  27.912  1.00  0.00    -0.354 N 
ATOM     45  C   UNL A   1      41.436  27.377  28.515  1.00  0.00     0.074 A 
ATOM     46  C   UNL A   1      40.498  26.304  28.263  1.00  0.00     0.031 C 
ATOM     47  C   UNL A   1      47.119  24.635  27.372  1.00  0.00     0.029 A 
ATOM     48  C   UNL A   1      46.853  26.011  27.786  1.00  0.00     0.049 A 
ATOM     49  H   UNL A   1      45.003  26.875  28.187  1.00  0.00     0.167 HD
ATOM     50  C   UNL A   1      41.078  28.626  28.900  1.00  0.00     0.037 A 
ATOM     51  C   UNL A   1      47.788  26.963  27.980  1.00  0.00     0.037 A 
ATOM     52  C   UNL A   1      42.006  29.686  29.199  1.00  0.00     0.049 A 
ATOM     53  C   UNL A   1      47.369  28.341  28.413  1.00  0.00     0.074 A 
ATOM     54  C   UNL A   1      41.740  30.963  29.662  1.00  0.00     0.029 A 
ATOM     55  N   UNL A   1      43.383  29.586  29.069  1.00  0.00    -0.354 N 
ATOM     56  N   UNL A   1      46.167  28.805  28.652  1.00  0.00    -0.248 NA
ATOM     57  C   UNL A   1      48.442  29.328  28.610  1.00  0.00     0.031 C 
ATOM     58  C   UNL A   1      42.956  31.650  29.775  1.00  0.00     0.029 A 
ATOM     59  C   UNL A   1      43.980  30.785  29.426  1.00  0.00     0.049 A 
ATOM     60  H   UNL A   1      43.866  28.782  28.768  1.00  0.00     0.167 HD
ATOM     61  C   UNL A   1      46.339  30.122  29.055  1.00  0.00     0.074 A 
ATOM     62  C   UNL A   1      47.764  30.384  29.036  1.00  0.00     0.031 C 
ATOM     63  C   UNL A   1      45.400  31.032  29.414  1.00  0.00     0.037 A 
BRANCH  50  64
ATOM     64  C   UNL A   1      39.608  28.917  29.013  1.00  0.00     0.064 A 
ATOM     65  C   UNL A   1      38.850  29.339  27.909  1.00  0.00     0.173 A 
ATOM     66  C   UNL A   1      38.946  28.768  30.241  1.00  0.00     0.173 A 
ATOM     67  F   UNL A   1      39.437  29.507  26.713  1.00  0.00    -0.203 F 
ATOM     68  C   UNL A   1      37.498  29.640  28.040  1.00  0.00     0.198 A 
ATOM     69  C   UNL A   1      37.586  29.040  30.361  1.00  0.00     0.198 A 
ATOM     70  F   UNL A   1      39.619  28.358  31.327  1.00  0.00    -0.203 F 
ATOM     71  F   UNL A   1      36.811  30.102  26.984  1.00  0.00    -0.200 F 
ATOM     72  C   UNL A   1      36.865  29.488  29.264  1.00  0.00     0.200 A 
ATOM     73  F   UNL A   1      36.972  28.879  31.542  1.00  0.00    -0.200 F 
ATOM     74  F   UNL A   1      35.563  29.782  29.389  1.00  0.00    -0.200 F 
ENDBRANCH  50  64
BRANCH  51  75
ATOM     75  C   UNL A   1      49.224  26.626  27.811  1.00  0.00     0.064 A 
ATOM     76  C   UNL A   1      50.024  26.333  28.925  1.00  0.00     0.173 A 
ATOM     77  C   UNL A   1      49.822  26.574  26.544  1.00  0.00     0.173 A 
ATOM     78  F   UNL A   1      49.501  26.393  30.158  1.00  0.00    -0.203 F 
ATOM     79  C   UNL A   1      51.370  26.008  28.778  1.00  0.00     0.198 A 
ATOM     80  C   UNL A   1      51.164  26.227  26.397  1.00  0.00     0.198 A 
ATOM     81  F   UNL A   1      49.098  26.847  25.448  1.00  0.00    -0.203 F 
ATOM     82  F   UNL A   1      52.120  25.761  29.861  1.00  0.00    -0.200 F 
ATOM     83  C   UNL A   1      51.938  25.947  27.514  1.00  0.00     0.200 A 
ATOM     84  F   UNL A   1      51.705  26.159  25.174  1.00  0.00    -0.200 F 
ATOM     85  F   UNL A   1      53.230  25.624  27.372  1.00  0.00    -0.200 F 
ENDBRANCH  51  75
BRANCH  63  86
ATOM     86  C   UNL A   1      45.879  32.383  29.856  1.00  0.00     0.064 A 
ATOM     87  C   UNL A   1      45.997  33.453  28.957  1.00  0.00     0.173 A 
ATOM     88  C   UNL A   1      46.185  32.620  31.205  1.00  0.00     0.173 A 
ATOM     89  F   UNL A   1      45.732  33.274  27.655  1.00  0.00    -0.203 F 
ATOM     90  C   UNL A   1      46.426  34.706  29.390  1.00  0.00     0.198 A 
ATOM     91  C   UNL A   1      46.588  33.880  31.638  1.00  0.00     0.198 A 
ATOM     92  F   UNL A   1      46.083  31.631  32.105  1.00  0.00    -0.203 F 
ATOM     93  F   UNL A   1      46.572  35.704  28.508  1.00  0.00    -0.200 F 
ATOM     94  C   UNL A   1      46.715  34.920  30.730  1.00  0.00     0.200 A 
ATOM     95  F   UNL A   1      46.856  34.087  32.935  1.00  0.00    -0.200 F 
ATOM     96  F   UNL A   1      47.120  36.128  31.145  1.00  0.00    -0.200 F 
ENDBRANCH  63  86
ENDBRANCH  37  38
ENDBRANCH  29  32
ENDBRANCH  27  28
ENDBRANCH  26  27
ENDBRANCH   1  26
TORSDOF 15
ENDMDL
