MODEL 1
REMARK VINA RESULT:     -13.4      0.000      0.000
REMARK SMILES NS(=O)(=O)c1ccc(/N=C/c2ccc(O)c(C(=O)NCCCNC(=O)c3ccc(-c4c5nc(c(-c6c(F)c(F)c(F)c(F)c6F)c6ccc([nH]6)c(-c6c(F)c(F)c(F)c(F)c6F)c6nc(c(-c7c(F)c(F)c(F)c(F)c7F)c7ccc4[nH]7)C=C6)C=C5)cc3)c2)cc1
REMARK SMILES IDX 20 1 19 2 17 3 18 4 16 6 11 7 12 8 89 9 13 10 14 11 10 12
REMARK SMILES IDX 9 13 8 14 5 15 6 16 91 17 7 18 90 19 2 20 3 21 4 22 1 23
REMARK SMILES IDX 15 26 21 28 22 29 23 30 24 31 25 33 26 34 27 35 88 36 28 37
REMARK SMILES IDX 87 38 29 39 30 40 31 41 81 42 32 43 86 44 80 45 82 46 33 47
REMARK SMILES IDX 85 48 79 49 78 50 34 52 66 53 46 54 65 55 47 56 50 57 64 58
REMARK SMILES IDX 83 59 48 60 49 61 63 63 84 64 51 65 35 66 36 67 44 68 37 69
REMARK SMILES IDX 38 70 42 71 45 72 39 73 40 74 43 75 41 76 67 77 68 78 76 79
REMARK SMILES IDX 69 80 70 81 74 82 77 83 71 84 72 85 75 86 73 87 52 88 53 89
REMARK SMILES IDX 61 90 54 91 55 92 59 93 62 94 56 95 57 96 60 97 58 98
REMARK H PARENT 19 5 1 24 1 25 15 27 23 32 82 51 50 62
REMARK Flexibility Score: inf
ROOT
ATOM      1  C   UNL A   1      31.406  30.831  26.441  1.00  0.00     0.118 C 
ENDROOT
BRANCH   1   2
ATOM      2  N   UNL A   1      32.434  30.331  25.536  1.00  0.00    -0.352 N 
ATOM      3  C   UNL A   1      32.475  29.295  24.631  1.00  0.00     0.255 C 
ATOM      4  O   UNL A   1      33.532  29.101  24.025  1.00  0.00    -0.269 OA
ATOM      5  H   UNL A   1      33.276  30.840  25.582  1.00  0.00     0.163 HD
BRANCH   3   6
ATOM      6  C   UNL A   1      31.354  28.345  24.395  1.00  0.00     0.082 A 
ATOM      7  C   UNL A   1      30.478  26.086  24.329  1.00  0.00    -0.006 A 
ATOM      8  C   UNL A   1      29.378  26.503  23.584  1.00  0.00     0.013 A 
ATOM      9  C   UNL A   1      31.389  27.022  24.825  1.00  0.00     0.027 A 
ATOM     10  C   UNL A   1      29.228  27.862  23.301  1.00  0.00     0.047 A 
ATOM     11  C   UNL A   1      30.223  28.770  23.678  1.00  0.00     0.128 A 
BRANCH   7  12
ATOM     12  C   UNL A   1      30.784  24.645  24.486  1.00  0.00     0.119 C 
ATOM     13  N   UNL A   1      31.836  24.141  23.918  1.00  0.00    -0.256 NA
BRANCH  13  14
ATOM     14  C   UNL A   1      32.087  22.762  23.967  1.00  0.00     0.063 A 
ATOM     15  C   UNL A   1      32.436  19.975  23.930  1.00  0.00     0.082 A 
ATOM     16  C   UNL A   1      32.255  20.665  22.730  1.00  0.00     0.024 A 
ATOM     17  C   UNL A   1      32.421  20.659  25.147  1.00  0.00     0.024 A 
ATOM     18  C   UNL A   1      32.077  22.052  22.758  1.00  0.00     0.030 A 
ATOM     19  C   UNL A   1      32.238  22.047  25.162  1.00  0.00     0.030 A 
BRANCH  15  20
ATOM     20  S   UNL A   1      32.667  18.222  23.925  1.00  0.00     0.238 S 
ATOM     21  O   UNL A   1      31.831  17.634  24.943  1.00  0.00    -0.207 OA
ATOM     22  O   UNL A   1      34.082  17.948  23.820  1.00  0.00    -0.207 OA
BRANCH  20  23
ATOM     23  N   UNL A   1      31.985  17.733  22.468  1.00  0.00    -0.225 NA
ATOM     24  H   UNL A   1      31.102  18.223  22.325  1.00  0.00     0.137 HD
ATOM     25  H   UNL A   1      31.817  16.728  22.491  1.00  0.00     0.137 HD
ENDBRANCH  20  23
ENDBRANCH  15  20
ENDBRANCH  13  14
ENDBRANCH   7  12
BRANCH  11  26
ATOM     26  O   UNL A   1      30.019  30.072  23.302  1.00  0.00    -0.507 OA
ATOM     27  H   UNL A   1      29.861  30.728  23.952  1.00  0.00     0.293 HD
ENDBRANCH  11  26
ENDBRANCH   3   6
ENDBRANCH   1   2
BRANCH   1  28
ATOM     28  C   UNL A   1      31.388  32.343  26.587  1.00  0.00     0.042 C 
BRANCH  28  29
ATOM     29  C   UNL A   1      32.638  32.929  27.214  1.00  0.00     0.118 C 
BRANCH  29  30
ATOM     30  N   UNL A   1      32.457  34.305  27.662  1.00  0.00    -0.352 N 
ATOM     31  C   UNL A   1      33.037  35.002  28.695  1.00  0.00     0.251 C 
ATOM     32  H   UNL A   1      31.807  34.823  27.135  1.00  0.00     0.163 HD
ATOM     33  O   UNL A   1      32.575  36.091  29.023  1.00  0.00    -0.269 OA
BRANCH  31  34
ATOM     34  C   UNL A   1      34.199  34.451  29.424  1.00  0.00     0.039 A 
ATOM     35  C   UNL A   1      33.996  33.836  30.664  1.00  0.00     0.014 A 
ATOM     36  C   UNL A   1      35.491  34.563  28.913  1.00  0.00     0.014 A 
ATOM     37  C   UNL A   1      35.077  33.275  31.347  1.00  0.00     0.010 A 
ATOM     38  C   UNL A   1      36.546  33.901  29.532  1.00  0.00     0.010 A 
ATOM     39  C   UNL A   1      36.355  33.264  30.765  1.00  0.00    -0.014 A 
BRANCH  39  40
ATOM     40  C   UNL A   1      37.514  32.622  31.437  1.00  0.00     0.031 A 
ATOM     41  C   UNL A   1      38.242  31.490  30.762  1.00  0.00     0.074 A 
ATOM     42  C   UNL A   1      37.872  33.017  32.674  1.00  0.00     0.049 A 
ATOM     43  N   UNL A   1      39.223  30.748  31.212  1.00  0.00    -0.248 NA
ATOM     44  C   UNL A   1      37.786  31.118  29.412  1.00  0.00     0.031 C 
ATOM     45  C   UNL A   1      37.217  34.071  33.450  1.00  0.00     0.029 A 
ATOM     46  N   UNL A   1      38.873  32.572  33.501  1.00  0.00    -0.354 N 
ATOM     47  C   UNL A   1      39.490  29.825  30.209  1.00  0.00     0.074 A 
ATOM     48  C   UNL A   1      38.522  30.047  29.159  1.00  0.00     0.031 C 
ATOM     49  C   UNL A   1      37.854  34.216  34.623  1.00  0.00     0.029 A 
ATOM     50  C   UNL A   1      38.930  33.234  34.703  1.00  0.00     0.049 A 
ATOM     51  H   UNL A   1      39.491  31.846  33.256  1.00  0.00     0.167 HD
ATOM     52  C   UNL A   1      40.477  28.900  30.150  1.00  0.00     0.037 A 
ATOM     53  C   UNL A   1      39.755  33.061  35.754  1.00  0.00     0.037 A 
ATOM     54  C   UNL A   1      41.449  28.694  31.191  1.00  0.00     0.049 A 
ATOM     55  C   UNL A   1      40.820  31.999  35.677  1.00  0.00     0.074 A 
ATOM     56  C   UNL A   1      42.509  27.805  31.219  1.00  0.00     0.029 A 
ATOM     57  N   UNL A   1      41.478  29.389  32.391  1.00  0.00    -0.354 N 
ATOM     58  N   UNL A   1      41.102  31.175  34.697  1.00  0.00    -0.248 NA
ATOM     59  C   UNL A   1      41.688  31.850  36.852  1.00  0.00     0.031 C 
ATOM     60  C   UNL A   1      43.149  27.928  32.455  1.00  0.00     0.029 A 
ATOM     61  C   UNL A   1      42.527  28.937  33.174  1.00  0.00     0.049 A 
ATOM     62  H   UNL A   1      40.846  30.099  32.648  1.00  0.00     0.167 HD
ATOM     63  C   UNL A   1      42.201  30.441  35.120  1.00  0.00     0.074 A 
ATOM     64  C   UNL A   1      42.546  30.928  36.438  1.00  0.00     0.031 C 
ATOM     65  C   UNL A   1      42.868  29.451  34.476  1.00  0.00     0.037 A 
BRANCH  52  66
ATOM     66  C   UNL A   1      40.561  28.050  28.914  1.00  0.00     0.064 A 
ATOM     67  C   UNL A   1      39.833  26.855  28.794  1.00  0.00     0.173 A 
ATOM     68  C   UNL A   1      41.348  28.448  27.823  1.00  0.00     0.173 A 
ATOM     69  F   UNL A   1      39.076  26.420  29.813  1.00  0.00    -0.203 F 
ATOM     70  C   UNL A   1      39.912  26.078  27.641  1.00  0.00     0.198 A 
ATOM     71  C   UNL A   1      41.396  27.687  26.656  1.00  0.00     0.198 A 
ATOM     72  F   UNL A   1      42.061  29.583  27.879  1.00  0.00    -0.203 F 
ATOM     73  F   UNL A   1      39.250  24.915  27.572  1.00  0.00    -0.200 F 
ATOM     74  C   UNL A   1      40.686  26.499  26.570  1.00  0.00     0.200 A 
ATOM     75  F   UNL A   1      42.131  28.103  25.617  1.00  0.00    -0.200 F 
ATOM     76  F   UNL A   1      40.752  25.756  25.456  1.00  0.00    -0.200 F 
ENDBRANCH  52  66
BRANCH  53  77
ATOM     77  C   UNL A   1      39.630  33.923  36.961  1.00  0.00     0.064 A 
ATOM     78  C   UNL A   1      38.875  33.506  38.067  1.00  0.00     0.173 A 
ATOM     79  C   UNL A   1      40.228  35.191  37.022  1.00  0.00     0.173 A 
ATOM     80  F   UNL A   1      38.269  32.311  38.050  1.00  0.00    -0.203 F 
ATOM     81  C   UNL A   1      38.692  34.337  39.170  1.00  0.00     0.198 A 
ATOM     82  C   UNL A   1      40.073  36.007  38.142  1.00  0.00     0.198 A 
ATOM     83  F   UNL A   1      40.967  35.637  35.996  1.00  0.00    -0.203 F 
ATOM     84  F   UNL A   1      37.911  33.939  40.183  1.00  0.00    -0.200 F 
ATOM     85  C   UNL A   1      39.294  35.585  39.208  1.00  0.00     0.200 A 
ATOM     86  F   UNL A   1      40.672  37.205  38.182  1.00  0.00    -0.200 F 
ATOM     87  F   UNL A   1      39.114  36.386  40.267  1.00  0.00    -0.200 F 
ENDBRANCH  53  77
BRANCH  65  88
ATOM     88  C   UNL A   1      44.072  28.870  35.163  1.00  0.00     0.064 A 
ATOM     89  C   UNL A   1      43.973  27.780  36.038  1.00  0.00     0.173 A 
ATOM     90  C   UNL A   1      45.349  29.397  34.913  1.00  0.00     0.173 A 
ATOM     91  F   UNL A   1      42.774  27.247  36.322  1.00  0.00    -0.203 F 
ATOM     92  C   UNL A   1      45.102  27.261  36.667  1.00  0.00     0.198 A 
ATOM     93  C   UNL A   1      46.480  28.852  35.513  1.00  0.00     0.198 A 
ATOM     94  F   UNL A   1      45.501  30.434  34.076  1.00  0.00    -0.203 F 
ATOM     95  F   UNL A   1      44.976  26.259  37.547  1.00  0.00    -0.200 F 
ATOM     96  C   UNL A   1      46.355  27.792  36.397  1.00  0.00     0.200 A 
ATOM     97  F   UNL A   1      47.691  29.355  35.236  1.00  0.00    -0.200 F 
ATOM     98  F   UNL A   1      47.441  27.287  36.997  1.00  0.00    -0.200 F 
ENDBRANCH  65  88
ENDBRANCH  39  40
ENDBRANCH  31  34
ENDBRANCH  29  30
ENDBRANCH  28  29
ENDBRANCH   1  28
TORSDOF 15
ENDMDL
MODEL 2
REMARK VINA RESULT:     -13.4      5.477     10.920
REMARK SMILES NS(=O)(=O)c1ccc(/N=C/c2ccc(O)c(C(=O)NCCCNC(=O)c3ccc(-c4c5nc(c(-c6c(F)c(F)c(F)c(F)c6F)c6ccc([nH]6)c(-c6c(F)c(F)c(F)c(F)c6F)c6nc(c(-c7c(F)c(F)c(F)c(F)c7F)c7ccc4[nH]7)C=C6)C=C5)cc3)c2)cc1
REMARK SMILES IDX 20 1 19 2 17 3 18 4 16 6 11 7 12 8 89 9 13 10 14 11 10 12
REMARK SMILES IDX 9 13 8 14 5 15 6 16 91 17 7 18 90 19 2 20 3 21 4 22 1 23
REMARK SMILES IDX 15 26 21 28 22 29 23 30 24 31 25 33 26 34 27 35 88 36 28 37
REMARK SMILES IDX 87 38 29 39 30 40 31 41 81 42 32 43 86 44 80 45 82 46 33 47
REMARK SMILES IDX 85 48 79 49 78 50 34 52 66 53 46 54 65 55 47 56 50 57 64 58
REMARK SMILES IDX 83 59 48 60 49 61 63 63 84 64 51 65 35 66 36 67 44 68 37 69
REMARK SMILES IDX 38 70 42 71 45 72 39 73 40 74 43 75 41 76 67 77 68 78 76 79
REMARK SMILES IDX 69 80 70 81 74 82 77 83 71 84 72 85 75 86 73 87 52 88 53 89
REMARK SMILES IDX 61 90 54 91 55 92 59 93 62 94 56 95 57 96 60 97 58 98
REMARK H PARENT 19 5 1 24 1 25 15 27 23 32 82 51 50 62
REMARK Flexibility Score: inf
ROOT
ATOM      1  C   UNL A   1      36.816  20.777  24.882  1.00  0.00     0.118 C 
ENDROOT
BRANCH   1   2
ATOM      2  N   UNL A   1      37.161  22.107  25.372  1.00  0.00    -0.352 N 
ATOM      3  C   UNL A   1      36.415  23.175  25.816  1.00  0.00     0.255 C 
ATOM      4  O   UNL A   1      37.015  24.203  26.138  1.00  0.00    -0.269 OA
ATOM      5  H   UNL A   1      38.130  22.277  25.387  1.00  0.00     0.163 HD
BRANCH   3   6
ATOM      6  C   UNL A   1      34.927  23.198  25.854  1.00  0.00     0.082 A 
ATOM      7  C   UNL A   1      32.814  24.223  25.254  1.00  0.00    -0.006 A 
ATOM      8  C   UNL A   1      32.147  23.489  26.232  1.00  0.00     0.013 A 
ATOM      9  C   UNL A   1      34.166  23.987  24.996  1.00  0.00     0.027 A 
ATOM     10  C   UNL A   1      32.862  22.551  26.979  1.00  0.00     0.047 A 
ATOM     11  C   UNL A   1      34.245  22.429  26.811  1.00  0.00     0.128 A 
BRANCH   7  12
ATOM     12  C   UNL A   1      32.149  25.360  24.576  1.00  0.00     0.119 C 
ATOM     13  N   UNL A   1      31.501  26.240  25.274  1.00  0.00    -0.256 NA
BRANCH  13  14
ATOM     14  C   UNL A   1      30.778  27.264  24.645  1.00  0.00     0.063 A 
ATOM     15  C   UNL A   1      29.306  29.189  23.224  1.00  0.00     0.082 A 
ATOM     16  C   UNL A   1      28.858  27.868  23.264  1.00  0.00     0.024 A 
ATOM     17  C   UNL A   1      30.492  29.553  23.865  1.00  0.00     0.024 A 
ATOM     18  C   UNL A   1      29.600  26.915  23.971  1.00  0.00     0.030 A 
ATOM     19  C   UNL A   1      31.227  28.589  24.565  1.00  0.00     0.030 A 
BRANCH  15  20
ATOM     20  S   UNL A   1      28.387  30.416  22.344  1.00  0.00     0.238 S 
ATOM     21  O   UNL A   1      27.335  30.918  23.194  1.00  0.00    -0.207 OA
ATOM     22  O   UNL A   1      28.147  29.933  21.004  1.00  0.00    -0.207 OA
BRANCH  20  23
ATOM     23  N   UNL A   1      29.469  31.695  22.194  1.00  0.00    -0.225 NA
ATOM     24  H   UNL A   1      29.031  32.552  22.531  1.00  0.00     0.137 HD
ATOM     25  H   UNL A   1      29.729  31.808  21.214  1.00  0.00     0.137 HD
ENDBRANCH  20  23
ENDBRANCH  15  20
ENDBRANCH  13  14
ENDBRANCH   7  12
BRANCH  11  26
ATOM     26  O   UNL A   1      34.871  21.528  27.634  1.00  0.00    -0.507 OA
ATOM     27  H   UNL A   1      34.507  20.674  27.755  1.00  0.00     0.293 HD
ENDBRANCH  11  26
ENDBRANCH   3   6
ENDBRANCH   1   2
BRANCH   1  28
ATOM     28  C   UNL A   1      37.942  19.764  24.988  1.00  0.00     0.042 C 
BRANCH  28  29
ATOM     29  C   UNL A   1      39.072  20.174  25.913  1.00  0.00     0.118 C 
BRANCH  29  30
ATOM     30  N   UNL A   1      40.185  19.233  25.902  1.00  0.00    -0.352 N 
ATOM     31  C   UNL A   1      41.539  19.434  26.023  1.00  0.00     0.251 C 
ATOM     32  H   UNL A   1      39.922  18.291  25.787  1.00  0.00     0.163 HD
ATOM     33  O   UNL A   1      42.312  18.515  25.769  1.00  0.00    -0.269 OA
BRANCH  31  34
ATOM     34  C   UNL A   1      42.076  20.747  26.439  1.00  0.00     0.039 A 
ATOM     35  C   UNL A   1      42.494  21.654  25.461  1.00  0.00     0.014 A 
ATOM     36  C   UNL A   1      42.203  21.080  27.788  1.00  0.00     0.014 A 
ATOM     37  C   UNL A   1      42.967  22.914  25.836  1.00  0.00     0.010 A 
ATOM     38  C   UNL A   1      42.558  22.373  28.157  1.00  0.00     0.010 A 
ATOM     39  C   UNL A   1      42.961  23.300  27.186  1.00  0.00    -0.014 A 
BRANCH  39  40
ATOM     40  C   UNL A   1      43.399  24.653  27.614  1.00  0.00     0.031 A 
ATOM     41  C   UNL A   1      42.375  25.700  27.965  1.00  0.00     0.074 A 
ATOM     42  C   UNL A   1      44.712  24.957  27.628  1.00  0.00     0.049 A 
ATOM     43  N   UNL A   1      42.549  26.958  28.283  1.00  0.00    -0.248 NA
ATOM     44  C   UNL A   1      40.962  25.287  27.921  1.00  0.00     0.031 C 
ATOM     45  C   UNL A   1      45.797  24.044  27.266  1.00  0.00     0.029 A 
ATOM     46  N   UNL A   1      45.357  26.123  27.955  1.00  0.00    -0.354 N 
ATOM     47  C   UNL A   1      41.276  27.481  28.467  1.00  0.00     0.074 A 
ATOM     48  C   UNL A   1      40.335  26.430  28.151  1.00  0.00     0.031 C 
ATOM     49  C   UNL A   1      46.973  24.671  27.425  1.00  0.00     0.029 A 
ATOM     50  C   UNL A   1      46.724  26.045  27.852  1.00  0.00     0.049 A 
ATOM     51  H   UNL A   1      44.884  26.939  28.237  1.00  0.00     0.167 HD
ATOM     52  C   UNL A   1      40.921  28.715  28.896  1.00  0.00     0.037 A 
ATOM     53  C   UNL A   1      47.670  26.979  28.071  1.00  0.00     0.037 A 
ATOM     54  C   UNL A   1      41.861  29.754  29.225  1.00  0.00     0.049 A 
ATOM     55  C   UNL A   1      47.244  28.355  28.511  1.00  0.00     0.074 A 
ATOM     56  C   UNL A   1      41.609  31.029  29.698  1.00  0.00     0.029 A 
ATOM     57  N   UNL A   1      43.239  29.633  29.114  1.00  0.00    -0.354 N 
ATOM     58  N   UNL A   1      46.040  28.818  28.742  1.00  0.00    -0.248 NA
ATOM     59  C   UNL A   1      48.315  29.337  28.731  1.00  0.00     0.031 C 
ATOM     60  C   UNL A   1      42.830  31.696  29.827  1.00  0.00     0.029 A 
ATOM     61  C   UNL A   1      43.849  30.817  29.494  1.00  0.00     0.049 A 
ATOM     62  H   UNL A   1      43.713  28.825  28.811  1.00  0.00     0.167 HD
ATOM     63  C   UNL A   1      46.210  30.128  29.171  1.00  0.00     0.074 A 
ATOM     64  C   UNL A   1      47.635  30.380  29.185  1.00  0.00     0.031 C 
ATOM     65  C   UNL A   1      45.271  31.041  29.522  1.00  0.00     0.037 A 
BRANCH  52  66
ATOM     66  C   UNL A   1      39.454  29.005  29.046  1.00  0.00     0.064 A 
ATOM     67  C   UNL A   1      38.808  28.897  30.289  1.00  0.00     0.173 A 
ATOM     68  C   UNL A   1      38.692  29.432  27.948  1.00  0.00     0.173 A 
ATOM     69  F   UNL A   1      39.486  28.481  31.369  1.00  0.00    -0.203 F 
ATOM     70  C   UNL A   1      37.450  29.176  30.419  1.00  0.00     0.198 A 
ATOM     71  C   UNL A   1      37.342  29.745  28.089  1.00  0.00     0.198 A 
ATOM     72  F   UNL A   1      39.257  29.558  26.738  1.00  0.00    -0.203 F 
ATOM     73  F   UNL A   1      36.845  29.013  31.604  1.00  0.00    -0.200 F 
ATOM     74  C   UNL A   1      36.720  29.608  29.322  1.00  0.00     0.200 A 
ATOM     75  F   UNL A   1      36.642  30.177  27.032  1.00  0.00    -0.200 F 
ATOM     76  F   UNL A   1      35.416  29.888  29.451  1.00  0.00    -0.200 F 
ENDBRANCH  52  66
BRANCH  53  77
ATOM     77  C   UNL A   1      49.111  26.648  27.903  1.00  0.00     0.064 A 
ATOM     78  C   UNL A   1      49.701  26.632  26.631  1.00  0.00     0.173 A 
ATOM     79  C   UNL A   1      49.918  26.307  28.999  1.00  0.00     0.173 A 
ATOM     80  F   UNL A   1      48.969  26.933  25.550  1.00  0.00    -0.203 F 
ATOM     81  C   UNL A   1      51.030  26.252  26.458  1.00  0.00     0.198 A 
ATOM     82  C   UNL A   1      51.257  25.961  28.827  1.00  0.00     0.198 A 
ATOM     83  F   UNL A   1      49.407  26.313  30.238  1.00  0.00    -0.203 F 
ATOM     84  F   UNL A   1      51.549  26.182  25.224  1.00  0.00    -0.200 F 
ATOM     85  C   UNL A   1      51.808  25.920  27.556  1.00  0.00     0.200 A 
ATOM     86  F   UNL A   1      52.011  25.658  29.894  1.00  0.00    -0.200 F 
ATOM     87  F   UNL A   1      53.085  25.550  27.388  1.00  0.00    -0.200 F 
ENDBRANCH  53  77
BRANCH  65  88
ATOM     88  C   UNL A   1      45.758  32.378  30.007  1.00  0.00     0.064 A 
ATOM     89  C   UNL A   1      46.076  32.608  31.353  1.00  0.00     0.173 A 
ATOM     90  C   UNL A   1      45.939  33.434  29.101  1.00  0.00     0.173 A 
ATOM     91  F   UNL A   1      45.909  31.635  32.264  1.00  0.00    -0.203 F 
ATOM     92  C   UNL A   1      46.522  33.856  31.781  1.00  0.00     0.198 A 
ATOM     93  C   UNL A   1      46.422  34.669  29.524  1.00  0.00     0.198 A 
ATOM     94  F   UNL A   1      45.659  33.265  27.800  1.00  0.00    -0.203 F 
ATOM     95  F   UNL A   1      46.761  34.071  33.081  1.00  0.00    -0.200 F 
ATOM     96  C   UNL A   1      46.703  34.882  30.865  1.00  0.00     0.200 A 
ATOM     97  F   UNL A   1      46.611  35.653  28.635  1.00  0.00    -0.200 F 
ATOM     98  F   UNL A   1      47.139  36.080  31.276  1.00  0.00    -0.200 F 
ENDBRANCH  65  88
ENDBRANCH  39  40
ENDBRANCH  31  34
ENDBRANCH  29  30
ENDBRANCH  28  29
ENDBRANCH   1  28
TORSDOF 15
ENDMDL
MODEL 3
REMARK VINA RESULT:     -13.3      0.176      1.663
REMARK SMILES NS(=O)(=O)c1ccc(/N=C/c2ccc(O)c(C(=O)NCCCNC(=O)c3ccc(-c4c5nc(c(-c6c(F)c(F)c(F)c(F)c6F)c6ccc([nH]6)c(-c6c(F)c(F)c(F)c(F)c6F)c6nc(c(-c7c(F)c(F)c(F)c(F)c7F)c7ccc4[nH]7)C=C6)C=C5)cc3)c2)cc1
REMARK SMILES IDX 20 1 19 2 17 3 18 4 16 6 11 7 12 8 89 9 13 10 14 11 10 12
REMARK SMILES IDX 9 13 8 14 5 15 6 16 91 17 7 18 90 19 2 20 3 21 4 22 1 23
REMARK SMILES IDX 15 26 21 28 22 29 23 30 24 31 25 33 26 34 27 35 88 36 28 37
REMARK SMILES IDX 87 38 29 39 30 40 31 41 81 42 32 43 86 44 80 45 82 46 33 47
REMARK SMILES IDX 85 48 79 49 78 50 34 52 66 53 46 54 65 55 47 56 50 57 64 58
REMARK SMILES IDX 83 59 48 60 49 61 63 63 84 64 51 65 35 66 36 67 44 68 37 69
REMARK SMILES IDX 38 70 42 71 45 72 39 73 40 74 43 75 41 76 67 77 68 78 76 79
REMARK SMILES IDX 69 80 70 81 74 82 77 83 71 84 72 85 75 86 73 87 52 88 53 89
REMARK SMILES IDX 61 90 54 91 55 92 59 93 62 94 56 95 57 96 60 97 58 98
REMARK H PARENT 19 5 1 24 1 25 15 27 23 32 82 51 50 62
REMARK Flexibility Score: inf
ROOT
ATOM      1  C   UNL A   1      31.478  30.810  26.490  1.00  0.00     0.118 C 
ENDROOT
BRANCH   1   2
ATOM      2  N   UNL A   1      32.459  30.330  25.523  1.00  0.00    -0.352 N 
ATOM      3  C   UNL A   1      32.444  29.331  24.578  1.00  0.00     0.255 C 
ATOM      4  O   UNL A   1      33.471  29.144  23.921  1.00  0.00    -0.269 OA
ATOM      5  H   UNL A   1      33.310  30.824  25.554  1.00  0.00     0.163 HD
BRANCH   3   6
ATOM      6  C   UNL A   1      31.298  28.408  24.353  1.00  0.00     0.082 A 
ATOM      7  C   UNL A   1      30.374  26.169  24.267  1.00  0.00    -0.006 A 
ATOM      8  C   UNL A   1      29.264  26.622  23.559  1.00  0.00     0.013 A 
ATOM      9  C   UNL A   1      31.317  27.076  24.757  1.00  0.00     0.027 A 
ATOM     10  C   UNL A   1      29.135  27.989  23.307  1.00  0.00     0.047 A 
ATOM     11  C   UNL A   1      30.157  28.869  23.675  1.00  0.00     0.128 A 
BRANCH   7  12
ATOM     12  C   UNL A   1      30.654  24.719  24.388  1.00  0.00     0.119 C 
ATOM     13  N   UNL A   1      31.569  24.173  23.649  1.00  0.00    -0.256 NA
BRANCH  13  14
ATOM     14  C   UNL A   1      31.779  22.786  23.672  1.00  0.00     0.063 A 
ATOM     15  C   UNL A   1      32.339  20.040  23.868  1.00  0.00     0.082 A 
ATOM     16  C   UNL A   1      32.165  20.794  25.029  1.00  0.00     0.024 A 
ATOM     17  C   UNL A   1      32.261  20.647  22.613  1.00  0.00     0.024 A 
ATOM     18  C   UNL A   1      31.890  22.162  24.923  1.00  0.00     0.030 A 
ATOM     19  C   UNL A   1      31.990  22.018  22.520  1.00  0.00     0.030 A 
BRANCH  15  20
ATOM     20  S   UNL A   1      32.682  18.309  23.972  1.00  0.00     0.238 S 
ATOM     21  O   UNL A   1      31.902  17.737  25.042  1.00  0.00    -0.207 OA
ATOM     22  O   UNL A   1      34.110  18.118  23.856  1.00  0.00    -0.207 OA
BRANCH  20  23
ATOM     23  N   UNL A   1      32.010  17.684  22.563  1.00  0.00    -0.225 NA
ATOM     24  H   UNL A   1      31.633  16.755  22.750  1.00  0.00     0.137 HD
ATOM     25  H   UNL A   1      32.728  17.621  21.842  1.00  0.00     0.137 HD
ENDBRANCH  20  23
ENDBRANCH  15  20
ENDBRANCH  13  14
ENDBRANCH   7  12
BRANCH  11  26
ATOM     26  O   UNL A   1      29.971  30.182  23.329  1.00  0.00    -0.507 OA
ATOM     27  H   UNL A   1      29.275  30.674  23.717  1.00  0.00     0.293 HD
ENDBRANCH  11  26
ENDBRANCH   3   6
ENDBRANCH   1   2
BRANCH   1  28
ATOM     28  C   UNL A   1      31.422  32.322  26.620  1.00  0.00     0.042 C 
BRANCH  28  29
ATOM     29  C   UNL A   1      32.686  32.954  27.169  1.00  0.00     0.118 C 
BRANCH  29  30
ATOM     30  N   UNL A   1      32.482  34.321  27.634  1.00  0.00    -0.352 N 
ATOM     31  C   UNL A   1      33.038  35.009  28.686  1.00  0.00     0.251 C 
ATOM     32  H   UNL A   1      31.836  34.840  27.103  1.00  0.00     0.163 HD
ATOM     33  O   UNL A   1      32.558  36.088  29.022  1.00  0.00    -0.269 OA
BRANCH  31  34
ATOM     34  C   UNL A   1      34.192  34.460  29.427  1.00  0.00     0.039 A 
ATOM     35  C   UNL A   1      33.981  33.865  30.675  1.00  0.00     0.014 A 
ATOM     36  C   UNL A   1      35.488  34.554  28.918  1.00  0.00     0.014 A 
ATOM     37  C   UNL A   1      35.057  33.306  31.370  1.00  0.00     0.010 A 
ATOM     38  C   UNL A   1      36.535  33.893  29.549  1.00  0.00     0.010 A 
ATOM     39  C   UNL A   1      36.336  33.276  30.792  1.00  0.00    -0.014 A 
BRANCH  39  40
ATOM     40  C   UNL A   1      37.488  32.635  31.476  1.00  0.00     0.031 A 
ATOM     41  C   UNL A   1      38.203  31.481  30.824  1.00  0.00     0.074 A 
ATOM     42  C   UNL A   1      37.849  33.050  32.706  1.00  0.00     0.049 A 
ATOM     43  N   UNL A   1      39.176  30.738  31.289  1.00  0.00    -0.248 NA
ATOM     44  C   UNL A   1      37.743  31.088  29.482  1.00  0.00     0.031 C 
ATOM     45  C   UNL A   1      37.206  34.126  33.460  1.00  0.00     0.029 A 
ATOM     46  N   UNL A   1      38.846  32.611  33.541  1.00  0.00    -0.354 N 
ATOM     47  C   UNL A   1      39.433  29.793  30.305  1.00  0.00     0.074 A 
ATOM     48  C   UNL A   1      38.467  30.004  29.250  1.00  0.00     0.031 C 
ATOM     49  C   UNL A   1      37.845  34.288  34.630  1.00  0.00     0.029 A 
ATOM     50  C   UNL A   1      38.910  33.296  34.730  1.00  0.00     0.049 A 
ATOM     51  H   UNL A   1      39.456  31.874  33.311  1.00  0.00     0.167 HD
ATOM     52  C   UNL A   1      40.409  28.856  30.265  1.00  0.00     0.037 A 
ATOM     53  C   UNL A   1      39.733  33.136  35.785  1.00  0.00     0.037 A 
ATOM     54  C   UNL A   1      41.380  28.660  31.310  1.00  0.00     0.049 A 
ATOM     55  C   UNL A   1      40.787  32.061  35.728  1.00  0.00     0.074 A 
ATOM     56  C   UNL A   1      42.429  27.760  31.355  1.00  0.00     0.029 A 
ATOM     57  N   UNL A   1      41.416  29.379  32.496  1.00  0.00    -0.354 N 
ATOM     58  N   UNL A   1      41.059  31.214  34.765  1.00  0.00    -0.248 NA
ATOM     59  C   UNL A   1      41.653  31.926  36.906  1.00  0.00     0.031 C 
ATOM     60  C   UNL A   1      43.071  27.901  32.590  1.00  0.00     0.029 A 
ATOM     61  C   UNL A   1      42.461  28.931  33.288  1.00  0.00     0.049 A 
ATOM     62  H   UNL A   1      40.792  30.101  32.738  1.00  0.00     0.167 HD
ATOM     63  C   UNL A   1      42.151  30.476  35.203  1.00  0.00     0.074 A 
ATOM     64  C   UNL A   1      42.501  30.986  36.512  1.00  0.00     0.031 C 
ATOM     65  C   UNL A   1      42.806  29.466  34.579  1.00  0.00     0.037 A 
BRANCH  52  66
ATOM     66  C   UNL A   1      40.485  27.980  29.046  1.00  0.00     0.064 A 
ATOM     67  C   UNL A   1      41.295  28.317  27.949  1.00  0.00     0.173 A 
ATOM     68  C   UNL A   1      39.771  26.773  28.986  1.00  0.00     0.173 A 
ATOM     69  F   UNL A   1      41.987  29.466  27.949  1.00  0.00    -0.203 F 
ATOM     70  C   UNL A   1      41.364  27.495  26.827  1.00  0.00     0.198 A 
ATOM     71  C   UNL A   1      39.871  25.935  27.877  1.00  0.00     0.198 A 
ATOM     72  F   UNL A   1      38.986  26.398  30.006  1.00  0.00    -0.203 F 
ATOM     73  F   UNL A   1      42.101  27.865  25.772  1.00  0.00    -0.200 F 
ATOM     74  C   UNL A   1      40.660  26.301  26.796  1.00  0.00     0.200 A 
ATOM     75  F   UNL A   1      39.203  24.774  27.855  1.00  0.00    -0.200 F 
ATOM     76  F   UNL A   1      40.736  25.504  25.721  1.00  0.00    -0.200 F 
ENDBRANCH  52  66
BRANCH  53  77
ATOM     77  C   UNL A   1      39.618  34.023  36.974  1.00  0.00     0.064 A 
ATOM     78  C   UNL A   1      40.285  35.256  37.018  1.00  0.00     0.173 A 
ATOM     79  C   UNL A   1      38.873  33.646  38.101  1.00  0.00     0.173 A 
ATOM     80  F   UNL A   1      41.024  35.654  35.973  1.00  0.00    -0.203 F 
ATOM     81  C   UNL A   1      40.242  36.059  38.155  1.00  0.00     0.198 A 
ATOM     82  C   UNL A   1      38.802  34.467  39.225  1.00  0.00     0.198 A 
ATOM     83  F   UNL A   1      38.209  32.482  38.110  1.00  0.00    -0.203 F 
ATOM     84  F   UNL A   1      40.944  37.200  38.194  1.00  0.00    -0.200 F 
ATOM     85  C   UNL A   1      39.498  35.666  39.257  1.00  0.00     0.200 A 
ATOM     86  F   UNL A   1      38.067  34.092  40.281  1.00  0.00    -0.200 F 
ATOM     87  F   UNL A   1      39.461  36.436  40.353  1.00  0.00    -0.200 F 
ENDBRANCH  53  77
BRANCH  65  88
ATOM     88  C   UNL A   1      44.004  28.887  35.278  1.00  0.00     0.064 A 
ATOM     89  C   UNL A   1      43.887  27.852  36.217  1.00  0.00     0.173 A 
ATOM     90  C   UNL A   1      45.292  29.356  34.976  1.00  0.00     0.173 A 
ATOM     91  F   UNL A   1      42.677  27.377  36.552  1.00  0.00    -0.203 F 
ATOM     92  C   UNL A   1      45.011  27.334  36.855  1.00  0.00     0.198 A 
ATOM     93  C   UNL A   1      46.417  28.809  35.587  1.00  0.00     0.198 A 
ATOM     94  F   UNL A   1      45.462  30.337  34.078  1.00  0.00    -0.203 F 
ATOM     95  F   UNL A   1      44.869  26.388  37.793  1.00  0.00    -0.200 F 
ATOM     96  C   UNL A   1      46.275  27.806  36.533  1.00  0.00     0.200 A 
ATOM     97  F   UNL A   1      47.637  29.255  35.261  1.00  0.00    -0.200 F 
ATOM     98  F   UNL A   1      47.355  27.301  37.142  1.00  0.00    -0.200 F 
ENDBRANCH  65  88
ENDBRANCH  39  40
ENDBRANCH  31  34
ENDBRANCH  29  30
ENDBRANCH  28  29
ENDBRANCH   1  28
TORSDOF 15
ENDMDL
