MODEL 1
REMARK VINA RESULT:      -9.9      0.000      0.000
REMARK SMILES [NH3+][C@](CCCP(=O)([O-])[O-])(Cc1ccccc1)C(=O)NCCCNC(=O)c1ccc(-c2c3nc(c(-c4c(F)c(F)c(F)c(F)c4F)c4ccc([nH]4)c(-c4c(F)c(F)c(F)c(F)c4F)c4nc(c(-c5c(F)c(F)c(F)c(F)c5F)c5ccc2[nH]5)C=C4)C=C3)cc1
REMARK SMILES IDX 20 1 19 2 17 3 18 4 2 6 1 7 10 11 11 12 12 13 16 14 13 15
REMARK SMILES IDX 15 16 14 17 3 18 4 19 5 20 6 21 7 22 8 23 9 24 21 25 22 26
REMARK SMILES IDX 23 27 24 28 25 30 26 31 27 32 88 33 28 34 87 35 29 36 30 37
REMARK SMILES IDX 31 38 81 39 32 40 86 41 80 42 82 43 33 44 85 45 79 46 78 47
REMARK SMILES IDX 34 49 66 50 46 51 65 52 47 53 50 54 64 55 83 56 48 57 49 58
REMARK SMILES IDX 63 60 84 61 51 62 35 63 36 64 44 65 37 66 38 67 42 68 45 69
REMARK SMILES IDX 39 70 40 71 43 72 41 73 67 74 68 75 76 76 69 77 70 78 74 79
REMARK SMILES IDX 77 80 71 81 72 82 75 83 73 84 52 85 53 86 61 87 54 88 55 89
REMARK SMILES IDX 59 90 62 91 56 92 57 93 60 94 58 95
REMARK H PARENT 19 5 1 8 1 9 1 10 23 29 82 48 50 59
REMARK Flexibility Score: inf
ROOT
ATOM      1  C   UNL A   1      35.290  32.261  31.049  1.00  0.00     0.118 C 
ENDROOT
BRANCH   1   2
ATOM      2  N   UNL A   1      36.646  32.772  31.047  1.00  0.00    -0.351 N 
ATOM      3  C   UNL A   1      37.381  33.419  31.988  1.00  0.00     0.281 C 
ATOM      4  O   UNL A   1      38.465  33.849  31.586  1.00  0.00    -0.268 OA
ATOM      5  H   UNL A   1      37.126  32.622  30.201  1.00  0.00     0.163 HD
BRANCH   3   6
ATOM      6  C   UNL A   1      36.911  33.614  33.460  1.00  0.00     0.178 C 
BRANCH   6   7
ATOM      7  N   UNL A   1      37.862  34.517  34.171  1.00  0.00    -0.345 N 
ATOM      8  H   UNL A   1      37.560  35.485  34.060  1.00  0.00     0.345 HD
ATOM      9  H   UNL A   1      38.796  34.405  33.775  1.00  0.00     0.345 HD
ATOM     10  H   UNL A   1      37.882  34.278  35.162  1.00  0.00     0.345 HD
ENDBRANCH   6   7
BRANCH   6  11
ATOM     11  C   UNL A   1      36.928  32.248  34.212  1.00  0.00     0.114 C 
BRANCH  11  12
ATOM     12  C   UNL A   1      38.124  31.344  34.003  1.00  0.00    -0.041 A 
ATOM     13  C   UNL A   1      37.981  30.132  33.314  1.00  0.00     0.004 A 
ATOM     14  C   UNL A   1      39.383  31.674  34.526  1.00  0.00     0.004 A 
ATOM     15  C   UNL A   1      39.071  29.274  33.145  1.00  0.00     0.000 A 
ATOM     16  C   UNL A   1      40.472  30.818  34.355  1.00  0.00     0.000 A 
ATOM     17  C   UNL A   1      40.316  29.618  33.664  1.00  0.00     0.000 A 
ENDBRANCH  11  12
ENDBRANCH   6  11
BRANCH   6  18
ATOM     18  C   UNL A   1      35.477  34.242  33.498  1.00  0.00     0.080 C 
BRANCH  18  19
ATOM     19  C   UNL A   1      35.245  35.577  32.761  1.00  0.00     0.012 C 
BRANCH  19  20
ATOM     20  C   UNL A   1      34.143  36.500  33.273  1.00  0.00     0.040 C 
BRANCH  20  21
ATOM     21  P   UNL A   1      32.614  36.494  32.350  1.00  0.00    -0.067 P 
ATOM     22  O   UNL A   1      31.375  36.840  33.102  1.00  0.00    -0.357 OA
ATOM     23  O   UNL A   1      32.898  37.469  31.106  1.00  0.00    -0.811 OA
ATOM     24  O   UNL A   1      32.510  35.108  31.573  1.00  0.00    -0.811 OA
ENDBRANCH  20  21
ENDBRANCH  19  20
ENDBRANCH  18  19
ENDBRANCH   6  18
ENDBRANCH   3   6
ENDBRANCH   1   2
BRANCH   1  25
ATOM     25  C   UNL A   1      34.426  32.964  30.006  1.00  0.00     0.042 C 
BRANCH  25  26
ATOM     26  C   UNL A   1      34.729  32.564  28.566  1.00  0.00     0.118 C 
BRANCH  26  27
ATOM     27  N   UNL A   1      34.076  31.322  28.178  1.00  0.00    -0.352 N 
ATOM     28  C   UNL A   1      34.623  30.091  27.924  1.00  0.00     0.251 C 
ATOM     29  H   UNL A   1      33.097  31.374  28.085  1.00  0.00     0.163 HD
ATOM     30  O   UNL A   1      33.933  29.205  27.421  1.00  0.00    -0.269 OA
BRANCH  28  31
ATOM     31  C   UNL A   1      36.042  29.828  28.236  1.00  0.00     0.039 A 
ATOM     32  C   UNL A   1      36.374  29.322  29.496  1.00  0.00     0.014 A 
ATOM     33  C   UNL A   1      37.045  30.096  27.301  1.00  0.00     0.014 A 
ATOM     34  C   UNL A   1      37.706  29.027  29.795  1.00  0.00     0.010 A 
ATOM     35  C   UNL A   1      38.362  29.734  27.573  1.00  0.00     0.010 A 
ATOM     36  C   UNL A   1      38.706  29.202  28.825  1.00  0.00    -0.014 A 
BRANCH  36  37
ATOM     37  C   UNL A   1      40.123  28.856  29.103  1.00  0.00     0.031 A 
ATOM     38  C   UNL A   1      40.999  29.827  29.844  1.00  0.00     0.074 A 
ATOM     39  C   UNL A   1      40.636  27.700  28.639  1.00  0.00     0.049 A 
ATOM     40  N   UNL A   1      42.282  29.760  30.098  1.00  0.00    -0.248 NA
ATOM     41  C   UNL A   1      40.351  31.049  30.348  1.00  0.00     0.031 C 
ATOM     42  C   UNL A   1      39.895  26.689  27.882  1.00  0.00     0.029 A 
ATOM     43  N   UNL A   1      41.905  27.186  28.728  1.00  0.00    -0.354 N 
ATOM     44  C   UNL A   1      42.594  30.931  30.776  1.00  0.00     0.074 A 
ATOM     45  C   UNL A   1      41.379  31.716  30.850  1.00  0.00     0.031 C 
ATOM     46  C   UNL A   1      40.718  25.668  27.593  1.00  0.00     0.029 A 
ATOM     47  C   UNL A   1      42.051  25.969  28.108  1.00  0.00     0.049 A 
ATOM     48  H   UNL A   1      42.641  27.646  29.191  1.00  0.00     0.167 HD
ATOM     49  C   UNL A   1      43.779  31.308  31.312  1.00  0.00     0.037 A 
ATOM     50  C   UNL A   1      43.140  25.191  27.963  1.00  0.00     0.037 A 
ATOM     51  C   UNL A   1      44.980  30.518  31.259  1.00  0.00     0.049 A 
ATOM     52  C   UNL A   1      44.450  25.644  28.549  1.00  0.00     0.074 A 
ATOM     53  C   UNL A   1      46.225  30.801  31.793  1.00  0.00     0.029 A 
ATOM     54  N   UNL A   1      45.082  29.281  30.638  1.00  0.00    -0.354 N 
ATOM     55  N   UNL A   1      44.723  26.736  29.223  1.00  0.00    -0.248 NA
ATOM     56  C   UNL A   1      45.604  24.755  28.358  1.00  0.00     0.031 C 
ATOM     57  C   UNL A   1      47.089  29.749  31.470  1.00  0.00     0.029 A 
ATOM     58  C   UNL A   1      46.372  28.792  30.770  1.00  0.00     0.049 A 
ATOM     59  H   UNL A   1      44.347  28.821  30.173  1.00  0.00     0.167 HD
ATOM     60  C   UNL A   1      46.065  26.647  29.565  1.00  0.00     0.074 A 
ATOM     61  C   UNL A   1      46.551  25.391  29.034  1.00  0.00     0.031 C 
ATOM     62  C   UNL A   1      46.829  27.528  30.257  1.00  0.00     0.037 A 
BRANCH  49  63
ATOM     63  C   UNL A   1      43.831  32.631  32.018  1.00  0.00     0.064 A 
ATOM     64  C   UNL A   1      43.982  33.832  31.307  1.00  0.00     0.173 A 
ATOM     65  C   UNL A   1      43.691  32.706  33.411  1.00  0.00     0.173 A 
ATOM     66  F   UNL A   1      44.134  33.812  29.974  1.00  0.00    -0.203 F 
ATOM     67  C   UNL A   1      44.014  35.056  31.968  1.00  0.00     0.198 A 
ATOM     68  C   UNL A   1      43.694  33.935  34.065  1.00  0.00     0.198 A 
ATOM     69  F   UNL A   1      43.539  31.589  34.137  1.00  0.00    -0.203 F 
ATOM     70  F   UNL A   1      44.202  36.186  31.271  1.00  0.00    -0.200 F 
ATOM     71  C   UNL A   1      43.862  35.108  33.345  1.00  0.00     0.200 A 
ATOM     72  F   UNL A   1      43.537  33.985  35.395  1.00  0.00    -0.200 F 
ATOM     73  F   UNL A   1      43.885  36.289  33.978  1.00  0.00    -0.200 F 
ENDBRANCH  49  63
BRANCH  50  74
ATOM     74  C   UNL A   1      43.042  23.889  27.254  1.00  0.00     0.064 A 
ATOM     75  C   UNL A   1      42.604  22.738  27.924  1.00  0.00     0.173 A 
ATOM     76  C   UNL A   1      43.408  23.760  25.906  1.00  0.00     0.173 A 
ATOM     77  F   UNL A   1      42.265  22.808  29.220  1.00  0.00    -0.203 F 
ATOM     78  C   UNL A   1      42.560  21.503  27.282  1.00  0.00     0.198 A 
ATOM     79  C   UNL A   1      43.336  22.528  25.257  1.00  0.00     0.198 A 
ATOM     80  F   UNL A   1      43.830  24.830  25.218  1.00  0.00    -0.203 F 
ATOM     81  F   UNL A   1      42.186  20.411  27.962  1.00  0.00    -0.200 F 
ATOM     82  C   UNL A   1      42.922  21.400  25.947  1.00  0.00     0.200 A 
ATOM     83  F   UNL A   1      43.676  22.434  23.964  1.00  0.00    -0.200 F 
ATOM     84  F   UNL A   1      42.882  20.211  25.331  1.00  0.00    -0.200 F 
ENDBRANCH  50  74
BRANCH  62  85
ATOM     85  C   UNL A   1      48.252  27.140  30.526  1.00  0.00     0.064 A 
ATOM     86  C   UNL A   1      49.295  27.528  29.673  1.00  0.00     0.173 A 
ATOM     87  C   UNL A   1      48.579  26.405  31.676  1.00  0.00     0.173 A 
ATOM     88  F   UNL A   1      49.030  28.217  28.553  1.00  0.00    -0.203 F 
ATOM     89  C   UNL A   1      50.612  27.174  29.950  1.00  0.00     0.198 A 
ATOM     90  C   UNL A   1      49.900  26.077  31.963  1.00  0.00     0.198 A 
ATOM     91  F   UNL A   1      47.617  26.016  32.526  1.00  0.00    -0.203 F 
ATOM     92  F   UNL A   1      51.589  27.517  29.099  1.00  0.00    -0.200 F 
ATOM     93  C   UNL A   1      50.914  26.456  31.097  1.00  0.00     0.200 A 
ATOM     94  F   UNL A   1      50.191  25.392  33.078  1.00  0.00    -0.200 F 
ATOM     95  F   UNL A   1      52.185  26.121  31.365  1.00  0.00    -0.200 F 
ENDBRANCH  62  85
ENDBRANCH  36  37
ENDBRANCH  28  31
ENDBRANCH  26  27
ENDBRANCH  25  26
ENDBRANCH   1  25
TORSDOF 17
ENDMDL
MODEL 2
REMARK VINA RESULT:      -9.9      0.141      1.675
REMARK SMILES [NH3+][C@](CCCP(=O)([O-])[O-])(Cc1ccccc1)C(=O)NCCCNC(=O)c1ccc(-c2c3nc(c(-c4c(F)c(F)c(F)c(F)c4F)c4ccc([nH]4)c(-c4c(F)c(F)c(F)c(F)c4F)c4nc(c(-c5c(F)c(F)c(F)c(F)c5F)c5ccc2[nH]5)C=C4)C=C3)cc1
REMARK SMILES IDX 20 1 19 2 17 3 18 4 2 6 1 7 10 11 11 12 12 13 16 14 13 15
REMARK SMILES IDX 15 16 14 17 3 18 4 19 5 20 6 21 7 22 8 23 9 24 21 25 22 26
REMARK SMILES IDX 23 27 24 28 25 30 26 31 27 32 88 33 28 34 87 35 29 36 30 37
REMARK SMILES IDX 31 38 81 39 32 40 86 41 80 42 82 43 33 44 85 45 79 46 78 47
REMARK SMILES IDX 34 49 66 50 46 51 65 52 47 53 50 54 64 55 83 56 48 57 49 58
REMARK SMILES IDX 63 60 84 61 51 62 35 63 36 64 44 65 37 66 38 67 42 68 45 69
REMARK SMILES IDX 39 70 40 71 43 72 41 73 67 74 68 75 76 76 69 77 70 78 74 79
REMARK SMILES IDX 77 80 71 81 72 82 75 83 73 84 52 85 53 86 61 87 54 88 55 89
REMARK SMILES IDX 59 90 62 91 56 92 57 93 60 94 58 95
REMARK H PARENT 19 5 1 8 1 9 1 10 23 29 82 48 50 59
REMARK Flexibility Score: inf
ROOT
ATOM      1  C   UNL A   1      35.521  32.074  31.025  1.00  0.00     0.118 C 
ENDROOT
BRANCH   1   2
ATOM      2  N   UNL A   1      36.843  32.667  31.045  1.00  0.00    -0.351 N 
ATOM      3  C   UNL A   1      37.524  33.350  32.000  1.00  0.00     0.281 C 
ATOM      4  O   UNL A   1      38.585  33.849  31.615  1.00  0.00    -0.268 OA
ATOM      5  H   UNL A   1      37.343  32.551  30.205  1.00  0.00     0.163 HD
BRANCH   3   6
ATOM      6  C   UNL A   1      37.023  33.507  33.466  1.00  0.00     0.178 C 
BRANCH   6   7
ATOM      7  N   UNL A   1      37.966  34.380  34.224  1.00  0.00    -0.345 N 
ATOM      8  H   UNL A   1      37.478  34.802  35.014  1.00  0.00     0.345 HD
ATOM      9  H   UNL A   1      38.317  35.115  33.609  1.00  0.00     0.345 HD
ATOM     10  H   UNL A   1      38.747  33.821  34.566  1.00  0.00     0.345 HD
ENDBRANCH   6   7
BRANCH   6  11
ATOM     11  C   UNL A   1      37.011  32.120  34.178  1.00  0.00     0.114 C 
BRANCH  11  12
ATOM     12  C   UNL A   1      38.196  31.204  33.955  1.00  0.00    -0.041 A 
ATOM     13  C   UNL A   1      38.032  29.993  33.268  1.00  0.00     0.004 A 
ATOM     14  C   UNL A   1      39.464  31.522  34.462  1.00  0.00     0.004 A 
ATOM     15  C   UNL A   1      39.111  29.124  33.087  1.00  0.00     0.000 A 
ATOM     16  C   UNL A   1      40.542  30.654  34.277  1.00  0.00     0.000 A 
ATOM     17  C   UNL A   1      40.366  29.456  33.590  1.00  0.00     0.000 A 
ENDBRANCH  11  12
ENDBRANCH   6  11
BRANCH   6  18
ATOM     18  C   UNL A   1      35.594  34.147  33.491  1.00  0.00     0.080 C 
BRANCH  18  19
ATOM     19  C   UNL A   1      35.379  35.482  32.748  1.00  0.00     0.012 C 
BRANCH  19  20
ATOM     20  C   UNL A   1      34.226  36.376  33.195  1.00  0.00     0.040 C 
BRANCH  20  21
ATOM     21  P   UNL A   1      32.788  36.400  32.136  1.00  0.00    -0.067 P 
ATOM     22  O   UNL A   1      32.465  35.137  31.414  1.00  0.00    -0.357 OA
ATOM     23  O   UNL A   1      31.601  36.909  33.091  1.00  0.00    -0.811 OA
ATOM     24  O   UNL A   1      32.903  37.662  31.172  1.00  0.00    -0.811 OA
ENDBRANCH  20  21
ENDBRANCH  19  20
ENDBRANCH  18  19
ENDBRANCH   6  18
ENDBRANCH   3   6
ENDBRANCH   1   2
BRANCH   1  25
ATOM     25  C   UNL A   1      34.588  32.820  30.077  1.00  0.00     0.042 C 
BRANCH  25  26
ATOM     26  C   UNL A   1      34.796  32.495  28.603  1.00  0.00     0.118 C 
BRANCH  26  27
ATOM     27  N   UNL A   1      34.150  31.253  28.204  1.00  0.00    -0.352 N 
ATOM     28  C   UNL A   1      34.701  30.025  27.942  1.00  0.00     0.251 C 
ATOM     29  H   UNL A   1      33.170  31.301  28.110  1.00  0.00     0.163 HD
ATOM     30  O   UNL A   1      34.017  29.141  27.431  1.00  0.00    -0.269 OA
BRANCH  28  31
ATOM     31  C   UNL A   1      36.122  29.766  28.254  1.00  0.00     0.039 A 
ATOM     32  C   UNL A   1      36.454  29.253  29.510  1.00  0.00     0.014 A 
ATOM     33  C   UNL A   1      37.125  30.045  27.322  1.00  0.00     0.014 A 
ATOM     34  C   UNL A   1      37.787  28.961  29.810  1.00  0.00     0.010 A 
ATOM     35  C   UNL A   1      38.443  29.687  27.594  1.00  0.00     0.010 A 
ATOM     36  C   UNL A   1      38.787  29.147  28.843  1.00  0.00    -0.014 A 
BRANCH  36  37
ATOM     37  C   UNL A   1      40.205  28.805  29.120  1.00  0.00     0.031 A 
ATOM     38  C   UNL A   1      41.084  29.786  29.845  1.00  0.00     0.074 A 
ATOM     39  C   UNL A   1      40.717  27.643  28.671  1.00  0.00     0.049 A 
ATOM     40  N   UNL A   1      42.367  29.723  30.096  1.00  0.00    -0.248 NA
ATOM     41  C   UNL A   1      40.437  31.015  30.335  1.00  0.00     0.031 C 
ATOM     42  C   UNL A   1      39.974  26.622  27.929  1.00  0.00     0.029 A 
ATOM     43  N   UNL A   1      41.986  27.130  28.761  1.00  0.00    -0.354 N 
ATOM     44  C   UNL A   1      42.681  30.903  30.758  1.00  0.00     0.074 A 
ATOM     45  C   UNL A   1      41.467  31.688  30.825  1.00  0.00     0.031 C 
ATOM     46  C   UNL A   1      40.796  25.597  27.651  1.00  0.00     0.029 A 
ATOM     47  C   UNL A   1      42.130  25.905  28.157  1.00  0.00     0.049 A 
ATOM     48  H   UNL A   1      42.723  27.597  29.216  1.00  0.00     0.167 HD
ATOM     49  C   UNL A   1      43.868  31.287  31.284  1.00  0.00     0.037 A 
ATOM     50  C   UNL A   1      43.219  25.126  28.019  1.00  0.00     0.037 A 
ATOM     51  C   UNL A   1      45.069  30.496  31.238  1.00  0.00     0.049 A 
ATOM     52  C   UNL A   1      44.531  25.587  28.595  1.00  0.00     0.074 A 
ATOM     53  C   UNL A   1      46.316  30.786  31.763  1.00  0.00     0.029 A 
ATOM     54  N   UNL A   1      45.169  29.252  30.632  1.00  0.00    -0.354 N 
ATOM     55  N   UNL A   1      44.806  26.687  29.253  1.00  0.00    -0.248 NA
ATOM     56  C   UNL A   1      45.685  24.696  28.411  1.00  0.00     0.031 C 
ATOM     57  C   UNL A   1      47.179  29.731  31.451  1.00  0.00     0.029 A 
ATOM     58  C   UNL A   1      46.459  28.765  30.767  1.00  0.00     0.049 A 
ATOM     59  H   UNL A   1      44.433  28.785  30.176  1.00  0.00     0.167 HD
ATOM     60  C   UNL A   1      46.149  26.604  29.592  1.00  0.00     0.074 A 
ATOM     61  C   UNL A   1      46.633  25.340  29.076  1.00  0.00     0.031 C 
ATOM     62  C   UNL A   1      46.915  27.494  30.269  1.00  0.00     0.037 A 
BRANCH  49  63
ATOM     63  C   UNL A   1      43.922  32.619  31.972  1.00  0.00     0.064 A 
ATOM     64  C   UNL A   1      44.112  33.807  31.248  1.00  0.00     0.173 A 
ATOM     65  C   UNL A   1      43.746  32.717  33.359  1.00  0.00     0.173 A 
ATOM     66  F   UNL A   1      44.298  33.765  29.920  1.00  0.00    -0.203 F 
ATOM     67  C   UNL A   1      44.145  35.040  31.892  1.00  0.00     0.198 A 
ATOM     68  C   UNL A   1      43.751  33.956  33.996  1.00  0.00     0.198 A 
ATOM     69  F   UNL A   1      43.557  31.613  34.097  1.00  0.00    -0.203 F 
ATOM     70  F   UNL A   1      44.370  36.157  31.185  1.00  0.00    -0.200 F 
ATOM     71  C   UNL A   1      43.958  35.115  33.263  1.00  0.00     0.200 A 
ATOM     72  F   UNL A   1      43.559  34.028  35.320  1.00  0.00    -0.200 F 
ATOM     73  F   UNL A   1      43.982  36.304  33.880  1.00  0.00    -0.200 F 
ENDBRANCH  49  63
BRANCH  50  74
ATOM     74  C   UNL A   1      43.119  23.814  27.327  1.00  0.00     0.064 A 
ATOM     75  C   UNL A   1      43.501  23.682  25.985  1.00  0.00     0.173 A 
ATOM     76  C   UNL A   1      42.619  22.678  27.979  1.00  0.00     0.173 A 
ATOM     77  F   UNL A   1      43.965  24.747  25.314  1.00  0.00    -0.203 F 
ATOM     78  C   UNL A   1      43.361  22.469  25.313  1.00  0.00     0.198 A 
ATOM     79  C   UNL A   1      42.506  21.459  27.313  1.00  0.00     0.198 A 
ATOM     80  F   UNL A   1      42.243  22.751  29.264  1.00  0.00    -0.203 F 
ATOM     81  F   UNL A   1      43.686  22.385  24.016  1.00  0.00    -0.200 F 
ATOM     82  C   UNL A   1      42.868  21.358  25.978  1.00  0.00     0.200 A 
ATOM     83  F   UNL A   1      42.039  20.384  27.962  1.00  0.00    -0.200 F 
ATOM     84  F   UNL A   1      42.731  20.194  25.331  1.00  0.00    -0.200 F 
ENDBRANCH  50  74
BRANCH  62  85
ATOM     85  C   UNL A   1      48.340  27.110  30.539  1.00  0.00     0.064 A 
ATOM     86  C   UNL A   1      48.694  26.327  31.646  1.00  0.00     0.173 A 
ATOM     87  C   UNL A   1      49.356  27.498  29.653  1.00  0.00     0.173 A 
ATOM     88  F   UNL A   1      47.759  25.946  32.531  1.00  0.00    -0.203 F 
ATOM     89  C   UNL A   1      50.019  25.965  31.870  1.00  0.00     0.198 A 
ATOM     90  C   UNL A   1      50.675  27.111  29.865  1.00  0.00     0.198 A 
ATOM     91  F   UNL A   1      49.065  28.242  28.575  1.00  0.00    -0.203 F 
ATOM     92  F   UNL A   1      50.343  25.253  32.958  1.00  0.00    -0.200 F 
ATOM     93  C   UNL A   1      51.007  26.351  30.976  1.00  0.00     0.200 A 
ATOM     94  F   UNL A   1      51.626  27.476  28.994  1.00  0.00    -0.200 F 
ATOM     95  F   UNL A   1      52.282  25.996  31.189  1.00  0.00    -0.200 F 
ENDBRANCH  62  85
ENDBRANCH  36  37
ENDBRANCH  28  31
ENDBRANCH  26  27
ENDBRANCH  25  26
ENDBRANCH   1  25
TORSDOF 17
ENDMDL
MODEL 3
REMARK VINA RESULT:      -9.8      5.270      9.978
REMARK SMILES [NH3+][C@](CCCP(=O)([O-])[O-])(Cc1ccccc1)C(=O)NCCCNC(=O)c1ccc(-c2c3nc(c(-c4c(F)c(F)c(F)c(F)c4F)c4ccc([nH]4)c(-c4c(F)c(F)c(F)c(F)c4F)c4nc(c(-c5c(F)c(F)c(F)c(F)c5F)c5ccc2[nH]5)C=C4)C=C3)cc1
REMARK SMILES IDX 20 1 19 2 17 3 18 4 2 6 1 7 10 11 11 12 12 13 16 14 13 15
REMARK SMILES IDX 15 16 14 17 3 18 4 19 5 20 6 21 7 22 8 23 9 24 21 25 22 26
REMARK SMILES IDX 23 27 24 28 25 30 26 31 27 32 88 33 28 34 87 35 29 36 30 37
REMARK SMILES IDX 31 38 81 39 32 40 86 41 80 42 82 43 33 44 85 45 79 46 78 47
REMARK SMILES IDX 34 49 66 50 46 51 65 52 47 53 50 54 64 55 83 56 48 57 49 58
REMARK SMILES IDX 63 60 84 61 51 62 35 63 36 64 44 65 37 66 38 67 42 68 45 69
REMARK SMILES IDX 39 70 40 71 43 72 41 73 67 74 68 75 76 76 69 77 70 78 74 79
REMARK SMILES IDX 77 80 71 81 72 82 75 83 73 84 52 85 53 86 61 87 54 88 55 89
REMARK SMILES IDX 59 90 62 91 56 92 57 93 60 94 58 95
REMARK H PARENT 19 5 1 8 1 9 1 10 23 29 82 48 50 59
REMARK Flexibility Score: inf
ROOT
ATOM      1  C   UNL A   1      36.440  21.051  24.951  1.00  0.00     0.118 C 
ENDROOT
BRANCH   1   2
ATOM      2  N   UNL A   1      35.598  20.961  26.127  1.00  0.00    -0.351 N 
ATOM      3  C   UNL A   1      34.269  21.167  26.318  1.00  0.00     0.281 C 
ATOM      4  O   UNL A   1      33.912  21.149  27.498  1.00  0.00    -0.268 OA
ATOM      5  H   UNL A   1      36.081  20.700  26.944  1.00  0.00     0.163 HD
BRANCH   3   6
ATOM      6  C   UNL A   1      33.262  21.411  25.155  1.00  0.00     0.178 C 
BRANCH   6   7
ATOM      7  N   UNL A   1      31.869  21.365  25.685  1.00  0.00    -0.345 N 
ATOM      8  H   UNL A   1      31.422  20.497  25.391  1.00  0.00     0.345 HD
ATOM      9  H   UNL A   1      31.341  22.159  25.323  1.00  0.00     0.345 HD
ATOM     10  H   UNL A   1      31.891  21.407  26.704  1.00  0.00     0.345 HD
ENDBRANCH   6   7
BRANCH   6  11
ATOM     11  C   UNL A   1      33.385  20.274  24.094  1.00  0.00     0.114 C 
BRANCH  11  12
ATOM     12  C   UNL A   1      33.480  18.849  24.597  1.00  0.00    -0.041 A 
ATOM     13  C   UNL A   1      34.591  18.058  24.270  1.00  0.00     0.004 A 
ATOM     14  C   UNL A   1      32.450  18.279  25.357  1.00  0.00     0.004 A 
ATOM     15  C   UNL A   1      34.672  16.731  24.699  1.00  0.00     0.000 A 
ATOM     16  C   UNL A   1      32.533  16.953  25.788  1.00  0.00     0.000 A 
ATOM     17  C   UNL A   1      33.644  16.179  25.460  1.00  0.00     0.000 A 
ENDBRANCH  11  12
ENDBRANCH   6  11
BRANCH   6  18
ATOM     18  C   UNL A   1      33.517  22.806  24.493  1.00  0.00     0.080 C 
BRANCH  18  19
ATOM     19  C   UNL A   1      34.059  23.946  25.380  1.00  0.00     0.012 C 
BRANCH  19  20
ATOM     20  C   UNL A   1      33.170  25.167  25.607  1.00  0.00     0.040 C 
BRANCH  20  21
ATOM     21  P   UNL A   1      31.476  24.837  26.065  1.00  0.00    -0.067 P 
ATOM     22  O   UNL A   1      30.604  24.231  25.019  1.00  0.00    -0.357 OA
ATOM     23  O   UNL A   1      31.591  23.944  27.394  1.00  0.00    -0.811 OA
ATOM     24  O   UNL A   1      30.867  26.165  26.697  1.00  0.00    -0.811 OA
ENDBRANCH  20  21
ENDBRANCH  19  20
ENDBRANCH  18  19
ENDBRANCH   6  18
ENDBRANCH   3   6
ENDBRANCH   1   2
BRANCH   1  25
ATOM     25  C   UNL A   1      37.562  20.019  24.987  1.00  0.00     0.042 C 
BRANCH  25  26
ATOM     26  C   UNL A   1      38.854  20.515  25.627  1.00  0.00     0.118 C 
BRANCH  26  27
ATOM     27  N   UNL A   1      39.846  19.461  25.779  1.00  0.00    -0.352 N 
ATOM     28  C   UNL A   1      41.181  19.554  26.076  1.00  0.00     0.251 C 
ATOM     29  H   UNL A   1      39.508  18.544  25.651  1.00  0.00     0.163 HD
ATOM     30  O   UNL A   1      41.904  18.564  25.975  1.00  0.00    -0.269 OA
BRANCH  28  31
ATOM     31  C   UNL A   1      41.761  20.845  26.501  1.00  0.00     0.039 A 
ATOM     32  C   UNL A   1      42.233  21.726  25.525  1.00  0.00     0.014 A 
ATOM     33  C   UNL A   1      41.858  21.179  27.854  1.00  0.00     0.014 A 
ATOM     34  C   UNL A   1      42.746  22.969  25.903  1.00  0.00     0.010 A 
ATOM     35  C   UNL A   1      42.302  22.445  28.226  1.00  0.00     0.010 A 
ATOM     36  C   UNL A   1      42.755  23.351  27.254  1.00  0.00    -0.014 A 
BRANCH  36  37
ATOM     37  C   UNL A   1      43.255  24.683  27.679  1.00  0.00     0.031 A 
ATOM     38  C   UNL A   1      42.280  25.766  28.046  1.00  0.00     0.074 A 
ATOM     39  C   UNL A   1      44.578  24.936  27.676  1.00  0.00     0.049 A 
ATOM     40  N   UNL A   1      42.508  27.021  28.344  1.00  0.00    -0.248 NA
ATOM     41  C   UNL A   1      40.855  25.395  28.058  1.00  0.00     0.031 C 
ATOM     42  C   UNL A   1      45.622  23.976  27.312  1.00  0.00     0.029 A 
ATOM     43  N   UNL A   1      45.270  26.081  27.980  1.00  0.00    -0.354 N 
ATOM     44  C   UNL A   1      41.259  27.588  28.566  1.00  0.00     0.074 A 
ATOM     45  C   UNL A   1      40.274  26.557  28.317  1.00  0.00     0.031 C 
ATOM     46  C   UNL A   1      46.823  24.567  27.432  1.00  0.00     0.029 A 
ATOM     47  C   UNL A   1      46.631  25.955  27.843  1.00  0.00     0.049 A 
ATOM     48  H   UNL A   1      44.832  26.913  28.268  1.00  0.00     0.167 HD
ATOM     49  C   UNL A   1      40.962  28.847  28.964  1.00  0.00     0.037 A 
ATOM     50  C   UNL A   1      47.610  26.862  28.019  1.00  0.00     0.037 A 
ATOM     51  C   UNL A   1      41.942  29.865  29.233  1.00  0.00     0.049 A 
ATOM     52  C   UNL A   1      47.250  28.261  28.441  1.00  0.00     0.074 A 
ATOM     53  C   UNL A   1      41.743  31.165  29.666  1.00  0.00     0.029 A 
ATOM     54  N   UNL A   1      43.313  29.693  29.101  1.00  0.00    -0.354 N 
ATOM     55  N   UNL A   1      46.069  28.775  28.685  1.00  0.00    -0.248 NA
ATOM     56  C   UNL A   1      48.361  29.207  28.615  1.00  0.00     0.031 C 
ATOM     57  C   UNL A   1      42.991  31.788  29.767  1.00  0.00     0.029 A 
ATOM     58  C   UNL A   1      43.970  30.865  29.437  1.00  0.00     0.049 A 
ATOM     59  H   UNL A   1      43.751  28.861  28.811  1.00  0.00     0.167 HD
ATOM     60  C   UNL A   1      46.296  30.086  29.075  1.00  0.00     0.074 A 
ATOM     61  C   UNL A   1      47.729  30.290  29.045  1.00  0.00     0.031 C 
ATOM     62  C   UNL A   1      45.398  31.040  29.426  1.00  0.00     0.037 A 
BRANCH  49  63
ATOM     63  C   UNL A   1      39.514  29.191  29.149  1.00  0.00     0.064 A 
ATOM     64  C   UNL A   1      38.701  29.541  28.058  1.00  0.00     0.173 A 
ATOM     65  C   UNL A   1      38.920  29.136  30.418  1.00  0.00     0.173 A 
ATOM     66  F   UNL A   1      39.225  29.621  26.826  1.00  0.00    -0.203 F 
ATOM     67  C   UNL A   1      37.355  29.844  28.236  1.00  0.00     0.198 A 
ATOM     68  C   UNL A   1      37.565  29.412  30.587  1.00  0.00     0.198 A 
ATOM     69  F   UNL A   1      39.649  28.803  31.492  1.00  0.00    -0.203 F 
ATOM     70  F   UNL A   1      36.610  30.216  27.185  1.00  0.00    -0.200 F 
ATOM     71  C   UNL A   1      36.786  29.772  29.498  1.00  0.00     0.200 A 
ATOM     72  F   UNL A   1      37.013  29.331  31.806  1.00  0.00    -0.200 F 
ATOM     73  F   UNL A   1      35.487  30.055  29.665  1.00  0.00    -0.200 F 
ENDBRANCH  49  63
BRANCH  50  74
ATOM     74  C   UNL A   1      49.032  26.477  27.822  1.00  0.00     0.064 A 
ATOM     75  C   UNL A   1      49.869  26.239  28.921  1.00  0.00     0.173 A 
ATOM     76  C   UNL A   1      49.590  26.364  26.540  1.00  0.00     0.173 A 
ATOM     77  F   UNL A   1      49.386  26.357  30.167  1.00  0.00    -0.203 F 
ATOM     78  C   UNL A   1      51.217  25.930  28.747  1.00  0.00     0.198 A 
ATOM     79  C   UNL A   1      50.931  26.027  26.367  1.00  0.00     0.198 A 
ATOM     80  F   UNL A   1      48.831  26.578  25.456  1.00  0.00    -0.203 F 
ATOM     81  F   UNL A   1      52.005  25.759  29.817  1.00  0.00    -0.200 F 
ATOM     82  C   UNL A   1      51.746  25.821  27.470  1.00  0.00     0.200 A 
ATOM     83  F   UNL A   1      51.436  25.911  25.132  1.00  0.00    -0.200 F 
ATOM     84  F   UNL A   1      53.041  25.526  27.304  1.00  0.00    -0.200 F 
ENDBRANCH  50  74
BRANCH  62  85
ATOM     85  C   UNL A   1      45.941  32.370  29.857  1.00  0.00     0.064 A 
ATOM     86  C   UNL A   1      46.131  33.418  28.947  1.00  0.00     0.173 A 
ATOM     87  C   UNL A   1      46.236  32.608  31.208  1.00  0.00     0.173 A 
ATOM     88  F   UNL A   1      45.878  33.233  27.642  1.00  0.00    -0.203 F 
ATOM     89  C   UNL A   1      46.618  34.651  29.370  1.00  0.00     0.198 A 
ATOM     90  C   UNL A   1      46.698  33.850  31.631  1.00  0.00     0.198 A 
ATOM     91  F   UNL A   1      46.066  31.637  32.119  1.00  0.00    -0.203 F 
ATOM     92  F   UNL A   1      46.833  35.627  28.476  1.00  0.00    -0.200 F 
ATOM     93  C   UNL A   1      46.894  34.869  30.711  1.00  0.00     0.200 A 
ATOM     94  F   UNL A   1      46.953  34.061  32.930  1.00  0.00    -0.200 F 
ATOM     95  F   UNL A   1      47.357  36.059  31.118  1.00  0.00    -0.200 F 
ENDBRANCH  62  85
ENDBRANCH  36  37
ENDBRANCH  28  31
ENDBRANCH  26  27
ENDBRANCH  25  26
ENDBRANCH   1  25
TORSDOF 17
ENDMDL
