MODEL 1
REMARK VINA RESULT:     -13.4      0.000      0.000
REMARK SMILES Cc1cccc(C[C@H](C(=O)NCCCNC(=O)c2ccc(-c3c4nc(c(-c5c(F)c(F)c(F)c(F)c5F)c5ccc([nH]5)c(-c5c(F)c(F)c(F)c(F)c5F)c5nc(c(-c6c(F)c(F)c(F)c(F)c6F)c6ccc3[nH]6)C=C5)C=C4)cc2)[C@@H]2CCCC[C@@H]2O)c1
REMARK SMILES IDX 13 1 12 2 11 3 9 4 10 5 8 7 7 8 6 9 1 10 2 11 3 12 88 13
REMARK SMILES IDX 4 14 5 15 81 16 82 17 86 18 83 19 85 20 84 21 87 22 14 24
REMARK SMILES IDX 15 25 16 26 17 28 18 29 19 30 80 31 20 32 79 33 21 34 22 35
REMARK SMILES IDX 23 36 73 37 24 38 78 39 72 40 74 41 25 42 77 43 71 44 70 45
REMARK SMILES IDX 26 47 58 48 38 49 57 50 39 51 42 52 56 53 75 54 40 55 41 56
REMARK SMILES IDX 55 58 76 59 43 60 27 61 28 62 36 63 29 64 30 65 34 66 37 67
REMARK SMILES IDX 31 68 32 69 35 70 33 71 59 72 60 73 68 74 61 75 62 76 66 77
REMARK SMILES IDX 69 78 63 79 64 80 67 81 65 82 44 83 45 84 53 85 46 86 47 87
REMARK SMILES IDX 51 88 54 89 48 90 49 91 52 92 50 93
REMARK H PARENT 11 6 87 23 15 27 74 46 42 57
REMARK Flexibility Score: inf
ROOT
ATOM      1  C   UNL A   1      38.929  21.508  25.815  1.00  0.00     0.042 C 
ENDROOT
BRANCH   1   2
ATOM      2  C   UNL A   1      37.460  21.339  25.413  1.00  0.00     0.117 C 
BRANCH   2   3
ATOM      3  N   UNL A   1      37.142  21.779  24.062  1.00  0.00    -0.356 N 
ATOM      4  C   UNL A   1      36.256  22.728  23.624  1.00  0.00     0.223 C 
ATOM      5  O   UNL A   1      36.283  22.997  22.420  1.00  0.00    -0.275 OA
ATOM      6  H   UNL A   1      37.642  21.321  23.349  1.00  0.00     0.163 HD
BRANCH   4   7
ATOM      7  C   UNL A   1      35.230  23.382  24.587  1.00  0.00     0.088 C 
BRANCH   7   8
ATOM      8  C   UNL A   1      34.629  24.618  23.850  1.00  0.00     0.049 C 
BRANCH   8   9
ATOM      9  C   UNL A   1      33.652  25.536  24.555  1.00  0.00    -0.047 A 
ATOM     10  C   UNL A   1      30.169  26.985  23.871  1.00  0.00     0.044 C 
ATOM     11  C   UNL A   1      31.460  26.640  24.554  1.00  0.00    -0.051 A 
ATOM     12  C   UNL A   1      31.717  27.139  25.832  1.00  0.00     0.003 A 
ATOM     13  C   UNL A   1      32.418  25.820  23.936  1.00  0.00     0.007 A 
ATOM     14  C   UNL A   1      32.948  26.907  26.434  1.00  0.00     0.001 A 
ATOM     15  C   UNL A   1      33.924  26.154  25.775  1.00  0.00     0.004 A 
ENDBRANCH   8   9
ENDBRANCH   7   8
BRANCH   7  16
ATOM     16  C   UNL A   1      34.239  22.256  25.053  1.00  0.00     0.030 C 
ATOM     17  C   UNL A   1      33.133  21.809  24.086  1.00  0.00     0.007 C 
ATOM     18  C   UNL A   1      33.746  22.305  26.523  1.00  0.00     0.118 C 
ATOM     19  C   UNL A   1      31.779  22.460  24.321  1.00  0.00     0.001 C 
ATOM     20  C   UNL A   1      32.340  22.853  26.754  1.00  0.00     0.032 C 
ATOM     21  C   UNL A   1      31.320  22.318  25.765  1.00  0.00     0.003 C 
BRANCH  18  22
ATOM     22  O   UNL A   1      34.682  22.948  27.382  1.00  0.00    -0.393 OA
ATOM     23  H   UNL A   1      35.373  23.371  26.849  1.00  0.00     0.210 HD
ENDBRANCH  18  22
ENDBRANCH   7  16
ENDBRANCH   4   7
ENDBRANCH   2   3
ENDBRANCH   1   2
BRANCH   1  24
ATOM     24  C   UNL A   1      39.261  22.850  26.460  1.00  0.00     0.118 C 
BRANCH  24  25
ATOM     25  N   UNL A   1      40.694  23.160  26.391  1.00  0.00    -0.352 N 
ATOM     26  C   UNL A   1      41.341  24.360  26.630  1.00  0.00     0.251 C 
ATOM     27  H   UNL A   1      41.278  22.407  26.139  1.00  0.00     0.163 HD
ATOM     28  O   UNL A   1      42.556  24.434  26.675  1.00  0.00    -0.269 OA
BRANCH  26  29
ATOM     29  C   UNL A   1      40.502  25.532  26.942  1.00  0.00     0.039 A 
ATOM     30  C   UNL A   1      40.785  26.734  26.287  1.00  0.00     0.014 A 
ATOM     31  C   UNL A   1      39.679  25.493  28.062  1.00  0.00     0.014 A 
ATOM     32  C   UNL A   1      40.449  27.930  26.913  1.00  0.00     0.010 A 
ATOM     33  C   UNL A   1      39.429  26.678  28.727  1.00  0.00     0.010 A 
ATOM     34  C   UNL A   1      39.885  27.888  28.190  1.00  0.00    -0.014 A 
BRANCH  34  35
ATOM     35  C   UNL A   1      39.873  29.046  29.081  1.00  0.00     0.031 A 
ATOM     36  C   UNL A   1      38.833  30.087  28.951  1.00  0.00     0.074 A 
ATOM     37  C   UNL A   1      40.782  29.133  30.078  1.00  0.00     0.049 A 
ATOM     38  N   UNL A   1      38.949  31.293  29.395  1.00  0.00    -0.248 NA
ATOM     39  C   UNL A   1      37.575  29.849  28.259  1.00  0.00     0.031 C 
ATOM     40  C   UNL A   1      40.775  30.067  31.201  1.00  0.00     0.029 A 
ATOM     41  N   UNL A   1      42.043  28.511  30.152  1.00  0.00    -0.354 N 
ATOM     42  C   UNL A   1      37.721  31.905  29.292  1.00  0.00     0.074 A 
ATOM     43  C   UNL A   1      36.916  30.980  28.526  1.00  0.00     0.031 C 
ATOM     44  C   UNL A   1      42.032  30.214  31.644  1.00  0.00     0.029 A 
ATOM     45  C   UNL A   1      42.898  29.474  30.746  1.00  0.00     0.049 A 
ATOM     46  H   UNL A   1      42.280  27.602  29.857  1.00  0.00     0.167 HD
ATOM     47  C   UNL A   1      37.499  33.072  29.968  1.00  0.00     0.037 A 
ATOM     48  C   UNL A   1      43.955  29.993  30.058  1.00  0.00     0.037 A 
ATOM     49  C   UNL A   1      38.721  33.569  30.599  1.00  0.00     0.049 A 
ATOM     50  C   UNL A   1      43.891  31.486  29.824  1.00  0.00     0.074 A 
ATOM     51  C   UNL A   1      39.236  33.529  31.885  1.00  0.00     0.029 A 
ATOM     52  N   UNL A   1      39.760  33.989  29.787  1.00  0.00    -0.354 N 
ATOM     53  N   UNL A   1      42.888  32.242  30.177  1.00  0.00    -0.248 NA
ATOM     54  C   UNL A   1      44.909  32.228  29.076  1.00  0.00     0.031 C 
ATOM     55  C   UNL A   1      40.609  33.902  31.827  1.00  0.00     0.029 A 
ATOM     56  C   UNL A   1      40.925  34.165  30.507  1.00  0.00     0.049 A 
ATOM     57  H   UNL A   1      39.679  34.141  28.818  1.00  0.00     0.167 HD
ATOM     58  C   UNL A   1      43.076  33.500  29.675  1.00  0.00     0.074 A 
ATOM     59  C   UNL A   1      44.359  33.451  29.002  1.00  0.00     0.031 C 
ATOM     60  C   UNL A   1      42.150  34.490  29.803  1.00  0.00     0.037 A 
BRANCH  47  61
ATOM     61  C   UNL A   1      36.125  33.641  30.258  1.00  0.00     0.064 A 
ATOM     62  C   UNL A   1      35.337  34.189  29.220  1.00  0.00     0.173 A 
ATOM     63  C   UNL A   1      35.547  33.739  31.538  1.00  0.00     0.173 A 
ATOM     64  F   UNL A   1      35.687  34.063  27.934  1.00  0.00    -0.203 F 
ATOM     65  C   UNL A   1      34.152  34.889  29.463  1.00  0.00     0.198 A 
ATOM     66  C   UNL A   1      34.395  34.491  31.789  1.00  0.00     0.198 A 
ATOM     67  F   UNL A   1      36.034  33.052  32.576  1.00  0.00    -0.203 F 
ATOM     68  F   UNL A   1      33.454  35.390  28.433  1.00  0.00    -0.200 F 
ATOM     69  C   UNL A   1      33.704  35.079  30.752  1.00  0.00     0.200 A 
ATOM     70  F   UNL A   1      33.957  34.633  33.050  1.00  0.00    -0.200 F 
ATOM     71  F   UNL A   1      32.596  35.793  30.990  1.00  0.00    -0.200 F 
ENDBRANCH  47  61
BRANCH  48  72
ATOM     72  C   UNL A   1      44.578  29.012  29.134  1.00  0.00     0.064 A 
ATOM     73  C   UNL A   1      45.438  28.037  29.678  1.00  0.00     0.173 A 
ATOM     74  C   UNL A   1      44.073  28.789  27.849  1.00  0.00     0.173 A 
ATOM     75  F   UNL A   1      45.947  28.204  30.908  1.00  0.00    -0.203 F 
ATOM     76  C   UNL A   1      45.679  26.837  29.016  1.00  0.00     0.198 A 
ATOM     77  C   UNL A   1      44.332  27.592  27.181  1.00  0.00     0.198 A 
ATOM     78  F   UNL A   1      43.235  29.671  27.287  1.00  0.00    -0.203 F 
ATOM     79  F   UNL A   1      46.401  25.878  29.612  1.00  0.00    -0.200 F 
ATOM     80  C   UNL A   1      45.101  26.604  27.779  1.00  0.00     0.200 A 
ATOM     81  F   UNL A   1      43.754  27.356  25.994  1.00  0.00    -0.200 F 
ATOM     82  F   UNL A   1      45.251  25.413  27.182  1.00  0.00    -0.200 F 
ENDBRANCH  48  72
BRANCH  60  83
ATOM     83  C   UNL A   1      42.360  35.868  29.269  1.00  0.00     0.064 A 
ATOM     84  C   UNL A   1      41.884  36.249  28.006  1.00  0.00     0.173 A 
ATOM     85  C   UNL A   1      43.161  36.799  29.955  1.00  0.00     0.173 A 
ATOM     86  F   UNL A   1      41.131  35.408  27.279  1.00  0.00    -0.203 F 
ATOM     87  C   UNL A   1      42.188  37.496  27.462  1.00  0.00     0.198 A 
ATOM     88  C   UNL A   1      43.497  38.029  29.392  1.00  0.00     0.198 A 
ATOM     89  F   UNL A   1      43.619  36.541  31.190  1.00  0.00    -0.203 F 
ATOM     90  F   UNL A   1      41.691  37.841  26.266  1.00  0.00    -0.200 F 
ATOM     91  C   UNL A   1      43.007  38.379  28.148  1.00  0.00     0.200 A 
ATOM     92  F   UNL A   1      44.298  38.870  30.062  1.00  0.00    -0.200 F 
ATOM     93  F   UNL A   1      43.320  39.566  27.612  1.00  0.00    -0.200 F 
ENDBRANCH  60  83
ENDBRANCH  34  35
ENDBRANCH  26  29
ENDBRANCH  24  25
ENDBRANCH   1  24
TORSDOF 14
ENDMDL
MODEL 2
REMARK VINA RESULT:     -13.4      1.297      2.890
REMARK SMILES Cc1cccc(C[C@H](C(=O)NCCCNC(=O)c2ccc(-c3c4nc(c(-c5c(F)c(F)c(F)c(F)c5F)c5ccc([nH]5)c(-c5c(F)c(F)c(F)c(F)c5F)c5nc(c(-c6c(F)c(F)c(F)c(F)c6F)c6ccc3[nH]6)C=C5)C=C4)cc2)[C@@H]2CCCC[C@@H]2O)c1
REMARK SMILES IDX 13 1 12 2 11 3 9 4 10 5 8 7 7 8 6 9 1 10 2 11 3 12 88 13
REMARK SMILES IDX 4 14 5 15 81 16 82 17 86 18 83 19 85 20 84 21 87 22 14 24
REMARK SMILES IDX 15 25 16 26 17 28 18 29 19 30 80 31 20 32 79 33 21 34 22 35
REMARK SMILES IDX 23 36 73 37 24 38 78 39 72 40 74 41 25 42 77 43 71 44 70 45
REMARK SMILES IDX 26 47 58 48 38 49 57 50 39 51 42 52 56 53 75 54 40 55 41 56
REMARK SMILES IDX 55 58 76 59 43 60 27 61 28 62 36 63 29 64 30 65 34 66 37 67
REMARK SMILES IDX 31 68 32 69 35 70 33 71 59 72 60 73 68 74 61 75 62 76 66 77
REMARK SMILES IDX 69 78 63 79 64 80 67 81 65 82 44 83 45 84 53 85 46 86 47 87
REMARK SMILES IDX 51 88 54 89 48 90 49 91 52 92 50 93
REMARK H PARENT 11 6 87 23 15 27 74 46 42 57
REMARK Flexibility Score: inf
ROOT
ATOM      1  C   UNL A   1      38.500  21.591  25.648  1.00  0.00     0.042 C 
ENDROOT
BRANCH   1   2
ATOM      2  C   UNL A   1      37.026  21.433  25.261  1.00  0.00     0.117 C 
BRANCH   2   3
ATOM      3  N   UNL A   1      36.078  21.777  26.312  1.00  0.00    -0.356 N 
ATOM      4  C   UNL A   1      34.720  21.953  26.258  1.00  0.00     0.223 C 
ATOM      5  O   UNL A   1      34.139  22.110  27.335  1.00  0.00    -0.275 OA
ATOM      6  H   UNL A   1      36.476  21.904  27.203  1.00  0.00     0.163 HD
BRANCH   4   7
ATOM      7  C   UNL A   1      33.966  22.013  24.903  1.00  0.00     0.088 C 
BRANCH   7   8
ATOM      8  C   UNL A   1      32.826  20.951  24.964  1.00  0.00     0.049 C 
BRANCH   8   9
ATOM      9  C   UNL A   1      32.972  19.621  24.252  1.00  0.00    -0.047 A 
ATOM     10  C   UNL A   1      34.905  16.353  24.781  1.00  0.00     0.044 C 
ATOM     11  C   UNL A   1      33.968  17.378  24.214  1.00  0.00    -0.051 A 
ATOM     12  C   UNL A   1      33.228  17.076  23.070  1.00  0.00     0.003 A 
ATOM     13  C   UNL A   1      33.814  18.640  24.811  1.00  0.00     0.007 A 
ATOM     14  C   UNL A   1      32.430  18.050  22.479  1.00  0.00     0.001 A 
ATOM     15  C   UNL A   1      32.348  19.327  23.041  1.00  0.00     0.004 A 
ENDBRANCH   8   9
ENDBRANCH   7   8
BRANCH   7  16
ATOM     16  C   UNL A   1      33.556  23.510  24.659  1.00  0.00     0.030 C 
ATOM     17  C   UNL A   1      32.140  23.955  25.054  1.00  0.00     0.007 C 
ATOM     18  C   UNL A   1      34.031  24.173  23.340  1.00  0.00     0.118 C 
ATOM     19  C   UNL A   1      31.136  23.975  23.912  1.00  0.00     0.001 C 
ATOM     20  C   UNL A   1      32.994  24.298  22.227  1.00  0.00     0.032 C 
ATOM     21  C   UNL A   1      31.641  24.779  22.723  1.00  0.00     0.003 C 
BRANCH  18  22
ATOM     22  O   UNL A   1      35.228  23.582  22.844  1.00  0.00    -0.393 OA
ATOM     23  H   UNL A   1      35.416  23.928  21.957  1.00  0.00     0.210 HD
ENDBRANCH  18  22
ENDBRANCH   7  16
ENDBRANCH   4   7
ENDBRANCH   2   3
ENDBRANCH   1   2
BRANCH   1  24
ATOM     24  C   UNL A   1      38.887  22.988  26.122  1.00  0.00     0.118 C 
BRANCH  24  25
ATOM     25  N   UNL A   1      40.338  23.136  26.285  1.00  0.00    -0.352 N 
ATOM     26  C   UNL A   1      41.064  24.248  26.675  1.00  0.00     0.251 C 
ATOM     27  H   UNL A   1      40.871  22.331  26.090  1.00  0.00     0.163 HD
ATOM     28  O   UNL A   1      42.258  24.184  26.907  1.00  0.00    -0.269 OA
BRANCH  26  29
ATOM     29  C   UNL A   1      40.318  25.498  26.909  1.00  0.00     0.039 A 
ATOM     30  C   UNL A   1      40.796  26.669  26.316  1.00  0.00     0.014 A 
ATOM     31  C   UNL A   1      39.368  25.535  27.925  1.00  0.00     0.014 A 
ATOM     32  C   UNL A   1      40.511  27.889  26.922  1.00  0.00     0.010 A 
ATOM     33  C   UNL A   1      39.162  26.734  28.579  1.00  0.00     0.010 A 
ATOM     34  C   UNL A   1      39.799  27.895  28.123  1.00  0.00    -0.014 A 
BRANCH  34  35
ATOM     35  C   UNL A   1      39.798  29.041  29.029  1.00  0.00     0.031 A 
ATOM     36  C   UNL A   1      38.773  30.098  28.908  1.00  0.00     0.074 A 
ATOM     37  C   UNL A   1      40.704  29.102  30.031  1.00  0.00     0.049 A 
ATOM     38  N   UNL A   1      38.904  31.297  29.369  1.00  0.00    -0.248 NA
ATOM     39  C   UNL A   1      37.516  29.888  28.207  1.00  0.00     0.031 C 
ATOM     40  C   UNL A   1      40.703  30.021  31.166  1.00  0.00     0.029 A 
ATOM     41  N   UNL A   1      41.955  28.462  30.104  1.00  0.00    -0.354 N 
ATOM     42  C   UNL A   1      37.685  31.927  29.267  1.00  0.00     0.074 A 
ATOM     43  C   UNL A   1      36.871  31.024  28.486  1.00  0.00     0.031 C 
ATOM     44  C   UNL A   1      41.960  30.145  31.618  1.00  0.00     0.029 A 
ATOM     45  C   UNL A   1      42.820  29.405  30.714  1.00  0.00     0.049 A 
ATOM     46  H   UNL A   1      42.180  27.554  29.797  1.00  0.00     0.167 HD
ATOM     47  C   UNL A   1      37.476  33.088  29.957  1.00  0.00     0.037 A 
ATOM     48  C   UNL A   1      43.888  29.918  30.038  1.00  0.00     0.037 A 
ATOM     49  C   UNL A   1      38.702  33.560  30.601  1.00  0.00     0.049 A 
ATOM     50  C   UNL A   1      43.846  31.415  29.824  1.00  0.00     0.074 A 
ATOM     51  C   UNL A   1      39.210  33.496  31.889  1.00  0.00     0.029 A 
ATOM     52  N   UNL A   1      39.751  33.975  29.800  1.00  0.00    -0.354 N 
ATOM     53  N   UNL A   1      42.852  32.180  30.182  1.00  0.00    -0.248 NA
ATOM     54  C   UNL A   1      44.878  32.152  29.091  1.00  0.00     0.031 C 
ATOM     55  C   UNL A   1      40.588  33.850  31.843  1.00  0.00     0.029 A 
ATOM     56  C   UNL A   1      40.915  34.126  30.528  1.00  0.00     0.049 A 
ATOM     57  H   UNL A   1      39.677  34.142  28.833  1.00  0.00     0.167 HD
ATOM     58  C   UNL A   1      43.060  33.442  29.698  1.00  0.00     0.074 A 
ATOM     59  C   UNL A   1      44.346  33.384  29.031  1.00  0.00     0.031 C 
ATOM     60  C   UNL A   1      42.147  34.443  29.834  1.00  0.00     0.037 A 
BRANCH  47  61
ATOM     61  C   UNL A   1      36.109  33.673  30.249  1.00  0.00     0.064 A 
ATOM     62  C   UNL A   1      35.305  34.182  29.204  1.00  0.00     0.173 A 
ATOM     63  C   UNL A   1      35.553  33.822  31.533  1.00  0.00     0.173 A 
ATOM     64  F   UNL A   1      35.633  34.006  27.918  1.00  0.00    -0.203 F 
ATOM     65  C   UNL A   1      34.126  34.895  29.438  1.00  0.00     0.198 A 
ATOM     66  C   UNL A   1      34.407  34.587  31.775  1.00  0.00     0.198 A 
ATOM     67  F   UNL A   1      36.056  33.174  32.589  1.00  0.00    -0.203 F 
ATOM     68  F   UNL A   1      33.412  35.358  28.402  1.00  0.00    -0.200 F 
ATOM     69  C   UNL A   1      33.700  35.137  30.726  1.00  0.00     0.200 A 
ATOM     70  F   UNL A   1      33.991  34.779  33.035  1.00  0.00    -0.200 F 
ATOM     71  F   UNL A   1      32.598  35.863  30.956  1.00  0.00    -0.200 F 
ENDBRANCH  47  61
BRANCH  48  72
ATOM     72  C   UNL A   1      44.502  28.941  29.104  1.00  0.00     0.064 A 
ATOM     73  C   UNL A   1      45.280  27.899  29.647  1.00  0.00     0.173 A 
ATOM     74  C   UNL A   1      44.050  28.797  27.789  1.00  0.00     0.173 A 
ATOM     75  F   UNL A   1      45.737  27.988  30.906  1.00  0.00    -0.203 F 
ATOM     76  C   UNL A   1      45.488  26.713  28.948  1.00  0.00     0.198 A 
ATOM     77  C   UNL A   1      44.276  27.613  27.085  1.00  0.00     0.198 A 
ATOM     78  F   UNL A   1      43.289  29.745  27.226  1.00  0.00    -0.203 F 
ATOM     79  F   UNL A   1      46.127  25.693  29.537  1.00  0.00    -0.200 F 
ATOM     80  C   UNL A   1      44.960  26.561  27.676  1.00  0.00     0.200 A 
ATOM     81  F   UNL A   1      43.746  27.457  25.864  1.00  0.00    -0.200 F 
ATOM     82  F   UNL A   1      45.075  25.389  27.039  1.00  0.00    -0.200 F 
ENDBRANCH  48  72
BRANCH  60  83
ATOM     83  C   UNL A   1      42.379  35.824  29.319  1.00  0.00     0.064 A 
ATOM     84  C   UNL A   1      41.848  36.253  28.094  1.00  0.00     0.173 A 
ATOM     85  C   UNL A   1      43.252  36.709  29.979  1.00  0.00     0.173 A 
ATOM     86  F   UNL A   1      41.024  35.458  27.393  1.00  0.00    -0.203 F 
ATOM     87  C   UNL A   1      42.168  37.501  27.562  1.00  0.00     0.198 A 
ATOM     88  C   UNL A   1      43.603  37.938  29.425  1.00  0.00     0.198 A 
ATOM     89  F   UNL A   1      43.768  36.405  31.180  1.00  0.00    -0.203 F 
ATOM     90  F   UNL A   1      41.618  37.892  26.403  1.00  0.00    -0.200 F 
ATOM     91  C   UNL A   1      43.057  38.336  28.218  1.00  0.00     0.200 A 
ATOM     92  F   UNL A   1      44.472  38.733  30.066  1.00  0.00    -0.200 F 
ATOM     93  F   UNL A   1      43.385  39.524  27.692  1.00  0.00    -0.200 F 
ENDBRANCH  60  83
ENDBRANCH  34  35
ENDBRANCH  26  29
ENDBRANCH  24  25
ENDBRANCH   1  24
TORSDOF 14
ENDMDL
MODEL 3
REMARK VINA RESULT:     -13.3      3.804     10.097
REMARK SMILES Cc1cccc(C[C@H](C(=O)NCCCNC(=O)c2ccc(-c3c4nc(c(-c5c(F)c(F)c(F)c(F)c5F)c5ccc([nH]5)c(-c5c(F)c(F)c(F)c(F)c5F)c5nc(c(-c6c(F)c(F)c(F)c(F)c6F)c6ccc3[nH]6)C=C5)C=C4)cc2)[C@@H]2CCCC[C@@H]2O)c1
REMARK SMILES IDX 13 1 12 2 11 3 9 4 10 5 8 7 7 8 6 9 1 10 2 11 3 12 88 13
REMARK SMILES IDX 4 14 5 15 81 16 82 17 86 18 83 19 85 20 84 21 87 22 14 24
REMARK SMILES IDX 15 25 16 26 17 28 18 29 19 30 80 31 20 32 79 33 21 34 22 35
REMARK SMILES IDX 23 36 73 37 24 38 78 39 72 40 74 41 25 42 77 43 71 44 70 45
REMARK SMILES IDX 26 47 58 48 38 49 57 50 39 51 42 52 56 53 75 54 40 55 41 56
REMARK SMILES IDX 55 58 76 59 43 60 27 61 28 62 36 63 29 64 30 65 34 66 37 67
REMARK SMILES IDX 31 68 32 69 35 70 33 71 59 72 60 73 68 74 61 75 62 76 66 77
REMARK SMILES IDX 69 78 63 79 64 80 67 81 65 82 44 83 45 84 53 85 46 86 47 87
REMARK SMILES IDX 51 88 54 89 48 90 49 91 52 92 50 93
REMARK H PARENT 11 6 87 23 15 27 74 46 42 57
REMARK Flexibility Score: inf
ROOT
ATOM      1  C   UNL A   1      32.743  30.844  27.267  1.00  0.00     0.042 C 
ENDROOT
BRANCH   1   2
ATOM      2  C   UNL A   1      32.217  30.356  25.913  1.00  0.00     0.117 C 
BRANCH   2   3
ATOM      3  N   UNL A   1      33.206  29.697  25.073  1.00  0.00    -0.356 N 
ATOM      4  C   UNL A   1      33.101  28.576  24.292  1.00  0.00     0.223 C 
ATOM      5  O   UNL A   1      34.067  28.310  23.571  1.00  0.00    -0.275 OA
ATOM      6  H   UNL A   1      34.092  30.125  25.064  1.00  0.00     0.163 HD
BRANCH   4   7
ATOM      7  C   UNL A   1      31.854  27.655  24.364  1.00  0.00     0.088 C 
BRANCH   7   8
ATOM      8  C   UNL A   1      31.028  27.897  23.063  1.00  0.00     0.049 C 
BRANCH   8   9
ATOM      9  C   UNL A   1      29.697  28.618  23.119  1.00  0.00    -0.047 A 
ATOM     10  C   UNL A   1      28.474  32.250  23.177  1.00  0.00     0.044 C 
ATOM     11  C   UNL A   1      28.483  30.751  23.131  1.00  0.00    -0.051 A 
ATOM     12  C   UNL A   1      27.273  30.055  23.104  1.00  0.00     0.003 A 
ATOM     13  C   UNL A   1      29.686  30.027  23.111  1.00  0.00     0.007 A 
ATOM     14  C   UNL A   1      27.268  28.666  23.160  1.00  0.00     0.001 A 
ATOM     15  C   UNL A   1      28.472  27.960  23.219  1.00  0.00     0.004 A 
ENDBRANCH   8   9
ENDBRANCH   7   8
BRANCH   7  16
ATOM     16  C   UNL A   1      32.363  26.195  24.645  1.00  0.00     0.030 C 
ATOM     17  C   UNL A   1      32.529  25.237  23.456  1.00  0.00     0.007 C 
ATOM     18  C   UNL A   1      31.808  25.477  25.902  1.00  0.00     0.118 C 
ATOM     19  C   UNL A   1      31.359  24.293  23.230  1.00  0.00     0.001 C 
ATOM     20  C   UNL A   1      30.709  24.444  25.669  1.00  0.00     0.032 C 
ATOM     21  C   UNL A   1      30.993  23.525  24.493  1.00  0.00     0.003 C 
BRANCH  18  22
ATOM     22  O   UNL A   1      31.423  26.396  26.919  1.00  0.00    -0.393 OA
ATOM     23  H   UNL A   1      30.811  27.052  26.548  1.00  0.00     0.210 HD
ENDBRANCH  18  22
ENDBRANCH   7  16
ENDBRANCH   4   7
ENDBRANCH   2   3
ENDBRANCH   1   2
BRANCH   1  24
ATOM     24  C   UNL A   1      34.162  30.391  27.597  1.00  0.00     0.118 C 
BRANCH  24  25
ATOM     25  N   UNL A   1      34.797  31.247  28.606  1.00  0.00    -0.352 N 
ATOM     26  C   UNL A   1      35.981  31.053  29.296  1.00  0.00     0.251 C 
ATOM     27  H   UNL A   1      34.312  32.076  28.823  1.00  0.00     0.163 HD
ATOM     28  O   UNL A   1      36.460  31.922  30.003  1.00  0.00    -0.269 OA
BRANCH  26  29
ATOM     29  C   UNL A   1      36.707  29.792  29.056  1.00  0.00     0.039 A 
ATOM     30  C   UNL A   1      37.092  29.036  30.167  1.00  0.00     0.014 A 
ATOM     31  C   UNL A   1      37.238  29.549  27.794  1.00  0.00     0.014 A 
ATOM     32  C   UNL A   1      38.204  28.206  30.056  1.00  0.00     0.010 A 
ATOM     33  C   UNL A   1      38.395  28.799  27.708  1.00  0.00     0.010 A 
ATOM     34  C   UNL A   1      38.921  28.195  28.857  1.00  0.00    -0.014 A 
BRANCH  34  35
ATOM     35  C   UNL A   1      40.290  27.696  28.766  1.00  0.00     0.031 A 
ATOM     36  C   UNL A   1      40.559  26.281  28.434  1.00  0.00     0.074 A 
ATOM     37  C   UNL A   1      41.326  28.552  28.921  1.00  0.00     0.049 A 
ATOM     38  N   UNL A   1      41.659  25.665  28.706  1.00  0.00    -0.248 NA
ATOM     39  C   UNL A   1      39.567  25.430  27.794  1.00  0.00     0.031 C 
ATOM     40  C   UNL A   1      42.733  28.298  28.624  1.00  0.00     0.029 A 
ATOM     41  N   UNL A   1      41.332  29.785  29.599  1.00  0.00    -0.354 N 
ATOM     42  C   UNL A   1      41.634  24.447  28.064  1.00  0.00     0.074 A 
ATOM     43  C   UNL A   1      40.286  24.329  27.558  1.00  0.00     0.031 C 
ATOM     44  C   UNL A   1      43.485  29.122  29.370  1.00  0.00     0.029 A 
ATOM     45  C   UNL A   1      42.588  29.844  30.253  1.00  0.00     0.049 A 
ATOM     46  H   UNL A   1      40.617  30.462  29.615  1.00  0.00     0.167 HD
ATOM     47  C   UNL A   1      42.794  23.736  27.940  1.00  0.00     0.037 A 
ATOM     48  C   UNL A   1      42.671  29.872  31.614  1.00  0.00     0.037 A 
ATOM     49  C   UNL A   1      43.891  24.360  28.680  1.00  0.00     0.049 A 
ATOM     50  C   UNL A   1      43.394  28.696  32.233  1.00  0.00     0.074 A 
ATOM     51  C   UNL A   1      44.960  25.171  28.333  1.00  0.00     0.029 A 
ATOM     52  N   UNL A   1      43.815  24.403  30.061  1.00  0.00    -0.354 N 
ATOM     53  N   UNL A   1      43.857  27.682  31.557  1.00  0.00    -0.248 NA
ATOM     54  C   UNL A   1      43.558  28.522  33.678  1.00  0.00     0.031 C 
ATOM     55  C   UNL A   1      45.506  25.723  29.527  1.00  0.00     0.029 A 
ATOM     56  C   UNL A   1      44.765  25.251  30.595  1.00  0.00     0.049 A 
ATOM     57  H   UNL A   1      43.165  23.893  30.596  1.00  0.00     0.167 HD
ATOM     58  C   UNL A   1      44.303  26.727  32.429  1.00  0.00     0.074 A 
ATOM     59  C   UNL A   1      44.108  27.299  33.747  1.00  0.00     0.031 C 
ATOM     60  C   UNL A   1      44.761  25.512  32.020  1.00  0.00     0.037 A 
BRANCH  47  61
ATOM     61  C   UNL A   1      42.999  22.603  26.954  1.00  0.00     0.064 A 
ATOM     62  C   UNL A   1      42.327  21.372  27.122  1.00  0.00     0.173 A 
ATOM     63  C   UNL A   1      43.885  22.636  25.862  1.00  0.00     0.173 A 
ATOM     64  F   UNL A   1      41.360  21.219  28.036  1.00  0.00    -0.203 F 
ATOM     65  C   UNL A   1      42.621  20.242  26.353  1.00  0.00     0.198 A 
ATOM     66  C   UNL A   1      44.226  21.493  25.132  1.00  0.00     0.198 A 
ATOM     67  F   UNL A   1      44.398  23.788  25.415  1.00  0.00    -0.203 F 
ATOM     68  F   UNL A   1      41.951  19.100  26.567  1.00  0.00    -0.200 F 
ATOM     69  C   UNL A   1      43.602  20.289  25.388  1.00  0.00     0.200 A 
ATOM     70  F   UNL A   1      45.159  21.571  24.172  1.00  0.00    -0.200 F 
ATOM     71  F   UNL A   1      43.921  19.195  24.684  1.00  0.00    -0.200 F 
ENDBRANCH  47  61
BRANCH  48  72
ATOM     72  C   UNL A   1      41.545  30.607  32.244  1.00  0.00     0.064 A 
ATOM     73  C   UNL A   1      41.528  32.012  32.147  1.00  0.00     0.173 A 
ATOM     74  C   UNL A   1      40.352  29.965  32.591  1.00  0.00     0.173 A 
ATOM     75  F   UNL A   1      42.647  32.675  31.815  1.00  0.00    -0.203 F 
ATOM     76  C   UNL A   1      40.342  32.730  32.267  1.00  0.00     0.198 A 
ATOM     77  C   UNL A   1      39.168  30.692  32.729  1.00  0.00     0.198 A 
ATOM     78  F   UNL A   1      40.300  28.629  32.679  1.00  0.00    -0.203 F 
ATOM     79  F   UNL A   1      40.337  34.053  32.048  1.00  0.00    -0.200 F 
ATOM     80  C   UNL A   1      39.157  32.065  32.531  1.00  0.00     0.200 A 
ATOM     81  F   UNL A   1      38.017  30.045  32.960  1.00  0.00    -0.200 F 
ATOM     82  F   UNL A   1      37.999  32.739  32.552  1.00  0.00    -0.200 F 
ENDBRANCH  48  72
BRANCH  60  83
ATOM     83  C   UNL A   1      45.261  24.475  32.970  1.00  0.00     0.064 A 
ATOM     84  C   UNL A   1      44.455  23.406  33.386  1.00  0.00     0.173 A 
ATOM     85  C   UNL A   1      46.518  24.603  33.590  1.00  0.00     0.173 A 
ATOM     86  F   UNL A   1      43.234  23.228  32.857  1.00  0.00    -0.203 F 
ATOM     87  C   UNL A   1      44.885  22.511  34.364  1.00  0.00     0.198 A 
ATOM     88  C   UNL A   1      46.929  23.732  34.597  1.00  0.00     0.198 A 
ATOM     89  F   UNL A   1      47.377  25.566  33.220  1.00  0.00    -0.203 F 
ATOM     90  F   UNL A   1      44.101  21.482  34.717  1.00  0.00    -0.200 F 
ATOM     91  C   UNL A   1      46.114  22.683  34.981  1.00  0.00     0.200 A 
ATOM     92  F   UNL A   1      48.116  23.915  35.192  1.00  0.00    -0.200 F 
ATOM     93  F   UNL A   1      46.514  21.838  35.940  1.00  0.00    -0.200 F 
ENDBRANCH  60  83
ENDBRANCH  34  35
ENDBRANCH  26  29
ENDBRANCH  24  25
ENDBRANCH   1  24
TORSDOF 14
ENDMDL
