MODEL 1
REMARK VINA RESULT:     -13.3      0.000      0.000
REMARK SMILES O=C(NCCCNC(=O)c1ccc2c(c1)CCN2C(=O)c1ccn[nH]1)c1ccc(-c2c3nc(c(-c4c(F)c(F)c(F)c(F)c4F)c4ccc([nH]4)c(-c4c(F)c(F)c(F)c(F)c4F)c4nc(c(-c5c(F)c(F)c(F)c(F)c5F)c5ccc2[nH]5)C=C4)C=C3)cc1
REMARK SMILES IDX 5 1 4 2 3 3 1 4 2 5 26 7 27 8 88 9 28 10 87 11 29 12 30 13
REMARK SMILES IDX 31 14 81 15 32 16 86 17 80 18 82 19 33 20 85 21 79 22 78 23
REMARK SMILES IDX 34 25 66 26 46 27 65 28 47 29 50 30 64 31 83 32 48 33 49 34
REMARK SMILES IDX 63 36 84 37 51 38 35 39 36 40 44 41 37 42 38 43 42 44 45 45
REMARK SMILES IDX 39 46 40 47 43 48 41 49 67 50 68 51 76 52 69 53 70 54 74 55
REMARK SMILES IDX 77 56 71 57 72 58 75 59 73 60 52 61 53 62 61 63 54 64 55 65
REMARK SMILES IDX 59 66 62 67 56 68 57 69 60 70 58 71 6 72 7 73 8 74 9 76
REMARK SMILES IDX 10 77 11 78 15 79 12 80 14 81 13 82 16 83 18 84 17 85 19 86
REMARK SMILES IDX 20 87 21 88 22 89 25 90 23 91 24 92
REMARK H PARENT 3 6 82 24 50 35 7 75 25 93
REMARK Flexibility Score: inf
ROOT
ATOM      1  C   UNL A   1      32.934  28.833  23.906  1.00  0.00     0.042 C 
ENDROOT
BRANCH   1   2
ATOM      2  C   UNL A   1      33.386  29.166  25.316  1.00  0.00     0.118 C 
BRANCH   2   3
ATOM      3  N   UNL A   1      32.803  30.404  25.821  1.00  0.00    -0.352 N 
ATOM      4  O   UNL A   1      32.451  32.112  27.249  1.00  0.00    -0.269 OA
ATOM      5  C   UNL A   1      33.179  31.197  26.879  1.00  0.00     0.251 C 
ATOM      6  H   UNL A   1      32.013  30.722  25.326  1.00  0.00     0.163 HD
BRANCH   5   7
ATOM      7  C   UNL A   1      34.451  30.933  27.586  1.00  0.00     0.039 A 
ATOM      8  C   UNL A   1      34.699  29.682  28.144  1.00  0.00     0.014 A 
ATOM      9  C   UNL A   1      35.412  31.944  27.688  1.00  0.00     0.014 A 
ATOM     10  C   UNL A   1      35.794  29.502  28.973  1.00  0.00     0.010 A 
ATOM     11  C   UNL A   1      36.589  31.716  28.411  1.00  0.00     0.010 A 
ATOM     12  C   UNL A   1      36.773  30.503  29.090  1.00  0.00    -0.014 A 
BRANCH  12  13
ATOM     13  C   UNL A   1      38.003  30.189  29.861  1.00  0.00     0.031 A 
ATOM     14  C   UNL A   1      38.188  30.650  31.278  1.00  0.00     0.074 A 
ATOM     15  C   UNL A   1      38.926  29.398  29.276  1.00  0.00     0.049 A 
ATOM     16  N   UNL A   1      39.167  30.382  32.106  1.00  0.00    -0.248 NA
ATOM     17  C   UNL A   1      37.152  31.529  31.842  1.00  0.00     0.031 C 
ATOM     18  C   UNL A   1      38.860  28.914  27.894  1.00  0.00     0.029 A 
ATOM     19  N   UNL A   1      40.068  28.826  29.771  1.00  0.00    -0.354 N 
ATOM     20  C   UNL A   1      38.875  31.066  33.278  1.00  0.00     0.074 A 
ATOM     21  C   UNL A   1      37.640  31.786  33.050  1.00  0.00     0.031 C 
ATOM     22  C   UNL A   1      39.866  28.057  27.677  1.00  0.00     0.029 A 
ATOM     23  C   UNL A   1      40.692  27.992  28.876  1.00  0.00     0.049 A 
ATOM     24  H   UNL A   1      40.408  28.995  30.680  1.00  0.00     0.167 HD
ATOM     25  C   UNL A   1      39.573  31.081  34.440  1.00  0.00     0.037 A 
ATOM     26  C   UNL A   1      41.816  27.264  28.997  1.00  0.00     0.037 A 
ATOM     27  C   UNL A   1      40.796  30.350  34.664  1.00  0.00     0.049 A 
ATOM     28  C   UNL A   1      42.561  27.300  30.298  1.00  0.00     0.074 A 
ATOM     29  C   UNL A   1      41.574  30.296  35.808  1.00  0.00     0.029 A 
ATOM     30  N   UNL A   1      41.417  29.542  33.722  1.00  0.00    -0.354 N 
ATOM     31  N   UNL A   1      42.263  27.941  31.402  1.00  0.00    -0.248 NA
ATOM     32  C   UNL A   1      43.799  26.516  30.370  1.00  0.00     0.031 C 
ATOM     33  C   UNL A   1      42.684  29.484  35.547  1.00  0.00     0.029 A 
ATOM     34  C   UNL A   1      42.575  28.995  34.256  1.00  0.00     0.049 A 
ATOM     35  H   UNL A   1      41.085  29.380  32.810  1.00  0.00     0.167 HD
ATOM     36  C   UNL A   1      43.276  27.641  32.298  1.00  0.00     0.074 A 
ATOM     37  C   UNL A   1      44.173  26.725  31.623  1.00  0.00     0.031 C 
ATOM     38  C   UNL A   1      43.458  28.095  33.562  1.00  0.00     0.037 A 
BRANCH  25  39
ATOM     39  C   UNL A   1      39.041  31.918  35.568  1.00  0.00     0.064 A 
ATOM     40  C   UNL A   1      38.247  31.364  36.583  1.00  0.00     0.173 A 
ATOM     41  C   UNL A   1      39.389  33.274  35.675  1.00  0.00     0.173 A 
ATOM     42  F   UNL A   1      37.876  30.076  36.522  1.00  0.00    -0.203 F 
ATOM     43  C   UNL A   1      37.812  32.138  37.656  1.00  0.00     0.198 A 
ATOM     44  C   UNL A   1      38.973  34.038  36.762  1.00  0.00     0.198 A 
ATOM     45  F   UNL A   1      40.150  33.852  34.734  1.00  0.00    -0.203 F 
ATOM     46  F   UNL A   1      37.030  31.594  38.599  1.00  0.00    -0.200 F 
ATOM     47  C   UNL A   1      38.182  33.471  37.750  1.00  0.00     0.200 A 
ATOM     48  F   UNL A   1      39.343  35.323  36.857  1.00  0.00    -0.200 F 
ATOM     49  F   UNL A   1      37.777  34.209  38.792  1.00  0.00    -0.200 F 
ENDBRANCH  25  39
BRANCH  26  50
ATOM     50  C   UNL A   1      42.306  26.462  27.846  1.00  0.00     0.064 A 
ATOM     51  C   UNL A   1      41.843  25.158  27.619  1.00  0.00     0.173 A 
ATOM     52  C   UNL A   1      43.245  26.987  26.945  1.00  0.00     0.173 A 
ATOM     53  F   UNL A   1      40.958  24.606  28.461  1.00  0.00    -0.203 F 
ATOM     54  C   UNL A   1      42.318  24.405  26.547  1.00  0.00     0.198 A 
ATOM     55  C   UNL A   1      43.690  26.247  25.855  1.00  0.00     0.198 A 
ATOM     56  F   UNL A   1      43.712  28.233  27.114  1.00  0.00    -0.203 F 
ATOM     57  F   UNL A   1      41.896  23.144  26.380  1.00  0.00    -0.200 F 
ATOM     58  C   UNL A   1      43.235  24.952  25.662  1.00  0.00     0.200 A 
ATOM     59  F   UNL A   1      44.560  26.788  24.991  1.00  0.00    -0.200 F 
ATOM     60  F   UNL A   1      43.684  24.230  24.627  1.00  0.00    -0.200 F 
ENDBRANCH  26  50
BRANCH  38  61
ATOM     61  C   UNL A   1      44.673  27.596  34.286  1.00  0.00     0.064 A 
ATOM     62  C   UNL A   1      45.894  28.286  34.226  1.00  0.00     0.173 A 
ATOM     63  C   UNL A   1      44.619  26.415  35.040  1.00  0.00     0.173 A 
ATOM     64  F   UNL A   1      45.998  29.410  33.501  1.00  0.00    -0.203 F 
ATOM     65  C   UNL A   1      47.026  27.791  34.867  1.00  0.00     0.198 A 
ATOM     66  C   UNL A   1      45.746  25.940  35.703  1.00  0.00     0.198 A 
ATOM     67  F   UNL A   1      43.474  25.722  35.131  1.00  0.00    -0.203 F 
ATOM     68  F   UNL A   1      48.196  28.434  34.745  1.00  0.00    -0.200 F 
ATOM     69  C   UNL A   1      46.950  26.621  35.607  1.00  0.00     0.200 A 
ATOM     70  F   UNL A   1      45.671  24.814  36.426  1.00  0.00    -0.200 F 
ATOM     71  F   UNL A   1      48.042  26.143  36.218  1.00  0.00    -0.200 F 
ENDBRANCH  38  61
ENDBRANCH  12  13
ENDBRANCH   5   7
ENDBRANCH   2   3
ENDBRANCH   1   2
BRANCH   1  72
ATOM     72  C   UNL A   1      34.031  28.213  23.061  1.00  0.00     0.118 C 
BRANCH  72  73
ATOM     73  N   UNL A   1      33.501  27.529  21.886  1.00  0.00    -0.352 N 
ATOM     74  C   UNL A   1      33.216  26.199  21.695  1.00  0.00     0.251 C 
ATOM     75  H   UNL A   1      33.320  28.110  21.112  1.00  0.00     0.163 HD
ATOM     76  O   UNL A   1      32.996  25.770  20.565  1.00  0.00    -0.269 OA
BRANCH  74  77
ATOM     77  C   UNL A   1      33.189  25.282  22.852  1.00  0.00     0.040 A 
ATOM     78  C   UNL A   1      34.300  24.476  23.130  1.00  0.00     0.016 A 
ATOM     79  C   UNL A   1      32.049  25.209  23.652  1.00  0.00     0.019 A 
ATOM     80  C   UNL A   1      34.228  23.477  24.098  1.00  0.00     0.027 A 
ATOM     81  C   UNL A   1      32.025  24.255  24.664  1.00  0.00    -0.022 A 
ATOM     82  C   UNL A   1      33.089  23.367  24.870  1.00  0.00     0.047 A 
ATOM     83  C   UNL A   1      30.883  23.967  25.585  1.00  0.00     0.059 C 
ATOM     84  N   UNL A   1      32.753  22.450  25.883  1.00  0.00    -0.306 N 
ATOM     85  C   UNL A   1      31.470  22.867  26.472  1.00  0.00     0.131 C 
BRANCH  84  86
ATOM     86  C   UNL A   1      33.361  21.284  26.338  1.00  0.00     0.276 C 
ATOM     87  O   UNL A   1      34.126  21.320  27.304  1.00  0.00    -0.267 OA
BRANCH  86  88
ATOM     88  C   UNL A   1      33.034  20.018  25.743  1.00  0.00     0.123 A 
ATOM     89  C   UNL A   1      32.912  19.615  24.427  1.00  0.00     0.055 A 
ATOM     90  N   UNL A   1      32.902  18.872  26.478  1.00  0.00    -0.273 N 
ATOM     91  C   UNL A   1      32.560  18.254  24.495  1.00  0.00     0.135 A 
ATOM     92  N   UNL A   1      32.526  17.804  25.751  1.00  0.00    -0.183 NA
ATOM     93  H   UNL A   1      33.067  18.832  27.448  1.00  0.00     0.190 HD
ENDBRANCH  86  88
ENDBRANCH  84  86
ENDBRANCH  74  77
ENDBRANCH  72  73
ENDBRANCH   1  72
TORSDOF 12
ENDMDL
MODEL 2
REMARK VINA RESULT:     -13.3      0.250      1.620
REMARK SMILES O=C(NCCCNC(=O)c1ccc2c(c1)CCN2C(=O)c1ccn[nH]1)c1ccc(-c2c3nc(c(-c4c(F)c(F)c(F)c(F)c4F)c4ccc([nH]4)c(-c4c(F)c(F)c(F)c(F)c4F)c4nc(c(-c5c(F)c(F)c(F)c(F)c5F)c5ccc2[nH]5)C=C4)C=C3)cc1
REMARK SMILES IDX 5 1 4 2 3 3 1 4 2 5 26 7 27 8 88 9 28 10 87 11 29 12 30 13
REMARK SMILES IDX 31 14 81 15 32 16 86 17 80 18 82 19 33 20 85 21 79 22 78 23
REMARK SMILES IDX 34 25 66 26 46 27 65 28 47 29 50 30 64 31 83 32 48 33 49 34
REMARK SMILES IDX 63 36 84 37 51 38 35 39 36 40 44 41 37 42 38 43 42 44 45 45
REMARK SMILES IDX 39 46 40 47 43 48 41 49 67 50 68 51 76 52 69 53 70 54 74 55
REMARK SMILES IDX 77 56 71 57 72 58 75 59 73 60 52 61 53 62 61 63 54 64 55 65
REMARK SMILES IDX 59 66 62 67 56 68 57 69 60 70 58 71 6 72 7 73 8 74 9 76
REMARK SMILES IDX 10 77 11 78 15 79 12 80 14 81 13 82 16 83 18 84 17 85 19 86
REMARK SMILES IDX 20 87 21 88 22 89 25 90 23 91 24 92
REMARK H PARENT 3 6 82 24 50 35 7 75 25 93
REMARK Flexibility Score: inf
ROOT
ATOM      1  C   UNL A   1      32.902  28.697  23.861  1.00  0.00     0.042 C 
ENDROOT
BRANCH   1   2
ATOM      2  C   UNL A   1      33.396  29.056  25.250  1.00  0.00     0.118 C 
BRANCH   2   3
ATOM      3  N   UNL A   1      32.758  30.253  25.787  1.00  0.00    -0.352 N 
ATOM      4  O   UNL A   1      32.339  31.913  27.253  1.00  0.00    -0.269 OA
ATOM      5  C   UNL A   1      33.108  31.044  26.856  1.00  0.00     0.251 C 
ATOM      6  H   UNL A   1      31.946  30.540  25.308  1.00  0.00     0.163 HD
BRANCH   5   7
ATOM      7  C   UNL A   1      34.400  30.832  27.541  1.00  0.00     0.039 A 
ATOM      8  C   UNL A   1      34.738  29.573  28.033  1.00  0.00     0.014 A 
ATOM      9  C   UNL A   1      35.291  31.899  27.691  1.00  0.00     0.014 A 
ATOM     10  C   UNL A   1      35.850  29.426  28.845  1.00  0.00     0.010 A 
ATOM     11  C   UNL A   1      36.487  31.716  28.395  1.00  0.00     0.010 A 
ATOM     12  C   UNL A   1      36.759  30.484  29.009  1.00  0.00    -0.014 A 
BRANCH  12  13
ATOM     13  C   UNL A   1      38.014  30.216  29.757  1.00  0.00     0.031 A 
ATOM     14  C   UNL A   1      38.215  30.698  31.164  1.00  0.00     0.074 A 
ATOM     15  C   UNL A   1      38.948  29.447  29.160  1.00  0.00     0.049 A 
ATOM     16  N   UNL A   1      39.219  30.468  31.974  1.00  0.00    -0.248 NA
ATOM     17  C   UNL A   1      37.166  31.552  31.742  1.00  0.00     0.031 C 
ATOM     18  C   UNL A   1      38.867  28.946  27.785  1.00  0.00     0.029 A 
ATOM     19  N   UNL A   1      40.117  28.915  29.636  1.00  0.00    -0.354 N 
ATOM     20  C   UNL A   1      38.932  31.156  33.145  1.00  0.00     0.074 A 
ATOM     21  C   UNL A   1      37.672  31.837  32.936  1.00  0.00     0.031 C 
ATOM     22  C   UNL A   1      39.894  28.117  27.555  1.00  0.00     0.029 A 
ATOM     23  C   UNL A   1      40.747  28.090  28.736  1.00  0.00     0.049 A 
ATOM     24  H   UNL A   1      40.471  29.104  30.535  1.00  0.00     0.167 HD
ATOM     25  C   UNL A   1      39.654  31.205  34.291  1.00  0.00     0.037 A 
ATOM     26  C   UNL A   1      41.895  27.397  28.841  1.00  0.00     0.037 A 
ATOM     27  C   UNL A   1      40.903  30.514  34.496  1.00  0.00     0.049 A 
ATOM     28  C   UNL A   1      42.666  27.470  30.124  1.00  0.00     0.074 A 
ATOM     29  C   UNL A   1      41.707  30.495  35.623  1.00  0.00     0.029 A 
ATOM     30  N   UNL A   1      41.528  29.714  33.549  1.00  0.00    -0.354 N 
ATOM     31  N   UNL A   1      42.372  28.114  31.228  1.00  0.00    -0.248 NA
ATOM     32  C   UNL A   1      43.929  26.725  30.178  1.00  0.00     0.031 C 
ATOM     33  C   UNL A   1      42.834  29.715  35.347  1.00  0.00     0.029 A 
ATOM     34  C   UNL A   1      42.713  29.208  34.063  1.00  0.00     0.049 A 
ATOM     35  H   UNL A   1      41.181  29.533  32.646  1.00  0.00     0.167 HD
ATOM     36  C   UNL A   1      43.413  27.855  32.105  1.00  0.00     0.074 A 
ATOM     37  C   UNL A   1      44.322  26.959  31.420  1.00  0.00     0.031 C 
ATOM     38  C   UNL A   1      43.608  28.328  33.360  1.00  0.00     0.037 A 
BRANCH  25  39
ATOM     39  C   UNL A   1      39.121  32.038  35.421  1.00  0.00     0.064 A 
ATOM     40  C   UNL A   1      38.344  31.476  36.445  1.00  0.00     0.173 A 
ATOM     41  C   UNL A   1      39.451  33.399  35.521  1.00  0.00     0.173 A 
ATOM     42  F   UNL A   1      37.990  30.183  36.391  1.00  0.00    -0.203 F 
ATOM     43  C   UNL A   1      37.909  32.247  37.521  1.00  0.00     0.198 A 
ATOM     44  C   UNL A   1      39.035  34.161  36.611  1.00  0.00     0.198 A 
ATOM     45  F   UNL A   1      40.197  33.985  34.572  1.00  0.00    -0.203 F 
ATOM     46  F   UNL A   1      37.143  31.695  38.472  1.00  0.00    -0.200 F 
ATOM     47  C   UNL A   1      38.262  33.585  37.608  1.00  0.00     0.200 A 
ATOM     48  F   UNL A   1      39.389  35.450  36.699  1.00  0.00    -0.200 F 
ATOM     49  F   UNL A   1      37.856  34.321  38.651  1.00  0.00    -0.200 F 
ENDBRANCH  25  39
BRANCH  26  50
ATOM     50  C   UNL A   1      42.384  26.598  27.688  1.00  0.00     0.064 A 
ATOM     51  C   UNL A   1      43.339  27.112  26.800  1.00  0.00     0.173 A 
ATOM     52  C   UNL A   1      41.908  25.299  27.453  1.00  0.00     0.173 A 
ATOM     53  F   UNL A   1      43.812  28.355  26.971  1.00  0.00    -0.203 F 
ATOM     54  C   UNL A   1      43.783  26.364  25.711  1.00  0.00     0.198 A 
ATOM     55  C   UNL A   1      42.379  24.539  26.387  1.00  0.00     0.198 A 
ATOM     56  F   UNL A   1      41.000  24.758  28.279  1.00  0.00    -0.203 F 
ATOM     57  F   UNL A   1      44.660  26.897  24.850  1.00  0.00    -0.200 F 
ATOM     58  C   UNL A   1      43.308  25.077  25.509  1.00  0.00     0.200 A 
ATOM     59  F   UNL A   1      41.932  23.289  26.209  1.00  0.00    -0.200 F 
ATOM     60  F   UNL A   1      43.741  24.355  24.467  1.00  0.00    -0.200 F 
ENDBRANCH  26  50
BRANCH  38  61
ATOM     61  C   UNL A   1      44.853  27.873  34.062  1.00  0.00     0.064 A 
ATOM     62  C   UNL A   1      44.872  26.694  34.824  1.00  0.00     0.173 A 
ATOM     63  C   UNL A   1      46.035  28.622  33.977  1.00  0.00     0.173 A 
ATOM     64  F   UNL A   1      43.760  25.955  34.951  1.00  0.00    -0.203 F 
ATOM     65  C   UNL A   1      46.021  26.304  35.506  1.00  0.00     0.198 A 
ATOM     66  C   UNL A   1      47.189  28.213  34.635  1.00  0.00     0.198 A 
ATOM     67  F   UNL A   1      46.068  29.754  33.256  1.00  0.00    -0.203 F 
ATOM     68  F   UNL A   1      45.999  25.209  36.278  1.00  0.00    -0.200 F 
ATOM     69  C   UNL A   1      47.179  27.061  35.408  1.00  0.00     0.200 A 
ATOM     70  F   UNL A   1      48.311  28.939  34.533  1.00  0.00    -0.200 F 
ATOM     71  F   UNL A   1      48.282  26.687  36.069  1.00  0.00    -0.200 F 
ENDBRANCH  38  61
ENDBRANCH  12  13
ENDBRANCH   5   7
ENDBRANCH   2   3
ENDBRANCH   1   2
BRANCH   1  72
ATOM     72  C   UNL A   1      33.996  28.148  22.964  1.00  0.00     0.118 C 
BRANCH  72  73
ATOM     73  N   UNL A   1      33.457  27.463  21.793  1.00  0.00    -0.352 N 
ATOM     74  C   UNL A   1      33.156  26.135  21.611  1.00  0.00     0.251 C 
ATOM     75  H   UNL A   1      33.281  28.041  21.017  1.00  0.00     0.163 HD
ATOM     76  O   UNL A   1      32.931  25.702  20.484  1.00  0.00    -0.269 OA
BRANCH  74  77
ATOM     77  C   UNL A   1      33.121  25.226  22.773  1.00  0.00     0.040 A 
ATOM     78  C   UNL A   1      34.238  24.437  23.077  1.00  0.00     0.016 A 
ATOM     79  C   UNL A   1      31.968  25.142  23.554  1.00  0.00     0.019 A 
ATOM     80  C   UNL A   1      34.162  23.444  24.050  1.00  0.00     0.027 A 
ATOM     81  C   UNL A   1      31.938  24.194  24.571  1.00  0.00    -0.022 A 
ATOM     82  C   UNL A   1      33.010  23.322  24.802  1.00  0.00     0.047 A 
ATOM     83  C   UNL A   1      30.784  23.896  25.473  1.00  0.00     0.059 C 
ATOM     84  N   UNL A   1      32.669  22.407  25.815  1.00  0.00    -0.306 N 
ATOM     85  C   UNL A   1      31.370  22.810  26.378  1.00  0.00     0.131 C 
BRANCH  84  86
ATOM     86  C   UNL A   1      33.284  21.253  26.289  1.00  0.00     0.276 C 
ATOM     87  O   UNL A   1      34.054  21.311  27.250  1.00  0.00    -0.267 OA
BRANCH  86  88
ATOM     88  C   UNL A   1      32.961  19.975  25.719  1.00  0.00     0.123 A 
ATOM     89  C   UNL A   1      32.805  19.554  24.413  1.00  0.00     0.055 A 
ATOM     90  N   UNL A   1      32.871  18.835  26.472  1.00  0.00    -0.273 N 
ATOM     91  C   UNL A   1      32.478  18.188  24.508  1.00  0.00     0.135 A 
ATOM     92  N   UNL A   1      32.490  17.753  25.770  1.00  0.00    -0.183 NA
ATOM     93  H   UNL A   1      33.066  18.811  27.437  1.00  0.00     0.190 HD
ENDBRANCH  86  88
ENDBRANCH  84  86
ENDBRANCH  74  77
ENDBRANCH  72  73
ENDBRANCH   1  72
TORSDOF 12
ENDMDL
MODEL 3
REMARK VINA RESULT:     -12.9      4.097      9.836
REMARK SMILES O=C(NCCCNC(=O)c1ccc2c(c1)CCN2C(=O)c1ccn[nH]1)c1ccc(-c2c3nc(c(-c4c(F)c(F)c(F)c(F)c4F)c4ccc([nH]4)c(-c4c(F)c(F)c(F)c(F)c4F)c4nc(c(-c5c(F)c(F)c(F)c(F)c5F)c5ccc2[nH]5)C=C4)C=C3)cc1
REMARK SMILES IDX 5 1 4 2 3 3 1 4 2 5 26 7 27 8 88 9 28 10 87 11 29 12 30 13
REMARK SMILES IDX 31 14 81 15 32 16 86 17 80 18 82 19 33 20 85 21 79 22 78 23
REMARK SMILES IDX 34 25 66 26 46 27 65 28 47 29 50 30 64 31 83 32 48 33 49 34
REMARK SMILES IDX 63 36 84 37 51 38 35 39 36 40 44 41 37 42 38 43 42 44 45 45
REMARK SMILES IDX 39 46 40 47 43 48 41 49 67 50 68 51 76 52 69 53 70 54 74 55
REMARK SMILES IDX 77 56 71 57 72 58 75 59 73 60 52 61 53 62 61 63 54 64 55 65
REMARK SMILES IDX 59 66 62 67 56 68 57 69 60 70 58 71 6 72 7 73 8 74 9 76
REMARK SMILES IDX 10 77 11 78 15 79 12 80 14 81 13 82 16 83 18 84 17 85 19 86
REMARK SMILES IDX 20 87 21 88 22 89 25 90 23 91 24 92
REMARK H PARENT 3 6 82 24 50 35 7 75 25 93
REMARK Flexibility Score: inf
ROOT
ATOM      1  C   UNL A   1      34.568  22.250  26.779  1.00  0.00     0.042 C 
ENDROOT
BRANCH   1   2
ATOM      2  C   UNL A   1      35.874  22.713  26.160  1.00  0.00     0.118 C 
BRANCH   2   3
ATOM      3  N   UNL A   1      36.784  21.611  25.866  1.00  0.00    -0.352 N 
ATOM      4  O   UNL A   1      38.743  20.587  25.425  1.00  0.00    -0.269 OA
ATOM      5  C   UNL A   1      38.159  21.569  25.871  1.00  0.00     0.251 C 
ATOM      6  H   UNL A   1      36.345  20.764  25.626  1.00  0.00     0.163 HD
BRANCH   5   7
ATOM      7  C   UNL A   1      38.933  22.716  26.392  1.00  0.00     0.039 A 
ATOM      8  C   UNL A   1      38.586  24.017  26.039  1.00  0.00     0.014 A 
ATOM      9  C   UNL A   1      40.015  22.491  27.249  1.00  0.00     0.014 A 
ATOM     10  C   UNL A   1      39.429  25.067  26.363  1.00  0.00     0.010 A 
ATOM     11  C   UNL A   1      40.788  23.571  27.693  1.00  0.00     0.010 A 
ATOM     12  C   UNL A   1      40.522  24.866  27.224  1.00  0.00    -0.014 A 
BRANCH  12  13
ATOM     13  C   UNL A   1      41.291  26.057  27.665  1.00  0.00     0.031 A 
ATOM     14  C   UNL A   1      42.694  26.311  27.197  1.00  0.00     0.074 A 
ATOM     15  C   UNL A   1      40.657  26.960  28.442  1.00  0.00     0.049 A 
ATOM     16  N   UNL A   1      43.461  27.349  27.427  1.00  0.00    -0.248 NA
ATOM     17  C   UNL A   1      43.329  25.271  26.372  1.00  0.00     0.031 C 
ATOM     18  C   UNL A   1      39.302  26.803  28.975  1.00  0.00     0.029 A 
ATOM     19  N   UNL A   1      41.041  28.200  28.879  1.00  0.00    -0.354 N 
ATOM     20  C   UNL A   1      44.666  27.083  26.792  1.00  0.00     0.074 A 
ATOM     21  C   UNL A   1      44.544  25.774  26.187  1.00  0.00     0.031 C 
ATOM     22  C   UNL A   1      38.937  27.931  29.598  1.00  0.00     0.029 A 
ATOM     23  C   UNL A   1      40.059  28.861  29.576  1.00  0.00     0.049 A 
ATOM     24  H   UNL A   1      41.933  28.582  28.710  1.00  0.00     0.167 HD
ATOM     25  C   UNL A   1      45.768  27.869  26.716  1.00  0.00     0.037 A 
ATOM     26  C   UNL A   1      40.062  30.077  30.149  1.00  0.00     0.037 A 
ATOM     27  C   UNL A   1      45.876  29.178  27.311  1.00  0.00     0.049 A 
ATOM     28  C   UNL A   1      41.296  30.922  30.042  1.00  0.00     0.074 A 
ATOM     29  C   UNL A   1      46.948  30.054  27.284  1.00  0.00     0.029 A 
ATOM     30  N   UNL A   1      44.872  29.801  28.038  1.00  0.00    -0.354 N 
ATOM     31  N   UNL A   1      42.423  30.661  29.425  1.00  0.00    -0.248 NA
ATOM     32  C   UNL A   1      41.263  32.226  30.713  1.00  0.00     0.031 C 
ATOM     33  C   UNL A   1      46.607  31.191  28.025  1.00  0.00     0.029 A 
ATOM     34  C   UNL A   1      45.305  31.044  28.475  1.00  0.00     0.049 A 
ATOM     35  H   UNL A   1      43.984  29.417  28.217  1.00  0.00     0.167 HD
ATOM     36  C   UNL A   1      43.233  31.766  29.634  1.00  0.00     0.074 A 
ATOM     37  C   UNL A   1      42.451  32.717  30.398  1.00  0.00     0.031 C 
ATOM     38  C   UNL A   1      44.515  31.970  29.244  1.00  0.00     0.037 A 
BRANCH  25  39
ATOM     39  C   UNL A   1      46.957  27.339  25.967  1.00  0.00     0.064 A 
ATOM     40  C   UNL A   1      47.142  27.603  24.602  1.00  0.00     0.173 A 
ATOM     41  C   UNL A   1      47.959  26.620  26.637  1.00  0.00     0.173 A 
ATOM     42  F   UNL A   1      46.209  28.275  23.912  1.00  0.00    -0.203 F 
ATOM     43  C   UNL A   1      48.282  27.159  23.934  1.00  0.00     0.198 A 
ATOM     44  C   UNL A   1      49.108  26.199  25.972  1.00  0.00     0.198 A 
ATOM     45  F   UNL A   1      47.834  26.345  27.944  1.00  0.00    -0.203 F 
ATOM     46  F   UNL A   1      48.424  27.398  22.623  1.00  0.00    -0.200 F 
ATOM     47  C   UNL A   1      49.267  26.466  24.620  1.00  0.00     0.200 A 
ATOM     48  F   UNL A   1      50.065  25.541  26.641  1.00  0.00    -0.200 F 
ATOM     49  F   UNL A   1      50.369  26.053  23.980  1.00  0.00    -0.200 F 
ENDBRANCH  25  39
BRANCH  26  50
ATOM     50  C   UNL A   1      38.863  30.549  30.889  1.00  0.00     0.064 A 
ATOM     51  C   UNL A   1      37.795  31.168  30.224  1.00  0.00     0.173 A 
ATOM     52  C   UNL A   1      38.758  30.385  32.279  1.00  0.00     0.173 A 
ATOM     53  F   UNL A   1      37.854  31.362  28.899  1.00  0.00    -0.203 F 
ATOM     54  C   UNL A   1      36.680  31.622  30.925  1.00  0.00     0.198 A 
ATOM     55  C   UNL A   1      37.629  30.807  32.972  1.00  0.00     0.198 A 
ATOM     56  F   UNL A   1      39.750  29.792  32.960  1.00  0.00    -0.203 F 
ATOM     57  F   UNL A   1      35.694  32.254  30.272  1.00  0.00    -0.200 F 
ATOM     58  C   UNL A   1      36.594  31.436  32.296  1.00  0.00     0.200 A 
ATOM     59  F   UNL A   1      37.542  30.605  34.294  1.00  0.00    -0.200 F 
ATOM     60  F   UNL A   1      35.518  31.865  32.968  1.00  0.00    -0.200 F 
ENDBRANCH  26  50
BRANCH  38  61
ATOM     61  C   UNL A   1      45.136  33.276  29.639  1.00  0.00     0.064 A 
ATOM     62  C   UNL A   1      45.848  33.412  30.841  1.00  0.00     0.173 A 
ATOM     63  C   UNL A   1      45.016  34.403  28.813  1.00  0.00     0.173 A 
ATOM     64  F   UNL A   1      45.973  32.366  31.673  1.00  0.00    -0.203 F 
ATOM     65  C   UNL A   1      46.385  34.640  31.218  1.00  0.00     0.198 A 
ATOM     66  C   UNL A   1      45.580  35.620  29.180  1.00  0.00     0.198 A 
ATOM     67  F   UNL A   1      44.349  34.321  27.652  1.00  0.00    -0.203 F 
ATOM     68  F   UNL A   1      47.007  34.761  32.399  1.00  0.00    -0.200 F 
ATOM     69  C   UNL A   1      46.253  35.741  30.386  1.00  0.00     0.200 A 
ATOM     70  F   UNL A   1      45.461  36.682  28.371  1.00  0.00    -0.200 F 
ATOM     71  F   UNL A   1      46.765  36.923  30.753  1.00  0.00    -0.200 F 
ENDBRANCH  38  61
ENDBRANCH  12  13
ENDBRANCH   5   7
ENDBRANCH   2   3
ENDBRANCH   1   2
BRANCH   1  72
ATOM     72  C   UNL A   1      33.396  22.322  25.818  1.00  0.00     0.118 C 
BRANCH  72  73
ATOM     73  N   UNL A   1      32.113  22.210  26.504  1.00  0.00    -0.352 N 
ATOM     74  C   UNL A   1      31.181  23.178  26.793  1.00  0.00     0.251 C 
ATOM     75  H   UNL A   1      31.879  21.303  26.805  1.00  0.00     0.163 HD
ATOM     76  O   UNL A   1      30.270  22.942  27.580  1.00  0.00    -0.269 OA
BRANCH  74  77
ATOM     77  C   UNL A   1      31.290  24.509  26.164  1.00  0.00     0.040 A 
ATOM     78  C   UNL A   1      30.655  24.756  24.940  1.00  0.00     0.016 A 
ATOM     79  C   UNL A   1      32.041  25.509  26.781  1.00  0.00     0.019 A 
ATOM     80  C   UNL A   1      30.895  25.938  24.242  1.00  0.00     0.027 A 
ATOM     81  C   UNL A   1      32.208  26.711  26.102  1.00  0.00    -0.022 A 
ATOM     82  C   UNL A   1      31.672  26.920  24.824  1.00  0.00     0.047 A 
ATOM     83  C   UNL A   1      33.025  27.879  26.552  1.00  0.00     0.059 C 
ATOM     84  N   UNL A   1      32.081  28.175  24.337  1.00  0.00    -0.306 N 
ATOM     85  C   UNL A   1      32.786  28.880  25.420  1.00  0.00     0.131 C 
BRANCH  84  86
ATOM     86  C   UNL A   1      31.982  28.778  23.087  1.00  0.00     0.276 C 
ATOM     87  O   UNL A   1      32.973  28.867  22.360  1.00  0.00    -0.267 OA
BRANCH  86  88
ATOM     88  C   UNL A   1      30.706  29.221  22.598  1.00  0.00     0.123 A 
ATOM     89  C   UNL A   1      29.419  29.041  23.066  1.00  0.00     0.055 A 
ATOM     90  N   UNL A   1      30.583  30.086  21.544  1.00  0.00    -0.273 N 
ATOM     91  C   UNL A   1      28.598  29.711  22.139  1.00  0.00     0.135 A 
ATOM     92  N   UNL A   1      29.307  30.327  21.191  1.00  0.00    -0.183 NA
ATOM     93  H   UNL A   1      31.354  30.493  21.088  1.00  0.00     0.190 HD
ENDBRANCH  86  88
ENDBRANCH  84  86
ENDBRANCH  74  77
ENDBRANCH  72  73
ENDBRANCH   1  72
TORSDOF 12
ENDMDL
