MODEL 1
REMARK VINA RESULT:     -12.4      0.000      0.000
REMARK SMILES O=CN[C@@H](Cc1cc(Cl)ccc1[N+](=O)[O-])C(=O)NCCCNC(=O)c1ccc(-c2c3nc(c(-c4c(F)c(F)c(F)c(F)c4F)c4ccc([nH]4)c(-c4c(F)c(F)c(F)c(F)c4F)c4nc(c(-c5c(F)c(F)c(F)c(F)c5F)c5ccc2[nH]5)C=C4)C=C3)cc1
REMARK SMILES IDX 19 1 18 2 16 3 17 4 4 6 3 7 1 8 2 9 5 11 6 12 7 13 12 14
REMARK SMILES IDX 8 15 11 16 9 17 10 18 13 19 14 20 15 21 20 22 21 23 22 24
REMARK SMILES IDX 23 25 24 27 25 28 26 29 87 30 27 31 86 32 28 33 29 34 30 35
REMARK SMILES IDX 80 36 31 37 85 38 79 39 81 40 32 41 84 42 78 43 77 44 33 46
REMARK SMILES IDX 65 47 45 48 64 49 46 50 49 51 63 52 82 53 47 54 48 55 62 57
REMARK SMILES IDX 83 58 50 59 34 60 35 61 43 62 36 63 37 64 41 65 44 66 38 67
REMARK SMILES IDX 39 68 42 69 40 70 66 71 67 72 75 73 68 74 69 75 73 76 76 77
REMARK SMILES IDX 70 78 71 79 74 80 72 81 51 82 52 83 60 84 53 85 54 86 58 87
REMARK SMILES IDX 61 88 55 89 56 90 59 91 57 92
REMARK H PARENT 18 5 3 10 22 26 81 45 49 56
REMARK Flexibility Score: inf
ROOT
ATOM      1  C   UNL A   1      31.645  30.649  26.288  1.00  0.00     0.117 C 
ENDROOT
BRANCH   1   2
ATOM      2  N   UNL A   1      31.375  30.324  24.900  1.00  0.00    -0.354 N 
ATOM      3  C   UNL A   1      31.397  29.116  24.265  1.00  0.00     0.242 C 
ATOM      4  O   UNL A   1      30.768  29.036  23.205  1.00  0.00    -0.273 OA
ATOM      5  H   UNL A   1      31.141  31.091  24.330  1.00  0.00     0.163 HD
BRANCH   3   6
ATOM      6  C   UNL A   1      32.040  27.849  24.877  1.00  0.00     0.175 C 
BRANCH   6   7
ATOM      7  N   UNL A   1      31.106  26.744  25.007  1.00  0.00    -0.347 N 
ATOM      8  O   UNL A   1      29.877  25.335  26.295  1.00  0.00    -0.279 OA
ATOM      9  C   UNL A   1      30.693  26.240  26.205  1.00  0.00     0.337 C 
ATOM     10  H   UNL A   1      30.751  26.336  24.184  1.00  0.00     0.164 HD
ENDBRANCH   6   7
BRANCH   6  11
ATOM     11  C   UNL A   1      33.401  27.480  24.234  1.00  0.00     0.078 C 
BRANCH  11  12
ATOM     12  C   UNL A   1      33.721  26.008  24.022  1.00  0.00     0.034 A 
ATOM     13  C   UNL A   1      34.403  25.359  25.081  1.00  0.00     0.031 A 
ATOM     14  C   UNL A   1      33.424  25.235  22.874  1.00  0.00     0.272 A 
ATOM     15  C   UNL A   1      34.840  24.035  24.971  1.00  0.00     0.041 A 
ATOM     16  C   UNL A   1      33.871  23.899  22.774  1.00  0.00     0.087 A 
ATOM     17  Cl  UNL A   1      35.765  23.336  26.238  1.00  0.00    -0.084 Cl
ATOM     18  C   UNL A   1      34.589  23.309  23.814  1.00  0.00     0.027 A 
BRANCH  14  19
ATOM     19  N   UNL A   1      32.660  25.751  21.723  1.00  0.00     0.062 N 
ATOM     20  O   UNL A   1      33.278  25.952  20.670  1.00  0.00    -0.258 OA
ATOM     21  O   UNL A   1      31.462  25.999  21.885  1.00  0.00    -0.258 OA
ENDBRANCH  14  19
ENDBRANCH  11  12
ENDBRANCH   6  11
ENDBRANCH   3   6
ENDBRANCH   1   2
BRANCH   1  22
ATOM     22  C   UNL A   1      31.411  32.103  26.648  1.00  0.00     0.042 C 
BRANCH  22  23
ATOM     23  C   UNL A   1      32.622  32.791  27.271  1.00  0.00     0.118 C 
BRANCH  23  24
ATOM     24  N   UNL A   1      32.395  34.191  27.627  1.00  0.00    -0.352 N 
ATOM     25  C   UNL A   1      32.982  34.980  28.591  1.00  0.00     0.251 C 
ATOM     26  H   UNL A   1      31.708  34.645  27.088  1.00  0.00     0.163 HD
ATOM     27  O   UNL A   1      32.534  36.100  28.820  1.00  0.00    -0.269 OA
BRANCH  25  28
ATOM     28  C   UNL A   1      34.120  34.469  29.385  1.00  0.00     0.039 A 
ATOM     29  C   UNL A   1      33.874  33.848  30.612  1.00  0.00     0.014 A 
ATOM     30  C   UNL A   1      35.427  34.569  28.906  1.00  0.00     0.014 A 
ATOM     31  C   UNL A   1      34.919  33.218  31.291  1.00  0.00     0.010 A 
ATOM     32  C   UNL A   1      36.440  33.843  29.518  1.00  0.00     0.010 A 
ATOM     33  C   UNL A   1      36.197  33.151  30.713  1.00  0.00    -0.014 A 
BRANCH  33  34
ATOM     34  C   UNL A   1      37.294  32.353  31.319  1.00  0.00     0.031 A 
ATOM     35  C   UNL A   1      37.790  32.684  32.700  1.00  0.00     0.074 A 
ATOM     36  C   UNL A   1      37.917  31.409  30.586  1.00  0.00     0.049 A 
ATOM     37  N   UNL A   1      38.825  32.209  33.347  1.00  0.00    -0.248 NA
ATOM     38  C   UNL A   1      37.050  33.723  33.435  1.00  0.00     0.031 C 
ATOM     39  C   UNL A   1      37.578  31.044  29.208  1.00  0.00     0.029 A 
ATOM     40  N   UNL A   1      38.978  30.594  30.889  1.00  0.00    -0.354 N 
ATOM     41  C   UNL A   1      38.878  32.916  34.541  1.00  0.00     0.074 A 
ATOM     42  C   UNL A   1      37.808  33.888  34.508  1.00  0.00     0.031 C 
ATOM     43  C   UNL A   1      38.393  30.058  28.799  1.00  0.00     0.029 A 
ATOM     44  C   UNL A   1      39.337  29.749  29.867  1.00  0.00     0.049 A 
ATOM     45  H   UNL A   1      39.439  30.612  31.760  1.00  0.00     0.167 HD
ATOM     46  C   UNL A   1      39.724  32.748  35.585  1.00  0.00     0.037 A 
ATOM     47  C   UNL A   1      40.321  28.832  29.798  1.00  0.00     0.037 A 
ATOM     48  C   UNL A   1      40.752  31.743  35.635  1.00  0.00     0.049 A 
ATOM     49  C   UNL A   1      41.218  28.634  30.988  1.00  0.00     0.074 A 
ATOM     50  C   UNL A   1      41.615  31.441  36.672  1.00  0.00     0.029 A 
ATOM     51  N   UNL A   1      41.046  30.868  34.600  1.00  0.00    -0.354 N 
ATOM     52  N   UNL A   1      41.218  29.264  32.137  1.00  0.00    -0.248 NA
ATOM     53  C   UNL A   1      42.249  27.594  30.873  1.00  0.00     0.031 C 
ATOM     54  C   UNL A   1      42.451  30.400  36.255  1.00  0.00     0.029 A 
ATOM     55  C   UNL A   1      42.083  30.029  34.972  1.00  0.00     0.049 A 
ATOM     56  H   UNL A   1      40.586  30.846  33.730  1.00  0.00     0.167 HD
ATOM     57  C   UNL A   1      42.226  28.682  32.891  1.00  0.00     0.074 A 
ATOM     58  C   UNL A   1      42.809  27.637  32.074  1.00  0.00     0.031 C 
ATOM     59  C   UNL A   1      42.635  28.986  34.147  1.00  0.00     0.037 A 
BRANCH  46  60
ATOM     60  C   UNL A   1      39.560  33.664  36.763  1.00  0.00     0.064 A 
ATOM     61  C   UNL A   1      38.758  33.312  37.860  1.00  0.00     0.173 A 
ATOM     62  C   UNL A   1      40.223  34.900  36.805  1.00  0.00     0.173 A 
ATOM     63  F   UNL A   1      38.090  32.149  37.862  1.00  0.00    -0.203 F 
ATOM     64  C   UNL A   1      38.598  34.178  38.939  1.00  0.00     0.198 A 
ATOM     65  C   UNL A   1      40.086  35.749  37.901  1.00  0.00     0.198 A 
ATOM     66  F   UNL A   1      41.007  35.283  35.787  1.00  0.00    -0.203 F 
ATOM     67  F   UNL A   1      37.780  33.845  39.947  1.00  0.00    -0.200 F 
ATOM     68  C   UNL A   1      39.267  35.392  38.961  1.00  0.00     0.200 A 
ATOM     69  F   UNL A   1      40.742  36.918  37.927  1.00  0.00    -0.200 F 
ATOM     70  F   UNL A   1      39.113  36.223  40.001  1.00  0.00    -0.200 F 
ENDBRANCH  46  60
BRANCH  47  71
ATOM     71  C   UNL A   1      40.479  28.003  28.576  1.00  0.00     0.064 A 
ATOM     72  C   UNL A   1      41.263  28.453  27.503  1.00  0.00     0.173 A 
ATOM     73  C   UNL A   1      39.862  26.750  28.451  1.00  0.00     0.173 A 
ATOM     74  F   UNL A   1      41.858  29.653  27.569  1.00  0.00    -0.203 F 
ATOM     75  C   UNL A   1      41.407  27.693  26.346  1.00  0.00     0.198 A 
ATOM     76  C   UNL A   1      40.028  25.978  27.302  1.00  0.00     0.198 A 
ATOM     77  F   UNL A   1      39.109  26.271  29.451  1.00  0.00    -0.203 F 
ATOM     78  F   UNL A   1      42.128  28.167  25.320  1.00  0.00    -0.200 F 
ATOM     79  C   UNL A   1      40.794  26.453  26.248  1.00  0.00     0.200 A 
ATOM     80  F   UNL A   1      39.444  24.775  27.217  1.00  0.00    -0.200 F 
ATOM     81  F   UNL A   1      40.935  25.719  25.136  1.00  0.00    -0.200 F 
ENDBRANCH  47  71
BRANCH  59  82
ATOM     82  C   UNL A   1      43.739  28.154  34.727  1.00  0.00     0.064 A 
ATOM     83  C   UNL A   1      45.083  28.540  34.623  1.00  0.00     0.173 A 
ATOM     84  C   UNL A   1      43.443  26.979  35.435  1.00  0.00     0.173 A 
ATOM     85  F   UNL A   1      45.416  29.648  33.943  1.00  0.00    -0.203 F 
ATOM     86  C   UNL A   1      46.093  27.769  35.190  1.00  0.00     0.198 A 
ATOM     87  C   UNL A   1      44.453  26.224  36.023  1.00  0.00     0.198 A 
ATOM     88  F   UNL A   1      42.171  26.571  35.566  1.00  0.00    -0.203 F 
ATOM     89  F   UNL A   1      47.374  28.135  35.044  1.00  0.00    -0.200 F 
ATOM     90  C   UNL A   1      45.778  26.616  35.894  1.00  0.00     0.200 A 
ATOM     91  F   UNL A   1      44.146  25.117  36.712  1.00  0.00    -0.200 F 
ATOM     92  F   UNL A   1      46.751  25.880  36.446  1.00  0.00    -0.200 F 
ENDBRANCH  59  82
ENDBRANCH  33  34
ENDBRANCH  25  28
ENDBRANCH  23  24
ENDBRANCH  22  23
ENDBRANCH   1  22
TORSDOF 14
ENDMDL
MODEL 2
REMARK VINA RESULT:     -12.3      0.200      1.982
REMARK SMILES O=CN[C@@H](Cc1cc(Cl)ccc1[N+](=O)[O-])C(=O)NCCCNC(=O)c1ccc(-c2c3nc(c(-c4c(F)c(F)c(F)c(F)c4F)c4ccc([nH]4)c(-c4c(F)c(F)c(F)c(F)c4F)c4nc(c(-c5c(F)c(F)c(F)c(F)c5F)c5ccc2[nH]5)C=C4)C=C3)cc1
REMARK SMILES IDX 19 1 18 2 16 3 17 4 4 6 3 7 1 8 2 9 5 11 6 12 7 13 12 14
REMARK SMILES IDX 8 15 11 16 9 17 10 18 13 19 14 20 15 21 20 22 21 23 22 24
REMARK SMILES IDX 23 25 24 27 25 28 26 29 87 30 27 31 86 32 28 33 29 34 30 35
REMARK SMILES IDX 80 36 31 37 85 38 79 39 81 40 32 41 84 42 78 43 77 44 33 46
REMARK SMILES IDX 65 47 45 48 64 49 46 50 49 51 63 52 82 53 47 54 48 55 62 57
REMARK SMILES IDX 83 58 50 59 34 60 35 61 43 62 36 63 37 64 41 65 44 66 38 67
REMARK SMILES IDX 39 68 42 69 40 70 66 71 67 72 75 73 68 74 69 75 73 76 76 77
REMARK SMILES IDX 70 78 71 79 74 80 72 81 51 82 52 83 60 84 53 85 54 86 58 87
REMARK SMILES IDX 61 88 55 89 56 90 59 91 57 92
REMARK H PARENT 18 5 3 10 22 26 81 45 49 56
REMARK Flexibility Score: inf
ROOT
ATOM      1  C   UNL A   1      31.768  30.563  26.355  1.00  0.00     0.117 C 
ENDROOT
BRANCH   1   2
ATOM      2  N   UNL A   1      31.516  30.245  24.963  1.00  0.00    -0.354 N 
ATOM      3  C   UNL A   1      31.553  29.041  24.320  1.00  0.00     0.242 C 
ATOM      4  O   UNL A   1      30.935  28.963  23.253  1.00  0.00    -0.273 OA
ATOM      5  H   UNL A   1      31.281  31.014  24.394  1.00  0.00     0.163 HD
BRANCH   3   6
ATOM      6  C   UNL A   1      32.198  27.775  24.932  1.00  0.00     0.175 C 
BRANCH   6   7
ATOM      7  N   UNL A   1      31.261  26.676  25.081  1.00  0.00    -0.347 N 
ATOM      8  O   UNL A   1      29.837  25.450  26.357  1.00  0.00    -0.279 OA
ATOM      9  C   UNL A   1      30.652  26.356  26.259  1.00  0.00     0.337 C 
ATOM     10  H   UNL A   1      31.054  26.130  24.288  1.00  0.00     0.164 HD
ENDBRANCH   6   7
BRANCH   6  11
ATOM     11  C   UNL A   1      33.549  27.395  24.272  1.00  0.00     0.078 C 
BRANCH  11  12
ATOM     12  C   UNL A   1      33.862  25.920  24.072  1.00  0.00     0.034 A 
ATOM     13  C   UNL A   1      34.608  25.296  25.102  1.00  0.00     0.031 A 
ATOM     14  C   UNL A   1      33.501  25.123  22.959  1.00  0.00     0.272 A 
ATOM     15  C   UNL A   1      35.043  23.971  24.993  1.00  0.00     0.041 A 
ATOM     16  C   UNL A   1      33.948  23.787  22.860  1.00  0.00     0.087 A 
ATOM     17  Cl  UNL A   1      36.045  23.302  26.218  1.00  0.00    -0.084 Cl
ATOM     18  C   UNL A   1      34.729  23.220  23.868  1.00  0.00     0.027 A 
BRANCH  14  19
ATOM     19  N   UNL A   1      32.669  25.613  21.845  1.00  0.00     0.062 N 
ATOM     20  O   UNL A   1      33.235  25.855  20.771  1.00  0.00    -0.258 OA
ATOM     21  O   UNL A   1      31.467  25.798  22.056  1.00  0.00    -0.258 OA
ENDBRANCH  14  19
ENDBRANCH  11  12
ENDBRANCH   6  11
ENDBRANCH   3   6
ENDBRANCH   1   2
BRANCH   1  22
ATOM     22  C   UNL A   1      31.489  32.005  26.729  1.00  0.00     0.042 C 
BRANCH  22  23
ATOM     23  C   UNL A   1      32.708  32.758  27.253  1.00  0.00     0.118 C 
BRANCH  23  24
ATOM     24  N   UNL A   1      32.437  34.144  27.631  1.00  0.00    -0.352 N 
ATOM     25  C   UNL A   1      32.998  34.936  28.609  1.00  0.00     0.251 C 
ATOM     26  H   UNL A   1      31.736  34.585  27.099  1.00  0.00     0.163 HD
ATOM     27  O   UNL A   1      32.514  36.037  28.855  1.00  0.00    -0.269 OA
BRANCH  25  28
ATOM     28  C   UNL A   1      34.151  34.448  29.395  1.00  0.00     0.039 A 
ATOM     29  C   UNL A   1      33.925  33.826  30.625  1.00  0.00     0.014 A 
ATOM     30  C   UNL A   1      35.452  34.571  28.908  1.00  0.00     0.014 A 
ATOM     31  C   UNL A   1      34.987  33.217  31.299  1.00  0.00     0.010 A 
ATOM     32  C   UNL A   1      36.483  33.867  29.514  1.00  0.00     0.010 A 
ATOM     33  C   UNL A   1      36.262  33.173  30.712  1.00  0.00    -0.014 A 
BRANCH  33  34
ATOM     34  C   UNL A   1      37.378  32.397  31.313  1.00  0.00     0.031 A 
ATOM     35  C   UNL A   1      37.891  32.754  32.681  1.00  0.00     0.074 A 
ATOM     36  C   UNL A   1      38.001  31.451  30.583  1.00  0.00     0.049 A 
ATOM     37  N   UNL A   1      38.941  32.301  33.318  1.00  0.00    -0.248 NA
ATOM     38  C   UNL A   1      37.148  33.794  33.412  1.00  0.00     0.031 C 
ATOM     39  C   UNL A   1      37.646  31.063  29.215  1.00  0.00     0.029 A 
ATOM     40  N   UNL A   1      39.077  30.653  30.881  1.00  0.00    -0.354 N 
ATOM     41  C   UNL A   1      39.003  33.025  34.501  1.00  0.00     0.074 A 
ATOM     42  C   UNL A   1      37.920  33.984  34.471  1.00  0.00     0.031 C 
ATOM     43  C   UNL A   1      38.467  30.081  28.808  1.00  0.00     0.029 A 
ATOM     44  C   UNL A   1      39.431  29.799  29.865  1.00  0.00     0.049 A 
ATOM     45  H   UNL A   1      39.551  30.689  31.744  1.00  0.00     0.167 HD
ATOM     46  C   UNL A   1      39.867  32.883  35.534  1.00  0.00     0.037 A 
ATOM     47  C   UNL A   1      40.425  28.893  29.794  1.00  0.00     0.037 A 
ATOM     48  C   UNL A   1      40.908  31.892  35.583  1.00  0.00     0.049 A 
ATOM     49  C   UNL A   1      41.343  28.723  30.973  1.00  0.00     0.074 A 
ATOM     50  C   UNL A   1      41.791  31.614  36.611  1.00  0.00     0.029 A 
ATOM     51  N   UNL A   1      41.197  31.005  34.556  1.00  0.00    -0.354 N 
ATOM     52  N   UNL A   1      41.353  29.369  32.113  1.00  0.00    -0.248 NA
ATOM     53  C   UNL A   1      42.385  27.694  30.856  1.00  0.00     0.031 C 
ATOM     54  C   UNL A   1      42.634  30.578  36.196  1.00  0.00     0.029 A 
ATOM     55  C   UNL A   1      42.251  30.185  34.923  1.00  0.00     0.049 A 
ATOM     56  H   UNL A   1      40.725  30.965  33.693  1.00  0.00     0.167 HD
ATOM     57  C   UNL A   1      42.379  28.810  32.859  1.00  0.00     0.074 A 
ATOM     58  C   UNL A   1      42.962  27.761  32.048  1.00  0.00     0.031 C 
ATOM     59  C   UNL A   1      42.803  29.137  34.105  1.00  0.00     0.037 A 
BRANCH  46  60
ATOM     60  C   UNL A   1      39.709  33.813  36.702  1.00  0.00     0.064 A 
ATOM     61  C   UNL A   1      40.359  35.058  36.741  1.00  0.00     0.173 A 
ATOM     62  C   UNL A   1      38.888  33.468  37.785  1.00  0.00     0.173 A 
ATOM     63  F   UNL A   1      41.167  35.430  35.736  1.00  0.00    -0.203 F 
ATOM     64  C   UNL A   1      40.220  35.905  37.837  1.00  0.00     0.198 A 
ATOM     65  C   UNL A   1      38.727  34.333  38.866  1.00  0.00     0.198 A 
ATOM     66  F   UNL A   1      38.241  32.294  37.797  1.00  0.00    -0.203 F 
ATOM     67  F   UNL A   1      40.896  37.061  37.877  1.00  0.00    -0.200 F 
ATOM     68  C   UNL A   1      39.400  35.545  38.895  1.00  0.00     0.200 A 
ATOM     69  F   UNL A   1      37.926  33.988  39.883  1.00  0.00    -0.200 F 
ATOM     70  F   UNL A   1      39.266  36.362  39.948  1.00  0.00    -0.200 F 
ENDBRANCH  46  60
BRANCH  47  71
ATOM     71  C   UNL A   1      40.576  28.048  28.581  1.00  0.00     0.064 A 
ATOM     72  C   UNL A   1      39.937  26.802  28.496  1.00  0.00     0.173 A 
ATOM     73  C   UNL A   1      41.348  28.462  27.488  1.00  0.00     0.173 A 
ATOM     74  F   UNL A   1      39.203  26.356  29.525  1.00  0.00    -0.203 F 
ATOM     75  C   UNL A   1      40.083  25.993  27.372  1.00  0.00     0.198 A 
ATOM     76  C   UNL A   1      41.473  27.662  26.352  1.00  0.00     0.198 A 
ATOM     77  F   UNL A   1      41.973  29.648  27.517  1.00  0.00    -0.203 F 
ATOM     78  F   UNL A   1      39.497  24.789  27.334  1.00  0.00    -0.200 F 
ATOM     79  C   UNL A   1      40.847  26.426  26.298  1.00  0.00     0.200 A 
ATOM     80  F   UNL A   1      42.201  28.090  25.312  1.00  0.00    -0.200 F 
ATOM     81  F   UNL A   1      40.984  25.650  25.214  1.00  0.00    -0.200 F 
ENDBRANCH  47  71
BRANCH  59  82
ATOM     82  C   UNL A   1      43.927  28.327  34.679  1.00  0.00     0.064 A 
ATOM     83  C   UNL A   1      43.691  27.139  35.384  1.00  0.00     0.173 A 
ATOM     84  C   UNL A   1      45.258  28.724  34.481  1.00  0.00     0.173 A 
ATOM     85  F   UNL A   1      42.434  26.727  35.611  1.00  0.00    -0.203 F 
ATOM     86  C   UNL A   1      44.747  26.386  35.888  1.00  0.00     0.198 A 
ATOM     87  C   UNL A   1      46.313  27.955  34.963  1.00  0.00     0.198 A 
ATOM     88  F   UNL A   1      45.535  29.851  33.808  1.00  0.00    -0.203 F 
ATOM     89  F   UNL A   1      44.498  25.274  36.595  1.00  0.00    -0.200 F 
ATOM     90  C   UNL A   1      46.056  26.791  35.672  1.00  0.00     0.200 A 
ATOM     91  F   UNL A   1      47.577  28.341  34.745  1.00  0.00    -0.200 F 
ATOM     92  F   UNL A   1      47.072  26.060  36.151  1.00  0.00    -0.200 F 
ENDBRANCH  59  82
ENDBRANCH  33  34
ENDBRANCH  25  28
ENDBRANCH  23  24
ENDBRANCH  22  23
ENDBRANCH   1  22
TORSDOF 14
ENDMDL
MODEL 3
REMARK VINA RESULT:     -12.2      5.986     10.237
REMARK SMILES O=CN[C@@H](Cc1cc(Cl)ccc1[N+](=O)[O-])C(=O)NCCCNC(=O)c1ccc(-c2c3nc(c(-c4c(F)c(F)c(F)c(F)c4F)c4ccc([nH]4)c(-c4c(F)c(F)c(F)c(F)c4F)c4nc(c(-c5c(F)c(F)c(F)c(F)c5F)c5ccc2[nH]5)C=C4)C=C3)cc1
REMARK SMILES IDX 19 1 18 2 16 3 17 4 4 6 3 7 1 8 2 9 5 11 6 12 7 13 12 14
REMARK SMILES IDX 8 15 11 16 9 17 10 18 13 19 14 20 15 21 20 22 21 23 22 24
REMARK SMILES IDX 23 25 24 27 25 28 26 29 87 30 27 31 86 32 28 33 29 34 30 35
REMARK SMILES IDX 80 36 31 37 85 38 79 39 81 40 32 41 84 42 78 43 77 44 33 46
REMARK SMILES IDX 65 47 45 48 64 49 46 50 49 51 63 52 82 53 47 54 48 55 62 57
REMARK SMILES IDX 83 58 50 59 34 60 35 61 43 62 36 63 37 64 41 65 44 66 38 67
REMARK SMILES IDX 39 68 42 69 40 70 66 71 67 72 75 73 68 74 69 75 73 76 76 77
REMARK SMILES IDX 70 78 71 79 74 80 72 81 51 82 52 83 60 84 53 85 54 86 58 87
REMARK SMILES IDX 61 88 55 89 56 90 59 91 57 92
REMARK H PARENT 18 5 3 10 22 26 81 45 49 56
REMARK Flexibility Score: inf
ROOT
ATOM      1  C   UNL A   1      37.228  21.509  24.776  1.00  0.00     0.117 C 
ENDROOT
BRANCH   1   2
ATOM      2  N   UNL A   1      36.292  21.823  25.839  1.00  0.00    -0.354 N 
ATOM      3  C   UNL A   1      35.036  21.340  26.070  1.00  0.00     0.242 C 
ATOM      4  O   UNL A   1      34.601  21.455  27.221  1.00  0.00    -0.273 OA
ATOM      5  H   UNL A   1      36.612  22.483  26.495  1.00  0.00     0.163 HD
BRANCH   3   6
ATOM      6  C   UNL A   1      34.225  20.553  25.014  1.00  0.00     0.175 C 
BRANCH   6   7
ATOM      7  N   UNL A   1      33.635  19.336  25.542  1.00  0.00    -0.347 N 
ATOM      8  O   UNL A   1      32.153  17.623  25.378  1.00  0.00    -0.279 OA
ATOM      9  C   UNL A   1      32.611  18.667  24.938  1.00  0.00     0.337 C 
ATOM     10  H   UNL A   1      33.993  18.973  26.385  1.00  0.00     0.164 HD
ENDBRANCH   6   7
BRANCH   6  11
ATOM     11  C   UNL A   1      33.257  21.445  24.194  1.00  0.00     0.078 C 
BRANCH  11  12
ATOM     12  C   UNL A   1      32.539  22.577  24.914  1.00  0.00     0.034 A 
ATOM     13  C   UNL A   1      31.444  22.201  25.732  1.00  0.00     0.031 A 
ATOM     14  C   UNL A   1      32.842  23.957  24.831  1.00  0.00     0.272 A 
ATOM     15  C   UNL A   1      30.643  23.154  26.368  1.00  0.00     0.041 A 
ATOM     16  C   UNL A   1      32.025  24.910  25.478  1.00  0.00     0.087 A 
ATOM     17  Cl  UNL A   1      29.260  22.648  27.251  1.00  0.00    -0.084 Cl
ATOM     18  C   UNL A   1      30.921  24.508  26.230  1.00  0.00     0.027 A 
BRANCH  14  19
ATOM     19  N   UNL A   1      33.990  24.492  24.077  1.00  0.00     0.062 N 
ATOM     20  O   UNL A   1      35.101  24.454  24.621  1.00  0.00    -0.258 OA
ATOM     21  O   UNL A   1      33.775  24.990  22.967  1.00  0.00    -0.258 OA
ENDBRANCH  14  19
ENDBRANCH  11  12
ENDBRANCH   6  11
ENDBRANCH   3   6
ENDBRANCH   1   2
BRANCH   1  22
ATOM     22  C   UNL A   1      38.032  20.244  25.000  1.00  0.00     0.042 C 
BRANCH  22  23
ATOM     23  C   UNL A   1      39.222  20.424  25.937  1.00  0.00     0.118 C 
BRANCH  23  24
ATOM     24  N   UNL A   1      40.146  19.290  25.953  1.00  0.00    -0.352 N 
ATOM     25  C   UNL A   1      41.514  19.246  26.102  1.00  0.00     0.251 C 
ATOM     26  H   UNL A   1      39.717  18.411  25.838  1.00  0.00     0.163 HD
ATOM     27  O   UNL A   1      42.112  18.187  25.937  1.00  0.00    -0.269 OA
BRANCH  25  28
ATOM     28  C   UNL A   1      42.272  20.477  26.415  1.00  0.00     0.039 A 
ATOM     29  C   UNL A   1      42.888  21.181  25.378  1.00  0.00     0.014 A 
ATOM     30  C   UNL A   1      42.347  20.957  27.722  1.00  0.00     0.014 A 
ATOM     31  C   UNL A   1      43.466  22.427  25.635  1.00  0.00     0.010 A 
ATOM     32  C   UNL A   1      42.813  22.243  27.956  1.00  0.00     0.010 A 
ATOM     33  C   UNL A   1      43.370  22.999  26.914  1.00  0.00    -0.014 A 
BRANCH  33  34
ATOM     34  C   UNL A   1      43.822  24.387  27.192  1.00  0.00     0.031 A 
ATOM     35  C   UNL A   1      42.846  25.405  27.712  1.00  0.00     0.074 A 
ATOM     36  C   UNL A   1      45.078  24.756  26.870  1.00  0.00     0.049 A 
ATOM     37  N   UNL A   1      43.001  26.694  27.880  1.00  0.00    -0.248 NA
ATOM     38  C   UNL A   1      41.497  24.917  28.044  1.00  0.00     0.031 C 
ATOM     39  C   UNL A   1      46.098  23.879  26.290  1.00  0.00     0.029 A 
ATOM     40  N   UNL A   1      45.707  25.972  26.969  1.00  0.00    -0.354 N 
ATOM     41  C   UNL A   1      41.766  27.170  28.299  1.00  0.00     0.074 A 
ATOM     42  C   UNL A   1      40.857  26.045  28.308  1.00  0.00     0.031 C 
ATOM     43  C   UNL A   1      47.232  24.577  26.115  1.00  0.00     0.029 A 
ATOM     44  C   UNL A   1      47.009  25.958  26.530  1.00  0.00     0.049 A 
ATOM     45  H   UNL A   1      45.266  26.779  27.321  1.00  0.00     0.167 HD
ATOM     46  C   UNL A   1      41.428  28.427  28.673  1.00  0.00     0.037 A 
ATOM     47  C   UNL A   1      47.918  26.949  26.466  1.00  0.00     0.037 A 
ATOM     48  C   UNL A   1      42.349  29.531  28.715  1.00  0.00     0.049 A 
ATOM     49  C   UNL A   1      47.530  28.326  26.930  1.00  0.00     0.074 A 
ATOM     50  C   UNL A   1      42.128  30.826  29.146  1.00  0.00     0.029 A 
ATOM     51  N   UNL A   1      43.676  29.462  28.317  1.00  0.00    -0.354 N 
ATOM     52  N   UNL A   1      46.377  28.750  27.386  1.00  0.00    -0.248 NA
ATOM     53  C   UNL A   1      48.572  29.360  26.876  1.00  0.00     0.031 C 
ATOM     54  C   UNL A   1      43.314  31.549  28.984  1.00  0.00     0.029 A 
ATOM     55  C   UNL A   1      44.284  30.694  28.486  1.00  0.00     0.049 A 
ATOM     56  H   UNL A   1      44.120  28.656  27.965  1.00  0.00     0.167 HD
ATOM     57  C   UNL A   1      46.560  30.089  27.697  1.00  0.00     0.074 A 
ATOM     58  C   UNL A   1      47.940  30.404  27.391  1.00  0.00     0.031 C 
ATOM     59  C   UNL A   1      45.664  30.980  28.190  1.00  0.00     0.037 A 
BRANCH  46  60
ATOM     60  C   UNL A   1      40.003  28.668  29.081  1.00  0.00     0.064 A 
ATOM     61  C   UNL A   1      39.576  28.469  30.404  1.00  0.00     0.173 A 
ATOM     62  C   UNL A   1      39.058  29.117  28.147  1.00  0.00     0.173 A 
ATOM     63  F   UNL A   1      40.436  28.026  31.333  1.00  0.00    -0.203 F 
ATOM     64  C   UNL A   1      38.247  28.678  30.767  1.00  0.00     0.198 A 
ATOM     65  C   UNL A   1      37.737  29.355  28.522  1.00  0.00     0.198 A 
ATOM     66  F   UNL A   1      39.414  29.328  26.872  1.00  0.00    -0.203 F 
ATOM     67  F   UNL A   1      37.851  28.425  32.022  1.00  0.00    -0.200 F 
ATOM     68  C   UNL A   1      37.332  29.126  29.828  1.00  0.00     0.200 A 
ATOM     69  F   UNL A   1      36.855  29.799  27.616  1.00  0.00    -0.200 F 
ATOM     70  F   UNL A   1      36.055  29.328  30.180  1.00  0.00    -0.200 F 
ENDBRANCH  46  60
BRANCH  47  71
ATOM     71  C   UNL A   1      49.295  26.665  25.985  1.00  0.00     0.064 A 
ATOM     72  C   UNL A   1      50.253  26.113  26.848  1.00  0.00     0.173 A 
ATOM     73  C   UNL A   1      49.682  26.931  24.665  1.00  0.00     0.173 A 
ATOM     74  F   UNL A   1      49.934  25.859  28.125  1.00  0.00    -0.203 F 
ATOM     75  C   UNL A   1      51.551  25.858  26.414  1.00  0.00     0.198 A 
ATOM     76  C   UNL A   1      50.975  26.651  24.225  1.00  0.00     0.198 A 
ATOM     77  F   UNL A   1      48.801  27.451  23.798  1.00  0.00    -0.203 F 
ATOM     78  F   UNL A   1      52.458  25.370  27.272  1.00  0.00    -0.200 F 
ATOM     79  C   UNL A   1      51.910  26.122  25.101  1.00  0.00     0.200 A 
ATOM     80  F   UNL A   1      51.314  26.895  22.951  1.00  0.00    -0.200 F 
ATOM     81  F   UNL A   1      53.158  25.872  24.682  1.00  0.00    -0.200 F 
ENDBRANCH  47  71
BRANCH  59  82
ATOM     82  C   UNL A   1      46.160  32.367  28.464  1.00  0.00     0.064 A 
ATOM     83  C   UNL A   1      46.723  32.716  29.700  1.00  0.00     0.173 A 
ATOM     84  C   UNL A   1      46.112  33.348  27.461  1.00  0.00     0.173 A 
ATOM     85  F   UNL A   1      46.777  31.817  30.694  1.00  0.00    -0.203 F 
ATOM     86  C   UNL A   1      47.202  34.003  29.928  1.00  0.00     0.198 A 
ATOM     87  C   UNL A   1      46.615  34.625  27.684  1.00  0.00     0.198 A 
ATOM     88  F   UNL A   1      45.586  33.060  26.260  1.00  0.00    -0.203 F 
ATOM     89  F   UNL A   1      47.699  34.327  31.130  1.00  0.00    -0.200 F 
ATOM     90  C   UNL A   1      47.153  34.953  28.919  1.00  0.00     0.200 A 
ATOM     91  F   UNL A   1      46.578  35.539  26.705  1.00  0.00    -0.200 F 
ATOM     92  F   UNL A   1      47.623  36.189  29.139  1.00  0.00    -0.200 F 
ENDBRANCH  59  82
ENDBRANCH  33  34
ENDBRANCH  25  28
ENDBRANCH  23  24
ENDBRANCH  22  23
ENDBRANCH   1  22
TORSDOF 14
ENDMDL
