MODEL 1
REMARK VINA RESULT:     -12.6      0.000      0.000
REMARK SMILES CS(=O)(=O)c1ccc(C(=O)N[C@@H](CC(=O)NCCCNC(=O)c2ccc(-c3c4nc(c(-c5c(F)c(F)c(F)c(F)c5F)c5ccc([nH]5)c(-c5c(F)c(F)c(F)c(F)c5F)c5nc(c(-c6c(F)c(F)c(F)c(F)c6F)c6ccc3[nH]6)C=C5)C=C4)cc2)c2ccccc2)cc1
REMARK SMILES IDX 17 1 16 2 14 3 15 4 13 6 12 7 11 8 9 9 10 10 8 12 5 13 6 14
REMARK SMILES IDX 93 15 7 16 92 17 2 18 1 19 3 20 4 21 86 22 87 23 91 24 88 25
REMARK SMILES IDX 90 26 89 27 18 28 19 29 20 30 21 31 22 33 23 34 24 35 85 36
REMARK SMILES IDX 25 37 84 38 26 39 27 40 28 41 78 42 29 43 83 44 77 45 79 46
REMARK SMILES IDX 30 47 82 48 76 49 75 50 31 52 63 53 43 54 62 55 44 56 47 57
REMARK SMILES IDX 61 58 80 59 45 60 46 61 60 63 81 64 48 65 32 66 33 67 41 68
REMARK SMILES IDX 34 69 35 70 39 71 42 72 36 73 37 74 40 75 38 76 64 77 65 78
REMARK SMILES IDX 73 79 66 80 67 81 71 82 74 83 68 84 69 85 72 86 70 87 49 88
REMARK SMILES IDX 50 89 58 90 51 91 52 92 56 93 59 94 53 95 54 96 57 97 55 98
REMARK H PARENT 16 5 11 11 20 32 79 51 47 62
REMARK Flexibility Score: inf
ROOT
ATOM      1  C   UNL A   1      31.408  30.808  26.540  1.00  0.00     0.117 C 
ENDROOT
BRANCH   1   2
ATOM      2  N   UNL A   1      31.304  30.297  25.185  1.00  0.00    -0.356 N 
ATOM      3  C   UNL A   1      31.948  29.289  24.549  1.00  0.00     0.222 C 
ATOM      4  O   UNL A   1      31.514  28.982  23.433  1.00  0.00    -0.275 OA
ATOM      5  H   UNL A   1      30.645  30.770  24.627  1.00  0.00     0.163 HD
BRANCH   3   6
ATOM      6  C   UNL A   1      33.092  28.501  25.164  1.00  0.00     0.129 C 
BRANCH   6   7
ATOM      7  C   UNL A   1      33.296  27.019  24.781  1.00  0.00     0.122 C 
BRANCH   7   8
ATOM      8  N   UNL A   1      33.271  26.879  23.327  1.00  0.00    -0.345 N 
ATOM      9  C   UNL A   1      33.498  25.887  22.420  1.00  0.00     0.251 C 
ATOM     10  O   UNL A   1      33.654  26.241  21.249  1.00  0.00    -0.269 OA
ATOM     11  H   UNL A   1      33.025  27.725  22.886  1.00  0.00     0.164 HD
BRANCH   9  12
ATOM     12  C   UNL A   1      33.432  24.433  22.719  1.00  0.00     0.039 A 
ATOM     13  C   UNL A   1      32.945  21.795  23.533  1.00  0.00     0.067 A 
ATOM     14  C   UNL A   1      31.908  22.536  22.974  1.00  0.00     0.021 A 
ATOM     15  C   UNL A   1      34.234  22.330  23.624  1.00  0.00     0.021 A 
ATOM     16  C   UNL A   1      32.159  23.846  22.566  1.00  0.00     0.015 A 
ATOM     17  C   UNL A   1      34.479  23.641  23.192  1.00  0.00     0.015 A 
BRANCH  13  18
ATOM     18  S   UNL A   1      32.604  20.184  24.199  1.00  0.00     0.175 S 
ATOM     19  C   UNL A   1      34.178  19.574  24.739  1.00  0.00     0.163 C 
ATOM     20  O   UNL A   1      32.153  19.366  23.087  1.00  0.00    -0.224 OA
ATOM     21  O   UNL A   1      31.779  20.367  25.377  1.00  0.00    -0.224 OA
ENDBRANCH  13  18
ENDBRANCH   9  12
ENDBRANCH   7   8
BRANCH   7  22
ATOM     22  C   UNL A   1      32.433  25.925  25.402  1.00  0.00    -0.025 A 
ATOM     23  C   UNL A   1      33.089  24.906  26.127  1.00  0.00     0.006 A 
ATOM     24  C   UNL A   1      31.037  25.876  25.350  1.00  0.00     0.006 A 
ATOM     25  C   UNL A   1      32.383  23.866  26.734  1.00  0.00     0.000 A 
ATOM     26  C   UNL A   1      30.327  24.826  25.946  1.00  0.00     0.000 A 
ATOM     27  C   UNL A   1      30.998  23.821  26.634  1.00  0.00     0.000 A 
ENDBRANCH   7  22
ENDBRANCH   6   7
ENDBRANCH   3   6
ENDBRANCH   1   2
BRANCH   1  28
ATOM     28  C   UNL A   1      31.379  32.334  26.582  1.00  0.00     0.042 C 
BRANCH  28  29
ATOM     29  C   UNL A   1      32.689  32.989  26.990  1.00  0.00     0.118 C 
BRANCH  29  30
ATOM     30  N   UNL A   1      32.501  34.280  27.626  1.00  0.00    -0.352 N 
ATOM     31  C   UNL A   1      33.078  34.811  28.754  1.00  0.00     0.251 C 
ATOM     32  H   UNL A   1      31.856  34.871  27.175  1.00  0.00     0.163 HD
ATOM     33  O   UNL A   1      32.624  35.852  29.223  1.00  0.00    -0.269 OA
BRANCH  31  34
ATOM     34  C   UNL A   1      34.222  34.149  29.426  1.00  0.00     0.039 A 
ATOM     35  C   UNL A   1      35.516  34.440  28.983  1.00  0.00     0.014 A 
ATOM     36  C   UNL A   1      34.043  33.203  30.439  1.00  0.00     0.014 A 
ATOM     37  C   UNL A   1      36.620  33.828  29.584  1.00  0.00     0.010 A 
ATOM     38  C   UNL A   1      35.145  32.666  31.102  1.00  0.00     0.010 A 
ATOM     39  C   UNL A   1      36.447  32.957  30.671  1.00  0.00    -0.014 A 
BRANCH  39  40
ATOM     40  C   UNL A   1      37.609  32.317  31.344  1.00  0.00     0.031 A 
ATOM     41  C   UNL A   1      38.369  31.214  30.657  1.00  0.00     0.074 A 
ATOM     42  C   UNL A   1      37.950  32.688  32.593  1.00  0.00     0.049 A 
ATOM     43  N   UNL A   1      39.362  30.484  31.103  1.00  0.00    -0.248 NA
ATOM     44  C   UNL A   1      37.937  30.861  29.294  1.00  0.00     0.031 C 
ATOM     45  C   UNL A   1      37.268  33.711  33.388  1.00  0.00     0.029 A 
ATOM     46  N   UNL A   1      38.951  32.238  33.420  1.00  0.00    -0.354 N 
ATOM     47  C   UNL A   1      39.653  29.578  30.092  1.00  0.00     0.074 A 
ATOM     48  C   UNL A   1      38.701  29.812  29.028  1.00  0.00     0.031 C 
ATOM     49  C   UNL A   1      37.886  33.830  34.574  1.00  0.00     0.029 A 
ATOM     50  C   UNL A   1      38.980  32.866  34.642  1.00  0.00     0.049 A 
ATOM     51  H   UNL A   1      39.588  31.534  33.161  1.00  0.00     0.167 HD
ATOM     52  C   UNL A   1      40.639  28.650  30.042  1.00  0.00     0.037 A 
ATOM     53  C   UNL A   1      39.793  32.681  35.700  1.00  0.00     0.037 A 
ATOM     54  C   UNL A   1      41.610  28.445  31.084  1.00  0.00     0.049 A 
ATOM     55  C   UNL A   1      40.885  31.648  35.617  1.00  0.00     0.074 A 
ATOM     56  C   UNL A   1      42.691  27.581  31.098  1.00  0.00     0.029 A 
ATOM     57  N   UNL A   1      41.618  29.115  32.299  1.00  0.00    -0.354 N 
ATOM     58  N   UNL A   1      41.192  30.844  34.628  1.00  0.00    -0.248 NA
ATOM     59  C   UNL A   1      41.747  31.501  36.798  1.00  0.00     0.031 C 
ATOM     60  C   UNL A   1      43.325  27.694  32.340  1.00  0.00     0.029 A 
ATOM     61  C   UNL A   1      42.672  28.666  33.079  1.00  0.00     0.049 A 
ATOM     62  H   UNL A   1      40.971  29.807  32.567  1.00  0.00     0.167 HD
ATOM     63  C   UNL A   1      42.295  30.118  35.054  1.00  0.00     0.074 A 
ATOM     64  C   UNL A   1      42.615  30.588  36.386  1.00  0.00     0.031 C 
ATOM     65  C   UNL A   1      42.983  29.150  34.399  1.00  0.00     0.037 A 
BRANCH  52  66
ATOM     66  C   UNL A   1      40.722  27.787  28.816  1.00  0.00     0.064 A 
ATOM     67  C   UNL A   1      39.978  26.603  28.694  1.00  0.00     0.173 A 
ATOM     68  C   UNL A   1      41.527  28.168  27.732  1.00  0.00     0.173 A 
ATOM     69  F   UNL A   1      39.201  26.188  29.706  1.00  0.00    -0.203 F 
ATOM     70  C   UNL A   1      40.060  25.818  27.547  1.00  0.00     0.198 A 
ATOM     71  C   UNL A   1      41.582  27.397  26.574  1.00  0.00     0.198 A 
ATOM     72  F   UNL A   1      42.254  29.294  27.790  1.00  0.00    -0.203 F 
ATOM     73  F   UNL A   1      39.379  24.666  27.476  1.00  0.00    -0.200 F 
ATOM     74  C   UNL A   1      40.856  26.219  26.486  1.00  0.00     0.200 A 
ATOM     75  F   UNL A   1      42.342  27.793  25.541  1.00  0.00    -0.200 F 
ATOM     76  F   UNL A   1      40.928  25.467  25.378  1.00  0.00    -0.200 F 
ENDBRANCH  52  66
BRANCH  53  77
ATOM     77  C   UNL A   1      39.623  33.512  36.920  1.00  0.00     0.064 A 
ATOM     78  C   UNL A   1      38.763  33.107  37.950  1.00  0.00     0.173 A 
ATOM     79  C   UNL A   1      40.309  34.723  37.082  1.00  0.00     0.173 A 
ATOM     80  F   UNL A   1      38.067  31.966  37.831  1.00  0.00    -0.203 F 
ATOM     81  C   UNL A   1      38.580  33.891  39.087  1.00  0.00     0.198 A 
ATOM     82  C   UNL A   1      40.148  35.493  38.232  1.00  0.00     0.198 A 
ATOM     83  F   UNL A   1      41.146  35.155  36.128  1.00  0.00    -0.203 F 
ATOM     84  F   UNL A   1      37.717  33.502  40.035  1.00  0.00    -0.200 F 
ATOM     85  C   UNL A   1      39.278  35.081  39.230  1.00  0.00     0.200 A 
ATOM     86  F   UNL A   1      40.834  36.636  38.373  1.00  0.00    -0.200 F 
ATOM     87  F   UNL A   1      39.105  35.833  40.326  1.00  0.00    -0.200 F 
ENDBRANCH  53  77
BRANCH  65  88
ATOM     88  C   UNL A   1      44.172  28.558  35.099  1.00  0.00     0.064 A 
ATOM     89  C   UNL A   1      44.059  27.415  35.904  1.00  0.00     0.173 A 
ATOM     90  C   UNL A   1      45.447  29.116  34.925  1.00  0.00     0.173 A 
ATOM     91  F   UNL A   1      42.860  26.852  36.114  1.00  0.00    -0.203 F 
ATOM     92  C   UNL A   1      45.177  26.869  36.531  1.00  0.00     0.198 A 
ATOM     93  C   UNL A   1      46.567  28.550  35.527  1.00  0.00     0.198 A 
ATOM     94  F   UNL A   1      45.610  30.205  34.158  1.00  0.00    -0.203 F 
ATOM     95  F   UNL A   1      45.039  25.805  37.333  1.00  0.00    -0.200 F 
ATOM     96  C   UNL A   1      46.430  27.432  36.336  1.00  0.00     0.200 A 
ATOM     97  F   UNL A   1      47.778  29.087  35.326  1.00  0.00    -0.200 F 
ATOM     98  F   UNL A   1      47.505  26.899  36.933  1.00  0.00    -0.200 F 
ENDBRANCH  65  88
ENDBRANCH  39  40
ENDBRANCH  31  34
ENDBRANCH  29  30
ENDBRANCH  28  29
ENDBRANCH   1  28
TORSDOF 15
ENDMDL
MODEL 2
REMARK VINA RESULT:     -12.6      1.921      3.448
REMARK SMILES CS(=O)(=O)c1ccc(C(=O)N[C@@H](CC(=O)NCCCNC(=O)c2ccc(-c3c4nc(c(-c5c(F)c(F)c(F)c(F)c5F)c5ccc([nH]5)c(-c5c(F)c(F)c(F)c(F)c5F)c5nc(c(-c6c(F)c(F)c(F)c(F)c6F)c6ccc3[nH]6)C=C5)C=C4)cc2)c2ccccc2)cc1
REMARK SMILES IDX 17 1 16 2 14 3 15 4 13 6 12 7 11 8 9 9 10 10 8 12 5 13 6 14
REMARK SMILES IDX 93 15 7 16 92 17 2 18 1 19 3 20 4 21 86 22 87 23 91 24 88 25
REMARK SMILES IDX 90 26 89 27 18 28 19 29 20 30 21 31 22 33 23 34 24 35 85 36
REMARK SMILES IDX 25 37 84 38 26 39 27 40 28 41 78 42 29 43 83 44 77 45 79 46
REMARK SMILES IDX 30 47 82 48 76 49 75 50 31 52 63 53 43 54 62 55 44 56 47 57
REMARK SMILES IDX 61 58 80 59 45 60 46 61 60 63 81 64 48 65 32 66 33 67 41 68
REMARK SMILES IDX 34 69 35 70 39 71 42 72 36 73 37 74 40 75 38 76 64 77 65 78
REMARK SMILES IDX 73 79 66 80 67 81 71 82 74 83 68 84 69 85 72 86 70 87 49 88
REMARK SMILES IDX 50 89 58 90 51 91 52 92 56 93 59 94 53 95 54 96 57 97 55 98
REMARK H PARENT 16 5 11 11 20 32 79 51 47 62
REMARK Flexibility Score: inf
ROOT
ATOM      1  C   UNL A   1      33.733  28.901  22.754  1.00  0.00     0.117 C 
ENDROOT
BRANCH   1   2
ATOM      2  N   UNL A   1      33.607  27.743  21.889  1.00  0.00    -0.356 N 
ATOM      3  C   UNL A   1      33.543  26.417  22.159  1.00  0.00     0.222 C 
ATOM      4  O   UNL A   1      33.264  25.679  21.207  1.00  0.00    -0.275 OA
ATOM      5  H   UNL A   1      33.561  27.962  20.930  1.00  0.00     0.163 HD
BRANCH   3   6
ATOM      6  C   UNL A   1      33.722  25.833  23.550  1.00  0.00     0.129 C 
BRANCH   6   7
ATOM      7  C   UNL A   1      33.805  24.302  23.734  1.00  0.00     0.122 C 
BRANCH   7   8
ATOM      8  N   UNL A   1      32.700  23.846  24.573  1.00  0.00    -0.345 N 
ATOM      9  C   UNL A   1      32.071  22.665  24.835  1.00  0.00     0.251 C 
ATOM     10  O   UNL A   1      30.977  22.740  25.400  1.00  0.00    -0.269 OA
ATOM     11  H   UNL A   1      32.304  24.589  25.085  1.00  0.00     0.164 HD
BRANCH   9  12
ATOM     12  C   UNL A   1      32.666  21.321  24.616  1.00  0.00     0.039 A 
ATOM     13  C   UNL A   1      33.362  18.645  24.149  1.00  0.00     0.067 A 
ATOM     14  C   UNL A   1      32.534  19.301  23.242  1.00  0.00     0.021 A 
ATOM     15  C   UNL A   1      33.901  19.329  25.242  1.00  0.00     0.021 A 
ATOM     16  C   UNL A   1      32.196  20.634  23.478  1.00  0.00     0.015 A 
ATOM     17  C   UNL A   1      33.571  20.674  25.460  1.00  0.00     0.015 A 
BRANCH  13  18
ATOM     18  S   UNL A   1      33.673  16.908  23.945  1.00  0.00     0.175 S 
ATOM     19  C   UNL A   1      35.136  16.597  24.895  1.00  0.00     0.163 C 
ATOM     20  O   UNL A   1      33.987  16.709  22.542  1.00  0.00    -0.224 OA
ATOM     21  O   UNL A   1      32.582  16.195  24.578  1.00  0.00    -0.224 OA
ENDBRANCH  13  18
ENDBRANCH   9  12
ENDBRANCH   7   8
BRANCH   7  22
ATOM     22  C   UNL A   1      35.095  23.641  24.207  1.00  0.00    -0.025 A 
ATOM     23  C   UNL A   1      35.530  23.918  25.522  1.00  0.00     0.006 A 
ATOM     24  C   UNL A   1      35.861  22.744  23.456  1.00  0.00     0.006 A 
ATOM     25  C   UNL A   1      36.697  23.356  26.043  1.00  0.00     0.000 A 
ATOM     26  C   UNL A   1      37.040  22.189  23.971  1.00  0.00     0.000 A 
ATOM     27  C   UNL A   1      37.459  22.496  25.261  1.00  0.00     0.000 A 
ENDBRANCH   7  22
ENDBRANCH   6   7
ENDBRANCH   3   6
ENDBRANCH   1   2
BRANCH   1  28
ATOM     28  C   UNL A   1      32.631  28.952  23.810  1.00  0.00     0.042 C 
BRANCH  28  29
ATOM     29  C   UNL A   1      33.110  29.252  25.222  1.00  0.00     0.118 C 
BRANCH  29  30
ATOM     30  N   UNL A   1      32.608  30.514  25.733  1.00  0.00    -0.352 N 
ATOM     31  C   UNL A   1      33.000  31.255  26.821  1.00  0.00     0.251 C 
ATOM     32  H   UNL A   1      31.866  30.902  25.214  1.00  0.00     0.163 HD
ATOM     33  O   UNL A   1      32.303  32.200  27.182  1.00  0.00    -0.269 OA
BRANCH  31  34
ATOM     34  C   UNL A   1      34.234  30.931  27.577  1.00  0.00     0.039 A 
ATOM     35  C   UNL A   1      35.142  31.960  27.846  1.00  0.00     0.014 A 
ATOM     36  C   UNL A   1      34.543  29.626  27.971  1.00  0.00     0.014 A 
ATOM     37  C   UNL A   1      36.322  31.692  28.547  1.00  0.00     0.010 A 
ATOM     38  C   UNL A   1      35.670  29.376  28.752  1.00  0.00     0.010 A 
ATOM     39  C   UNL A   1      36.583  30.401  29.034  1.00  0.00    -0.014 A 
BRANCH  39  40
ATOM     40  C   UNL A   1      37.818  30.101  29.807  1.00  0.00     0.031 A 
ATOM     41  C   UNL A   1      38.860  29.173  29.239  1.00  0.00     0.074 A 
ATOM     42  C   UNL A   1      37.981  30.615  31.041  1.00  0.00     0.049 A 
ATOM     43  N   UNL A   1      39.966  28.732  29.785  1.00  0.00    -0.248 NA
ATOM     44  C   UNL A   1      38.612  28.647  27.886  1.00  0.00     0.031 C 
ATOM     45  C   UNL A   1      37.027  31.490  31.725  1.00  0.00     0.029 A 
ATOM     46  N   UNL A   1      39.004  30.469  31.945  1.00  0.00    -0.354 N 
ATOM     47  C   UNL A   1      40.528  27.864  28.858  1.00  0.00     0.074 A 
ATOM     48  C   UNL A   1      39.618  27.799  27.734  1.00  0.00     0.031 C 
ATOM     49  C   UNL A   1      37.521  31.824  32.928  1.00  0.00     0.029 A 
ATOM     50  C   UNL A   1      38.806  31.157  33.118  1.00  0.00     0.049 A 
ATOM     51  H   UNL A   1      39.805  29.924  31.769  1.00  0.00     0.167 HD
ATOM     52  C   UNL A   1      41.706  27.199  28.923  1.00  0.00     0.037 A 
ATOM     53  C   UNL A   1      39.570  31.235  34.224  1.00  0.00     0.037 A 
ATOM     54  C   UNL A   1      42.630  27.295  30.022  1.00  0.00     0.049 A 
ATOM     55  C   UNL A   1      40.878  30.492  34.270  1.00  0.00     0.074 A 
ATOM     56  C   UNL A   1      43.881  26.719  30.151  1.00  0.00     0.029 A 
ATOM     57  N   UNL A   1      42.401  28.018  31.184  1.00  0.00    -0.354 N 
ATOM     58  N   UNL A   1      41.429  29.729  33.358  1.00  0.00    -0.248 NA
ATOM     59  C   UNL A   1      41.673  30.627  35.499  1.00  0.00     0.031 C 
ATOM     60  C   UNL A   1      44.389  27.054  31.411  1.00  0.00     0.029 A 
ATOM     61  C   UNL A   1      43.479  27.882  32.045  1.00  0.00     0.049 A 
ATOM     62  H   UNL A   1      41.593  28.549  31.370  1.00  0.00     0.167 HD
ATOM     63  C   UNL A   1      42.643  29.316  33.889  1.00  0.00     0.074 A 
ATOM     64  C   UNL A   1      42.756  29.926  35.197  1.00  0.00     0.031 C 
ATOM     65  C   UNL A   1      43.581  28.504  33.340  1.00  0.00     0.037 A 
BRANCH  52  66
ATOM     66  C   UNL A   1      42.070  26.310  27.768  1.00  0.00     0.064 A 
ATOM     67  C   UNL A   1      42.967  26.722  26.772  1.00  0.00     0.173 A 
ATOM     68  C   UNL A   1      41.544  25.012  27.677  1.00  0.00     0.173 A 
ATOM     69  F   UNL A   1      43.491  27.957  26.806  1.00  0.00    -0.203 F 
ATOM     70  C   UNL A   1      43.301  25.882  25.713  1.00  0.00     0.198 A 
ATOM     71  C   UNL A   1      41.904  24.163  26.635  1.00  0.00     0.198 A 
ATOM     72  F   UNL A   1      40.687  24.562  28.607  1.00  0.00    -0.203 F 
ATOM     73  F   UNL A   1      44.121  26.319  24.746  1.00  0.00    -0.200 F 
ATOM     74  C   UNL A   1      42.776  24.602  25.649  1.00  0.00     0.200 A 
ATOM     75  F   UNL A   1      41.406  22.919  26.581  1.00  0.00    -0.200 F 
ATOM     76  F   UNL A   1      43.103  23.791  24.633  1.00  0.00    -0.200 F 
ENDBRANCH  52  66
BRANCH  53  77
ATOM     77  C   UNL A   1      39.130  32.071  35.371  1.00  0.00     0.064 A 
ATOM     78  C   UNL A   1      38.383  31.516  36.420  1.00  0.00     0.173 A 
ATOM     79  C   UNL A   1      39.440  33.436  35.444  1.00  0.00     0.173 A 
ATOM     80  F   UNL A   1      38.042  30.219  36.385  1.00  0.00    -0.203 F 
ATOM     81  C   UNL A   1      37.947  32.298  37.488  1.00  0.00     0.198 A 
ATOM     82  C   UNL A   1      39.029  34.212  36.526  1.00  0.00     0.198 A 
ATOM     83  F   UNL A   1      40.155  34.016  34.468  1.00  0.00    -0.203 F 
ATOM     84  F   UNL A   1      37.196  31.752  38.453  1.00  0.00    -0.200 F 
ATOM     85  C   UNL A   1      38.276  33.645  37.543  1.00  0.00     0.200 A 
ATOM     86  F   UNL A   1      39.360  35.510  36.583  1.00  0.00    -0.200 F 
ATOM     87  F   UNL A   1      37.860  34.395  38.572  1.00  0.00    -0.200 F 
ENDBRANCH  53  77
BRANCH  65  88
ATOM     88  C   UNL A   1      44.829  28.257  34.137  1.00  0.00     0.064 A 
ATOM     89  C   UNL A   1      45.940  29.108  34.047  1.00  0.00     0.173 A 
ATOM     90  C   UNL A   1      44.896  27.180  35.033  1.00  0.00     0.173 A 
ATOM     91  F   UNL A   1      45.933  30.143  33.194  1.00  0.00    -0.203 F 
ATOM     92  C   UNL A   1      47.084  28.873  34.808  1.00  0.00     0.198 A 
ATOM     93  C   UNL A   1      46.027  26.966  35.815  1.00  0.00     0.198 A 
ATOM     94  F   UNL A   1      43.856  26.342  35.162  1.00  0.00    -0.203 F 
ATOM     95  F   UNL A   1      48.152  29.670  34.671  1.00  0.00    -0.200 F 
ATOM     96  C   UNL A   1      47.123  27.808  35.696  1.00  0.00     0.200 A 
ATOM     97  F   UNL A   1      46.058  25.945  36.682  1.00  0.00    -0.200 F 
ATOM     98  F   UNL A   1      48.221  27.589  36.433  1.00  0.00    -0.200 F 
ENDBRANCH  65  88
ENDBRANCH  39  40
ENDBRANCH  31  34
ENDBRANCH  29  30
ENDBRANCH  28  29
ENDBRANCH   1  28
TORSDOF 15
ENDMDL
MODEL 3
REMARK VINA RESULT:     -12.5      0.414      1.949
REMARK SMILES CS(=O)(=O)c1ccc(C(=O)N[C@@H](CC(=O)NCCCNC(=O)c2ccc(-c3c4nc(c(-c5c(F)c(F)c(F)c(F)c5F)c5ccc([nH]5)c(-c5c(F)c(F)c(F)c(F)c5F)c5nc(c(-c6c(F)c(F)c(F)c(F)c6F)c6ccc3[nH]6)C=C5)C=C4)cc2)c2ccccc2)cc1
REMARK SMILES IDX 17 1 16 2 14 3 15 4 13 6 12 7 11 8 9 9 10 10 8 12 5 13 6 14
REMARK SMILES IDX 93 15 7 16 92 17 2 18 1 19 3 20 4 21 86 22 87 23 91 24 88 25
REMARK SMILES IDX 90 26 89 27 18 28 19 29 20 30 21 31 22 33 23 34 24 35 85 36
REMARK SMILES IDX 25 37 84 38 26 39 27 40 28 41 78 42 29 43 83 44 77 45 79 46
REMARK SMILES IDX 30 47 82 48 76 49 75 50 31 52 63 53 43 54 62 55 44 56 47 57
REMARK SMILES IDX 61 58 80 59 45 60 46 61 60 63 81 64 48 65 32 66 33 67 41 68
REMARK SMILES IDX 34 69 35 70 39 71 42 72 36 73 37 74 40 75 38 76 64 77 65 78
REMARK SMILES IDX 73 79 66 80 67 81 71 82 74 83 68 84 69 85 72 86 70 87 49 88
REMARK SMILES IDX 50 89 58 90 51 91 52 92 56 93 59 94 53 95 54 96 57 97 55 98
REMARK H PARENT 16 5 11 11 20 32 79 51 47 62
REMARK Flexibility Score: inf
ROOT
ATOM      1  C   UNL A   1      31.439  30.400  26.304  1.00  0.00     0.117 C 
ENDROOT
BRANCH   1   2
ATOM      2  N   UNL A   1      32.159  30.167  25.065  1.00  0.00    -0.356 N 
ATOM      3  C   UNL A   1      33.013  29.184  24.689  1.00  0.00     0.222 C 
ATOM      4  O   UNL A   1      33.336  29.169  23.495  1.00  0.00    -0.275 OA
ATOM      5  H   UNL A   1      31.998  30.848  24.373  1.00  0.00     0.163 HD
BRANCH   3   6
ATOM      6  C   UNL A   1      33.509  28.098  25.627  1.00  0.00     0.129 C 
BRANCH   6   7
ATOM      7  C   UNL A   1      33.542  26.629  25.150  1.00  0.00     0.122 C 
BRANCH   7   8
ATOM      8  N   UNL A   1      33.515  26.585  23.690  1.00  0.00    -0.345 N 
ATOM      9  C   UNL A   1      33.718  25.649  22.719  1.00  0.00     0.251 C 
ATOM     10  O   UNL A   1      33.884  26.075  21.574  1.00  0.00    -0.269 OA
ATOM     11  H   UNL A   1      33.292  27.464  23.305  1.00  0.00     0.164 HD
BRANCH   9  12
ATOM     12  C   UNL A   1      33.613  24.181  22.922  1.00  0.00     0.039 A 
ATOM     13  C   UNL A   1      33.048  21.507  23.550  1.00  0.00     0.067 A 
ATOM     14  C   UNL A   1      32.045  22.305  23.004  1.00  0.00     0.021 A 
ATOM     15  C   UNL A   1      34.342  22.008  23.718  1.00  0.00     0.021 A 
ATOM     16  C   UNL A   1      32.335  23.632  22.689  1.00  0.00     0.015 A 
ATOM     17  C   UNL A   1      34.628  23.338  23.380  1.00  0.00     0.015 A 
BRANCH  13  18
ATOM     18  S   UNL A   1      32.652  19.865  24.100  1.00  0.00     0.175 S 
ATOM     19  C   UNL A   1      34.209  19.154  24.559  1.00  0.00     0.163 C 
ATOM     20  O   UNL A   1      32.149  19.153  22.939  1.00  0.00    -0.224 OA
ATOM     21  O   UNL A   1      31.857  19.991  25.304  1.00  0.00    -0.224 OA
ENDBRANCH  13  18
ENDBRANCH   9  12
ENDBRANCH   7   8
BRANCH   7  22
ATOM     22  C   UNL A   1      32.551  25.607  25.697  1.00  0.00    -0.025 A 
ATOM     23  C   UNL A   1      33.075  24.475  26.359  1.00  0.00     0.006 A 
ATOM     24  C   UNL A   1      31.159  25.725  25.636  1.00  0.00     0.006 A 
ATOM     25  C   UNL A   1      32.246  23.489  26.896  1.00  0.00     0.000 A 
ATOM     26  C   UNL A   1      30.324  24.730  26.162  1.00  0.00     0.000 A 
ATOM     27  C   UNL A   1      30.866  23.613  26.788  1.00  0.00     0.000 A 
ENDBRANCH   7  22
ENDBRANCH   6   7
ENDBRANCH   3   6
ENDBRANCH   1   2
BRANCH   1  28
ATOM     28  C   UNL A   1      31.306  31.888  26.619  1.00  0.00     0.042 C 
BRANCH  28  29
ATOM     29  C   UNL A   1      32.622  32.612  26.861  1.00  0.00     0.118 C 
BRANCH  29  30
ATOM     30  N   UNL A   1      32.442  33.945  27.404  1.00  0.00    -0.352 N 
ATOM     31  C   UNL A   1      33.034  34.556  28.482  1.00  0.00     0.251 C 
ATOM     32  H   UNL A   1      31.790  34.502  26.921  1.00  0.00     0.163 HD
ATOM     33  O   UNL A   1      32.586  35.628  28.881  1.00  0.00    -0.269 OA
BRANCH  31  34
ATOM     34  C   UNL A   1      34.189  33.945  29.183  1.00  0.00     0.039 A 
ATOM     35  C   UNL A   1      35.476  34.392  28.866  1.00  0.00     0.014 A 
ATOM     36  C   UNL A   1      34.035  32.900  30.098  1.00  0.00     0.014 A 
ATOM     37  C   UNL A   1      36.591  33.833  29.498  1.00  0.00     0.010 A 
ATOM     38  C   UNL A   1      35.136  32.409  30.797  1.00  0.00     0.010 A 
ATOM     39  C   UNL A   1      36.430  32.855  30.493  1.00  0.00    -0.014 A 
BRANCH  39  40
ATOM     40  C   UNL A   1      37.600  32.268  31.198  1.00  0.00     0.031 A 
ATOM     41  C   UNL A   1      38.385  31.152  30.561  1.00  0.00     0.074 A 
ATOM     42  C   UNL A   1      37.926  32.697  32.432  1.00  0.00     0.049 A 
ATOM     43  N   UNL A   1      39.390  30.461  31.044  1.00  0.00    -0.248 NA
ATOM     44  C   UNL A   1      37.969  30.734  29.213  1.00  0.00     0.031 C 
ATOM     45  C   UNL A   1      37.220  33.739  33.180  1.00  0.00     0.029 A 
ATOM     46  N   UNL A   1      38.931  32.302  33.282  1.00  0.00    -0.354 N 
ATOM     47  C   UNL A   1      39.705  29.520  30.073  1.00  0.00     0.074 A 
ATOM     48  C   UNL A   1      38.755  29.690  28.995  1.00  0.00     0.031 C 
ATOM     49  C   UNL A   1      37.828  33.919  34.364  1.00  0.00     0.029 A 
ATOM     50  C   UNL A   1      38.940  32.981  34.477  1.00  0.00     0.049 A 
ATOM     51  H   UNL A   1      39.583  31.600  33.056  1.00  0.00     0.167 HD
ATOM     52  C   UNL A   1      40.709  28.611  30.067  1.00  0.00     0.037 A 
ATOM     53  C   UNL A   1      39.750  32.856  35.546  1.00  0.00     0.037 A 
ATOM     54  C   UNL A   1      41.678  28.469  31.121  1.00  0.00     0.049 A 
ATOM     55  C   UNL A   1      40.862  31.843  35.512  1.00  0.00     0.074 A 
ATOM     56  C   UNL A   1      42.776  27.628  31.177  1.00  0.00     0.029 A 
ATOM     57  N   UNL A   1      41.665  29.188  32.307  1.00  0.00    -0.354 N 
ATOM     58  N   UNL A   1      41.191  31.005  34.560  1.00  0.00    -0.248 NA
ATOM     59  C   UNL A   1      41.721  31.762  36.703  1.00  0.00     0.031 C 
ATOM     60  C   UNL A   1      43.400  27.805  32.417  1.00  0.00     0.029 A 
ATOM     61  C   UNL A   1      42.723  28.794  33.111  1.00  0.00     0.049 A 
ATOM     62  H   UNL A   1      41.004  29.878  32.542  1.00  0.00     0.167 HD
ATOM     63  C   UNL A   1      42.306  30.319  35.022  1.00  0.00     0.074 A 
ATOM     64  C   UNL A   1      42.608  30.850  36.334  1.00  0.00     0.031 C 
ATOM     65  C   UNL A   1      43.017  29.339  34.411  1.00  0.00     0.037 A 
BRANCH  52  66
ATOM     66  C   UNL A   1      40.817  27.699  28.879  1.00  0.00     0.064 A 
ATOM     67  C   UNL A   1      41.733  27.939  27.843  1.00  0.00     0.173 A 
ATOM     68  C   UNL A   1      40.020  26.546  28.792  1.00  0.00     0.173 A 
ATOM     69  F   UNL A   1      42.511  29.031  27.872  1.00  0.00    -0.203 F 
ATOM     70  C   UNL A   1      41.826  27.078  26.752  1.00  0.00     0.198 A 
ATOM     71  C   UNL A   1      40.138  25.671  27.716  1.00  0.00     0.198 A 
ATOM     72  F   UNL A   1      39.133  26.263  29.758  1.00  0.00    -0.203 F 
ATOM     73  F   UNL A   1      42.673  27.357  25.751  1.00  0.00    -0.200 F 
ATOM     74  C   UNL A   1      41.035  25.942  26.693  1.00  0.00     0.200 A 
ATOM     75  F   UNL A   1      39.382  24.565  27.667  1.00  0.00    -0.200 F 
ATOM     76  F   UNL A   1      41.131  25.110  25.647  1.00  0.00    -0.200 F 
ENDBRANCH  52  66
BRANCH  53  77
ATOM     77  C   UNL A   1      39.557  33.734  36.729  1.00  0.00     0.064 A 
ATOM     78  C   UNL A   1      40.161  34.997  36.793  1.00  0.00     0.173 A 
ATOM     79  C   UNL A   1      38.772  33.331  37.819  1.00  0.00     0.173 A 
ATOM     80  F   UNL A   1      40.939  35.418  35.785  1.00  0.00    -0.203 F 
ATOM     81  C   UNL A   1      40.003  35.817  37.909  1.00  0.00     0.198 A 
ATOM     82  C   UNL A   1      38.591  34.162  38.922  1.00  0.00     0.198 A 
ATOM     83  F   UNL A   1      38.170  32.133  37.807  1.00  0.00    -0.203 F 
ATOM     84  F   UNL A   1      40.628  37.000  37.963  1.00  0.00    -0.200 F 
ATOM     85  C   UNL A   1      39.213  35.401  38.971  1.00  0.00     0.200 A 
ATOM     86  F   UNL A   1      37.816  33.763  39.940  1.00  0.00    -0.200 F 
ATOM     87  F   UNL A   1      39.057  36.191  40.042  1.00  0.00    -0.200 F 
ENDBRANCH  53  77
BRANCH  65  88
ATOM     88  C   UNL A   1      44.213  28.800  35.141  1.00  0.00     0.064 A 
ATOM     89  C   UNL A   1      45.485  29.371  34.992  1.00  0.00     0.173 A 
ATOM     90  C   UNL A   1      44.075  27.725  36.032  1.00  0.00     0.173 A 
ATOM     91  F   UNL A   1      45.673  30.390  34.141  1.00  0.00    -0.203 F 
ATOM     92  C   UNL A   1      46.581  28.868  35.691  1.00  0.00     0.198 A 
ATOM     93  C   UNL A   1      45.165  27.246  36.752  1.00  0.00     0.198 A 
ATOM     94  F   UNL A   1      42.878  27.149  36.216  1.00  0.00    -0.203 F 
ATOM     95  F   UNL A   1      47.796  29.399  35.498  1.00  0.00    -0.200 F 
ATOM     96  C   UNL A   1      46.418  27.812  36.575  1.00  0.00     0.200 A 
ATOM     97  F   UNL A   1      45.003  26.235  37.617  1.00  0.00    -0.200 F 
ATOM     98  F   UNL A   1      47.472  27.336  37.253  1.00  0.00    -0.200 F 
ENDBRANCH  65  88
ENDBRANCH  39  40
ENDBRANCH  31  34
ENDBRANCH  29  30
ENDBRANCH  28  29
ENDBRANCH   1  28
TORSDOF 15
ENDMDL
