MODEL 1
REMARK VINA RESULT:     -13.7      0.000      0.000
REMARK SMILES O=C(CCCN1C(=O)c2ccc3c4c(ccc(c24)C1=O)C(=O)NC3=O)NCCCNC(=O)c1ccc(-c2c3nc(c(-c4c(F)c(F)c(F)c(F)c4F)c4ccc([nH]4)c(-c4c(F)c(F)c(F)c(F)c4F)c4nc(c(-c5c(F)c(F)c(F)c(F)c5F)c5ccc2[nH]5)C=C4)C=C3)cc1
REMARK SMILES IDX 27 1 26 2 1 3 2 4 3 6 4 7 5 8 6 9 19 10 7 11 20 12 17 13
REMARK SMILES IDX 9 14 8 15 16 16 18 17 10 18 15 19 13 20 11 21 14 22 12 23
REMARK SMILES IDX 21 24 24 25 23 26 22 27 25 28 28 30 29 31 30 32 31 33 32 35
REMARK SMILES IDX 33 36 34 37 95 38 35 39 94 40 36 41 37 42 38 43 88 44 39 45
REMARK SMILES IDX 93 46 87 47 89 48 40 49 92 50 86 51 85 52 41 54 73 55 53 56
REMARK SMILES IDX 72 57 54 58 57 59 71 60 90 61 55 62 56 63 70 65 91 66 58 67
REMARK SMILES IDX 42 68 43 69 51 70 44 71 45 72 49 73 52 74 46 75 47 76 50 77
REMARK SMILES IDX 48 78 74 79 75 80 83 81 76 82 77 83 81 84 84 85 78 86 79 87
REMARK SMILES IDX 82 88 80 89 59 90 60 91 68 92 61 93 62 94 66 95 69 96 63 97
REMARK SMILES IDX 64 98 67 99 65 100
REMARK H PARENT 26 5 23 29 30 34 89 53 57 64
REMARK Flexibility Score: inf
ROOT
ATOM      1  C   UNL A   1      31.552  30.544  26.416  1.00  0.00     0.117 C 
ENDROOT
BRANCH   1   2
ATOM      2  N   UNL A   1      31.873  30.112  25.074  1.00  0.00    -0.356 N 
ATOM      3  O   UNL A   1      33.821  28.986  25.486  1.00  0.00    -0.275 OA
ATOM      4  C   UNL A   1      32.961  29.370  24.700  1.00  0.00     0.220 C 
ATOM      5  H   UNL A   1      31.250  30.378  24.360  1.00  0.00     0.163 HD
BRANCH   4   6
ATOM      6  C   UNL A   1      33.051  29.094  23.199  1.00  0.00     0.102 C 
BRANCH   6   7
ATOM      7  C   UNL A   1      31.712  28.867  22.482  1.00  0.00     0.032 C 
BRANCH   7   8
ATOM      8  C   UNL A   1      31.330  27.445  22.026  1.00  0.00     0.130 C 
BRANCH   8   9
ATOM      9  N   UNL A   1      31.841  26.336  22.851  1.00  0.00    -0.274 N 
ATOM     10  C   UNL A   1      32.996  25.669  22.432  1.00  0.00     0.261 C 
ATOM     11  C   UNL A   1      31.248  26.111  24.082  1.00  0.00     0.261 C 
ATOM     12  O   UNL A   1      33.567  25.883  21.368  1.00  0.00    -0.269 OA
ATOM     13  C   UNL A   1      33.573  24.661  23.366  1.00  0.00     0.049 A 
ATOM     14  C   UNL A   1      31.788  25.072  24.961  1.00  0.00     0.049 A 
ATOM     15  O   UNL A   1      30.306  26.760  24.521  1.00  0.00    -0.269 OA
ATOM     16  C   UNL A   1      34.753  23.987  23.029  1.00  0.00     0.015 A 
ATOM     17  C   UNL A   1      32.943  24.394  24.588  1.00  0.00     0.009 A 
ATOM     18  C   UNL A   1      31.148  24.816  26.184  1.00  0.00     0.015 A 
ATOM     19  C   UNL A   1      35.295  23.041  23.902  1.00  0.00     0.015 A 
ATOM     20  C   UNL A   1      33.480  23.433  25.477  1.00  0.00     0.009 A 
ATOM     21  C   UNL A   1      31.666  23.866  27.053  1.00  0.00     0.015 A 
ATOM     22  C   UNL A   1      34.656  22.762  25.116  1.00  0.00     0.048 A 
ATOM     23  C   UNL A   1      32.828  23.180  26.697  1.00  0.00     0.048 A 
ATOM     24  C   UNL A   1      35.224  21.753  26.041  1.00  0.00     0.258 C 
ATOM     25  C   UNL A   1      33.385  22.172  27.623  1.00  0.00     0.258 C 
ATOM     26  N   UNL A   1      34.530  21.538  27.210  1.00  0.00    -0.288 N 
ATOM     27  O   UNL A   1      36.254  21.152  25.775  1.00  0.00    -0.269 OA
ATOM     28  O   UNL A   1      32.848  21.928  28.698  1.00  0.00    -0.269 OA
ATOM     29  H   UNL A   1      34.896  20.856  27.818  1.00  0.00     0.173 HD
ENDBRANCH   8   9
ENDBRANCH   7   8
ENDBRANCH   6   7
ENDBRANCH   4   6
ENDBRANCH   1   2
BRANCH   1  30
ATOM     30  C   UNL A   1      31.463  32.069  26.517  1.00  0.00     0.042 C 
BRANCH  30  31
ATOM     31  C   UNL A   1      32.609  32.782  27.240  1.00  0.00     0.118 C 
BRANCH  31  32
ATOM     32  N   UNL A   1      32.318  34.139  27.660  1.00  0.00    -0.352 N 
ATOM     33  C   UNL A   1      32.984  34.945  28.552  1.00  0.00     0.251 C 
ATOM     34  H   UNL A   1      31.524  34.545  27.243  1.00  0.00     0.163 HD
ATOM     35  O   UNL A   1      32.561  36.073  28.786  1.00  0.00    -0.269 OA
BRANCH  33  36
ATOM     36  C   UNL A   1      34.181  34.456  29.278  1.00  0.00     0.039 A 
ATOM     37  C   UNL A   1      33.987  33.846  30.522  1.00  0.00     0.014 A 
ATOM     38  C   UNL A   1      35.477  34.598  28.771  1.00  0.00     0.014 A 
ATOM     39  C   UNL A   1      35.075  33.314  31.219  1.00  0.00     0.010 A 
ATOM     40  C   UNL A   1      36.556  34.008  29.439  1.00  0.00     0.010 A 
ATOM     41  C   UNL A   1      36.365  33.348  30.664  1.00  0.00    -0.014 A 
BRANCH  41  42
ATOM     42  C   UNL A   1      37.497  32.654  31.340  1.00  0.00     0.031 A 
ATOM     43  C   UNL A   1      38.210  31.506  30.680  1.00  0.00     0.074 A 
ATOM     44  C   UNL A   1      37.864  33.041  32.579  1.00  0.00     0.049 A 
ATOM     45  N   UNL A   1      39.201  30.777  31.133  1.00  0.00    -0.248 NA
ATOM     46  C   UNL A   1      37.737  31.112  29.346  1.00  0.00     0.031 C 
ATOM     47  C   UNL A   1      37.231  34.113  33.349  1.00  0.00     0.029 A 
ATOM     48  N   UNL A   1      38.853  32.576  33.411  1.00  0.00    -0.354 N 
ATOM     49  C   UNL A   1      39.466  29.838  30.144  1.00  0.00     0.074 A 
ATOM     50  C   UNL A   1      38.498  30.057  29.090  1.00  0.00     0.031 C 
ATOM     51  C   UNL A   1      37.863  34.242  34.526  1.00  0.00     0.029 A 
ATOM     52  C   UNL A   1      38.915  33.235  34.616  1.00  0.00     0.049 A 
ATOM     53  H   UNL A   1      39.461  31.840  33.168  1.00  0.00     0.167 HD
ATOM     54  C   UNL A   1      40.440  28.895  30.108  1.00  0.00     0.037 A 
ATOM     55  C   UNL A   1      39.720  33.044  35.680  1.00  0.00     0.037 A 
ATOM     56  C   UNL A   1      41.409  28.684  31.155  1.00  0.00     0.049 A 
ATOM     57  C   UNL A   1      40.773  31.969  35.625  1.00  0.00     0.074 A 
ATOM     58  C   UNL A   1      42.464  27.788  31.184  1.00  0.00     0.029 A 
ATOM     59  N   UNL A   1      41.435  29.367  32.362  1.00  0.00    -0.354 N 
ATOM     60  N   UNL A   1      41.059  31.138  34.654  1.00  0.00    -0.248 NA
ATOM     61  C   UNL A   1      41.620  31.813  36.817  1.00  0.00     0.031 C 
ATOM     62  C   UNL A   1      43.089  27.883  32.432  1.00  0.00     0.029 A 
ATOM     63  C   UNL A   1      42.469  28.889  33.155  1.00  0.00     0.049 A 
ATOM     64  H   UNL A   1      40.811  30.084  32.619  1.00  0.00     0.167 HD
ATOM     65  C   UNL A   1      42.135  30.383  35.102  1.00  0.00     0.074 A 
ATOM     66  C   UNL A   1      42.463  30.869  36.426  1.00  0.00     0.031 C 
ATOM     67  C   UNL A   1      42.792  29.379  34.472  1.00  0.00     0.037 A 
BRANCH  54  68
ATOM     68  C   UNL A   1      40.508  28.008  28.895  1.00  0.00     0.064 A 
ATOM     69  C   UNL A   1      39.796  26.802  28.823  1.00  0.00     0.173 A 
ATOM     70  C   UNL A   1      41.257  28.394  27.772  1.00  0.00     0.173 A 
ATOM     71  F   UNL A   1      39.069  26.381  29.870  1.00  0.00    -0.203 F 
ATOM     72  C   UNL A   1      39.855  26.000  27.685  1.00  0.00     0.198 A 
ATOM     73  C   UNL A   1      41.286  27.607  26.624  1.00  0.00     0.198 A 
ATOM     74  F   UNL A   1      41.950  29.542  27.782  1.00  0.00    -0.203 F 
ATOM     75  F   UNL A   1      39.207  24.827  27.659  1.00  0.00    -0.200 F 
ATOM     76  C   UNL A   1      40.593  26.407  26.584  1.00  0.00     0.200 A 
ATOM     77  F   UNL A   1      41.987  28.011  25.555  1.00  0.00    -0.200 F 
ATOM     78  F   UNL A   1      40.642  25.640  25.487  1.00  0.00    -0.200 F 
ENDBRANCH  54  68
BRANCH  55  79
ATOM     79  C   UNL A   1      39.571  33.900  36.888  1.00  0.00     0.064 A 
ATOM     80  C   UNL A   1      38.806  33.478  37.983  1.00  0.00     0.173 A 
ATOM     81  C   UNL A   1      40.176  35.163  36.965  1.00  0.00     0.173 A 
ATOM     82  F   UNL A   1      38.188  32.287  37.950  1.00  0.00    -0.203 F 
ATOM     83  C   UNL A   1      38.631  34.295  39.099  1.00  0.00     0.198 A 
ATOM     84  C   UNL A   1      40.029  35.966  38.095  1.00  0.00     0.198 A 
ATOM     85  F   UNL A   1      40.923  35.615  35.946  1.00  0.00    -0.203 F 
ATOM     86  F   UNL A   1      37.849  33.889  40.108  1.00  0.00    -0.200 F 
ATOM     87  C   UNL A   1      39.247  35.535  39.157  1.00  0.00     0.200 A 
ATOM     88  F   UNL A   1      40.641  37.156  38.153  1.00  0.00    -0.200 F 
ATOM     89  F   UNL A   1      39.082  36.320  40.230  1.00  0.00    -0.200 F 
ENDBRANCH  55  79
BRANCH  67  90
ATOM     90  C   UNL A   1      43.962  28.761  35.188  1.00  0.00     0.064 A 
ATOM     91  C   UNL A   1      43.813  27.647  36.027  1.00  0.00     0.173 A 
ATOM     92  C   UNL A   1      45.255  29.276  35.008  1.00  0.00     0.173 A 
ATOM     93  F   UNL A   1      42.596  27.123  36.246  1.00  0.00    -0.203 F 
ATOM     94  C   UNL A   1      44.909  27.094  36.686  1.00  0.00     0.198 A 
ATOM     95  C   UNL A   1      46.354  28.699  35.640  1.00  0.00     0.198 A 
ATOM     96  F   UNL A   1      45.458  30.336  34.212  1.00  0.00    -0.203 F 
ATOM     97  F   UNL A   1      44.733  26.067  37.530  1.00  0.00    -0.200 F 
ATOM     98  C   UNL A   1      46.178  27.615  36.486  1.00  0.00     0.200 A 
ATOM     99  F   UNL A   1      47.581  29.193  35.431  1.00  0.00    -0.200 F 
ATOM    100  F   UNL A   1      47.231  27.077  37.116  1.00  0.00    -0.200 F 
ENDBRANCH  67  90
ENDBRANCH  41  42
ENDBRANCH  33  36
ENDBRANCH  31  32
ENDBRANCH  30  31
ENDBRANCH   1  30
TORSDOF 13
ENDMDL
MODEL 2
REMARK VINA RESULT:     -13.7      0.590      7.091
REMARK SMILES O=C(CCCN1C(=O)c2ccc3c4c(ccc(c24)C1=O)C(=O)NC3=O)NCCCNC(=O)c1ccc(-c2c3nc(c(-c4c(F)c(F)c(F)c(F)c4F)c4ccc([nH]4)c(-c4c(F)c(F)c(F)c(F)c4F)c4nc(c(-c5c(F)c(F)c(F)c(F)c5F)c5ccc2[nH]5)C=C4)C=C3)cc1
REMARK SMILES IDX 27 1 26 2 1 3 2 4 3 6 4 7 5 8 6 9 19 10 7 11 20 12 17 13
REMARK SMILES IDX 9 14 8 15 16 16 18 17 10 18 15 19 13 20 11 21 14 22 12 23
REMARK SMILES IDX 21 24 24 25 23 26 22 27 25 28 28 30 29 31 30 32 31 33 32 35
REMARK SMILES IDX 33 36 34 37 95 38 35 39 94 40 36 41 37 42 38 43 88 44 39 45
REMARK SMILES IDX 93 46 87 47 89 48 40 49 92 50 86 51 85 52 41 54 73 55 53 56
REMARK SMILES IDX 72 57 54 58 57 59 71 60 90 61 55 62 56 63 70 65 91 66 58 67
REMARK SMILES IDX 42 68 43 69 51 70 44 71 45 72 49 73 52 74 46 75 47 76 50 77
REMARK SMILES IDX 48 78 74 79 75 80 83 81 76 82 77 83 81 84 84 85 78 86 79 87
REMARK SMILES IDX 82 88 80 89 59 90 60 91 68 92 61 93 62 94 66 95 69 96 63 97
REMARK SMILES IDX 64 98 67 99 65 100
REMARK H PARENT 26 5 23 29 30 34 89 53 57 64
REMARK Flexibility Score: inf
ROOT
ATOM      1  C   UNL A   1      31.633  30.287  26.357  1.00  0.00     0.117 C 
ENDROOT
BRANCH   1   2
ATOM      2  N   UNL A   1      32.075  29.919  25.031  1.00  0.00    -0.356 N 
ATOM      3  O   UNL A   1      34.006  28.814  25.561  1.00  0.00    -0.275 OA
ATOM      4  C   UNL A   1      33.207  29.214  24.721  1.00  0.00     0.220 C 
ATOM      5  H   UNL A   1      31.508  30.203  24.278  1.00  0.00     0.163 HD
BRANCH   4   6
ATOM      6  C   UNL A   1      33.428  29.005  23.222  1.00  0.00     0.102 C 
BRANCH   6   7
ATOM      7  C   UNL A   1      32.157  28.944  22.363  1.00  0.00     0.032 C 
BRANCH   7   8
ATOM      8  C   UNL A   1      31.498  27.578  22.085  1.00  0.00     0.130 C 
BRANCH   8   9
ATOM      9  N   UNL A   1      31.975  26.445  22.898  1.00  0.00    -0.274 N 
ATOM     10  C   UNL A   1      33.093  25.731  22.457  1.00  0.00     0.261 C 
ATOM     11  C   UNL A   1      31.396  26.242  24.139  1.00  0.00     0.261 C 
ATOM     12  O   UNL A   1      33.653  25.923  21.383  1.00  0.00    -0.269 OA
ATOM     13  C   UNL A   1      33.643  24.695  23.377  1.00  0.00     0.049 A 
ATOM     14  C   UNL A   1      31.906  25.179  25.006  1.00  0.00     0.049 A 
ATOM     15  O   UNL A   1      30.491  26.931  24.597  1.00  0.00    -0.269 OA
ATOM     16  C   UNL A   1      34.786  23.973  23.017  1.00  0.00     0.015 A 
ATOM     17  C   UNL A   1      33.024  24.453  24.610  1.00  0.00     0.009 A 
ATOM     18  C   UNL A   1      31.278  24.946  26.240  1.00  0.00     0.015 A 
ATOM     19  C   UNL A   1      35.302  23.001  23.878  1.00  0.00     0.015 A 
ATOM     20  C   UNL A   1      33.535  23.466  25.486  1.00  0.00     0.009 A 
ATOM     21  C   UNL A   1      31.771  23.972  27.097  1.00  0.00     0.015 A 
ATOM     22  C   UNL A   1      34.675  22.747  25.103  1.00  0.00     0.048 A 
ATOM     23  C   UNL A   1      32.895  23.238  26.718  1.00  0.00     0.048 A 
ATOM     24  C   UNL A   1      35.215  21.711  26.015  1.00  0.00     0.258 C 
ATOM     25  C   UNL A   1      33.425  22.204  27.631  1.00  0.00     0.258 C 
ATOM     26  N   UNL A   1      34.534  21.523  27.196  1.00  0.00    -0.288 N 
ATOM     27  O   UNL A   1      36.213  21.067  25.729  1.00  0.00    -0.269 OA
ATOM     28  O   UNL A   1      32.898  21.980  28.716  1.00  0.00    -0.269 OA
ATOM     29  H   UNL A   1      34.881  20.823  27.795  1.00  0.00     0.173 HD
ENDBRANCH   8   9
ENDBRANCH   7   8
ENDBRANCH   6   7
ENDBRANCH   4   6
ENDBRANCH   1   2
BRANCH   1  30
ATOM     30  C   UNL A   1      31.458  31.802  26.499  1.00  0.00     0.042 C 
BRANCH  30  31
ATOM     31  C   UNL A   1      32.668  32.592  27.002  1.00  0.00     0.118 C 
BRANCH  31  32
ATOM     32  N   UNL A   1      32.368  33.920  27.503  1.00  0.00    -0.352 N 
ATOM     33  C   UNL A   1      33.018  34.669  28.455  1.00  0.00     0.251 C 
ATOM     34  H   UNL A   1      31.579  34.351  27.099  1.00  0.00     0.163 HD
ATOM     35  O   UNL A   1      32.588  35.779  28.753  1.00  0.00    -0.269 OA
BRANCH  33  36
ATOM     36  C   UNL A   1      34.204  34.136  29.168  1.00  0.00     0.039 A 
ATOM     37  C   UNL A   1      33.984  33.296  30.264  1.00  0.00     0.014 A 
ATOM     38  C   UNL A   1      35.512  34.455  28.792  1.00  0.00     0.014 A 
ATOM     39  C   UNL A   1      35.067  32.719  30.933  1.00  0.00     0.010 A 
ATOM     40  C   UNL A   1      36.592  33.826  29.421  1.00  0.00     0.010 A 
ATOM     41  C   UNL A   1      36.381  32.941  30.490  1.00  0.00    -0.014 A 
BRANCH  41  42
ATOM     42  C   UNL A   1      37.522  32.213  31.113  1.00  0.00     0.031 A 
ATOM     43  C   UNL A   1      38.004  32.560  32.495  1.00  0.00     0.074 A 
ATOM     44  C   UNL A   1      38.155  31.251  30.410  1.00  0.00     0.049 A 
ATOM     45  N   UNL A   1      38.995  32.043  33.180  1.00  0.00    -0.248 NA
ATOM     46  C   UNL A   1      37.294  33.641  33.191  1.00  0.00     0.031 C 
ATOM     47  C   UNL A   1      37.815  30.843  29.046  1.00  0.00     0.029 A 
ATOM     48  N   UNL A   1      39.217  30.445  30.742  1.00  0.00    -0.354 N 
ATOM     49  C   UNL A   1      39.030  32.737  34.383  1.00  0.00     0.074 A 
ATOM     50  C   UNL A   1      37.994  33.747  34.312  1.00  0.00     0.031 C 
ATOM     51  C   UNL A   1      38.633  29.848  28.668  1.00  0.00     0.029 A 
ATOM     52  C   UNL A   1      39.583  29.576  29.742  1.00  0.00     0.049 A 
ATOM     53  H   UNL A   1      39.673  30.486  31.613  1.00  0.00     0.167 HD
ATOM     54  C   UNL A   1      39.835  32.538  35.455  1.00  0.00     0.037 A 
ATOM     55  C   UNL A   1      40.578  28.669  29.688  1.00  0.00     0.037 A 
ATOM     56  C   UNL A   1      40.860  31.526  35.527  1.00  0.00     0.049 A 
ATOM     57  C   UNL A   1      41.478  28.490  30.882  1.00  0.00     0.074 A 
ATOM     58  C   UNL A   1      41.690  31.216  36.591  1.00  0.00     0.029 A 
ATOM     59  N   UNL A   1      41.205  30.670  34.492  1.00  0.00    -0.354 N 
ATOM     60  N   UNL A   1      41.451  29.103  32.039  1.00  0.00    -0.248 NA
ATOM     61  C   UNL A   1      42.543  27.484  30.761  1.00  0.00     0.031 C 
ATOM     62  C   UNL A   1      42.579  30.216  36.180  1.00  0.00     0.029 A 
ATOM     63  C   UNL A   1      42.257  29.853  34.883  1.00  0.00     0.049 A 
ATOM     64  H   UNL A   1      40.768  30.646  33.610  1.00  0.00     0.167 HD
ATOM     65  C   UNL A   1      42.471  28.538  32.794  1.00  0.00     0.074 A 
ATOM     66  C   UNL A   1      43.085  27.519  31.970  1.00  0.00     0.031 C 
ATOM     67  C   UNL A   1      42.862  28.837  34.057  1.00  0.00     0.037 A 
BRANCH  54  68
ATOM     68  C   UNL A   1      39.647  33.437  36.646  1.00  0.00     0.064 A 
ATOM     69  C   UNL A   1      38.790  33.093  37.702  1.00  0.00     0.173 A 
ATOM     70  C   UNL A   1      40.372  34.634  36.756  1.00  0.00     0.173 A 
ATOM     71  F   UNL A   1      38.068  31.963  37.647  1.00  0.00    -0.203 F 
ATOM     72  C   UNL A   1      38.641  33.928  38.807  1.00  0.00     0.198 A 
ATOM     73  C   UNL A   1      40.247  35.449  37.877  1.00  0.00     0.198 A 
ATOM     74  F   UNL A   1      41.214  35.007  35.781  1.00  0.00    -0.203 F 
ATOM     75  F   UNL A   1      37.776  33.603  39.779  1.00  0.00    -0.200 F 
ATOM     76  C   UNL A   1      39.375  35.101  38.898  1.00  0.00     0.200 A 
ATOM     77  F   UNL A   1      40.970  36.574  37.971  1.00  0.00    -0.200 F 
ATOM     78  F   UNL A   1      39.237  35.899  39.965  1.00  0.00    -0.200 F 
ENDBRANCH  54  68
BRANCH  55  79
ATOM     79  C   UNL A   1      40.771  27.849  28.462  1.00  0.00     0.064 A 
ATOM     80  C   UNL A   1      41.579  28.301  27.409  1.00  0.00     0.173 A 
ATOM     81  C   UNL A   1      40.141  26.605  28.310  1.00  0.00     0.173 A 
ATOM     82  F   UNL A   1      42.187  29.493  27.496  1.00  0.00    -0.203 F 
ATOM     83  C   UNL A   1      41.729  27.553  26.242  1.00  0.00     0.198 A 
ATOM     84  C   UNL A   1      40.318  25.843  27.157  1.00  0.00     0.198 A 
ATOM     85  F   UNL A   1      39.360  26.123  29.288  1.00  0.00    -0.203 F 
ATOM     86  F   UNL A   1      42.462  28.035  25.230  1.00  0.00    -0.200 F 
ATOM     87  C   UNL A   1      41.104  26.322  26.120  1.00  0.00     0.200 A 
ATOM     88  F   UNL A   1      39.725  24.646  27.051  1.00  0.00    -0.200 F 
ATOM     89  F   UNL A   1      41.249  25.602  24.999  1.00  0.00    -0.200 F 
ENDBRANCH  55  79
BRANCH  67  90
ATOM     90  C   UNL A   1      43.983  28.025  34.646  1.00  0.00     0.064 A 
ATOM     91  C   UNL A   1      43.751  26.813  35.312  1.00  0.00     0.173 A 
ATOM     92  C   UNL A   1      45.313  28.456  34.516  1.00  0.00     0.173 A 
ATOM     93  F   UNL A   1      42.497  26.362  35.477  1.00  0.00    -0.203 F 
ATOM     94  C   UNL A   1      44.804  26.080  35.855  1.00  0.00     0.198 A 
ATOM     95  C   UNL A   1      46.366  27.702  35.028  1.00  0.00     0.198 A 
ATOM     96  F   UNL A   1      45.595  29.604  33.883  1.00  0.00    -0.203 F 
ATOM     97  F   UNL A   1      44.551  24.954  36.538  1.00  0.00    -0.200 F 
ATOM     98  C   UNL A   1      46.109  26.521  35.706  1.00  0.00     0.200 A 
ATOM     99  F   UNL A   1      47.628  28.122  34.869  1.00  0.00    -0.200 F 
ATOM    100  F   UNL A   1      47.121  25.810  36.224  1.00  0.00    -0.200 F 
ENDBRANCH  67  90
ENDBRANCH  41  42
ENDBRANCH  33  36
ENDBRANCH  31  32
ENDBRANCH  30  31
ENDBRANCH   1  30
TORSDOF 13
ENDMDL
MODEL 3
REMARK VINA RESULT:     -13.6      0.625      7.094
REMARK SMILES O=C(CCCN1C(=O)c2ccc3c4c(ccc(c24)C1=O)C(=O)NC3=O)NCCCNC(=O)c1ccc(-c2c3nc(c(-c4c(F)c(F)c(F)c(F)c4F)c4ccc([nH]4)c(-c4c(F)c(F)c(F)c(F)c4F)c4nc(c(-c5c(F)c(F)c(F)c(F)c5F)c5ccc2[nH]5)C=C4)C=C3)cc1
REMARK SMILES IDX 27 1 26 2 1 3 2 4 3 6 4 7 5 8 6 9 19 10 7 11 20 12 17 13
REMARK SMILES IDX 9 14 8 15 16 16 18 17 10 18 15 19 13 20 11 21 14 22 12 23
REMARK SMILES IDX 21 24 24 25 23 26 22 27 25 28 28 30 29 31 30 32 31 33 32 35
REMARK SMILES IDX 33 36 34 37 95 38 35 39 94 40 36 41 37 42 38 43 88 44 39 45
REMARK SMILES IDX 93 46 87 47 89 48 40 49 92 50 86 51 85 52 41 54 73 55 53 56
REMARK SMILES IDX 72 57 54 58 57 59 71 60 90 61 55 62 56 63 70 65 91 66 58 67
REMARK SMILES IDX 42 68 43 69 51 70 44 71 45 72 49 73 52 74 46 75 47 76 50 77
REMARK SMILES IDX 48 78 74 79 75 80 83 81 76 82 77 83 81 84 84 85 78 86 79 87
REMARK SMILES IDX 82 88 80 89 59 90 60 91 68 92 61 93 62 94 66 95 69 96 63 97
REMARK SMILES IDX 64 98 67 99 65 100
REMARK H PARENT 26 5 23 29 30 34 89 53 57 64
REMARK Flexibility Score: inf
ROOT
ATOM      1  C   UNL A   1      31.618  30.214  26.339  1.00  0.00     0.117 C 
ENDROOT
BRANCH   1   2
ATOM      2  N   UNL A   1      32.035  29.871  24.998  1.00  0.00    -0.356 N 
ATOM      3  O   UNL A   1      33.993  28.785  25.468  1.00  0.00    -0.275 OA
ATOM      4  C   UNL A   1      33.169  29.187  24.652  1.00  0.00     0.220 C 
ATOM      5  H   UNL A   1      31.447  30.158  24.262  1.00  0.00     0.163 HD
BRANCH   4   6
ATOM      6  C   UNL A   1      33.360  29.002  23.146  1.00  0.00     0.102 C 
BRANCH   6   7
ATOM      7  C   UNL A   1      32.071  28.931  22.315  1.00  0.00     0.032 C 
BRANCH   7   8
ATOM      8  C   UNL A   1      31.432  27.557  22.028  1.00  0.00     0.130 C 
BRANCH   8   9
ATOM      9  N   UNL A   1      31.917  26.429  22.843  1.00  0.00    -0.274 N 
ATOM     10  C   UNL A   1      33.026  25.707  22.393  1.00  0.00     0.261 C 
ATOM     11  C   UNL A   1      31.353  26.237  24.093  1.00  0.00     0.261 C 
ATOM     12  O   UNL A   1      33.573  25.890  21.310  1.00  0.00    -0.269 OA
ATOM     13  C   UNL A   1      33.585  24.677  23.314  1.00  0.00     0.049 A 
ATOM     14  C   UNL A   1      31.871  25.178  24.961  1.00  0.00     0.049 A 
ATOM     15  O   UNL A   1      30.455  26.931  24.558  1.00  0.00    -0.269 OA
ATOM     16  C   UNL A   1      34.721  23.948  22.944  1.00  0.00     0.015 A 
ATOM     17  C   UNL A   1      32.981  24.446  24.556  1.00  0.00     0.009 A 
ATOM     18  C   UNL A   1      31.258  24.957  26.205  1.00  0.00     0.015 A 
ATOM     19  C   UNL A   1      35.246  22.982  23.806  1.00  0.00     0.015 A 
ATOM     20  C   UNL A   1      33.501  23.464  25.433  1.00  0.00     0.009 A 
ATOM     21  C   UNL A   1      31.759  23.988  27.063  1.00  0.00     0.015 A 
ATOM     22  C   UNL A   1      34.633  22.738  25.041  1.00  0.00     0.048 A 
ATOM     23  C   UNL A   1      32.876  23.247  26.675  1.00  0.00     0.048 A 
ATOM     24  C   UNL A   1      35.182  21.708  25.953  1.00  0.00     0.258 C 
ATOM     25  C   UNL A   1      33.414  22.218  27.589  1.00  0.00     0.258 C 
ATOM     26  N   UNL A   1      34.516  21.530  27.145  1.00  0.00    -0.288 N 
ATOM     27  O   UNL A   1      36.174  21.059  25.659  1.00  0.00    -0.269 OA
ATOM     28  O   UNL A   1      32.901  22.004  28.682  1.00  0.00    -0.269 OA
ATOM     29  H   UNL A   1      34.869  20.834  27.745  1.00  0.00     0.173 HD
ENDBRANCH   8   9
ENDBRANCH   7   8
ENDBRANCH   6   7
ENDBRANCH   4   6
ENDBRANCH   1   2
BRANCH   1  30
ATOM     30  C   UNL A   1      31.444  31.725  26.513  1.00  0.00     0.042 C 
BRANCH  30  31
ATOM     31  C   UNL A   1      32.650  32.503  27.044  1.00  0.00     0.118 C 
BRANCH  31  32
ATOM     32  N   UNL A   1      32.354  33.839  27.525  1.00  0.00    -0.352 N 
ATOM     33  C   UNL A   1      33.019  34.609  28.449  1.00  0.00     0.251 C 
ATOM     34  H   UNL A   1      31.555  34.259  27.129  1.00  0.00     0.163 HD
ATOM     35  O   UNL A   1      32.590  35.723  28.734  1.00  0.00    -0.269 OA
BRANCH  33  36
ATOM     36  C   UNL A   1      34.222  34.095  29.147  1.00  0.00     0.039 A 
ATOM     37  C   UNL A   1      34.029  33.252  30.246  1.00  0.00     0.014 A 
ATOM     38  C   UNL A   1      35.520  34.435  28.756  1.00  0.00     0.014 A 
ATOM     39  C   UNL A   1      35.128  32.691  30.902  1.00  0.00     0.010 A 
ATOM     40  C   UNL A   1      36.618  33.823  29.372  1.00  0.00     0.010 A 
ATOM     41  C   UNL A   1      36.434  32.934  30.443  1.00  0.00    -0.014 A 
BRANCH  41  42
ATOM     42  C   UNL A   1      37.593  32.224  31.052  1.00  0.00     0.031 A 
ATOM     43  C   UNL A   1      38.090  32.583  32.426  1.00  0.00     0.074 A 
ATOM     44  C   UNL A   1      38.230  31.269  30.344  1.00  0.00     0.049 A 
ATOM     45  N   UNL A   1      39.097  32.083  33.099  1.00  0.00    -0.248 NA
ATOM     46  C   UNL A   1      37.375  33.657  33.129  1.00  0.00     0.031 C 
ATOM     47  C   UNL A   1      37.877  30.852  28.986  1.00  0.00     0.029 A 
ATOM     48  N   UNL A   1      39.308  30.480  30.663  1.00  0.00    -0.354 N 
ATOM     49  C   UNL A   1      39.139  32.781  34.299  1.00  0.00     0.074 A 
ATOM     50  C   UNL A   1      38.089  33.776  34.239  1.00  0.00     0.031 C 
ATOM     51  C   UNL A   1      38.702  29.867  28.600  1.00  0.00     0.029 A 
ATOM     52  C   UNL A   1      39.671  29.612  29.661  1.00  0.00     0.049 A 
ATOM     53  H   UNL A   1      39.775  30.530  31.528  1.00  0.00     0.167 HD
ATOM     54  C   UNL A   1      39.962  32.597  35.360  1.00  0.00     0.037 A 
ATOM     55  C   UNL A   1      40.678  28.719  29.596  1.00  0.00     0.037 A 
ATOM     56  C   UNL A   1      41.003  31.600  35.421  1.00  0.00     0.049 A 
ATOM     57  C   UNL A   1      41.597  28.556  30.777  1.00  0.00     0.074 A 
ATOM     58  C   UNL A   1      41.852  31.305  36.474  1.00  0.00     0.029 A 
ATOM     59  N   UNL A   1      41.344  30.745  34.384  1.00  0.00    -0.354 N 
ATOM     60  N   UNL A   1      41.578  29.173  31.933  1.00  0.00    -0.248 NA
ATOM     61  C   UNL A   1      42.674  27.565  30.645  1.00  0.00     0.031 C 
ATOM     62  C   UNL A   1      42.748  30.316  36.054  1.00  0.00     0.029 A 
ATOM     63  C   UNL A   1      42.413  29.944  34.762  1.00  0.00     0.049 A 
ATOM     64  H   UNL A   1      40.896  30.712  33.508  1.00  0.00     0.167 HD
ATOM     65  C   UNL A   1      42.617  28.625  32.676  1.00  0.00     0.074 A 
ATOM     66  C   UNL A   1      43.233  27.612  31.846  1.00  0.00     0.031 C 
ATOM     67  C   UNL A   1      43.021  28.934  33.932  1.00  0.00     0.037 A 
BRANCH  54  68
ATOM     68  C   UNL A   1      39.779  33.497  36.551  1.00  0.00     0.064 A 
ATOM     69  C   UNL A   1      40.467  34.714  36.668  1.00  0.00     0.173 A 
ATOM     70  C   UNL A   1      38.866  33.162  37.564  1.00  0.00     0.173 A 
ATOM     71  F   UNL A   1      41.356  35.082  35.733  1.00  0.00    -0.203 F 
ATOM     72  C   UNL A   1      40.272  35.546  37.768  1.00  0.00     0.198 A 
ATOM     73  C   UNL A   1      38.648  34.012  38.644  1.00  0.00     0.198 A 
ATOM     74  F   UNL A   1      38.173  32.016  37.498  1.00  0.00    -0.203 F 
ATOM     75  F   UNL A   1      40.980  36.679  37.884  1.00  0.00    -0.200 F 
ATOM     76  C   UNL A   1      39.358  35.199  38.751  1.00  0.00     0.200 A 
ATOM     77  F   UNL A   1      37.751  33.682  39.584  1.00  0.00    -0.200 F 
ATOM     78  F   UNL A   1      39.165  36.004  39.805  1.00  0.00    -0.200 F 
ENDBRANCH  54  68
BRANCH  55  79
ATOM     79  C   UNL A   1      40.866  27.897  28.370  1.00  0.00     0.064 A 
ATOM     80  C   UNL A   1      40.262  26.637  28.245  1.00  0.00     0.173 A 
ATOM     81  C   UNL A   1      41.663  28.344  27.307  1.00  0.00     0.173 A 
ATOM     82  F   UNL A   1      39.508  26.154  29.244  1.00  0.00    -0.203 F 
ATOM     83  C   UNL A   1      40.470  25.847  27.116  1.00  0.00     0.198 A 
ATOM     84  C   UNL A   1      41.842  27.568  26.163  1.00  0.00     0.198 A 
ATOM     85  F   UNL A   1      42.260  29.544  27.373  1.00  0.00    -0.203 F 
ATOM     86  F   UNL A   1      39.926  24.625  27.047  1.00  0.00    -0.200 F 
ATOM     87  C   UNL A   1      41.254  26.316  26.073  1.00  0.00     0.200 A 
ATOM     88  F   UNL A   1      42.587  28.033  25.151  1.00  0.00    -0.200 F 
ATOM     89  F   UNL A   1      41.452  25.558  24.986  1.00  0.00    -0.200 F 
ENDBRANCH  55  79
BRANCH  67  90
ATOM     90  C   UNL A   1      44.161  28.140  34.507  1.00  0.00     0.064 A 
ATOM     91  C   UNL A   1      43.955  26.927  35.180  1.00  0.00     0.173 A 
ATOM     92  C   UNL A   1      45.483  28.589  34.357  1.00  0.00     0.173 A 
ATOM     93  F   UNL A   1      42.711  26.458  35.364  1.00  0.00    -0.203 F 
ATOM     94  C   UNL A   1      45.026  26.210  35.710  1.00  0.00     0.198 A 
ATOM     95  C   UNL A   1      46.554  27.852  34.857  1.00  0.00     0.198 A 
ATOM     96  F   UNL A   1      45.740  29.739  33.717  1.00  0.00    -0.203 F 
ATOM     97  F   UNL A   1      44.799  25.083  36.400  1.00  0.00    -0.200 F 
ATOM     98  C   UNL A   1      46.323  26.669  35.542  1.00  0.00     0.200 A 
ATOM     99  F   UNL A   1      47.808  28.289  34.679  1.00  0.00    -0.200 F 
ATOM    100  F   UNL A   1      47.352  25.974  36.048  1.00  0.00    -0.200 F 
ENDBRANCH  67  90
ENDBRANCH  41  42
ENDBRANCH  33  36
ENDBRANCH  31  32
ENDBRANCH  30  31
ENDBRANCH   1  30
TORSDOF 13
ENDMDL
