MODEL 1
REMARK VINA RESULT:     -13.2      0.000      0.000
REMARK SMILES C[N@@H+]1CCN(C(=O)c2cc(-n3cccn3)ccc2Cl)C[C@H]1C(=O)NCCCNC(=O)c1ccc(-c2c3nc(c(-c4c(F)c(F)c(F)c(F)c4F)c4ccc([nH]4)c(-c4c(F)c(F)c(F)c(F)c4F)c4nc(c(-c5c(F)c(F)c(F)c(F)c5F)c5ccc2[nH]5)C=C4)C=C3)cc1
REMARK SMILES IDX 25 1 24 2 22 3 23 4 21 6 1 7 2 8 3 9 4 11 20 12 5 13 6 14
REMARK SMILES IDX 7 15 8 16 9 17 18 18 10 19 17 20 19 21 16 22 11 23 12 24
REMARK SMILES IDX 15 25 13 26 14 27 26 28 27 29 28 30 29 31 30 33 31 34 32 35
REMARK SMILES IDX 93 36 33 37 92 38 34 39 35 40 36 41 86 42 37 43 91 44 85 45
REMARK SMILES IDX 87 46 38 47 90 48 84 49 83 50 39 52 71 53 51 54 70 55 52 56
REMARK SMILES IDX 55 57 69 58 88 59 53 60 54 61 68 63 89 64 56 65 40 66 41 67
REMARK SMILES IDX 49 68 42 69 43 70 47 71 50 72 44 73 45 74 48 75 46 76 72 77
REMARK SMILES IDX 73 78 81 79 74 80 75 81 79 82 82 83 76 84 77 85 80 86 78 87
REMARK SMILES IDX 57 88 58 89 66 90 59 91 60 92 64 93 67 94 61 95 62 96 65 97
REMARK SMILES IDX 63 98
REMARK H PARENT 24 5 2 10 28 32 87 51 55 62
REMARK Flexibility Score: inf
ROOT
ATOM      1  C   UNL A   1      33.933  29.051  26.181  1.00  0.00     0.118 C 
ENDROOT
BRANCH   1   2
ATOM      2  N   UNL A   1      33.542  29.379  24.815  1.00  0.00    -0.351 N 
ATOM      3  C   UNL A   1      32.967  28.579  23.866  1.00  0.00     0.280 C 
ATOM      4  O   UNL A   1      32.703  29.072  22.766  1.00  0.00    -0.268 OA
ATOM      5  H   UNL A   1      33.717  30.306  24.535  1.00  0.00     0.163 HD
BRANCH   3   6
ATOM      6  C   UNL A   1      32.623  27.117  24.184  1.00  0.00     0.293 C 
ATOM      7  C   UNL A   1      30.699  27.664  25.579  1.00  0.00     0.333 C 
ATOM      8  N   UNL A   1      31.152  26.944  24.383  1.00  0.00    -0.324 N 
ATOM      9  C   UNL A   1      30.842  25.503  24.516  1.00  0.00     0.284 C 
ATOM     10  H   UNL A   1      30.662  27.328  23.575  1.00  0.00     0.348 HD
ATOM     11  C   UNL A   1      31.350  24.678  23.321  1.00  0.00     0.181 C 
ATOM     12  C   UNL A   1      33.239  26.249  23.065  1.00  0.00     0.195 C 
ATOM     13  N   UNL A   1      32.785  24.858  23.094  1.00  0.00    -0.326 N 
BRANCH  13  14
ATOM     14  C   UNL A   1      33.535  23.782  22.635  1.00  0.00     0.255 C 
ATOM     15  O   UNL A   1      33.776  23.576  21.449  1.00  0.00    -0.269 OA
BRANCH  14  16
ATOM     16  C   UNL A   1      34.118  22.847  23.621  1.00  0.00     0.060 A 
ATOM     17  C   UNL A   1      35.303  23.238  24.266  1.00  0.00     0.043 A 
ATOM     18  C   UNL A   1      33.557  21.587  23.872  1.00  0.00     0.053 A 
ATOM     19  C   UNL A   1      35.933  22.344  25.141  1.00  0.00     0.065 A 
ATOM     20  C   UNL A   1      34.137  20.749  24.826  1.00  0.00     0.023 A 
ATOM     21  Cl  UNL A   1      32.167  20.990  23.033  1.00  0.00    -0.083 Cl
ATOM     22  C   UNL A   1      35.332  21.115  25.447  1.00  0.00     0.030 A 
BRANCH  19  23
ATOM     23  N   UNL A   1      37.204  22.656  25.681  1.00  0.00    -0.241 N 
ATOM     24  C   UNL A   1      37.610  23.883  26.158  1.00  0.00     0.115 A 
ATOM     25  N   UNL A   1      38.176  21.723  25.813  1.00  0.00    -0.177 NA
ATOM     26  C   UNL A   1      38.913  23.745  26.566  1.00  0.00     0.042 A 
ATOM     27  C   UNL A   1      39.221  22.403  26.292  1.00  0.00     0.135 A 
ENDBRANCH  19  23
ENDBRANCH  14  16
ENDBRANCH  13  14
ENDBRANCH   3   6
ENDBRANCH   1   2
BRANCH   1  28
ATOM     28  C   UNL A   1      33.481  30.076  27.213  1.00  0.00     0.042 C 
BRANCH  28  29
ATOM     29  C   UNL A   1      34.528  31.141  27.453  1.00  0.00     0.118 C 
BRANCH  29  30
ATOM     30  N   UNL A   1      34.415  31.780  28.768  1.00  0.00    -0.352 N 
ATOM     31  C   UNL A   1      35.235  31.599  29.873  1.00  0.00     0.251 C 
ATOM     32  H   UNL A   1      33.671  32.415  28.880  1.00  0.00     0.163 HD
ATOM     33  O   UNL A   1      34.899  31.935  30.987  1.00  0.00    -0.269 OA
BRANCH  31  34
ATOM     34  C   UNL A   1      36.547  30.975  29.633  1.00  0.00     0.039 A 
ATOM     35  C   UNL A   1      37.683  31.731  29.336  1.00  0.00     0.014 A 
ATOM     36  C   UNL A   1      36.624  29.603  29.834  1.00  0.00     0.014 A 
ATOM     37  C   UNL A   1      38.920  31.092  29.334  1.00  0.00     0.010 A 
ATOM     38  C   UNL A   1      37.844  29.036  30.056  1.00  0.00     0.010 A 
ATOM     39  C   UNL A   1      38.990  29.745  29.720  1.00  0.00    -0.014 A 
BRANCH  39  40
ATOM     40  C   UNL A   1      40.261  29.049  29.866  1.00  0.00     0.031 A 
ATOM     41  C   UNL A   1      40.742  28.917  31.270  1.00  0.00     0.074 A 
ATOM     42  C   UNL A   1      40.808  28.366  28.836  1.00  0.00     0.049 A 
ATOM     43  N   UNL A   1      41.811  29.418  31.792  1.00  0.00    -0.248 NA
ATOM     44  C   UNL A   1      39.861  28.255  32.248  1.00  0.00     0.031 C 
ATOM     45  C   UNL A   1      40.252  28.136  27.492  1.00  0.00     0.029 A 
ATOM     46  N   UNL A   1      41.943  27.622  28.808  1.00  0.00    -0.354 N 
ATOM     47  C   UNL A   1      41.843  28.976  33.114  1.00  0.00     0.074 A 
ATOM     48  C   UNL A   1      40.541  28.428  33.384  1.00  0.00     0.031 C 
ATOM     49  C   UNL A   1      40.916  27.127  26.888  1.00  0.00     0.029 A 
ATOM     50  C   UNL A   1      42.054  26.775  27.710  1.00  0.00     0.049 A 
ATOM     51  H   UNL A   1      42.633  27.678  29.508  1.00  0.00     0.167 HD
ATOM     52  C   UNL A   1      43.022  28.881  33.791  1.00  0.00     0.037 A 
ATOM     53  C   UNL A   1      43.009  25.834  27.510  1.00  0.00     0.037 A 
ATOM     54  C   UNL A   1      44.054  29.632  33.120  1.00  0.00     0.049 A 
ATOM     55  C   UNL A   1      44.135  26.157  28.422  1.00  0.00     0.074 A 
ATOM     56  C   UNL A   1      44.233  30.963  32.802  1.00  0.00     0.029 A 
ATOM     57  N   UNL A   1      44.927  28.935  32.320  1.00  0.00    -0.354 N 
ATOM     58  N   UNL A   1      44.879  27.223  28.300  1.00  0.00    -0.248 NA
ATOM     59  C   UNL A   1      44.116  25.554  29.746  1.00  0.00     0.031 C 
ATOM     60  C   UNL A   1      44.827  30.953  31.505  1.00  0.00     0.029 A 
ATOM     61  C   UNL A   1      45.052  29.624  31.143  1.00  0.00     0.049 A 
ATOM     62  H   UNL A   1      45.381  28.093  32.551  1.00  0.00     0.167 HD
ATOM     63  C   UNL A   1      45.074  27.667  29.600  1.00  0.00     0.074 A 
ATOM     64  C   UNL A   1      44.646  26.558  30.450  1.00  0.00     0.031 C 
ATOM     65  C   UNL A   1      45.281  28.990  29.865  1.00  0.00     0.037 A 
BRANCH  52  66
ATOM     66  C   UNL A   1      43.357  27.820  34.817  1.00  0.00     0.064 A 
ATOM     67  C   UNL A   1      43.733  28.228  36.116  1.00  0.00     0.173 A 
ATOM     68  C   UNL A   1      43.631  26.470  34.509  1.00  0.00     0.173 A 
ATOM     69  F   UNL A   1      43.522  29.488  36.527  1.00  0.00    -0.203 F 
ATOM     70  C   UNL A   1      44.425  27.384  36.988  1.00  0.00     0.198 A 
ATOM     71  C   UNL A   1      44.275  25.616  35.402  1.00  0.00     0.198 A 
ATOM     72  F   UNL A   1      43.394  25.949  33.301  1.00  0.00    -0.203 F 
ATOM     73  F   UNL A   1      44.885  27.862  38.152  1.00  0.00    -0.200 F 
ATOM     74  C   UNL A   1      44.706  26.081  36.625  1.00  0.00     0.200 A 
ATOM     75  F   UNL A   1      44.550  24.358  35.025  1.00  0.00    -0.200 F 
ATOM     76  F   UNL A   1      45.431  25.290  37.427  1.00  0.00    -0.200 F 
ENDBRANCH  52  66
BRANCH  53  77
ATOM     77  C   UNL A   1      42.877  24.523  26.834  1.00  0.00     0.064 A 
ATOM     78  C   UNL A   1      43.378  24.316  25.540  1.00  0.00     0.173 A 
ATOM     79  C   UNL A   1      42.501  23.371  27.553  1.00  0.00     0.173 A 
ATOM     80  F   UNL A   1      43.802  25.358  24.809  1.00  0.00    -0.203 F 
ATOM     81  C   UNL A   1      43.512  23.032  25.003  1.00  0.00     0.198 A 
ATOM     82  C   UNL A   1      42.634  22.089  27.015  1.00  0.00     0.198 A 
ATOM     83  F   UNL A   1      42.090  23.462  28.827  1.00  0.00    -0.203 F 
ATOM     84  F   UNL A   1      44.047  22.869  23.784  1.00  0.00    -0.200 F 
ATOM     85  C   UNL A   1      43.149  21.919  25.743  1.00  0.00     0.200 A 
ATOM     86  F   UNL A   1      42.319  21.020  27.759  1.00  0.00    -0.200 F 
ATOM     87  F   UNL A   1      43.336  20.685  25.253  1.00  0.00    -0.200 F 
ENDBRANCH  53  77
BRANCH  65  88
ATOM     88  C   UNL A   1      45.551  29.911  28.707  1.00  0.00     0.064 A 
ATOM     89  C   UNL A   1      44.555  30.616  28.008  1.00  0.00     0.173 A 
ATOM     90  C   UNL A   1      46.885  30.231  28.423  1.00  0.00     0.173 A 
ATOM     91  F   UNL A   1      43.258  30.435  28.284  1.00  0.00    -0.203 F 
ATOM     92  C   UNL A   1      44.884  31.578  27.054  1.00  0.00     0.198 A 
ATOM     93  C   UNL A   1      47.211  31.216  27.497  1.00  0.00     0.198 A 
ATOM     94  F   UNL A   1      47.876  29.627  29.097  1.00  0.00    -0.203 F 
ATOM     95  F   UNL A   1      43.915  32.240  26.403  1.00  0.00    -0.200 F 
ATOM     96  C   UNL A   1      46.212  31.885  26.808  1.00  0.00     0.200 A 
ATOM     97  F   UNL A   1      48.495  31.545  27.300  1.00  0.00    -0.200 F 
ATOM     98  F   UNL A   1      46.529  32.847  25.930  1.00  0.00    -0.200 F 
ENDBRANCH  65  88
ENDBRANCH  39  40
ENDBRANCH  31  34
ENDBRANCH  29  30
ENDBRANCH  28  29
ENDBRANCH   1  28
TORSDOF 13
ENDMDL
MODEL 2
REMARK VINA RESULT:     -13.2      3.073      8.723
REMARK SMILES C[N@@H+]1CCN(C(=O)c2cc(-n3cccn3)ccc2Cl)C[C@H]1C(=O)NCCCNC(=O)c1ccc(-c2c3nc(c(-c4c(F)c(F)c(F)c(F)c4F)c4ccc([nH]4)c(-c4c(F)c(F)c(F)c(F)c4F)c4nc(c(-c5c(F)c(F)c(F)c(F)c5F)c5ccc2[nH]5)C=C4)C=C3)cc1
REMARK SMILES IDX 25 1 24 2 22 3 23 4 21 6 1 7 2 8 3 9 4 11 20 12 5 13 6 14
REMARK SMILES IDX 7 15 8 16 9 17 18 18 10 19 17 20 19 21 16 22 11 23 12 24
REMARK SMILES IDX 15 25 13 26 14 27 26 28 27 29 28 30 29 31 30 33 31 34 32 35
REMARK SMILES IDX 93 36 33 37 92 38 34 39 35 40 36 41 86 42 37 43 91 44 85 45
REMARK SMILES IDX 87 46 38 47 90 48 84 49 83 50 39 52 71 53 51 54 70 55 52 56
REMARK SMILES IDX 55 57 69 58 88 59 53 60 54 61 68 63 89 64 56 65 40 66 41 67
REMARK SMILES IDX 49 68 42 69 43 70 47 71 50 72 44 73 45 74 48 75 46 76 72 77
REMARK SMILES IDX 73 78 81 79 74 80 75 81 79 82 82 83 76 84 77 85 80 86 78 87
REMARK SMILES IDX 57 88 58 89 66 90 59 91 60 92 64 93 67 94 61 95 62 96 65 97
REMARK SMILES IDX 63 98
REMARK H PARENT 24 5 2 10 28 32 87 51 55 62
REMARK Flexibility Score: inf
ROOT
ATOM      1  C   UNL A   1      35.457  23.201  24.742  1.00  0.00     0.118 C 
ENDROOT
BRANCH   1   2
ATOM      2  N   UNL A   1      35.043  23.262  23.345  1.00  0.00    -0.351 N 
ATOM      3  C   UNL A   1      33.783  23.211  22.815  1.00  0.00     0.280 C 
ATOM      4  O   UNL A   1      33.659  23.296  21.590  1.00  0.00    -0.268 OA
ATOM      5  H   UNL A   1      35.773  23.352  22.690  1.00  0.00     0.163 HD
BRANCH   3   6
ATOM      6  C   UNL A   1      32.557  23.094  23.730  1.00  0.00     0.293 C 
ATOM      7  C   UNL A   1      32.650  20.661  23.876  1.00  0.00     0.333 C 
ATOM      8  N   UNL A   1      32.678  21.915  24.640  1.00  0.00    -0.324 N 
ATOM      9  C   UNL A   1      31.567  21.933  25.616  1.00  0.00     0.284 C 
ATOM     10  H   UNL A   1      33.570  21.968  25.132  1.00  0.00     0.348 HD
ATOM     11  C   UNL A   1      31.500  23.252  26.409  1.00  0.00     0.181 C 
ATOM     12  C   UNL A   1      32.384  24.454  24.440  1.00  0.00     0.195 C 
ATOM     13  N   UNL A   1      31.409  24.420  25.531  1.00  0.00    -0.326 N 
BRANCH  13  14
ATOM     14  C   UNL A   1      30.657  25.514  25.942  1.00  0.00     0.255 C 
ATOM     15  O   UNL A   1      29.685  25.432  26.686  1.00  0.00    -0.269 OA
BRANCH  14  16
ATOM     16  C   UNL A   1      31.065  26.864  25.499  1.00  0.00     0.060 A 
ATOM     17  C   UNL A   1      32.105  27.493  26.204  1.00  0.00     0.043 A 
ATOM     18  C   UNL A   1      30.408  27.535  24.457  1.00  0.00     0.053 A 
ATOM     19  C   UNL A   1      32.460  28.806  25.871  1.00  0.00     0.065 A 
ATOM     20  C   UNL A   1      30.844  28.803  24.067  1.00  0.00     0.023 A 
ATOM     21  Cl  UNL A   1      29.046  26.873  23.622  1.00  0.00    -0.083 Cl
ATOM     22  C   UNL A   1      31.854  29.447  24.783  1.00  0.00     0.030 A 
BRANCH  19  23
ATOM     23  N   UNL A   1      33.398  29.510  26.665  1.00  0.00    -0.241 N 
ATOM     24  C   UNL A   1      34.623  29.043  27.091  1.00  0.00     0.115 A 
ATOM     25  N   UNL A   1      33.179  30.782  27.075  1.00  0.00    -0.177 NA
ATOM     26  C   UNL A   1      35.191  30.037  27.847  1.00  0.00     0.042 A 
ATOM     27  C   UNL A   1      34.238  31.069  27.837  1.00  0.00     0.135 A 
ENDBRANCH  19  23
ENDBRANCH  14  16
ENDBRANCH  13  14
ENDBRANCH   3   6
ENDBRANCH   1   2
BRANCH   1  28
ATOM     28  C   UNL A   1      36.702  22.355  24.978  1.00  0.00     0.042 C 
BRANCH  28  29
ATOM     29  C   UNL A   1      37.758  23.104  25.760  1.00  0.00     0.118 C 
BRANCH  29  30
ATOM     30  N   UNL A   1      38.689  22.222  26.471  1.00  0.00    -0.352 N 
ATOM     31  C   UNL A   1      39.903  22.561  27.052  1.00  0.00     0.251 C 
ATOM     32  H   UNL A   1      38.422  21.277  26.545  1.00  0.00     0.163 HD
ATOM     33  O   UNL A   1      40.729  21.727  27.351  1.00  0.00    -0.269 OA
BRANCH  31  34
ATOM     34  C   UNL A   1      40.148  23.992  27.295  1.00  0.00     0.039 A 
ATOM     35  C   UNL A   1      39.208  24.971  26.964  1.00  0.00     0.014 A 
ATOM     36  C   UNL A   1      41.313  24.311  27.980  1.00  0.00     0.014 A 
ATOM     37  C   UNL A   1      39.420  26.270  27.417  1.00  0.00     0.010 A 
ATOM     38  C   UNL A   1      41.399  25.517  28.609  1.00  0.00     0.010 A 
ATOM     39  C   UNL A   1      40.511  26.526  28.261  1.00  0.00    -0.014 A 
BRANCH  39  40
ATOM     40  C   UNL A   1      40.721  27.830  28.877  1.00  0.00     0.031 A 
ATOM     41  C   UNL A   1      41.857  28.610  28.312  1.00  0.00     0.074 A 
ATOM     42  C   UNL A   1      39.797  28.371  29.702  1.00  0.00     0.049 A 
ATOM     43  N   UNL A   1      42.935  28.988  28.914  1.00  0.00    -0.248 NA
ATOM     44  C   UNL A   1      41.855  28.897  26.867  1.00  0.00     0.031 C 
ATOM     45  C   UNL A   1      38.472  27.842  30.065  1.00  0.00     0.029 A 
ATOM     46  N   UNL A   1      39.799  29.583  30.313  1.00  0.00    -0.354 N 
ATOM     47  C   UNL A   1      43.663  29.727  27.980  1.00  0.00     0.074 A 
ATOM     48  C   UNL A   1      43.045  29.480  26.706  1.00  0.00     0.031 C 
ATOM     49  C   UNL A   1      37.721  28.822  30.611  1.00  0.00     0.029 A 
ATOM     50  C   UNL A   1      38.565  29.981  30.816  1.00  0.00     0.049 A 
ATOM     51  H   UNL A   1      40.610  30.137  30.394  1.00  0.00     0.167 HD
ATOM     52  C   UNL A   1      44.561  30.669  28.383  1.00  0.00     0.037 A 
ATOM     53  C   UNL A   1      38.260  31.192  31.342  1.00  0.00     0.037 A 
ATOM     54  C   UNL A   1      44.896  30.489  29.774  1.00  0.00     0.049 A 
ATOM     55  C   UNL A   1      39.545  31.850  31.689  1.00  0.00     0.074 A 
ATOM     56  C   UNL A   1      45.484  29.477  30.507  1.00  0.00     0.029 A 
ATOM     57  N   UNL A   1      44.260  31.293  30.689  1.00  0.00    -0.354 N 
ATOM     58  N   UNL A   1      40.346  31.423  32.627  1.00  0.00    -0.248 NA
ATOM     59  C   UNL A   1      40.163  32.684  30.669  1.00  0.00     0.031 C 
ATOM     60  C   UNL A   1      44.763  29.452  31.738  1.00  0.00     0.029 A 
ATOM     61  C   UNL A   1      43.838  30.496  31.720  1.00  0.00     0.049 A 
ATOM     62  H   UNL A   1      44.131  32.266  30.616  1.00  0.00     0.167 HD
ATOM     63  C   UNL A   1      41.619  31.567  32.097  1.00  0.00     0.074 A 
ATOM     64  C   UNL A   1      41.448  32.419  30.921  1.00  0.00     0.031 C 
ATOM     65  C   UNL A   1      42.638  30.746  32.485  1.00  0.00     0.037 A 
BRANCH  52  66
ATOM     66  C   UNL A   1      44.843  31.971  27.665  1.00  0.00     0.064 A 
ATOM     67  C   UNL A   1      46.061  32.110  26.964  1.00  0.00     0.173 A 
ATOM     68  C   UNL A   1      44.139  33.174  27.888  1.00  0.00     0.173 A 
ATOM     69  F   UNL A   1      46.820  31.037  26.690  1.00  0.00    -0.203 F 
ATOM     70  C   UNL A   1      46.580  33.360  26.619  1.00  0.00     0.198 A 
ATOM     71  C   UNL A   1      44.635  34.415  27.495  1.00  0.00     0.198 A 
ATOM     72  F   UNL A   1      43.002  33.219  28.591  1.00  0.00    -0.203 F 
ATOM     73  F   UNL A   1      47.806  33.446  26.084  1.00  0.00    -0.200 F 
ATOM     74  C   UNL A   1      45.872  34.513  26.895  1.00  0.00     0.200 A 
ATOM     75  F   UNL A   1      43.938  35.523  27.784  1.00  0.00    -0.200 F 
ATOM     76  F   UNL A   1      46.397  35.716  26.630  1.00  0.00    -0.200 F 
ENDBRANCH  52  66
BRANCH  53  77
ATOM     77  C   UNL A   1      36.978  31.928  31.267  1.00  0.00     0.064 A 
ATOM     78  C   UNL A   1      36.186  32.132  32.407  1.00  0.00     0.173 A 
ATOM     79  C   UNL A   1      36.641  32.684  30.126  1.00  0.00     0.173 A 
ATOM     80  F   UNL A   1      36.471  31.487  33.548  1.00  0.00    -0.203 F 
ATOM     81  C   UNL A   1      35.130  33.050  32.411  1.00  0.00     0.198 A 
ATOM     82  C   UNL A   1      35.587  33.598  30.131  1.00  0.00     0.198 A 
ATOM     83  F   UNL A   1      37.392  32.618  29.016  1.00  0.00    -0.203 F 
ATOM     84  F   UNL A   1      34.430  33.259  33.536  1.00  0.00    -0.200 F 
ATOM     85  C   UNL A   1      34.837  33.789  31.277  1.00  0.00     0.200 A 
ATOM     86  F   UNL A   1      35.342  34.337  29.040  1.00  0.00    -0.200 F 
ATOM     87  F   UNL A   1      33.866  34.713  31.300  1.00  0.00    -0.200 F 
ENDBRANCH  53  77
BRANCH  65  88
ATOM     88  C   UNL A   1      42.418  29.860  33.680  1.00  0.00     0.064 A 
ATOM     89  C   UNL A   1      41.916  28.548  33.610  1.00  0.00     0.173 A 
ATOM     90  C   UNL A   1      42.911  30.294  34.917  1.00  0.00     0.173 A 
ATOM     91  F   UNL A   1      41.508  28.026  32.447  1.00  0.00    -0.203 F 
ATOM     92  C   UNL A   1      41.889  27.722  34.733  1.00  0.00     0.198 A 
ATOM     93  C   UNL A   1      42.918  29.457  36.027  1.00  0.00     0.198 A 
ATOM     94  F   UNL A   1      43.450  31.518  35.030  1.00  0.00    -0.203 F 
ATOM     95  F   UNL A   1      41.408  26.473  34.639  1.00  0.00    -0.200 F 
ATOM     96  C   UNL A   1      42.401  28.174  35.937  1.00  0.00     0.200 A 
ATOM     97  F   UNL A   1      43.460  29.881  37.177  1.00  0.00    -0.200 F 
ATOM     98  F   UNL A   1      42.426  27.363  37.005  1.00  0.00    -0.200 F 
ENDBRANCH  65  88
ENDBRANCH  39  40
ENDBRANCH  31  34
ENDBRANCH  29  30
ENDBRANCH  28  29
ENDBRANCH   1  28
TORSDOF 13
ENDMDL
MODEL 3
REMARK VINA RESULT:     -13.1      1.543      2.207
REMARK SMILES C[N@@H+]1CCN(C(=O)c2cc(-n3cccn3)ccc2Cl)C[C@H]1C(=O)NCCCNC(=O)c1ccc(-c2c3nc(c(-c4c(F)c(F)c(F)c(F)c4F)c4ccc([nH]4)c(-c4c(F)c(F)c(F)c(F)c4F)c4nc(c(-c5c(F)c(F)c(F)c(F)c5F)c5ccc2[nH]5)C=C4)C=C3)cc1
REMARK SMILES IDX 25 1 24 2 22 3 23 4 21 6 1 7 2 8 3 9 4 11 20 12 5 13 6 14
REMARK SMILES IDX 7 15 8 16 9 17 18 18 10 19 17 20 19 21 16 22 11 23 12 24
REMARK SMILES IDX 15 25 13 26 14 27 26 28 27 29 28 30 29 31 30 33 31 34 32 35
REMARK SMILES IDX 93 36 33 37 92 38 34 39 35 40 36 41 86 42 37 43 91 44 85 45
REMARK SMILES IDX 87 46 38 47 90 48 84 49 83 50 39 52 71 53 51 54 70 55 52 56
REMARK SMILES IDX 55 57 69 58 88 59 53 60 54 61 68 63 89 64 56 65 40 66 41 67
REMARK SMILES IDX 49 68 42 69 43 70 47 71 50 72 44 73 45 74 48 75 46 76 72 77
REMARK SMILES IDX 73 78 81 79 74 80 75 81 79 82 82 83 76 84 77 85 80 86 78 87
REMARK SMILES IDX 57 88 58 89 66 90 59 91 60 92 64 93 67 94 61 95 62 96 65 97
REMARK SMILES IDX 63 98
REMARK H PARENT 24 5 2 10 28 32 87 51 55 62
REMARK Flexibility Score: inf
ROOT
ATOM      1  C   UNL A   1      32.805  29.504  25.617  1.00  0.00     0.118 C 
ENDROOT
BRANCH   1   2
ATOM      2  N   UNL A   1      33.516  29.235  24.372  1.00  0.00    -0.351 N 
ATOM      3  C   UNL A   1      33.483  28.118  23.583  1.00  0.00     0.280 C 
ATOM      4  O   UNL A   1      34.161  28.109  22.552  1.00  0.00    -0.268 OA
ATOM      5  H   UNL A   1      34.102  29.959  24.055  1.00  0.00     0.163 HD
BRANCH   3   6
ATOM      6  C   UNL A   1      32.591  26.926  23.956  1.00  0.00     0.293 C 
ATOM      7  C   UNL A   1      30.825  27.498  22.374  1.00  0.00     0.333 C 
ATOM      8  N   UNL A   1      31.790  26.468  22.781  1.00  0.00    -0.324 N 
ATOM      9  C   UNL A   1      31.076  25.221  23.131  1.00  0.00     0.284 C 
ATOM     10  H   UNL A   1      32.420  26.296  21.999  1.00  0.00     0.348 HD
ATOM     11  C   UNL A   1      32.026  24.117  23.630  1.00  0.00     0.181 C 
ATOM     12  C   UNL A   1      33.503  25.851  24.586  1.00  0.00     0.195 C 
ATOM     13  N   UNL A   1      32.839  24.559  24.764  1.00  0.00    -0.326 N 
BRANCH  13  14
ATOM     14  C   UNL A   1      33.168  23.642  25.755  1.00  0.00     0.255 C 
ATOM     15  O   UNL A   1      32.724  23.686  26.898  1.00  0.00    -0.269 OA
BRANCH  14  16
ATOM     16  C   UNL A   1      34.070  22.521  25.416  1.00  0.00     0.060 A 
ATOM     17  C   UNL A   1      33.486  21.268  25.167  1.00  0.00     0.043 A 
ATOM     18  C   UNL A   1      35.465  22.668  25.401  1.00  0.00     0.053 A 
ATOM     19  C   UNL A   1      34.312  20.163  24.930  1.00  0.00     0.065 A 
ATOM     20  C   UNL A   1      36.271  21.581  25.057  1.00  0.00     0.023 A 
ATOM     21  Cl  UNL A   1      36.261  24.147  25.810  1.00  0.00    -0.083 Cl
ATOM     22  C   UNL A   1      35.700  20.326  24.841  1.00  0.00     0.030 A 
BRANCH  19  23
ATOM     23  N   UNL A   1      33.751  18.866  24.829  1.00  0.00    -0.241 N 
ATOM     24  C   UNL A   1      34.344  17.762  24.256  1.00  0.00     0.115 A 
ATOM     25  N   UNL A   1      32.532  18.570  25.339  1.00  0.00    -0.177 NA
ATOM     26  C   UNL A   1      33.447  16.728  24.356  1.00  0.00     0.042 A 
ATOM     27  C   UNL A   1      32.333  17.295  24.995  1.00  0.00     0.135 A 
ENDBRANCH  19  23
ENDBRANCH  14  16
ENDBRANCH  13  14
ENDBRANCH   3   6
ENDBRANCH   1   2
BRANCH   1  28
ATOM     28  C   UNL A   1      33.596  29.141  26.867  1.00  0.00     0.042 C 
BRANCH  28  29
ATOM     29  C   UNL A   1      34.837  29.992  27.021  1.00  0.00     0.118 C 
BRANCH  29  30
ATOM     30  N   UNL A   1      34.588  31.266  27.703  1.00  0.00    -0.352 N 
ATOM     31  C   UNL A   1      35.128  31.707  28.902  1.00  0.00     0.251 C 
ATOM     32  H   UNL A   1      33.964  31.883  27.256  1.00  0.00     0.163 HD
ATOM     33  O   UNL A   1      34.647  32.627  29.527  1.00  0.00    -0.269 OA
BRANCH  31  34
ATOM     34  C   UNL A   1      36.327  31.003  29.391  1.00  0.00     0.039 A 
ATOM     35  C   UNL A   1      36.279  29.681  29.835  1.00  0.00     0.014 A 
ATOM     36  C   UNL A   1      37.532  31.685  29.274  1.00  0.00     0.014 A 
ATOM     37  C   UNL A   1      37.481  29.021  30.078  1.00  0.00     0.010 A 
ATOM     38  C   UNL A   1      38.694  30.974  29.290  1.00  0.00     0.010 A 
ATOM     39  C   UNL A   1      38.687  29.674  29.777  1.00  0.00    -0.014 A 
BRANCH  39  40
ATOM     40  C   UNL A   1      39.974  29.001  29.882  1.00  0.00     0.031 A 
ATOM     41  C   UNL A   1      40.502  28.877  31.268  1.00  0.00     0.074 A 
ATOM     42  C   UNL A   1      40.499  28.328  28.833  1.00  0.00     0.049 A 
ATOM     43  N   UNL A   1      41.579  29.397  31.756  1.00  0.00    -0.248 NA
ATOM     44  C   UNL A   1      39.666  28.199  32.274  1.00  0.00     0.031 C 
ATOM     45  C   UNL A   1      39.905  28.089  27.508  1.00  0.00     0.029 A 
ATOM     46  N   UNL A   1      41.646  27.604  28.768  1.00  0.00    -0.354 N 
ATOM     47  C   UNL A   1      41.661  28.954  33.077  1.00  0.00     0.074 A 
ATOM     48  C   UNL A   1      40.379  28.383  33.387  1.00  0.00     0.031 C 
ATOM     49  C   UNL A   1      40.566  27.092  26.882  1.00  0.00     0.029 A 
ATOM     50  C   UNL A   1      41.737  26.760  27.666  1.00  0.00     0.049 A 
ATOM     51  H   UNL A   1      42.358  27.672  29.445  1.00  0.00     0.167 HD
ATOM     52  C   UNL A   1      42.864  28.880  33.715  1.00  0.00     0.037 A 
ATOM     53  C   UNL A   1      42.700  25.835  27.435  1.00  0.00     0.037 A 
ATOM     54  C   UNL A   1      43.859  29.650  33.011  1.00  0.00     0.049 A 
ATOM     55  C   UNL A   1      43.850  26.179  28.310  1.00  0.00     0.074 A 
ATOM     56  C   UNL A   1      44.005  30.984  32.689  1.00  0.00     0.029 A 
ATOM     57  N   UNL A   1      44.719  28.969  32.183  1.00  0.00    -0.354 N 
ATOM     58  N   UNL A   1      44.571  27.257  28.165  1.00  0.00    -0.248 NA
ATOM     59  C   UNL A   1      43.884  25.574  29.633  1.00  0.00     0.031 C 
ATOM     60  C   UNL A   1      44.557  30.985  31.373  1.00  0.00     0.029 A 
ATOM     61  C   UNL A   1      44.793  29.660  31.003  1.00  0.00     0.049 A 
ATOM     62  H   UNL A   1      45.195  28.135  32.398  1.00  0.00     0.167 HD
ATOM     63  C   UNL A   1      44.800  27.704  29.458  1.00  0.00     0.074 A 
ATOM     64  C   UNL A   1      44.419  26.587  30.320  1.00  0.00     0.031 C 
ATOM     65  C   UNL A   1      44.991  29.030  29.718  1.00  0.00     0.037 A 
BRANCH  52  66
ATOM     66  C   UNL A   1      43.250  27.825  34.729  1.00  0.00     0.064 A 
ATOM     67  C   UNL A   1      43.607  28.235  36.031  1.00  0.00     0.173 A 
ATOM     68  C   UNL A   1      43.589  26.494  34.404  1.00  0.00     0.173 A 
ATOM     69  F   UNL A   1      43.337  29.479  36.457  1.00  0.00    -0.203 F 
ATOM     70  C   UNL A   1      44.341  27.415  36.893  1.00  0.00     0.198 A 
ATOM     71  C   UNL A   1      44.274  25.661  35.287  1.00  0.00     0.198 A 
ATOM     72  F   UNL A   1      43.376  25.975  33.191  1.00  0.00    -0.203 F 
ATOM     73  F   UNL A   1      44.778  27.902  38.063  1.00  0.00    -0.200 F 
ATOM     74  C   UNL A   1      44.684  26.132  36.516  1.00  0.00     0.200 A 
ATOM     75  F   UNL A   1      44.609  24.422  34.896  1.00  0.00    -0.200 F 
ATOM     76  F   UNL A   1      45.446  25.368  37.308  1.00  0.00    -0.200 F 
ENDBRANCH  52  66
BRANCH  53  77
ATOM     77  C   UNL A   1      42.570  24.523  26.762  1.00  0.00     0.064 A 
ATOM     78  C   UNL A   1      43.223  24.257  25.549  1.00  0.00     0.173 A 
ATOM     79  C   UNL A   1      42.023  23.413  27.437  1.00  0.00     0.173 A 
ATOM     80  F   UNL A   1      43.812  25.252  24.870  1.00  0.00    -0.203 F 
ATOM     81  C   UNL A   1      43.339  22.955  25.049  1.00  0.00     0.198 A 
ATOM     82  C   UNL A   1      42.138  22.115  26.937  1.00  0.00     0.198 A 
ATOM     83  F   UNL A   1      41.453  23.558  28.643  1.00  0.00    -0.203 F 
ATOM     84  F   UNL A   1      44.019  22.732  23.915  1.00  0.00    -0.200 F 
ATOM     85  C   UNL A   1      42.805  21.884  25.747  1.00  0.00     0.200 A 
ATOM     86  F   UNL A   1      41.654  21.084  27.643  1.00  0.00    -0.200 F 
ATOM     87  F   UNL A   1      42.970  20.631  25.300  1.00  0.00    -0.200 F 
ENDBRANCH  53  77
BRANCH  65  88
ATOM     88  C   UNL A   1      45.208  29.957  28.552  1.00  0.00     0.064 A 
ATOM     89  C   UNL A   1      44.176  30.634  27.879  1.00  0.00     0.173 A 
ATOM     90  C   UNL A   1      46.525  30.311  28.234  1.00  0.00     0.173 A 
ATOM     91  F   UNL A   1      42.892  30.419  28.188  1.00  0.00    -0.203 F 
ATOM     92  C   UNL A   1      44.455  31.603  26.915  1.00  0.00     0.198 A 
ATOM     93  C   UNL A   1      46.801  31.303  27.299  1.00  0.00     0.198 A 
ATOM     94  F   UNL A   1      47.549  29.735  28.883  1.00  0.00    -0.203 F 
ATOM     95  F   UNL A   1      43.453  32.238  26.289  1.00  0.00    -0.200 F 
ATOM     96  C   UNL A   1      45.768  31.944  26.636  1.00  0.00     0.200 A 
ATOM     97  F   UNL A   1      48.071  31.665  27.069  1.00  0.00    -0.200 F 
ATOM     98  F   UNL A   1      46.037  32.913  25.749  1.00  0.00    -0.200 F 
ENDBRANCH  65  88
ENDBRANCH  39  40
ENDBRANCH  31  34
ENDBRANCH  29  30
ENDBRANCH  28  29
ENDBRANCH   1  28
TORSDOF 13
ENDMDL
