MODEL 1
REMARK VINA RESULT:     -12.2      0.000      0.000
REMARK SMILES CC[C@H](NC(=O)NC[C@@]1(C)CCCO1)C(=O)NCCCNC(=O)c1ccc(-c2c3nc(c(-c4c(F)c(F)c(F)c(F)c4F)c4ccc([nH]4)c(-c4c(F)c(F)c(F)c(F)c4F)c4nc(c(-c5c(F)c(F)c(F)c(F)c5F)c5ccc2[nH]5)C=C4)C=C3)cc1
REMARK SMILES IDX 18 1 17 2 15 3 16 4 3 6 2 7 1 8 4 9 5 10 6 12 7 13 8 15 9 16
REMARK SMILES IDX 10 17 11 18 14 19 12 20 13 21 19 22 20 23 21 24 22 25 23 27
REMARK SMILES IDX 24 28 25 29 86 30 26 31 85 32 27 33 28 34 29 35 79 36 30 37
REMARK SMILES IDX 84 38 78 39 80 40 31 41 83 42 77 43 76 44 32 46 64 47 44 48
REMARK SMILES IDX 63 49 45 50 48 51 62 52 81 53 46 54 47 55 61 57 82 58 49 59
REMARK SMILES IDX 33 60 34 61 42 62 35 63 36 64 40 65 43 66 37 67 38 68 41 69
REMARK SMILES IDX 39 70 65 71 66 72 74 73 67 74 68 75 72 76 75 77 69 78 70 79
REMARK SMILES IDX 73 80 71 81 50 82 51 83 59 84 52 85 53 86 57 87 60 88 54 89
REMARK SMILES IDX 55 90 58 91 56 92
REMARK H PARENT 17 5 4 11 7 14 21 26 80 45 48 56
REMARK Flexibility Score: inf
ROOT
ATOM      1  C   UNL A   1      31.716  30.438  26.856  1.00  0.00     0.117 C 
ENDROOT
BRANCH   1   2
ATOM      2  N   UNL A   1      33.003  29.867  27.230  1.00  0.00    -0.354 N 
ATOM      3  C   UNL A   1      33.835  28.938  26.693  1.00  0.00     0.242 C 
ATOM      4  O   UNL A   1      35.008  28.976  27.096  1.00  0.00    -0.273 OA
ATOM      5  H   UNL A   1      33.352  30.244  28.070  1.00  0.00     0.163 HD
BRANCH   3   6
ATOM      6  C   UNL A   1      33.495  27.960  25.562  1.00  0.00     0.172 C 
BRANCH   6   7
ATOM      7  C   UNL A   1      33.920  26.527  25.985  1.00  0.00     0.032 C 
ATOM      8  C   UNL A   1      33.773  25.426  24.941  1.00  0.00     0.006 C 
ENDBRANCH   6   7
BRANCH   6   9
ATOM      9  N   UNL A   1      33.921  28.291  24.213  1.00  0.00    -0.326 N 
ATOM     10  C   UNL A   1      33.290  28.663  23.097  1.00  0.00     0.315 C 
ATOM     11  H   UNL A   1      34.895  28.228  24.096  1.00  0.00     0.166 HD
ATOM     12  O   UNL A   1      33.973  28.703  22.069  1.00  0.00    -0.249 OA
ATOM     13  N   UNL A   1      32.032  29.101  23.002  1.00  0.00    -0.335 N 
ATOM     14  H   UNL A   1      31.909  29.634  22.183  1.00  0.00     0.165 HD
BRANCH  13  15
ATOM     15  C   UNL A   1      30.780  29.021  23.764  1.00  0.00     0.152 C 
BRANCH  15  16
ATOM     16  C   UNL A   1      29.488  29.563  23.060  1.00  0.00     0.083 C 
ATOM     17  C   UNL A   1      28.354  28.528  23.050  1.00  0.00     0.044 C 
ATOM     18  C   UNL A   1      29.003  30.914  23.572  1.00  0.00     0.039 C 
ATOM     19  O   UNL A   1      29.756  29.869  21.666  1.00  0.00    -0.373 OA
ATOM     20  C   UNL A   1      28.085  31.382  22.464  1.00  0.00     0.031 C 
ATOM     21  C   UNL A   1      28.759  30.822  21.223  1.00  0.00     0.161 C 
ENDBRANCH  15  16
ENDBRANCH  13  15
ENDBRANCH   6   9
ENDBRANCH   3   6
ENDBRANCH   1   2
BRANCH   1  22
ATOM     22  C   UNL A   1      31.607  31.956  26.823  1.00  0.00     0.042 C 
BRANCH  22  23
ATOM     23  C   UNL A   1      32.737  32.822  27.379  1.00  0.00     0.118 C 
BRANCH  23  24
ATOM     24  N   UNL A   1      32.465  34.228  27.594  1.00  0.00    -0.352 N 
ATOM     25  C   UNL A   1      32.997  35.007  28.599  1.00  0.00     0.251 C 
ATOM     26  H   UNL A   1      31.845  34.666  26.966  1.00  0.00     0.163 HD
ATOM     27  O   UNL A   1      32.512  36.101  28.874  1.00  0.00    -0.269 OA
BRANCH  25  28
ATOM     28  C   UNL A   1      34.161  34.504  29.361  1.00  0.00     0.039 A 
ATOM     29  C   UNL A   1      33.979  33.943  30.627  1.00  0.00     0.014 A 
ATOM     30  C   UNL A   1      35.443  34.598  28.814  1.00  0.00     0.014 A 
ATOM     31  C   UNL A   1      35.080  33.418  31.315  1.00  0.00     0.010 A 
ATOM     32  C   UNL A   1      36.530  34.041  29.479  1.00  0.00     0.010 A 
ATOM     33  C   UNL A   1      36.359  33.437  30.732  1.00  0.00    -0.014 A 
BRANCH  33  34
ATOM     34  C   UNL A   1      37.525  32.785  31.380  1.00  0.00     0.031 A 
ATOM     35  C   UNL A   1      38.199  31.608  30.737  1.00  0.00     0.074 A 
ATOM     36  C   UNL A   1      37.898  33.189  32.609  1.00  0.00     0.049 A 
ATOM     37  N   UNL A   1      39.166  30.853  31.195  1.00  0.00    -0.248 NA
ATOM     38  C   UNL A   1      37.698  31.206  29.415  1.00  0.00     0.031 C 
ATOM     39  C   UNL A   1      37.273  34.276  33.362  1.00  0.00     0.029 A 
ATOM     40  N   UNL A   1      38.871  32.716  33.452  1.00  0.00    -0.354 N 
ATOM     41  C   UNL A   1      39.383  29.884  30.224  1.00  0.00     0.074 A 
ATOM     42  C   UNL A   1      38.413  30.116  29.175  1.00  0.00     0.031 C 
ATOM     43  C   UNL A   1      37.881  34.392  34.553  1.00  0.00     0.029 A 
ATOM     44  C   UNL A   1      38.916  33.368  34.661  1.00  0.00     0.049 A 
ATOM     45  H   UNL A   1      39.479  31.978  33.215  1.00  0.00     0.167 HD
ATOM     46  C   UNL A   1      40.318  28.903  30.205  1.00  0.00     0.037 A 
ATOM     47  C   UNL A   1      39.696  33.157  35.738  1.00  0.00     0.037 A 
ATOM     48  C   UNL A   1      41.280  28.681  31.254  1.00  0.00     0.049 A 
ATOM     49  C   UNL A   1      40.731  32.067  35.691  1.00  0.00     0.074 A 
ATOM     50  C   UNL A   1      42.305  27.752  31.307  1.00  0.00     0.029 A 
ATOM     51  N   UNL A   1      41.327  29.394  32.445  1.00  0.00    -0.354 N 
ATOM     52  N   UNL A   1      40.987  31.210  34.733  1.00  0.00    -0.248 NA
ATOM     53  C   UNL A   1      41.595  31.922  36.871  1.00  0.00     0.031 C 
ATOM     54  C   UNL A   1      42.941  27.872  32.548  1.00  0.00     0.029 A 
ATOM     55  C   UNL A   1      42.350  28.913  33.247  1.00  0.00     0.049 A 
ATOM     56  H   UNL A   1      40.722  30.133  32.684  1.00  0.00     0.167 HD
ATOM     57  C   UNL A   1      42.058  30.448  35.175  1.00  0.00     0.074 A 
ATOM     58  C   UNL A   1      42.410  30.948  36.489  1.00  0.00     0.031 C 
ATOM     59  C   UNL A   1      42.696  29.431  34.547  1.00  0.00     0.037 A 
BRANCH  46  60
ATOM     60  C   UNL A   1      40.338  27.991  29.009  1.00  0.00     0.064 A 
ATOM     61  C   UNL A   1      41.098  28.290  27.867  1.00  0.00     0.173 A 
ATOM     62  C   UNL A   1      39.604  26.795  29.009  1.00  0.00     0.173 A 
ATOM     63  F   UNL A   1      41.815  29.423  27.812  1.00  0.00    -0.203 F 
ATOM     64  C   UNL A   1      41.086  27.453  26.755  1.00  0.00     0.198 A 
ATOM     65  C   UNL A   1      39.621  25.942  27.907  1.00  0.00     0.198 A 
ATOM     66  F   UNL A   1      38.869  26.450  30.076  1.00  0.00    -0.203 F 
ATOM     67  F   UNL A   1      41.768  27.794  25.653  1.00  0.00    -0.200 F 
ATOM     68  C   UNL A   1      40.350  26.277  26.777  1.00  0.00     0.200 A 
ATOM     69  F   UNL A   1      38.921  24.799  27.936  1.00  0.00    -0.200 F 
ATOM     70  F   UNL A   1      40.338  25.473  25.705  1.00  0.00    -0.200 F 
ENDBRANCH  46  60
BRANCH  47  71
ATOM     71  C   UNL A   1      39.547  34.029  36.931  1.00  0.00     0.064 A 
ATOM     72  C   UNL A   1      38.775  33.620  38.027  1.00  0.00     0.173 A 
ATOM     73  C   UNL A   1      40.195  35.270  37.015  1.00  0.00     0.173 A 
ATOM     74  F   UNL A   1      38.124  32.449  37.987  1.00  0.00    -0.203 F 
ATOM     75  C   UNL A   1      38.648  34.423  39.158  1.00  0.00     0.198 A 
ATOM     76  C   UNL A   1      40.088  36.061  38.158  1.00  0.00     0.198 A 
ATOM     77  F   UNL A   1      40.953  35.702  35.997  1.00  0.00    -0.203 F 
ATOM     78  F   UNL A   1      37.878  34.023  40.179  1.00  0.00    -0.200 F 
ATOM     79  C   UNL A   1      39.311  35.640  39.226  1.00  0.00     0.200 A 
ATOM     80  F   UNL A   1      40.746  37.227  38.227  1.00  0.00    -0.200 F 
ATOM     81  F   UNL A   1      39.200  36.406  40.319  1.00  0.00    -0.200 F 
ENDBRANCH  47  71
BRANCH  59  82
ATOM     82  C   UNL A   1      43.873  28.815  35.247  1.00  0.00     0.064 A 
ATOM     83  C   UNL A   1      43.727  27.743  36.138  1.00  0.00     0.173 A 
ATOM     84  C   UNL A   1      45.172  29.273  34.975  1.00  0.00     0.173 A 
ATOM     85  F   UNL A   1      42.505  27.280  36.443  1.00  0.00    -0.203 F 
ATOM     86  C   UNL A   1      44.838  27.163  36.746  1.00  0.00     0.198 A 
ATOM     87  C   UNL A   1      46.281  28.671  35.562  1.00  0.00     0.198 A 
ATOM     88  F   UNL A   1      45.366  30.293  34.126  1.00  0.00    -0.203 F 
ATOM     89  F   UNL A   1      44.673  26.164  37.626  1.00  0.00    -0.200 F 
ATOM     90  C   UNL A   1      46.113  27.620  36.450  1.00  0.00     0.200 A 
ATOM     91  F   UNL A   1      47.513  29.106  35.264  1.00  0.00    -0.200 F 
ATOM     92  F   UNL A   1      47.181  27.051  37.026  1.00  0.00    -0.200 F 
ENDBRANCH  59  82
ENDBRANCH  33  34
ENDBRANCH  25  28
ENDBRANCH  23  24
ENDBRANCH  22  23
ENDBRANCH   1  22
TORSDOF 14
ENDMDL
MODEL 2
REMARK VINA RESULT:     -12.1      0.196      1.632
REMARK SMILES CC[C@H](NC(=O)NC[C@@]1(C)CCCO1)C(=O)NCCCNC(=O)c1ccc(-c2c3nc(c(-c4c(F)c(F)c(F)c(F)c4F)c4ccc([nH]4)c(-c4c(F)c(F)c(F)c(F)c4F)c4nc(c(-c5c(F)c(F)c(F)c(F)c5F)c5ccc2[nH]5)C=C4)C=C3)cc1
REMARK SMILES IDX 18 1 17 2 15 3 16 4 3 6 2 7 1 8 4 9 5 10 6 12 7 13 8 15 9 16
REMARK SMILES IDX 10 17 11 18 14 19 12 20 13 21 19 22 20 23 21 24 22 25 23 27
REMARK SMILES IDX 24 28 25 29 86 30 26 31 85 32 27 33 28 34 29 35 79 36 30 37
REMARK SMILES IDX 84 38 78 39 80 40 31 41 83 42 77 43 76 44 32 46 64 47 44 48
REMARK SMILES IDX 63 49 45 50 48 51 62 52 81 53 46 54 47 55 61 57 82 58 49 59
REMARK SMILES IDX 33 60 34 61 42 62 35 63 36 64 40 65 43 66 37 67 38 68 41 69
REMARK SMILES IDX 39 70 65 71 66 72 74 73 67 74 68 75 72 76 75 77 69 78 70 79
REMARK SMILES IDX 73 80 71 81 50 82 51 83 59 84 52 85 53 86 57 87 60 88 54 89
REMARK SMILES IDX 55 90 58 91 56 92
REMARK H PARENT 17 5 4 11 7 14 21 26 80 45 48 56
REMARK Flexibility Score: inf
ROOT
ATOM      1  C   UNL A   1      31.803  30.648  26.414  1.00  0.00     0.117 C 
ENDROOT
BRANCH   1   2
ATOM      2  N   UNL A   1      33.018  30.001  26.894  1.00  0.00    -0.354 N 
ATOM      3  C   UNL A   1      33.764  28.939  26.493  1.00  0.00     0.242 C 
ATOM      4  O   UNL A   1      34.925  28.910  26.930  1.00  0.00    -0.273 OA
ATOM      5  H   UNL A   1      33.383  30.436  27.697  1.00  0.00     0.163 HD
BRANCH   3   6
ATOM      6  C   UNL A   1      33.354  27.875  25.468  1.00  0.00     0.172 C 
BRANCH   6   7
ATOM      7  C   UNL A   1      33.739  26.472  26.010  1.00  0.00     0.032 C 
ATOM      8  C   UNL A   1      34.380  25.503  25.025  1.00  0.00     0.006 C 
ENDBRANCH   6   7
BRANCH   6   9
ATOM      9  N   UNL A   1      33.750  28.065  24.083  1.00  0.00    -0.326 N 
ATOM     10  C   UNL A   1      33.096  28.332  22.950  1.00  0.00     0.315 C 
ATOM     11  H   UNL A   1      34.721  27.977  23.950  1.00  0.00     0.166 HD
ATOM     12  O   UNL A   1      33.754  28.259  21.908  1.00  0.00    -0.249 OA
ATOM     13  N   UNL A   1      31.841  28.776  22.841  1.00  0.00    -0.335 N 
ATOM     14  H   UNL A   1      31.704  29.227  21.977  1.00  0.00     0.165 HD
BRANCH  13  15
ATOM     15  C   UNL A   1      30.608  28.790  23.637  1.00  0.00     0.152 C 
BRANCH  15  16
ATOM     16  C   UNL A   1      29.355  29.473  22.986  1.00  0.00     0.083 C 
ATOM     17  C   UNL A   1      28.123  28.556  22.994  1.00  0.00     0.044 C 
ATOM     18  C   UNL A   1      29.023  30.854  23.540  1.00  0.00     0.039 C 
ATOM     19  O   UNL A   1      29.609  29.782  21.590  1.00  0.00    -0.373 OA
ATOM     20  C   UNL A   1      28.123  31.435  22.472  1.00  0.00     0.031 C 
ATOM     21  C   UNL A   1      28.699  30.838  21.198  1.00  0.00     0.161 C 
ENDBRANCH  15  16
ENDBRANCH  13  15
ENDBRANCH   6   9
ENDBRANCH   3   6
ENDBRANCH   1   2
BRANCH   1  22
ATOM     22  C   UNL A   1      31.552  32.081  26.859  1.00  0.00     0.042 C 
BRANCH  22  23
ATOM     23  C   UNL A   1      32.687  32.914  27.453  1.00  0.00     0.118 C 
BRANCH  23  24
ATOM     24  N   UNL A   1      32.457  34.332  27.639  1.00  0.00    -0.352 N 
ATOM     25  C   UNL A   1      33.018  35.117  28.624  1.00  0.00     0.251 C 
ATOM     26  H   UNL A   1      31.845  34.774  27.006  1.00  0.00     0.163 HD
ATOM     27  O   UNL A   1      32.566  36.230  28.878  1.00  0.00    -0.269 OA
BRANCH  25  28
ATOM     28  C   UNL A   1      34.172  34.598  29.389  1.00  0.00     0.039 A 
ATOM     29  C   UNL A   1      33.981  34.059  30.663  1.00  0.00     0.014 A 
ATOM     30  C   UNL A   1      35.454  34.653  28.836  1.00  0.00     0.014 A 
ATOM     31  C   UNL A   1      35.072  33.518  31.355  1.00  0.00     0.010 A 
ATOM     32  C   UNL A   1      36.530  34.080  29.506  1.00  0.00     0.010 A 
ATOM     33  C   UNL A   1      36.349  33.498  30.768  1.00  0.00    -0.014 A 
BRANCH  33  34
ATOM     34  C   UNL A   1      37.502  32.829  31.421  1.00  0.00     0.031 A 
ATOM     35  C   UNL A   1      38.159  31.640  30.782  1.00  0.00     0.074 A 
ATOM     36  C   UNL A   1      37.876  33.228  32.652  1.00  0.00     0.049 A 
ATOM     37  N   UNL A   1      39.112  30.870  31.245  1.00  0.00    -0.248 NA
ATOM     38  C   UNL A   1      37.657  31.245  29.458  1.00  0.00     0.031 C 
ATOM     39  C   UNL A   1      37.267  34.326  33.401  1.00  0.00     0.029 A 
ATOM     40  N   UNL A   1      38.839  32.740  33.499  1.00  0.00    -0.354 N 
ATOM     41  C   UNL A   1      39.318  29.897  30.276  1.00  0.00     0.074 A 
ATOM     42  C   UNL A   1      38.356  30.143  29.223  1.00  0.00     0.031 C 
ATOM     43  C   UNL A   1      37.872  34.433  34.594  1.00  0.00     0.029 A 
ATOM     44  C   UNL A   1      38.889  33.393  34.707  1.00  0.00     0.049 A 
ATOM     45  H   UNL A   1      39.436  31.992  33.265  1.00  0.00     0.167 HD
ATOM     46  C   UNL A   1      40.237  28.900  30.261  1.00  0.00     0.037 A 
ATOM     47  C   UNL A   1      39.661  33.170  35.787  1.00  0.00     0.037 A 
ATOM     48  C   UNL A   1      41.190  28.664  31.315  1.00  0.00     0.049 A 
ATOM     49  C   UNL A   1      40.679  32.064  35.746  1.00  0.00     0.074 A 
ATOM     50  C   UNL A   1      42.200  27.719  31.373  1.00  0.00     0.029 A 
ATOM     51  N   UNL A   1      41.244  29.377  32.506  1.00  0.00    -0.354 N 
ATOM     52  N   UNL A   1      40.924  31.202  34.790  1.00  0.00    -0.248 NA
ATOM     53  C   UNL A   1      41.536  31.907  36.929  1.00  0.00     0.031 C 
ATOM     54  C   UNL A   1      42.833  27.829  32.617  1.00  0.00     0.029 A 
ATOM     55  C   UNL A   1      42.256  28.881  33.312  1.00  0.00     0.049 A 
ATOM     56  H   UNL A   1      40.650  30.126  32.742  1.00  0.00     0.167 HD
ATOM     57  C   UNL A   1      41.981  30.423  35.237  1.00  0.00     0.074 A 
ATOM     58  C   UNL A   1      42.336  30.919  36.552  1.00  0.00     0.031 C 
ATOM     59  C   UNL A   1      42.605  29.395  34.613  1.00  0.00     0.037 A 
BRANCH  46  60
ATOM     60  C   UNL A   1      40.246  27.987  29.067  1.00  0.00     0.064 A 
ATOM     61  C   UNL A   1      39.522  26.784  29.054  1.00  0.00     0.173 A 
ATOM     62  C   UNL A   1      40.973  28.322  27.915  1.00  0.00     0.173 A 
ATOM     63  F   UNL A   1      38.814  26.411  30.131  1.00  0.00    -0.203 F 
ATOM     64  C   UNL A   1      39.562  25.931  27.954  1.00  0.00     0.198 A 
ATOM     65  C   UNL A   1      40.984  27.483  26.802  1.00  0.00     0.198 A 
ATOM     66  F   UNL A   1      41.674  29.464  27.864  1.00  0.00    -0.203 F 
ATOM     67  F   UNL A   1      38.915  24.759  27.993  1.00  0.00    -0.200 F 
ATOM     68  C   UNL A   1      40.290  26.284  26.827  1.00  0.00     0.200 A 
ATOM     69  F   UNL A   1      41.675  27.833  25.708  1.00  0.00    -0.200 F 
ATOM     70  F   UNL A   1      40.329  25.462  25.770  1.00  0.00    -0.200 F 
ENDBRANCH  46  60
BRANCH  47  71
ATOM     71  C   UNL A   1      39.522  34.046  36.979  1.00  0.00     0.064 A 
ATOM     72  C   UNL A   1      38.750  33.645  38.079  1.00  0.00     0.173 A 
ATOM     73  C   UNL A   1      40.178  35.283  37.059  1.00  0.00     0.173 A 
ATOM     74  F   UNL A   1      38.091  32.478  38.042  1.00  0.00    -0.203 F 
ATOM     75  C   UNL A   1      38.631  34.452  39.208  1.00  0.00     0.198 A 
ATOM     76  C   UNL A   1      40.080  36.077  38.199  1.00  0.00     0.198 A 
ATOM     77  F   UNL A   1      40.937  35.707  36.037  1.00  0.00    -0.203 F 
ATOM     78  F   UNL A   1      37.862  34.059  40.231  1.00  0.00    -0.200 F 
ATOM     79  C   UNL A   1      39.303  35.664  39.271  1.00  0.00     0.200 A 
ATOM     80  F   UNL A   1      40.746  37.239  38.264  1.00  0.00    -0.200 F 
ATOM     81  F   UNL A   1      39.200  36.433  40.363  1.00  0.00    -0.200 F 
ENDBRANCH  47  71
BRANCH  59  82
ATOM     82  C   UNL A   1      43.770  28.761  35.319  1.00  0.00     0.064 A 
ATOM     83  C   UNL A   1      45.083  29.211  35.130  1.00  0.00     0.173 A 
ATOM     84  C   UNL A   1      43.555  27.725  36.240  1.00  0.00     0.173 A 
ATOM     85  F   UNL A   1      45.343  30.189  34.249  1.00  0.00    -0.203 F 
ATOM     86  C   UNL A   1      46.143  28.634  35.825  1.00  0.00     0.198 A 
ATOM     87  C   UNL A   1      44.612  27.170  36.954  1.00  0.00     0.198 A 
ATOM     88  F   UNL A   1      42.315  27.260  36.460  1.00  0.00    -0.203 F 
ATOM     89  F   UNL A   1      47.397  29.053  35.601  1.00  0.00    -0.200 F 
ATOM     90  C   UNL A   1      45.906  27.622  36.743  1.00  0.00     0.200 A 
ATOM     91  F   UNL A   1      44.379  26.201  37.850  1.00  0.00    -0.200 F 
ATOM     92  F   UNL A   1      46.926  27.077  37.421  1.00  0.00    -0.200 F 
ENDBRANCH  59  82
ENDBRANCH  33  34
ENDBRANCH  25  28
ENDBRANCH  23  24
ENDBRANCH  22  23
ENDBRANCH   1  22
TORSDOF 14
ENDMDL
MODEL 3
REMARK VINA RESULT:     -12.1      0.448      7.450
REMARK SMILES CC[C@H](NC(=O)NC[C@@]1(C)CCCO1)C(=O)NCCCNC(=O)c1ccc(-c2c3nc(c(-c4c(F)c(F)c(F)c(F)c4F)c4ccc([nH]4)c(-c4c(F)c(F)c(F)c(F)c4F)c4nc(c(-c5c(F)c(F)c(F)c(F)c5F)c5ccc2[nH]5)C=C4)C=C3)cc1
REMARK SMILES IDX 18 1 17 2 15 3 16 4 3 6 2 7 1 8 4 9 5 10 6 12 7 13 8 15 9 16
REMARK SMILES IDX 10 17 11 18 14 19 12 20 13 21 19 22 20 23 21 24 22 25 23 27
REMARK SMILES IDX 24 28 25 29 86 30 26 31 85 32 27 33 28 34 29 35 79 36 30 37
REMARK SMILES IDX 84 38 78 39 80 40 31 41 83 42 77 43 76 44 32 46 64 47 44 48
REMARK SMILES IDX 63 49 45 50 48 51 62 52 81 53 46 54 47 55 61 57 82 58 49 59
REMARK SMILES IDX 33 60 34 61 42 62 35 63 36 64 40 65 43 66 37 67 38 68 41 69
REMARK SMILES IDX 39 70 65 71 66 72 74 73 67 74 68 75 72 76 75 77 69 78 70 79
REMARK SMILES IDX 73 80 71 81 50 82 51 83 59 84 52 85 53 86 57 87 60 88 54 89
REMARK SMILES IDX 55 90 58 91 56 92
REMARK H PARENT 17 5 4 11 7 14 21 26 80 45 48 56
REMARK Flexibility Score: inf
ROOT
ATOM      1  C   UNL A   1      31.570  30.938  26.446  1.00  0.00     0.117 C 
ENDROOT
BRANCH   1   2
ATOM      2  N   UNL A   1      32.593  30.169  27.143  1.00  0.00    -0.354 N 
ATOM      3  C   UNL A   1      33.349  29.080  26.843  1.00  0.00     0.242 C 
ATOM      4  O   UNL A   1      34.367  28.932  27.537  1.00  0.00    -0.273 OA
ATOM      5  H   UNL A   1      32.780  30.521  28.042  1.00  0.00     0.163 HD
BRANCH   3   6
ATOM      6  C   UNL A   1      33.133  28.120  25.667  1.00  0.00     0.172 C 
BRANCH   6   7
ATOM      7  C   UNL A   1      33.586  26.695  26.085  1.00  0.00     0.032 C 
ATOM      8  C   UNL A   1      34.036  25.758  24.971  1.00  0.00     0.006 C 
ENDBRANCH   6   7
BRANCH   6   9
ATOM      9  N   UNL A   1      33.642  28.506  24.362  1.00  0.00    -0.326 N 
ATOM     10  C   UNL A   1      33.080  28.800  23.187  1.00  0.00     0.315 C 
ATOM     11  H   UNL A   1      34.624  28.563  24.339  1.00  0.00     0.166 HD
ATOM     12  O   UNL A   1      33.849  28.926  22.229  1.00  0.00    -0.249 OA
ATOM     13  N   UNL A   1      31.793  29.080  22.969  1.00  0.00    -0.335 N 
ATOM     14  H   UNL A   1      31.684  29.596  22.138  1.00  0.00     0.165 HD
BRANCH  13  15
ATOM     15  C   UNL A   1      30.493  28.845  23.609  1.00  0.00     0.152 C 
BRANCH  15  16
ATOM     16  C   UNL A   1      29.256  29.585  22.991  1.00  0.00     0.083 C 
ATOM     17  C   UNL A   1      27.985  28.724  23.028  1.00  0.00     0.044 C 
ATOM     18  C   UNL A   1      29.001  30.978  23.555  1.00  0.00     0.039 C 
ATOM     19  O   UNL A   1      29.489  29.886  21.589  1.00  0.00    -0.373 OA
ATOM     20  C   UNL A   1      28.101  31.602  22.511  1.00  0.00     0.031 C 
ATOM     21  C   UNL A   1      28.618  30.983  21.222  1.00  0.00     0.161 C 
ENDBRANCH  15  16
ENDBRANCH  13  15
ENDBRANCH   6   9
ENDBRANCH   3   6
ENDBRANCH   1   2
BRANCH   1  22
ATOM     22  C   UNL A   1      31.554  32.442  26.669  1.00  0.00     0.042 C 
BRANCH  22  23
ATOM     23  C   UNL A   1      32.610  33.102  27.555  1.00  0.00     0.118 C 
BRANCH  23  24
ATOM     24  N   UNL A   1      32.506  34.529  27.778  1.00  0.00    -0.352 N 
ATOM     25  C   UNL A   1      33.134  35.235  28.783  1.00  0.00     0.251 C 
ATOM     26  H   UNL A   1      31.937  35.041  27.157  1.00  0.00     0.163 HD
ATOM     27  O   UNL A   1      32.783  36.377  29.066  1.00  0.00    -0.269 OA
BRANCH  25  28
ATOM     28  C   UNL A   1      34.237  34.596  29.533  1.00  0.00     0.039 A 
ATOM     29  C   UNL A   1      33.993  34.028  30.786  1.00  0.00     0.014 A 
ATOM     30  C   UNL A   1      35.522  34.566  28.987  1.00  0.00     0.014 A 
ATOM     31  C   UNL A   1      35.032  33.374  31.461  1.00  0.00     0.010 A 
ATOM     32  C   UNL A   1      36.544  33.882  29.640  1.00  0.00     0.010 A 
ATOM     33  C   UNL A   1      36.307  33.271  30.878  1.00  0.00    -0.014 A 
BRANCH  33  34
ATOM     34  C   UNL A   1      37.397  32.486  31.510  1.00  0.00     0.031 A 
ATOM     35  C   UNL A   1      37.930  32.868  32.861  1.00  0.00     0.074 A 
ATOM     36  C   UNL A   1      37.983  31.499  30.806  1.00  0.00     0.049 A 
ATOM     37  N   UNL A   1      38.938  32.363  33.528  1.00  0.00    -0.248 NA
ATOM     38  C   UNL A   1      37.260  33.986  33.539  1.00  0.00     0.031 C 
ATOM     39  C   UNL A   1      37.597  31.085  29.457  1.00  0.00     0.029 A 
ATOM     40  N   UNL A   1      39.044  30.686  31.114  1.00  0.00    -0.354 N 
ATOM     41  C   UNL A   1      39.028  33.105  34.698  1.00  0.00     0.074 A 
ATOM     42  C   UNL A   1      38.006  34.127  34.626  1.00  0.00     0.031 C 
ATOM     43  C   UNL A   1      38.404  30.092  29.055  1.00  0.00     0.029 A 
ATOM     44  C   UNL A   1      39.384  29.821  30.102  1.00  0.00     0.049 A 
ATOM     45  H   UNL A   1      39.518  30.719  31.976  1.00  0.00     0.167 HD
ATOM     46  C   UNL A   1      39.876  32.937  35.742  1.00  0.00     0.037 A 
ATOM     47  C   UNL A   1      40.380  28.918  30.024  1.00  0.00     0.037 A 
ATOM     48  C   UNL A   1      40.890  31.916  35.804  1.00  0.00     0.049 A 
ATOM     49  C   UNL A   1      41.304  28.742  31.197  1.00  0.00     0.074 A 
ATOM     50  C   UNL A   1      41.763  31.622  36.837  1.00  0.00     0.029 A 
ATOM     51  N   UNL A   1      41.175  31.023  34.778  1.00  0.00    -0.354 N 
ATOM     52  N   UNL A   1      41.328  29.392  32.335  1.00  0.00    -0.248 NA
ATOM     53  C   UNL A   1      42.334  27.700  31.081  1.00  0.00     0.031 C 
ATOM     54  C   UNL A   1      42.605  30.586  36.420  1.00  0.00     0.029 A 
ATOM     55  C   UNL A   1      42.221  30.192  35.147  1.00  0.00     0.049 A 
ATOM     56  H   UNL A   1      40.702  30.986  33.915  1.00  0.00     0.167 HD
ATOM     57  C   UNL A   1      42.346  28.819  33.083  1.00  0.00     0.074 A 
ATOM     58  C   UNL A   1      42.916  27.764  32.270  1.00  0.00     0.031 C 
ATOM     59  C   UNL A   1      42.767  29.136  34.331  1.00  0.00     0.037 A 
BRANCH  46  60
ATOM     60  C   UNL A   1      39.744  33.887  36.900  1.00  0.00     0.064 A 
ATOM     61  C   UNL A   1      40.433  35.110  36.931  1.00  0.00     0.173 A 
ATOM     62  C   UNL A   1      38.907  33.582  37.984  1.00  0.00     0.173 A 
ATOM     63  F   UNL A   1      41.250  35.450  35.922  1.00  0.00    -0.203 F 
ATOM     64  C   UNL A   1      40.326  35.969  38.022  1.00  0.00     0.198 A 
ATOM     65  C   UNL A   1      38.776  34.459  39.059  1.00  0.00     0.198 A 
ATOM     66  F   UNL A   1      38.215  32.434  38.004  1.00  0.00    -0.203 F 
ATOM     67  F   UNL A   1      41.045  37.099  38.056  1.00  0.00    -0.200 F 
ATOM     68  C   UNL A   1      39.494  35.645  39.084  1.00  0.00     0.200 A 
ATOM     69  F   UNL A   1      37.960  34.152  40.077  1.00  0.00    -0.200 F 
ATOM     70  F   UNL A   1      39.394  36.471  40.133  1.00  0.00    -0.200 F 
ENDBRANCH  46  60
BRANCH  47  71
ATOM     71  C   UNL A   1      40.519  28.085  28.802  1.00  0.00     0.064 A 
ATOM     72  C   UNL A   1      39.840  26.864  28.684  1.00  0.00     0.173 A 
ATOM     73  C   UNL A   1      41.304  28.503  27.718  1.00  0.00     0.173 A 
ATOM     74  F   UNL A   1      39.090  26.415  29.701  1.00  0.00    -0.203 F 
ATOM     75  C   UNL A   1      39.950  26.088  27.533  1.00  0.00     0.198 A 
ATOM     76  C   UNL A   1      41.392  27.738  26.556  1.00  0.00     0.198 A 
ATOM     77  F   UNL A   1      41.966  29.668  27.777  1.00  0.00    -0.203 F 
ATOM     78  F   UNL A   1      39.315  24.910  27.458  1.00  0.00    -0.200 F 
ATOM     79  C   UNL A   1      40.719  26.529  26.466  1.00  0.00     0.200 A 
ATOM     80  F   UNL A   1      42.122  28.177  25.520  1.00  0.00    -0.200 F 
ATOM     81  F   UNL A   1      40.813  25.789  25.353  1.00  0.00    -0.200 F 
ENDBRANCH  47  71
BRANCH  59  82
ATOM     82  C   UNL A   1      43.868  28.304  34.922  1.00  0.00     0.064 A 
ATOM     83  C   UNL A   1      45.216  28.672  34.812  1.00  0.00     0.173 A 
ATOM     84  C   UNL A   1      43.560  27.149  35.658  1.00  0.00     0.173 A 
ATOM     85  F   UNL A   1      45.564  29.759  34.106  1.00  0.00    -0.203 F 
ATOM     86  C   UNL A   1      46.217  27.905  35.402  1.00  0.00     0.198 A 
ATOM     87  C   UNL A   1      44.561  26.401  36.271  1.00  0.00     0.198 A 
ATOM     88  F   UNL A   1      42.285  26.755  35.798  1.00  0.00    -0.203 F 
ATOM     89  F   UNL A   1      47.503  28.253  35.251  1.00  0.00    -0.200 F 
ATOM     90  C   UNL A   1      45.889  26.776  36.139  1.00  0.00     0.200 A 
ATOM     91  F   UNL A   1      44.239  25.318  36.993  1.00  0.00    -0.200 F 
ATOM     92  F   UNL A   1      46.853  26.047  36.717  1.00  0.00    -0.200 F 
ENDBRANCH  59  82
ENDBRANCH  33  34
ENDBRANCH  25  28
ENDBRANCH  23  24
ENDBRANCH  22  23
ENDBRANCH   1  22
TORSDOF 14
ENDMDL
