MODEL 1
REMARK VINA RESULT:     -13.2      0.000      0.000
REMARK SMILES O=C(NCCCNC(=O)c1ccc(F)cc1NC(=O)[C@H]1CCS(=O)(=O)C1)c1ccc(-c2c3nc(c(-c4c(F)c(F)c(F)c(F)c4F)c4ccc([nH]4)c(-c4c(F)c(F)c(F)c(F)c4F)c4nc(c(-c5c(F)c(F)c(F)c(F)c5F)c5ccc2[nH]5)C=C4)C=C3)cc1
REMARK SMILES IDX 5 1 4 2 3 3 1 4 2 5 27 7 28 8 89 9 29 10 88 11 30 12 31 13
REMARK SMILES IDX 32 14 82 15 33 16 87 17 81 18 83 19 34 20 86 21 80 22 79 23
REMARK SMILES IDX 35 25 67 26 47 27 66 28 48 29 51 30 65 31 84 32 49 33 50 34
REMARK SMILES IDX 64 36 85 37 52 38 36 39 37 40 45 41 38 42 39 43 43 44 46 45
REMARK SMILES IDX 40 46 41 47 44 48 42 49 68 50 69 51 77 52 70 53 71 54 75 55
REMARK SMILES IDX 78 56 72 57 73 58 76 59 74 60 53 61 54 62 62 63 55 64 56 65
REMARK SMILES IDX 60 66 63 67 57 68 58 69 61 70 59 71 6 72 7 73 8 74 9 76
REMARK SMILES IDX 10 77 11 78 16 79 12 80 15 81 13 82 14 83 17 84 18 85 19 87
REMARK SMILES IDX 20 88 21 89 26 90 22 91 23 92 24 93 25 94
REMARK H PARENT 3 6 83 24 51 35 7 75 17 86
REMARK Flexibility Score: inf
ROOT
ATOM      1  C   UNL A   1      31.404  32.095  26.744  1.00  0.00     0.042 C 
ENDROOT
BRANCH   1   2
ATOM      2  C   UNL A   1      32.681  32.762  27.219  1.00  0.00     0.118 C 
BRANCH   2   3
ATOM      3  N   UNL A   1      32.468  34.145  27.626  1.00  0.00    -0.352 N 
ATOM      4  O   UNL A   1      32.596  35.953  28.964  1.00  0.00    -0.269 OA
ATOM      5  C   UNL A   1      33.048  34.859  28.646  1.00  0.00     0.251 C 
ATOM      6  H   UNL A   1      31.809  34.642  27.090  1.00  0.00     0.163 HD
BRANCH   5   7
ATOM      7  C   UNL A   1      34.212  34.300  29.362  1.00  0.00     0.039 A 
ATOM      8  C   UNL A   1      34.028  33.491  30.485  1.00  0.00     0.014 A 
ATOM      9  C   UNL A   1      35.501  34.558  28.888  1.00  0.00     0.014 A 
ATOM     10  C   UNL A   1      35.124  33.061  31.217  1.00  0.00     0.010 A 
ATOM     11  C   UNL A   1      36.605  34.027  29.561  1.00  0.00     0.010 A 
ATOM     12  C   UNL A   1      36.422  33.281  30.735  1.00  0.00    -0.014 A 
BRANCH  12  13
ATOM     13  C   UNL A   1      37.554  32.584  31.389  1.00  0.00     0.031 A 
ATOM     14  C   UNL A   1      38.249  31.429  30.734  1.00  0.00     0.074 A 
ATOM     15  C   UNL A   1      37.942  33.023  32.604  1.00  0.00     0.049 A 
ATOM     16  N   UNL A   1      39.223  30.692  31.203  1.00  0.00    -0.248 NA
ATOM     17  C   UNL A   1      37.799  31.043  29.388  1.00  0.00     0.031 C 
ATOM     18  C   UNL A   1      37.323  34.136  33.330  1.00  0.00     0.029 A 
ATOM     19  N   UNL A   1      38.941  32.600  33.443  1.00  0.00    -0.354 N 
ATOM     20  C   UNL A   1      39.494  29.748  30.222  1.00  0.00     0.074 A 
ATOM     21  C   UNL A   1      38.573  29.993  29.133  1.00  0.00     0.031 C 
ATOM     22  C   UNL A   1      37.971  34.326  34.486  1.00  0.00     0.029 A 
ATOM     23  C   UNL A   1      38.992  33.297  34.626  1.00  0.00     0.049 A 
ATOM     24  H   UNL A   1      39.559  31.867  33.220  1.00  0.00     0.167 HD
ATOM     25  C   UNL A   1      40.432  28.774  30.243  1.00  0.00     0.037 A 
ATOM     26  C   UNL A   1      39.743  33.104  35.725  1.00  0.00     0.037 A 
ATOM     27  C   UNL A   1      41.357  28.565  31.327  1.00  0.00     0.049 A 
ATOM     28  C   UNL A   1      40.739  31.981  35.731  1.00  0.00     0.074 A 
ATOM     29  C   UNL A   1      42.389  27.646  31.405  1.00  0.00     0.029 A 
ATOM     30  N   UNL A   1      41.357  29.271  32.520  1.00  0.00    -0.354 N 
ATOM     31  N   UNL A   1      41.023  31.133  34.773  1.00  0.00    -0.248 NA
ATOM     32  C   UNL A   1      41.510  31.778  36.964  1.00  0.00     0.031 C 
ATOM     33  C   UNL A   1      42.968  27.746  32.671  1.00  0.00     0.029 A 
ATOM     34  C   UNL A   1      42.341  28.772  33.359  1.00  0.00     0.049 A 
ATOM     35  H   UNL A   1      40.750  30.014  32.738  1.00  0.00     0.167 HD
ATOM     36  C   UNL A   1      42.008  30.301  35.283  1.00  0.00     0.074 A 
ATOM     37  C   UNL A   1      42.293  30.762  36.626  1.00  0.00     0.031 C 
ATOM     38  C   UNL A   1      42.613  29.244  34.692  1.00  0.00     0.037 A 
BRANCH  25  39
ATOM     39  C   UNL A   1      40.534  27.838  29.074  1.00  0.00     0.064 A 
ATOM     40  C   UNL A   1      41.328  28.183  27.968  1.00  0.00     0.173 A 
ATOM     41  C   UNL A   1      39.722  26.702  28.972  1.00  0.00     0.173 A 
ATOM     42  F   UNL A   1      42.115  29.270  28.014  1.00  0.00    -0.203 F 
ATOM     43  C   UNL A   1      41.274  27.445  26.789  1.00  0.00     0.198 A 
ATOM     44  C   UNL A   1      39.688  25.952  27.798  1.00  0.00     0.198 A 
ATOM     45  F   UNL A   1      38.948  26.329  30.003  1.00  0.00    -0.203 F 
ATOM     46  F   UNL A   1      41.996  27.829  25.727  1.00  0.00    -0.200 F 
ATOM     47  C   UNL A   1      40.451  26.334  26.704  1.00  0.00     0.200 A 
ATOM     48  F   UNL A   1      38.901  24.870  27.719  1.00  0.00    -0.200 F 
ATOM     49  F   UNL A   1      40.384  25.635  25.562  1.00  0.00    -0.200 F 
ENDBRANCH  25  39
BRANCH  26  50
ATOM     50  C   UNL A   1      39.536  33.968  36.917  1.00  0.00     0.064 A 
ATOM     51  C   UNL A   1      40.144  35.230  37.010  1.00  0.00     0.173 A 
ATOM     52  C   UNL A   1      38.750  33.545  37.995  1.00  0.00     0.173 A 
ATOM     53  F   UNL A   1      40.914  35.683  36.008  1.00  0.00    -0.203 F 
ATOM     54  C   UNL A   1      39.994  36.023  38.145  1.00  0.00     0.198 A 
ATOM     55  C   UNL A   1      38.568  34.354  39.115  1.00  0.00     0.198 A 
ATOM     56  F   UNL A   1      38.135  32.353  37.948  1.00  0.00    -0.203 F 
ATOM     57  F   UNL A   1      40.624  37.203  38.224  1.00  0.00    -0.200 F 
ATOM     58  C   UNL A   1      39.198  35.588  39.193  1.00  0.00     0.200 A 
ATOM     59  F   UNL A   1      37.777  33.944  40.114  1.00  0.00    -0.200 F 
ATOM     60  F   UNL A   1      39.034  36.360  40.276  1.00  0.00    -0.200 F 
ENDBRANCH  26  50
BRANCH  38  61
ATOM     61  C   UNL A   1      43.648  28.501  35.482  1.00  0.00     0.064 A 
ATOM     62  C   UNL A   1      43.268  27.499  36.387  1.00  0.00     0.173 A 
ATOM     63  C   UNL A   1      45.000  28.867  35.430  1.00  0.00     0.173 A 
ATOM     64  F   UNL A   1      41.984  27.121  36.478  1.00  0.00    -0.203 F 
ATOM     65  C   UNL A   1      44.200  26.913  37.236  1.00  0.00     0.198 A 
ATOM     66  C   UNL A   1      45.935  28.256  36.260  1.00  0.00     0.198 A 
ATOM     67  F   UNL A   1      45.412  29.809  34.569  1.00  0.00    -0.203 F 
ATOM     68  F   UNL A   1      43.807  25.996  38.130  1.00  0.00    -0.200 F 
ATOM     69  C   UNL A   1      45.532  27.292  37.173  1.00  0.00     0.200 A 
ATOM     70  F   UNL A   1      47.226  28.608  36.182  1.00  0.00    -0.200 F 
ATOM     71  F   UNL A   1      46.430  26.731  37.994  1.00  0.00    -0.200 F 
ENDBRANCH  38  61
ENDBRANCH  12  13
ENDBRANCH   5   7
ENDBRANCH   2   3
ENDBRANCH   1   2
BRANCH   1  72
ATOM     72  C   UNL A   1      31.635  30.711  26.163  1.00  0.00     0.118 C 
BRANCH  72  73
ATOM     73  N   UNL A   1      31.714  29.684  27.198  1.00  0.00    -0.352 N 
ATOM     74  C   UNL A   1      31.992  28.346  27.064  1.00  0.00     0.253 C 
ATOM     75  H   UNL A   1      31.547  29.994  28.117  1.00  0.00     0.163 HD
ATOM     76  O   UNL A   1      31.778  27.567  27.988  1.00  0.00    -0.269 OA
BRANCH  74  77
ATOM     77  C   UNL A   1      32.499  27.839  25.770  1.00  0.00     0.063 A 
ATOM     78  C   UNL A   1      33.634  28.475  25.228  1.00  0.00     0.019 A 
ATOM     79  C   UNL A   1      31.835  26.796  25.084  1.00  0.00     0.056 A 
ATOM     80  C   UNL A   1      34.028  28.204  23.928  1.00  0.00     0.040 A 
ATOM     81  C   UNL A   1      32.236  26.576  23.764  1.00  0.00     0.066 A 
ATOM     82  C   UNL A   1      33.304  27.281  23.200  1.00  0.00     0.125 A 
ATOM     83  F   UNL A   1      33.633  27.049  21.923  1.00  0.00    -0.207 F 
BRANCH  79  84
ATOM     84  N   UNL A   1      30.836  26.052  25.776  1.00  0.00    -0.325 N 
ATOM     85  C   UNL A   1      30.726  24.771  26.245  1.00  0.00     0.228 C 
ATOM     86  H   UNL A   1      30.032  26.590  25.963  1.00  0.00     0.169 HD
ATOM     87  O   UNL A   1      29.716  24.453  26.876  1.00  0.00    -0.274 OA
BRANCH  85  88
ATOM     88  C   UNL A   1      31.796  23.753  25.971  1.00  0.00     0.095 C 
ATOM     89  C   UNL A   1      32.314  22.953  27.174  1.00  0.00     0.030 C 
ATOM     90  C   UNL A   1      31.247  22.679  25.036  1.00  0.00     0.150 C 
ATOM     91  C   UNL A   1      33.267  21.913  26.571  1.00  0.00     0.138 C 
ATOM     92  S   UNL A   1      32.560  21.486  24.979  1.00  0.00     0.151 S 
ATOM     93  O   UNL A   1      33.476  21.908  23.936  1.00  0.00    -0.229 OA
ATOM     94  O   UNL A   1      31.994  20.159  25.029  1.00  0.00    -0.229 OA
ENDBRANCH  85  88
ENDBRANCH  79  84
ENDBRANCH  74  77
ENDBRANCH  72  73
ENDBRANCH   1  72
TORSDOF 12
ENDMDL
MODEL 2
REMARK VINA RESULT:     -13.2      0.246      1.153
REMARK SMILES O=C(NCCCNC(=O)c1ccc(F)cc1NC(=O)[C@H]1CCS(=O)(=O)C1)c1ccc(-c2c3nc(c(-c4c(F)c(F)c(F)c(F)c4F)c4ccc([nH]4)c(-c4c(F)c(F)c(F)c(F)c4F)c4nc(c(-c5c(F)c(F)c(F)c(F)c5F)c5ccc2[nH]5)C=C4)C=C3)cc1
REMARK SMILES IDX 5 1 4 2 3 3 1 4 2 5 27 7 28 8 89 9 29 10 88 11 30 12 31 13
REMARK SMILES IDX 32 14 82 15 33 16 87 17 81 18 83 19 34 20 86 21 80 22 79 23
REMARK SMILES IDX 35 25 67 26 47 27 66 28 48 29 51 30 65 31 84 32 49 33 50 34
REMARK SMILES IDX 64 36 85 37 52 38 36 39 37 40 45 41 38 42 39 43 43 44 46 45
REMARK SMILES IDX 40 46 41 47 44 48 42 49 68 50 69 51 77 52 70 53 71 54 75 55
REMARK SMILES IDX 78 56 72 57 73 58 76 59 74 60 53 61 54 62 62 63 55 64 56 65
REMARK SMILES IDX 60 66 63 67 57 68 58 69 61 70 59 71 6 72 7 73 8 74 9 76
REMARK SMILES IDX 10 77 11 78 16 79 12 80 15 81 13 82 14 83 17 84 18 85 19 87
REMARK SMILES IDX 20 88 21 89 26 90 22 91 23 92 24 93 25 94
REMARK H PARENT 3 6 83 24 51 35 7 75 17 86
REMARK Flexibility Score: inf
ROOT
ATOM      1  C   UNL A   1      31.395  32.055  26.502  1.00  0.00     0.042 C 
ENDROOT
BRANCH   1   2
ATOM      2  C   UNL A   1      32.589  32.609  27.256  1.00  0.00     0.118 C 
BRANCH   2   3
ATOM      3  N   UNL A   1      32.424  34.015  27.604  1.00  0.00    -0.352 N 
ATOM      4  O   UNL A   1      32.633  35.878  28.853  1.00  0.00    -0.269 OA
ATOM      5  C   UNL A   1      33.047  34.757  28.576  1.00  0.00     0.251 C 
ATOM      6  H   UNL A   1      31.766  34.506  27.060  1.00  0.00     0.163 HD
BRANCH   5   7
ATOM      7  C   UNL A   1      34.213  34.199  29.291  1.00  0.00     0.039 A 
ATOM      8  C   UNL A   1      34.029  33.338  30.375  1.00  0.00     0.014 A 
ATOM      9  C   UNL A   1      35.503  34.510  28.853  1.00  0.00     0.014 A 
ATOM     10  C   UNL A   1      35.122  32.906  31.110  1.00  0.00     0.010 A 
ATOM     11  C   UNL A   1      36.608  33.980  29.525  1.00  0.00     0.010 A 
ATOM     12  C   UNL A   1      36.423  33.180  30.663  1.00  0.00    -0.014 A 
BRANCH  12  13
ATOM     13  C   UNL A   1      37.560  32.485  31.309  1.00  0.00     0.031 A 
ATOM     14  C   UNL A   1      38.258  31.335  30.647  1.00  0.00     0.074 A 
ATOM     15  C   UNL A   1      37.952  32.920  32.524  1.00  0.00     0.049 A 
ATOM     16  N   UNL A   1      39.237  30.600  31.108  1.00  0.00    -0.248 NA
ATOM     17  C   UNL A   1      37.803  30.953  29.301  1.00  0.00     0.031 C 
ATOM     18  C   UNL A   1      37.331  34.028  33.258  1.00  0.00     0.029 A 
ATOM     19  N   UNL A   1      38.956  32.498  33.357  1.00  0.00    -0.354 N 
ATOM     20  C   UNL A   1      39.507  29.662  30.122  1.00  0.00     0.074 A 
ATOM     21  C   UNL A   1      38.580  29.907  29.038  1.00  0.00     0.031 C 
ATOM     22  C   UNL A   1      37.984  34.216  34.412  1.00  0.00     0.029 A 
ATOM     23  C   UNL A   1      39.010  33.190  34.542  1.00  0.00     0.049 A 
ATOM     24  H   UNL A   1      39.577  31.769  33.129  1.00  0.00     0.167 HD
ATOM     25  C   UNL A   1      40.449  28.691  30.135  1.00  0.00     0.037 A 
ATOM     26  C   UNL A   1      39.766  32.996  35.638  1.00  0.00     0.037 A 
ATOM     27  C   UNL A   1      41.380  28.481  31.214  1.00  0.00     0.049 A 
ATOM     28  C   UNL A   1      40.767  31.877  35.634  1.00  0.00     0.074 A 
ATOM     29  C   UNL A   1      42.416  27.566  31.284  1.00  0.00     0.029 A 
ATOM     30  N   UNL A   1      41.382  29.183  32.410  1.00  0.00    -0.354 N 
ATOM     31  N   UNL A   1      41.050  31.035  34.672  1.00  0.00    -0.248 NA
ATOM     32  C   UNL A   1      41.544  31.673  36.864  1.00  0.00     0.031 C 
ATOM     33  C   UNL A   1      43.000  27.664  32.547  1.00  0.00     0.029 A 
ATOM     34  C   UNL A   1      42.372  28.684  33.242  1.00  0.00     0.049 A 
ATOM     35  H   UNL A   1      40.774  29.922  32.634  1.00  0.00     0.167 HD
ATOM     36  C   UNL A   1      42.041  30.204  35.174  1.00  0.00     0.074 A 
ATOM     37  C   UNL A   1      42.330  30.661  36.518  1.00  0.00     0.031 C 
ATOM     38  C   UNL A   1      42.648  29.152  34.576  1.00  0.00     0.037 A 
BRANCH  25  39
ATOM     39  C   UNL A   1      40.550  27.761  28.962  1.00  0.00     0.064 A 
ATOM     40  C   UNL A   1      41.353  28.105  27.862  1.00  0.00     0.173 A 
ATOM     41  C   UNL A   1      39.730  26.631  28.850  1.00  0.00     0.173 A 
ATOM     42  F   UNL A   1      42.147  29.185  27.917  1.00  0.00    -0.203 F 
ATOM     43  C   UNL A   1      41.299  27.373  26.678  1.00  0.00     0.198 A 
ATOM     44  C   UNL A   1      39.697  25.887  27.672  1.00  0.00     0.198 A 
ATOM     45  F   UNL A   1      38.948  26.259  29.875  1.00  0.00    -0.203 F 
ATOM     46  F   UNL A   1      42.029  27.757  25.622  1.00  0.00    -0.200 F 
ATOM     47  C   UNL A   1      40.467  26.269  26.583  1.00  0.00     0.200 A 
ATOM     48  F   UNL A   1      38.902  24.812  27.584  1.00  0.00    -0.200 F 
ATOM     49  F   UNL A   1      40.401  25.577  25.438  1.00  0.00    -0.200 F 
ENDBRANCH  25  39
BRANCH  26  50
ATOM     50  C   UNL A   1      39.560  33.854  36.834  1.00  0.00     0.064 A 
ATOM     51  C   UNL A   1      40.184  35.108  36.941  1.00  0.00     0.173 A 
ATOM     52  C   UNL A   1      38.761  33.434  37.903  1.00  0.00     0.173 A 
ATOM     53  F   UNL A   1      40.968  35.558  35.948  1.00  0.00    -0.203 F 
ATOM     54  C   UNL A   1      40.035  35.895  38.080  1.00  0.00     0.198 A 
ATOM     55  C   UNL A   1      38.581  34.238  39.027  1.00  0.00     0.198 A 
ATOM     56  F   UNL A   1      38.131  32.250  37.843  1.00  0.00    -0.203 F 
ATOM     57  F   UNL A   1      40.679  37.066  38.172  1.00  0.00    -0.200 F 
ATOM     58  C   UNL A   1      39.225  35.463  39.119  1.00  0.00     0.200 A 
ATOM     59  F   UNL A   1      37.776  33.830  40.017  1.00  0.00    -0.200 F 
ATOM     60  F   UNL A   1      39.063  36.229  40.206  1.00  0.00    -0.200 F 
ENDBRANCH  26  50
BRANCH  38  61
ATOM     61  C   UNL A   1      43.689  28.410  35.359  1.00  0.00     0.064 A 
ATOM     62  C   UNL A   1      45.052  28.674  35.159  1.00  0.00     0.173 A 
ATOM     63  C   UNL A   1      43.338  27.357  36.215  1.00  0.00     0.173 A 
ATOM     64  F   UNL A   1      45.436  29.667  34.342  1.00  0.00    -0.203 F 
ATOM     65  C   UNL A   1      46.027  27.887  35.762  1.00  0.00     0.198 A 
ATOM     66  C   UNL A   1      44.317  26.592  36.840  1.00  0.00     0.198 A 
ATOM     67  F   UNL A   1      42.047  27.079  36.449  1.00  0.00    -0.203 F 
ATOM     68  F   UNL A   1      47.323  28.122  35.515  1.00  0.00    -0.200 F 
ATOM     69  C   UNL A   1      45.660  26.846  36.601  1.00  0.00     0.200 A 
ATOM     70  F   UNL A   1      43.960  25.601  37.669  1.00  0.00    -0.200 F 
ATOM     71  F   UNL A   1      46.600  26.086  37.178  1.00  0.00    -0.200 F 
ENDBRANCH  38  61
ENDBRANCH  12  13
ENDBRANCH   5   7
ENDBRANCH   2   3
ENDBRANCH   1   2
BRANCH   1  72
ATOM     72  C   UNL A   1      31.629  30.656  25.961  1.00  0.00     0.118 C 
BRANCH  72  73
ATOM     73  N   UNL A   1      31.710  29.659  27.024  1.00  0.00    -0.352 N 
ATOM     74  C   UNL A   1      31.996  28.319  26.929  1.00  0.00     0.253 C 
ATOM     75  H   UNL A   1      31.536  29.993  27.933  1.00  0.00     0.163 HD
ATOM     76  O   UNL A   1      31.782  27.565  27.874  1.00  0.00    -0.269 OA
BRANCH  74  77
ATOM     77  C   UNL A   1      32.513  27.780  25.652  1.00  0.00     0.063 A 
ATOM     78  C   UNL A   1      33.631  28.423  25.084  1.00  0.00     0.019 A 
ATOM     79  C   UNL A   1      31.872  26.697  25.005  1.00  0.00     0.056 A 
ATOM     80  C   UNL A   1      34.028  28.116  23.794  1.00  0.00     0.040 A 
ATOM     81  C   UNL A   1      32.276  26.440  23.693  1.00  0.00     0.066 A 
ATOM     82  C   UNL A   1      33.325  27.150  23.101  1.00  0.00     0.125 A 
ATOM     83  F   UNL A   1      33.656  26.882  21.832  1.00  0.00    -0.207 F 
BRANCH  79  84
ATOM     84  N   UNL A   1      30.894  25.954  25.726  1.00  0.00    -0.325 N 
ATOM     85  C   UNL A   1      30.809  24.682  26.226  1.00  0.00     0.228 C 
ATOM     86  H   UNL A   1      30.083  26.483  25.910  1.00  0.00     0.169 HD
ATOM     87  O   UNL A   1      29.811  24.364  26.876  1.00  0.00    -0.274 OA
BRANCH  85  88
ATOM     88  C   UNL A   1      31.892  23.675  25.962  1.00  0.00     0.095 C 
ATOM     89  C   UNL A   1      32.478  22.955  27.185  1.00  0.00     0.030 C 
ATOM     90  C   UNL A   1      31.331  22.540  25.111  1.00  0.00     0.150 C 
ATOM     91  C   UNL A   1      33.430  21.905  26.599  1.00  0.00     0.138 C 
ATOM     92  S   UNL A   1      32.670  21.375  25.064  1.00  0.00     0.151 S 
ATOM     93  O   UNL A   1      33.532  21.759  23.963  1.00  0.00    -0.229 OA
ATOM     94  O   UNL A   1      32.139  20.040  25.209  1.00  0.00    -0.229 OA
ENDBRANCH  85  88
ENDBRANCH  79  84
ENDBRANCH  74  77
ENDBRANCH  72  73
ENDBRANCH   1  72
TORSDOF 12
ENDMDL
MODEL 3
REMARK VINA RESULT:     -13.0      0.554      7.328
REMARK SMILES O=C(NCCCNC(=O)c1ccc(F)cc1NC(=O)[C@H]1CCS(=O)(=O)C1)c1ccc(-c2c3nc(c(-c4c(F)c(F)c(F)c(F)c4F)c4ccc([nH]4)c(-c4c(F)c(F)c(F)c(F)c4F)c4nc(c(-c5c(F)c(F)c(F)c(F)c5F)c5ccc2[nH]5)C=C4)C=C3)cc1
REMARK SMILES IDX 5 1 4 2 3 3 1 4 2 5 27 7 28 8 89 9 29 10 88 11 30 12 31 13
REMARK SMILES IDX 32 14 82 15 33 16 87 17 81 18 83 19 34 20 86 21 80 22 79 23
REMARK SMILES IDX 35 25 67 26 47 27 66 28 48 29 51 30 65 31 84 32 49 33 50 34
REMARK SMILES IDX 64 36 85 37 52 38 36 39 37 40 45 41 38 42 39 43 43 44 46 45
REMARK SMILES IDX 40 46 41 47 44 48 42 49 68 50 69 51 77 52 70 53 71 54 75 55
REMARK SMILES IDX 78 56 72 57 73 58 76 59 74 60 53 61 54 62 62 63 55 64 56 65
REMARK SMILES IDX 60 66 63 67 57 68 58 69 61 70 59 71 6 72 7 73 8 74 9 76
REMARK SMILES IDX 10 77 11 78 16 79 12 80 15 81 13 82 14 83 17 84 18 85 19 87
REMARK SMILES IDX 20 88 21 89 26 90 22 91 23 92 24 93 25 94
REMARK H PARENT 3 6 83 24 51 35 7 75 17 86
REMARK Flexibility Score: inf
ROOT
ATOM      1  C   UNL A   1      31.400  32.246  26.561  1.00  0.00     0.042 C 
ENDROOT
BRANCH   1   2
ATOM      2  C   UNL A   1      32.631  32.795  27.257  1.00  0.00     0.118 C 
BRANCH   2   3
ATOM      3  N   UNL A   1      32.468  34.186  27.661  1.00  0.00    -0.352 N 
ATOM      4  O   UNL A   1      32.666  35.993  28.992  1.00  0.00    -0.269 OA
ATOM      5  C   UNL A   1      33.079  34.882  28.675  1.00  0.00     0.251 C 
ATOM      6  H   UNL A   1      31.823  34.703  27.127  1.00  0.00     0.163 HD
BRANCH   5   7
ATOM      7  C   UNL A   1      34.228  34.287  29.385  1.00  0.00     0.039 A 
ATOM      8  C   UNL A   1      34.025  33.491  30.515  1.00  0.00     0.014 A 
ATOM      9  C   UNL A   1      35.522  34.495  28.898  1.00  0.00     0.014 A 
ATOM     10  C   UNL A   1      35.110  33.027  31.241  1.00  0.00     0.010 A 
ATOM     11  C   UNL A   1      36.611  33.929  29.565  1.00  0.00     0.010 A 
ATOM     12  C   UNL A   1      36.412  33.198  30.747  1.00  0.00    -0.014 A 
BRANCH  12  13
ATOM     13  C   UNL A   1      37.523  32.464  31.396  1.00  0.00     0.031 A 
ATOM     14  C   UNL A   1      38.015  32.834  32.763  1.00  0.00     0.074 A 
ATOM     15  C   UNL A   1      38.084  31.446  30.714  1.00  0.00     0.049 A 
ATOM     16  N   UNL A   1      39.007  32.314  33.440  1.00  0.00    -0.248 NA
ATOM     17  C   UNL A   1      37.318  33.924  33.462  1.00  0.00     0.031 C 
ATOM     18  C   UNL A   1      37.681  31.013  29.372  1.00  0.00     0.029 A 
ATOM     19  N   UNL A   1      39.103  30.588  31.042  1.00  0.00    -0.354 N 
ATOM     20  C   UNL A   1      39.064  33.018  34.634  1.00  0.00     0.074 A 
ATOM     21  C   UNL A   1      38.016  34.016  34.589  1.00  0.00     0.031 C 
ATOM     22  C   UNL A   1      38.421  29.959  29.006  1.00  0.00     0.029 A 
ATOM     23  C   UNL A   1      39.408  29.695  30.044  1.00  0.00     0.049 A 
ATOM     24  H   UNL A   1      39.572  30.612  31.907  1.00  0.00     0.167 HD
ATOM     25  C   UNL A   1      39.918  32.835  35.667  1.00  0.00     0.037 A 
ATOM     26  C   UNL A   1      40.400  28.792  29.949  1.00  0.00     0.037 A 
ATOM     27  C   UNL A   1      40.938  31.819  35.702  1.00  0.00     0.049 A 
ATOM     28  C   UNL A   1      41.360  28.651  31.094  1.00  0.00     0.074 A 
ATOM     29  C   UNL A   1      41.805  31.513  36.737  1.00  0.00     0.029 A 
ATOM     30  N   UNL A   1      41.235  30.953  34.661  1.00  0.00    -0.354 N 
ATOM     31  N   UNL A   1      41.366  29.285  32.241  1.00  0.00    -0.248 NA
ATOM     32  C   UNL A   1      42.453  27.684  30.934  1.00  0.00     0.031 C 
ATOM     33  C   UNL A   1      42.673  30.512  36.298  1.00  0.00     0.029 A 
ATOM     34  C   UNL A   1      42.307  30.148  35.013  1.00  0.00     0.049 A 
ATOM     35  H   UNL A   1      40.758  30.917  33.801  1.00  0.00     0.167 HD
ATOM     36  C   UNL A   1      42.455  28.791  32.942  1.00  0.00     0.074 A 
ATOM     37  C   UNL A   1      43.073  27.784  32.103  1.00  0.00     0.031 C 
ATOM     38  C   UNL A   1      42.907  29.148  34.167  1.00  0.00     0.037 A 
BRANCH  25  39
ATOM     39  C   UNL A   1      39.818  33.737  36.862  1.00  0.00     0.064 A 
ATOM     40  C   UNL A   1      38.979  33.389  37.933  1.00  0.00     0.173 A 
ATOM     41  C   UNL A   1      40.405  35.009  36.871  1.00  0.00     0.173 A 
ATOM     42  F   UNL A   1      38.385  32.186  37.964  1.00  0.00    -0.203 F 
ATOM     43  C   UNL A   1      38.701  34.299  38.950  1.00  0.00     0.198 A 
ATOM     44  C   UNL A   1      40.142  35.908  37.903  1.00  0.00     0.198 A 
ATOM     45  F   UNL A   1      41.217  35.387  35.873  1.00  0.00    -0.203 F 
ATOM     46  F   UNL A   1      37.850  33.965  39.930  1.00  0.00    -0.200 F 
ATOM     47  C   UNL A   1      39.279  35.558  38.931  1.00  0.00     0.200 A 
ATOM     48  F   UNL A   1      40.710  37.122  37.892  1.00  0.00    -0.200 F 
ATOM     49  F   UNL A   1      38.995  36.441  39.900  1.00  0.00    -0.200 F 
ENDBRANCH  25  39
BRANCH  26  50
ATOM     50  C   UNL A   1      40.552  27.996  28.702  1.00  0.00     0.064 A 
ATOM     51  C   UNL A   1      41.325  28.472  27.630  1.00  0.00     0.173 A 
ATOM     52  C   UNL A   1      39.913  26.761  28.544  1.00  0.00     0.173 A 
ATOM     53  F   UNL A   1      41.954  29.654  27.724  1.00  0.00    -0.203 F 
ATOM     54  C   UNL A   1      41.431  27.754  26.441  1.00  0.00     0.198 A 
ATOM     55  C   UNL A   1      40.050  26.025  27.369  1.00  0.00     0.198 A 
ATOM     56  F   UNL A   1      39.176  26.256  29.545  1.00  0.00    -0.203 F 
ATOM     57  F   UNL A   1      42.137  28.256  25.419  1.00  0.00    -0.200 F 
ATOM     58  C   UNL A   1      40.800  26.526  26.315  1.00  0.00     0.200 A 
ATOM     59  F   UNL A   1      39.463  24.827  27.260  1.00  0.00    -0.200 F 
ATOM     60  F   UNL A   1      40.920  25.825  25.180  1.00  0.00    -0.200 F 
ENDBRANCH  26  50
BRANCH  38  61
ATOM     61  C   UNL A   1      44.129  28.456  34.690  1.00  0.00     0.064 A 
ATOM     62  C   UNL A   1      44.013  27.272  35.433  1.00  0.00     0.173 A 
ATOM     63  C   UNL A   1      45.401  29.030  34.556  1.00  0.00     0.173 A 
ATOM     64  F   UNL A   1      42.815  26.690  35.595  1.00  0.00    -0.203 F 
ATOM     65  C   UNL A   1      45.122  26.707  36.054  1.00  0.00     0.198 A 
ATOM     66  C   UNL A   1      46.513  28.445  35.153  1.00  0.00     0.198 A 
ATOM     67  F   UNL A   1      45.563  30.153  33.840  1.00  0.00    -0.203 F 
ATOM     68  F   UNL A   1      44.980  25.606  36.804  1.00  0.00    -0.200 F 
ATOM     69  C   UNL A   1      46.370  27.294  35.914  1.00  0.00     0.200 A 
ATOM     70  F   UNL A   1      47.722  29.000  34.998  1.00  0.00    -0.200 F 
ATOM     71  F   UNL A   1      47.438  26.752  36.516  1.00  0.00    -0.200 F 
ENDBRANCH  38  61
ENDBRANCH  12  13
ENDBRANCH   5   7
ENDBRANCH   2   3
ENDBRANCH   1   2
BRANCH   1  72
ATOM     72  C   UNL A   1      31.600  30.842  26.016  1.00  0.00     0.118 C 
BRANCH  72  73
ATOM     73  N   UNL A   1      31.702  29.847  27.079  1.00  0.00    -0.352 N 
ATOM     74  C   UNL A   1      32.002  28.510  26.982  1.00  0.00     0.253 C 
ATOM     75  H   UNL A   1      31.535  30.180  27.990  1.00  0.00     0.163 HD
ATOM     76  O   UNL A   1      31.806  27.755  27.929  1.00  0.00    -0.269 OA
BRANCH  74  77
ATOM     77  C   UNL A   1      32.510  27.976  25.699  1.00  0.00     0.063 A 
ATOM     78  C   UNL A   1      33.666  28.578  25.161  1.00  0.00     0.019 A 
ATOM     79  C   UNL A   1      31.829  26.940  25.019  1.00  0.00     0.056 A 
ATOM     80  C   UNL A   1      34.066  28.282  23.869  1.00  0.00     0.040 A 
ATOM     81  C   UNL A   1      32.239  26.694  23.707  1.00  0.00     0.066 A 
ATOM     82  C   UNL A   1      33.328  27.366  23.145  1.00  0.00     0.125 A 
ATOM     83  F   UNL A   1      33.664  27.111  21.875  1.00  0.00    -0.207 F 
BRANCH  79  84
ATOM     84  N   UNL A   1      30.807  26.228  25.710  1.00  0.00    -0.325 N 
ATOM     85  C   UNL A   1      30.666  24.959  26.204  1.00  0.00     0.228 C 
ATOM     86  H   UNL A   1      30.008  26.783  25.872  1.00  0.00     0.169 HD
ATOM     87  O   UNL A   1      29.641  24.672  26.825  1.00  0.00    -0.274 OA
BRANCH  85  88
ATOM     88  C   UNL A   1      31.723  23.917  25.971  1.00  0.00     0.095 C 
ATOM     89  C   UNL A   1      32.198  23.127  27.198  1.00  0.00     0.030 C 
ATOM     90  C   UNL A   1      31.176  22.840  25.039  1.00  0.00     0.150 C 
ATOM     91  C   UNL A   1      33.145  22.061  26.632  1.00  0.00     0.138 C 
ATOM     92  S   UNL A   1      32.467  21.623  25.031  1.00  0.00     0.151 S 
ATOM     93  O   UNL A   1      33.416  22.012  24.004  1.00  0.00    -0.229 OA
ATOM     94  O   UNL A   1      31.876  20.307  25.086  1.00  0.00    -0.229 OA
ENDBRANCH  85  88
ENDBRANCH  79  84
ENDBRANCH  74  77
ENDBRANCH  72  73
ENDBRANCH   1  72
TORSDOF 12
ENDMDL
