MODEL 1
REMARK VINA RESULT:     -12.2      0.000      0.000
REMARK SMILES O=C(C[C@H]([NH2+]Cc1ccccc1C1CC1)c1cccs1)NCCCNC(=O)c1ccc(-c2c3nc(c(-c4c(F)c(F)c(F)c(F)c4F)c4ccc([nH]4)c(-c4c(F)c(F)c(F)c(F)c4F)c4nc(c(-c5c(F)c(F)c(F)c(F)c5F)c5ccc2[nH]5)C=C4)C=C3)cc1
REMARK SMILES IDX 1 1 2 2 21 3 3 5 4 6 16 7 17 8 20 9 18 10 19 11 5 12 6 15
REMARK SMILES IDX 7 16 8 17 12 18 9 19 11 20 10 21 13 22 14 23 15 24 22 25
REMARK SMILES IDX 23 26 24 27 25 28 26 29 27 31 28 32 29 33 90 34 30 35 89 36
REMARK SMILES IDX 31 37 32 38 33 39 83 40 34 41 88 42 82 43 84 44 35 45 87 46
REMARK SMILES IDX 81 47 80 48 36 50 68 51 48 52 67 53 49 54 52 55 66 56 85 57
REMARK SMILES IDX 50 58 51 59 65 61 86 62 53 63 37 64 38 65 46 66 39 67 40 68
REMARK SMILES IDX 44 69 47 70 41 71 42 72 45 73 43 74 69 75 70 76 78 77 71 78
REMARK SMILES IDX 72 79 76 80 79 81 73 82 74 83 77 84 75 85 54 86 55 87 63 88
REMARK SMILES IDX 56 89 57 90 61 91 64 92 58 93 59 94 62 95 60 96
REMARK H PARENT 21 4 5 13 5 14 25 30 84 49 52 60
REMARK Flexibility Score: inf
ROOT
ATOM      1  O   UNL A   1      33.340  27.862  26.674  1.00  0.00    -0.275 OA
ATOM      2  C   UNL A   1      33.406  28.668  25.750  1.00  0.00     0.226 C 
ATOM      3  N   UNL A   1      32.956  29.964  25.843  1.00  0.00    -0.356 N 
ATOM      4  H   UNL A   1      33.279  30.631  25.193  1.00  0.00     0.163 HD
ENDROOT
BRANCH   2   5
ATOM      5  C   UNL A   1      34.021  28.290  24.414  1.00  0.00     0.171 C 
BRANCH   5   6
ATOM      6  C   UNL A   1      33.133  27.477  23.440  1.00  0.00     0.233 C 
BRANCH   6   7
ATOM      7  C   UNL A   1      33.524  26.000  23.343  1.00  0.00     0.062 A 
ATOM      8  C   UNL A   1      34.301  25.281  24.239  1.00  0.00     0.021 A 
ATOM      9  S   UNL A   1      32.959  24.966  22.084  1.00  0.00    -0.143 S 
ATOM     10  C   UNL A   1      34.371  23.891  23.927  1.00  0.00     0.012 A 
ATOM     11  C   UNL A   1      33.692  23.588  22.771  1.00  0.00     0.065 A 
ENDBRANCH   6   7
BRANCH   6  12
ATOM     12  N   UNL A   1      31.706  27.663  23.751  1.00  0.00    -0.335 N 
ATOM     13  H   UNL A   1      31.630  28.124  24.657  1.00  0.00     0.347 HD
ATOM     14  H   UNL A   1      31.275  26.738  23.750  1.00  0.00     0.347 HD
BRANCH  12  15
ATOM     15  C   UNL A   1      30.994  28.471  22.759  1.00  0.00     0.298 C 
BRANCH  15  16
ATOM     16  C   UNL A   1      29.501  28.474  23.025  1.00  0.00     0.010 A 
ATOM     17  C   UNL A   1      28.945  27.265  23.513  1.00  0.00     0.010 A 
ATOM     18  C   UNL A   1      28.658  29.592  22.799  1.00  0.00    -0.036 A 
ATOM     19  C   UNL A   1      27.583  27.136  23.775  1.00  0.00     0.001 A 
ATOM     20  C   UNL A   1      27.274  29.402  23.050  1.00  0.00     0.004 A 
ATOM     21  C   UNL A   1      26.741  28.207  23.532  1.00  0.00     0.000 A 
BRANCH  18  22
ATOM     22  C   UNL A   1      29.043  30.996  22.348  1.00  0.00     0.020 C 
ATOM     23  C   UNL A   1      28.168  32.157  21.975  1.00  0.00     0.009 C 
ATOM     24  C   UNL A   1      28.800  32.121  23.332  1.00  0.00     0.009 C 
ENDBRANCH  18  22
ENDBRANCH  15  16
ENDBRANCH  12  15
ENDBRANCH   6  12
ENDBRANCH   5   6
ENDBRANCH   2   5
BRANCH   3  25
ATOM     25  C   UNL A   1      32.020  30.377  26.869  1.00  0.00     0.117 C 
BRANCH  25  26
ATOM     26  C   UNL A   1      31.703  31.858  26.822  1.00  0.00     0.042 C 
BRANCH  26  27
ATOM     27  C   UNL A   1      32.849  32.762  27.258  1.00  0.00     0.118 C 
BRANCH  27  28
ATOM     28  N   UNL A   1      32.441  34.113  27.621  1.00  0.00    -0.352 N 
ATOM     29  C   UNL A   1      32.961  34.956  28.576  1.00  0.00     0.251 C 
ATOM     30  H   UNL A   1      31.681  34.475  27.108  1.00  0.00     0.163 HD
ATOM     31  O   UNL A   1      32.421  36.034  28.810  1.00  0.00    -0.269 OA
BRANCH  29  32
ATOM     32  C   UNL A   1      34.148  34.544  29.358  1.00  0.00     0.039 A 
ATOM     33  C   UNL A   1      33.963  34.035  30.647  1.00  0.00     0.014 A 
ATOM     34  C   UNL A   1      35.432  34.620  28.813  1.00  0.00     0.014 A 
ATOM     35  C   UNL A   1      35.054  33.512  31.347  1.00  0.00     0.010 A 
ATOM     36  C   UNL A   1      36.499  34.017  29.473  1.00  0.00     0.010 A 
ATOM     37  C   UNL A   1      36.321  33.450  30.745  1.00  0.00    -0.014 A 
BRANCH  37  38
ATOM     38  C   UNL A   1      37.468  32.785  31.416  1.00  0.00     0.031 A 
ATOM     39  C   UNL A   1      38.164  31.628  30.755  1.00  0.00     0.074 A 
ATOM     40  C   UNL A   1      37.832  33.169  32.656  1.00  0.00     0.049 A 
ATOM     41  N   UNL A   1      39.119  30.860  31.218  1.00  0.00    -0.248 NA
ATOM     42  C   UNL A   1      37.702  31.264  29.406  1.00  0.00     0.031 C 
ATOM     43  C   UNL A   1      37.203  34.239  33.431  1.00  0.00     0.029 A 
ATOM     44  N   UNL A   1      38.814  32.689  33.490  1.00  0.00    -0.354 N 
ATOM     45  C   UNL A   1      39.357  29.916  30.227  1.00  0.00     0.074 A 
ATOM     46  C   UNL A   1      38.411  30.172  29.163  1.00  0.00     0.031 C 
ATOM     47  C   UNL A   1      37.828  34.352  34.615  1.00  0.00     0.029 A 
ATOM     48  C   UNL A   1      38.873  33.337  34.700  1.00  0.00     0.049 A 
ATOM     49  H   UNL A   1      39.417  31.951  33.243  1.00  0.00     0.167 HD
ATOM     50  C   UNL A   1      40.295  28.939  30.198  1.00  0.00     0.037 A 
ATOM     51  C   UNL A   1      39.676  33.131  35.762  1.00  0.00     0.037 A 
ATOM     52  C   UNL A   1      41.257  28.707  31.243  1.00  0.00     0.049 A 
ATOM     53  C   UNL A   1      40.713  32.044  35.701  1.00  0.00     0.074 A 
ATOM     54  C   UNL A   1      42.290  27.785  31.275  1.00  0.00     0.029 A 
ATOM     55  N   UNL A   1      41.303  29.403  32.441  1.00  0.00    -0.354 N 
ATOM     56  N   UNL A   1      40.975  31.203  34.731  1.00  0.00    -0.248 NA
ATOM     57  C   UNL A   1      41.574  31.882  36.882  1.00  0.00     0.031 C 
ATOM     58  C   UNL A   1      42.935  27.896  32.510  1.00  0.00     0.029 A 
ATOM     59  C   UNL A   1      42.337  28.918  33.229  1.00  0.00     0.049 A 
ATOM     60  H   UNL A   1      40.695  30.133  32.695  1.00  0.00     0.167 HD
ATOM     61  C   UNL A   1      42.044  30.433  35.170  1.00  0.00     0.074 A 
ATOM     62  C   UNL A   1      42.392  30.915  36.489  1.00  0.00     0.031 C 
ATOM     63  C   UNL A   1      42.678  29.416  34.537  1.00  0.00     0.037 A 
BRANCH  50  64
ATOM     64  C   UNL A   1      40.331  28.051  28.988  1.00  0.00     0.064 A 
ATOM     65  C   UNL A   1      41.094  28.381  27.856  1.00  0.00     0.173 A 
ATOM     66  C   UNL A   1      39.626  26.839  28.973  1.00  0.00     0.173 A 
ATOM     67  F   UNL A   1      41.778  29.534  27.816  1.00  0.00    -0.203 F 
ATOM     68  C   UNL A   1      41.122  27.545  26.743  1.00  0.00     0.198 A 
ATOM     69  C   UNL A   1      39.681  25.991  27.870  1.00  0.00     0.198 A 
ATOM     70  F   UNL A   1      38.887  26.472  30.030  1.00  0.00    -0.203 F 
ATOM     71  F   UNL A   1      41.815  27.907  25.655  1.00  0.00    -0.200 F 
ATOM     72  C   UNL A   1      40.422  26.349  26.753  1.00  0.00     0.200 A 
ATOM     73  F   UNL A   1      39.015  24.828  27.885  1.00  0.00    -0.200 F 
ATOM     74  F   UNL A   1      40.456  25.542  25.683  1.00  0.00    -0.200 F 
ENDBRANCH  50  64
BRANCH  51  75
ATOM     75  C   UNL A   1      39.548  33.991  36.968  1.00  0.00     0.064 A 
ATOM     76  C   UNL A   1      38.799  33.569  38.074  1.00  0.00     0.173 A 
ATOM     77  C   UNL A   1      40.161  35.250  37.037  1.00  0.00     0.173 A 
ATOM     78  F   UNL A   1      38.174  32.382  38.046  1.00  0.00    -0.203 F 
ATOM     79  C   UNL A   1      38.650  34.381  39.196  1.00  0.00     0.198 A 
ATOM     80  C   UNL A   1      40.036  36.050  38.171  1.00  0.00     0.198 A 
ATOM     81  F   UNL A   1      40.893  35.699  36.007  1.00  0.00    -0.203 F 
ATOM     82  F   UNL A   1      37.889  33.972  40.221  1.00  0.00    -0.200 F 
ATOM     83  C   UNL A   1      39.272  35.619  39.246  1.00  0.00     0.200 A 
ATOM     84  F   UNL A   1      40.649  37.241  38.221  1.00  0.00    -0.200 F 
ATOM     85  F   UNL A   1      39.132  36.399  40.326  1.00  0.00    -0.200 F 
ENDBRANCH  51  75
BRANCH  63  86
ATOM     86  C   UNL A   1      43.839  28.782  35.244  1.00  0.00     0.064 A 
ATOM     87  C   UNL A   1      45.147  29.266  35.094  1.00  0.00     0.173 A 
ATOM     88  C   UNL A   1      43.634  27.701  36.116  1.00  0.00     0.173 A 
ATOM     89  F   UNL A   1      45.397  30.286  34.260  1.00  0.00    -0.203 F 
ATOM     90  C   UNL A   1      46.210  28.675  35.771  1.00  0.00     0.198 A 
ATOM     91  C   UNL A   1      44.695  27.132  36.815  1.00  0.00     0.198 A 
ATOM     92  F   UNL A   1      42.401  27.206  36.300  1.00  0.00    -0.203 F 
ATOM     93  F   UNL A   1      47.458  29.123  35.578  1.00  0.00    -0.200 F 
ATOM     94  C   UNL A   1      45.982  27.614  36.636  1.00  0.00     0.200 A 
ATOM     95  F   UNL A   1      44.471  26.116  37.659  1.00  0.00    -0.200 F 
ATOM     96  F   UNL A   1      47.007  27.052  37.294  1.00  0.00    -0.200 F 
ENDBRANCH  63  86
ENDBRANCH  37  38
ENDBRANCH  29  32
ENDBRANCH  27  28
ENDBRANCH  26  27
ENDBRANCH  25  26
ENDBRANCH   3  25
TORSDOF 16
ENDMDL
MODEL 2
REMARK VINA RESULT:     -12.1      0.594      7.373
REMARK SMILES O=C(C[C@H]([NH2+]Cc1ccccc1C1CC1)c1cccs1)NCCCNC(=O)c1ccc(-c2c3nc(c(-c4c(F)c(F)c(F)c(F)c4F)c4ccc([nH]4)c(-c4c(F)c(F)c(F)c(F)c4F)c4nc(c(-c5c(F)c(F)c(F)c(F)c5F)c5ccc2[nH]5)C=C4)C=C3)cc1
REMARK SMILES IDX 1 1 2 2 21 3 3 5 4 6 16 7 17 8 20 9 18 10 19 11 5 12 6 15
REMARK SMILES IDX 7 16 8 17 12 18 9 19 11 20 10 21 13 22 14 23 15 24 22 25
REMARK SMILES IDX 23 26 24 27 25 28 26 29 27 31 28 32 29 33 90 34 30 35 89 36
REMARK SMILES IDX 31 37 32 38 33 39 83 40 34 41 88 42 82 43 84 44 35 45 87 46
REMARK SMILES IDX 81 47 80 48 36 50 68 51 48 52 67 53 49 54 52 55 66 56 85 57
REMARK SMILES IDX 50 58 51 59 65 61 86 62 53 63 37 64 38 65 46 66 39 67 40 68
REMARK SMILES IDX 44 69 47 70 41 71 42 72 45 73 43 74 69 75 70 76 78 77 71 78
REMARK SMILES IDX 72 79 76 80 79 81 73 82 74 83 77 84 75 85 54 86 55 87 63 88
REMARK SMILES IDX 56 89 57 90 61 91 64 92 58 93 59 94 62 95 60 96
REMARK H PARENT 21 4 5 13 5 14 25 30 84 49 52 60
REMARK Flexibility Score: inf
ROOT
ATOM      1  O   UNL A   1      32.719  28.025  26.604  1.00  0.00    -0.275 OA
ATOM      2  C   UNL A   1      32.963  28.790  25.676  1.00  0.00     0.226 C 
ATOM      3  N   UNL A   1      32.586  30.113  25.666  1.00  0.00    -0.356 N 
ATOM      4  H   UNL A   1      33.037  30.735  25.049  1.00  0.00     0.163 HD
ENDROOT
BRANCH   2   5
ATOM      5  C   UNL A   1      33.732  28.327  24.451  1.00  0.00     0.171 C 
BRANCH   5   6
ATOM      6  C   UNL A   1      33.078  27.216  23.593  1.00  0.00     0.233 C 
BRANCH   6   7
ATOM      7  C   UNL A   1      33.643  25.819  23.866  1.00  0.00     0.062 A 
ATOM      8  C   UNL A   1      34.411  25.427  24.952  1.00  0.00     0.021 A 
ATOM      9  S   UNL A   1      33.319  24.467  22.847  1.00  0.00    -0.143 S 
ATOM     10  C   UNL A   1      34.668  24.024  24.976  1.00  0.00     0.012 A 
ATOM     11  C   UNL A   1      34.138  23.385  23.880  1.00  0.00     0.065 A 
ENDBRANCH   6   7
BRANCH   6  12
ATOM     12  N   UNL A   1      31.611  27.262  23.703  1.00  0.00    -0.335 N 
ATOM     13  H   UNL A   1      31.366  27.454  24.674  1.00  0.00     0.347 HD
ATOM     14  H   UNL A   1      31.257  26.359  23.387  1.00  0.00     0.347 HD
BRANCH  12  15
ATOM     15  C   UNL A   1      30.994  28.287  22.858  1.00  0.00     0.298 C 
BRANCH  15  16
ATOM     16  C   UNL A   1      29.495  28.345  23.074  1.00  0.00     0.010 A 
ATOM     17  C   UNL A   1      28.894  27.192  23.641  1.00  0.00     0.010 A 
ATOM     18  C   UNL A   1      28.687  29.458  22.729  1.00  0.00    -0.036 A 
ATOM     19  C   UNL A   1      27.522  27.115  23.867  1.00  0.00     0.001 A 
ATOM     20  C   UNL A   1      27.292  29.320  22.949  1.00  0.00     0.004 A 
ATOM     21  C   UNL A   1      26.714  28.180  23.509  1.00  0.00     0.000 A 
BRANCH  18  22
ATOM     22  C   UNL A   1      29.120  30.811  22.177  1.00  0.00     0.020 C 
ATOM     23  C   UNL A   1      28.285  31.958  21.687  1.00  0.00     0.009 C 
ATOM     24  C   UNL A   1      28.881  32.018  23.060  1.00  0.00     0.009 C 
ENDBRANCH  18  22
ENDBRANCH  15  16
ENDBRANCH  12  15
ENDBRANCH   6  12
ENDBRANCH   5   6
ENDBRANCH   2   5
BRANCH   3  25
ATOM     25  C   UNL A   1      31.544  30.618  26.537  1.00  0.00     0.117 C 
BRANCH  25  26
ATOM     26  C   UNL A   1      31.457  32.130  26.544  1.00  0.00     0.042 C 
BRANCH  26  27
ATOM     27  C   UNL A   1      32.619  32.826  27.239  1.00  0.00     0.118 C 
BRANCH  27  28
ATOM     28  N   UNL A   1      32.346  34.204  27.628  1.00  0.00    -0.352 N 
ATOM     29  C   UNL A   1      32.964  34.982  28.580  1.00  0.00     0.251 C 
ATOM     30  H   UNL A   1      31.612  34.642  27.138  1.00  0.00     0.163 HD
ATOM     31  O   UNL A   1      32.532  36.101  28.841  1.00  0.00    -0.269 OA
BRANCH  29  32
ATOM     32  C   UNL A   1      34.125  34.451  29.329  1.00  0.00     0.039 A 
ATOM     33  C   UNL A   1      33.905  33.810  30.551  1.00  0.00     0.014 A 
ATOM     34  C   UNL A   1      35.420  34.548  28.814  1.00  0.00     0.014 A 
ATOM     35  C   UNL A   1      34.968  33.181  31.204  1.00  0.00     0.010 A 
ATOM     36  C   UNL A   1      36.458  33.845  29.418  1.00  0.00     0.010 A 
ATOM     37  C   UNL A   1      36.243  33.148  30.617  1.00  0.00    -0.014 A 
BRANCH  37  38
ATOM     38  C   UNL A   1      37.359  32.379  31.227  1.00  0.00     0.031 A 
ATOM     39  C   UNL A   1      37.853  32.726  32.604  1.00  0.00     0.074 A 
ATOM     40  C   UNL A   1      37.983  31.423  30.510  1.00  0.00     0.049 A 
ATOM     41  N   UNL A   1      38.871  32.237  33.268  1.00  0.00    -0.248 NA
ATOM     42  C   UNL A   1      37.126  33.788  33.317  1.00  0.00     0.031 C 
ATOM     43  C   UNL A   1      37.640  31.028  29.143  1.00  0.00     0.029 A 
ATOM     44  N   UNL A   1      39.050  30.617  30.829  1.00  0.00    -0.354 N 
ATOM     45  C   UNL A   1      38.915  32.943  34.463  1.00  0.00     0.074 A 
ATOM     46  C   UNL A   1      37.858  33.929  34.412  1.00  0.00     0.031 C 
ATOM     47  C   UNL A   1      38.461  30.041  28.750  1.00  0.00     0.029 A 
ATOM     48  C   UNL A   1      39.415  29.761  29.819  1.00  0.00     0.049 A 
ATOM     49  H   UNL A   1      39.509  30.651  31.699  1.00  0.00     0.167 HD
ATOM     50  C   UNL A   1      39.746  32.767  35.518  1.00  0.00     0.037 A 
ATOM     51  C   UNL A   1      40.412  28.857  29.758  1.00  0.00     0.037 A 
ATOM     52  C   UNL A   1      40.775  31.763  35.582  1.00  0.00     0.049 A 
ATOM     53  C   UNL A   1      41.317  28.678  30.946  1.00  0.00     0.074 A 
ATOM     54  C   UNL A   1      41.624  31.464  36.634  1.00  0.00     0.029 A 
ATOM     55  N   UNL A   1      41.096  30.896  34.548  1.00  0.00    -0.354 N 
ATOM     56  N   UNL A   1      41.304  29.302  32.098  1.00  0.00    -0.248 NA
ATOM     57  C   UNL A   1      42.372  27.661  30.828  1.00  0.00     0.031 C 
ATOM     58  C   UNL A   1      42.486  30.442  36.222  1.00  0.00     0.029 A 
ATOM     59  C   UNL A   1      42.144  30.072  34.932  1.00  0.00     0.049 A 
ATOM     60  H   UNL A   1      40.647  30.868  33.674  1.00  0.00     0.167 HD
ATOM     61  C   UNL A   1      42.326  28.738  32.850  1.00  0.00     0.074 A 
ATOM     62  C   UNL A   1      42.930  27.710  32.029  1.00  0.00     0.031 C 
ATOM     63  C   UNL A   1      42.727  29.046  34.107  1.00  0.00     0.037 A 
BRANCH  50  64
ATOM     64  C   UNL A   1      39.569  33.679  36.698  1.00  0.00     0.064 A 
ATOM     65  C   UNL A   1      38.751  33.328  37.783  1.00  0.00     0.173 A 
ATOM     66  C   UNL A   1      40.252  34.902  36.761  1.00  0.00     0.173 A 
ATOM     67  F   UNL A   1      38.067  32.174  37.766  1.00  0.00    -0.203 F 
ATOM     68  C   UNL A   1      38.600  34.181  38.872  1.00  0.00     0.198 A 
ATOM     69  C   UNL A   1      40.124  35.739  37.866  1.00  0.00     0.198 A 
ATOM     70  F   UNL A   1      41.052  35.285  35.754  1.00  0.00    -0.203 F 
ATOM     71  F   UNL A   1      37.773  33.846  39.872  1.00  0.00    -0.200 F 
ATOM     72  C   UNL A   1      39.291  35.382  38.917  1.00  0.00     0.200 A 
ATOM     73  F   UNL A   1      40.801  36.894  37.915  1.00  0.00    -0.200 F 
ATOM     74  F   UNL A   1      39.149  36.199  39.969  1.00  0.00    -0.200 F 
ENDBRANCH  50  64
BRANCH  51  75
ATOM     75  C   UNL A   1      40.591  28.030  28.536  1.00  0.00     0.064 A 
ATOM     76  C   UNL A   1      39.998  26.764  28.433  1.00  0.00     0.173 A 
ATOM     77  C   UNL A   1      41.360  28.480  27.454  1.00  0.00     0.173 A 
ATOM     78  F   UNL A   1      39.272  26.280  29.452  1.00  0.00    -0.203 F 
ATOM     79  C   UNL A   1      40.185  25.970  27.303  1.00  0.00     0.198 A 
ATOM     80  C   UNL A   1      41.523  27.698  26.312  1.00  0.00     0.198 A 
ATOM     81  F   UNL A   1      41.945  29.686  27.500  1.00  0.00    -0.203 F 
ATOM     82  F   UNL A   1      39.645  24.745  27.251  1.00  0.00    -0.200 F 
ATOM     83  C   UNL A   1      40.943  26.440  26.241  1.00  0.00     0.200 A 
ATOM     84  F   UNL A   1      42.247  28.159  25.282  1.00  0.00    -0.200 F 
ATOM     85  F   UNL A   1      41.121  25.678  25.154  1.00  0.00    -0.200 F 
ENDBRANCH  51  75
BRANCH  63  86
ATOM     86  C   UNL A   1      43.849  28.236  34.689  1.00  0.00     0.064 A 
ATOM     87  C   UNL A   1      43.613  27.031  35.366  1.00  0.00     0.173 A 
ATOM     88  C   UNL A   1      45.180  28.651  34.531  1.00  0.00     0.173 A 
ATOM     89  F   UNL A   1      42.357  26.599  35.557  1.00  0.00    -0.203 F 
ATOM     90  C   UNL A   1      44.666  26.284  35.885  1.00  0.00     0.198 A 
ATOM     91  C   UNL A   1      46.233  27.887  35.025  1.00  0.00     0.198 A 
ATOM     92  F   UNL A   1      45.460  29.793  33.885  1.00  0.00    -0.203 F 
ATOM     93  F   UNL A   1      44.415  25.159  36.570  1.00  0.00    -0.200 F 
ATOM     94  C   UNL A   1      45.975  26.709  35.708  1.00  0.00     0.200 A 
ATOM     95  F   UNL A   1      47.497  28.292  34.842  1.00  0.00    -0.200 F 
ATOM     96  F   UNL A   1      46.989  25.984  36.202  1.00  0.00    -0.200 F 
ENDBRANCH  63  86
ENDBRANCH  37  38
ENDBRANCH  29  32
ENDBRANCH  27  28
ENDBRANCH  26  27
ENDBRANCH  25  26
ENDBRANCH   3  25
TORSDOF 16
ENDMDL
MODEL 3
REMARK VINA RESULT:     -12.1      4.859      8.202
REMARK SMILES O=C(C[C@H]([NH2+]Cc1ccccc1C1CC1)c1cccs1)NCCCNC(=O)c1ccc(-c2c3nc(c(-c4c(F)c(F)c(F)c(F)c4F)c4ccc([nH]4)c(-c4c(F)c(F)c(F)c(F)c4F)c4nc(c(-c5c(F)c(F)c(F)c(F)c5F)c5ccc2[nH]5)C=C4)C=C3)cc1
REMARK SMILES IDX 1 1 2 2 21 3 3 5 4 6 16 7 17 8 20 9 18 10 19 11 5 12 6 15
REMARK SMILES IDX 7 16 8 17 12 18 9 19 11 20 10 21 13 22 14 23 15 24 22 25
REMARK SMILES IDX 23 26 24 27 25 28 26 29 27 31 28 32 29 33 90 34 30 35 89 36
REMARK SMILES IDX 31 37 32 38 33 39 83 40 34 41 88 42 82 43 84 44 35 45 87 46
REMARK SMILES IDX 81 47 80 48 36 50 68 51 48 52 67 53 49 54 52 55 66 56 85 57
REMARK SMILES IDX 50 58 51 59 65 61 86 62 53 63 37 64 38 65 46 66 39 67 40 68
REMARK SMILES IDX 44 69 47 70 41 71 42 72 45 73 43 74 69 75 70 76 78 77 71 78
REMARK SMILES IDX 72 79 76 80 79 81 73 82 74 83 77 84 75 85 54 86 55 87 63 88
REMARK SMILES IDX 56 89 57 90 61 91 64 92 58 93 59 94 62 95 60 96
REMARK H PARENT 21 4 5 13 5 14 25 30 84 49 52 60
REMARK Flexibility Score: inf
ROOT
ATOM      1  O   UNL A   1      36.890  34.953  33.755  1.00  0.00    -0.275 OA
ATOM      2  C   UNL A   1      36.052  34.387  34.452  1.00  0.00     0.226 C 
ATOM      3  N   UNL A   1      34.701  34.631  34.360  1.00  0.00    -0.356 N 
ATOM      4  H   UNL A   1      34.069  33.969  34.726  1.00  0.00     0.163 HD
ENDROOT
BRANCH   2   5
ATOM      5  C   UNL A   1      36.453  33.342  35.477  1.00  0.00     0.171 C 
BRANCH   5   6
ATOM      6  C   UNL A   1      37.970  33.142  35.717  1.00  0.00     0.233 C 
BRANCH   6   7
ATOM      7  C   UNL A   1      38.481  33.812  36.996  1.00  0.00     0.062 A 
ATOM      8  C   UNL A   1      39.018  35.086  37.113  1.00  0.00     0.021 A 
ATOM      9  S   UNL A   1      38.380  33.065  38.546  1.00  0.00    -0.143 S 
ATOM     10  C   UNL A   1      39.278  35.459  38.465  1.00  0.00     0.012 A 
ATOM     11  C   UNL A   1      38.985  34.444  39.345  1.00  0.00     0.065 A 
ENDBRANCH   6   7
BRANCH   6  12
ATOM     12  N   UNL A   1      38.330  31.716  35.646  1.00  0.00    -0.335 N 
ATOM     13  H   UNL A   1      37.509  31.191  35.347  1.00  0.00     0.347 HD
ATOM     14  H   UNL A   1      38.649  31.440  36.574  1.00  0.00     0.347 HD
BRANCH  12  15
ATOM     15  C   UNL A   1      39.424  31.437  34.713  1.00  0.00     0.298 C 
BRANCH  15  16
ATOM     16  C   UNL A   1      39.073  30.290  33.786  1.00  0.00     0.010 A 
ATOM     17  C   UNL A   1      37.769  30.305  33.230  1.00  0.00     0.010 A 
ATOM     18  C   UNL A   1      39.956  29.226  33.473  1.00  0.00    -0.036 A 
ATOM     19  C   UNL A   1      37.322  29.295  32.382  1.00  0.00     0.001 A 
ATOM     20  C   UNL A   1      39.444  28.205  32.631  1.00  0.00     0.004 A 
ATOM     21  C   UNL A   1      38.159  28.234  32.089  1.00  0.00     0.000 A 
BRANCH  18  22
ATOM     22  C   UNL A   1      41.409  29.041  33.897  1.00  0.00     0.020 C 
ATOM     23  C   UNL A   1      42.125  29.549  35.114  1.00  0.00     0.009 C 
ATOM     24  C   UNL A   1      41.667  28.124  35.074  1.00  0.00     0.009 C 
ENDBRANCH  18  22
ENDBRANCH  15  16
ENDBRANCH  12  15
ENDBRANCH   6  12
ENDBRANCH   5   6
ENDBRANCH   2   5
BRANCH   3  25
ATOM     25  C   UNL A   1      34.181  35.832  33.738  1.00  0.00     0.117 C 
BRANCH  25  26
ATOM     26  C   UNL A   1      33.224  35.543  32.599  1.00  0.00     0.042 C 
BRANCH  26  27
ATOM     27  C   UNL A   1      33.671  36.082  31.247  1.00  0.00     0.118 C 
BRANCH  27  28
ATOM     28  N   UNL A   1      32.923  35.552  30.114  1.00  0.00    -0.352 N 
ATOM     29  C   UNL A   1      33.280  34.579  29.209  1.00  0.00     0.251 C 
ATOM     30  H   UNL A   1      32.031  35.948  29.977  1.00  0.00     0.163 HD
ATOM     31  O   UNL A   1      32.554  34.326  28.252  1.00  0.00    -0.269 OA
BRANCH  29  32
ATOM     32  C   UNL A   1      34.569  33.866  29.361  1.00  0.00     0.039 A 
ATOM     33  C   UNL A   1      35.629  34.201  28.515  1.00  0.00     0.014 A 
ATOM     34  C   UNL A   1      34.745  32.901  30.356  1.00  0.00     0.014 A 
ATOM     35  C   UNL A   1      36.891  33.641  28.733  1.00  0.00     0.010 A 
ATOM     36  C   UNL A   1      36.020  32.414  30.628  1.00  0.00     0.010 A 
ATOM     37  C   UNL A   1      37.109  32.783  29.823  1.00  0.00    -0.014 A 
BRANCH  37  38
ATOM     38  C   UNL A   1      38.467  32.274  30.152  1.00  0.00     0.031 A 
ATOM     39  C   UNL A   1      38.939  30.962  29.590  1.00  0.00     0.074 A 
ATOM     40  C   UNL A   1      39.244  32.953  31.020  1.00  0.00     0.049 A 
ATOM     41  N   UNL A   1      40.048  30.307  29.832  1.00  0.00    -0.248 NA
ATOM     42  C   UNL A   1      38.030  30.278  28.658  1.00  0.00     0.031 C 
ATOM     43  C   UNL A   1      38.882  34.209  31.678  1.00  0.00     0.029 A 
ATOM     44  N   UNL A   1      40.497  32.672  31.509  1.00  0.00    -0.354 N 
ATOM     45  C   UNL A   1      39.959  29.131  29.099  1.00  0.00     0.074 A 
ATOM     46  C   UNL A   1      38.667  29.136  28.447  1.00  0.00     0.031 C 
ATOM     47  C   UNL A   1      39.897  34.602  32.465  1.00  0.00     0.029 A 
ATOM     48  C   UNL A   1      40.963  33.608  32.400  1.00  0.00     0.049 A 
ATOM     49  H   UNL A   1      41.011  31.874  31.246  1.00  0.00     0.167 HD
ATOM     50  C   UNL A   1      40.880  28.148  28.962  1.00  0.00     0.037 A 
ATOM     51  C   UNL A   1      42.118  33.656  33.091  1.00  0.00     0.037 A 
ATOM     52  C   UNL A   1      42.178  28.161  29.584  1.00  0.00     0.049 A 
ATOM     53  C   UNL A   1      43.127  32.554  32.916  1.00  0.00     0.074 A 
ATOM     54  C   UNL A   1      43.207  27.244  29.452  1.00  0.00     0.029 A 
ATOM     55  N   UNL A   1      42.625  29.141  30.457  1.00  0.00    -0.354 N 
ATOM     56  N   UNL A   1      43.061  31.483  32.165  1.00  0.00    -0.248 NA
ATOM     57  C   UNL A   1      44.378  32.674  33.680  1.00  0.00     0.031 C 
ATOM     58  C   UNL A   1      44.261  27.647  30.278  1.00  0.00     0.029 A 
ATOM     59  C   UNL A   1      43.909  28.841  30.887  1.00  0.00     0.049 A 
ATOM     60  H   UNL A   1      42.109  29.933  30.730  1.00  0.00     0.167 HD
ATOM     61  C   UNL A   1      44.266  30.816  32.344  1.00  0.00     0.074 A 
ATOM     62  C   UNL A   1      45.051  31.611  33.263  1.00  0.00     0.031 C 
ATOM     63  C   UNL A   1      44.682  29.648  31.795  1.00  0.00     0.037 A 
BRANCH  50  64
ATOM     64  C   UNL A   1      40.519  26.976  28.095  1.00  0.00     0.064 A 
ATOM     65  C   UNL A   1      41.115  26.778  26.840  1.00  0.00     0.173 A 
ATOM     66  C   UNL A   1      39.593  26.021  28.540  1.00  0.00     0.173 A 
ATOM     67  F   UNL A   1      41.998  27.669  26.364  1.00  0.00    -0.203 F 
ATOM     68  C   UNL A   1      40.773  25.685  26.050  1.00  0.00     0.198 A 
ATOM     69  C   UNL A   1      39.277  24.911  27.760  1.00  0.00     0.198 A 
ATOM     70  F   UNL A   1      38.999  26.158  29.734  1.00  0.00    -0.203 F 
ATOM     71  F   UNL A   1      41.317  25.545  24.833  1.00  0.00    -0.200 F 
ATOM     72  C   UNL A   1      39.861  24.749  26.512  1.00  0.00     0.200 A 
ATOM     73  F   UNL A   1      38.405  24.001  28.213  1.00  0.00    -0.200 F 
ATOM     74  F   UNL A   1      39.538  23.693  25.752  1.00  0.00    -0.200 F 
ENDBRANCH  50  64
BRANCH  51  75
ATOM     75  C   UNL A   1      42.396  34.803  33.995  1.00  0.00     0.064 A 
ATOM     76  C   UNL A   1      42.837  36.030  33.482  1.00  0.00     0.173 A 
ATOM     77  C   UNL A   1      42.235  34.697  35.383  1.00  0.00     0.173 A 
ATOM     78  F   UNL A   1      43.029  36.174  32.161  1.00  0.00    -0.203 F 
ATOM     79  C   UNL A   1      43.128  37.101  34.323  1.00  0.00     0.198 A 
ATOM     80  C   UNL A   1      42.498  35.777  36.223  1.00  0.00     0.198 A 
ATOM     81  F   UNL A   1      41.811  33.545  35.925  1.00  0.00    -0.203 F 
ATOM     82  F   UNL A   1      43.593  38.248  33.810  1.00  0.00    -0.200 F 
ATOM     83  C   UNL A   1      42.953  36.976  35.694  1.00  0.00     0.200 A 
ATOM     84  F   UNL A   1      42.316  35.656  37.546  1.00  0.00    -0.200 F 
ATOM     85  F   UNL A   1      43.229  38.006  36.503  1.00  0.00    -0.200 F 
ENDBRANCH  51  75
BRANCH  63  86
ATOM     86  C   UNL A   1      46.064  29.179  32.143  1.00  0.00     0.064 A 
ATOM     87  C   UNL A   1      47.182  29.550  31.381  1.00  0.00     0.173 A 
ATOM     88  C   UNL A   1      46.277  28.380  33.277  1.00  0.00     0.173 A 
ATOM     89  F   UNL A   1      47.028  30.298  30.279  1.00  0.00    -0.203 F 
ATOM     90  C   UNL A   1      48.459  29.118  31.728  1.00  0.00     0.198 A 
ATOM     91  C   UNL A   1      47.559  27.975  33.638  1.00  0.00     0.198 A 
ATOM     92  F   UNL A   1      45.242  28.004  34.043  1.00  0.00    -0.203 F 
ATOM     93  F   UNL A   1      49.507  29.445  30.960  1.00  0.00    -0.200 F 
ATOM     94  C   UNL A   1      48.647  28.338  32.860  1.00  0.00     0.200 A 
ATOM     95  F   UNL A   1      47.741  27.233  34.739  1.00  0.00    -0.200 F 
ATOM     96  F   UNL A   1      49.879  27.930  33.196  1.00  0.00    -0.200 F 
ENDBRANCH  63  86
ENDBRANCH  37  38
ENDBRANCH  29  32
ENDBRANCH  27  28
ENDBRANCH  26  27
ENDBRANCH  25  26
ENDBRANCH   3  25
TORSDOF 16
ENDMDL
