MODEL 1
REMARK VINA RESULT:     -12.7      0.000      0.000
REMARK SMILES CCn1cccc1C(=O)N(C)c1snc(C)c1C(=O)NCCCNC(=O)c1ccc(-c2c3nc(c(-c4c(F)c(F)c(F)c(F)c4F)c4ccc([nH]4)c(-c4c(F)c(F)c(F)c(F)c4F)c4nc(c(-c5c(F)c(F)c(F)c(F)c5F)c5ccc2[nH]5)C=C4)C=C3)cc1
REMARK SMILES IDX 21 1 20 2 18 3 19 4 17 6 12 7 13 8 14 9 15 10 16 11 10 12
REMARK SMILES IDX 11 13 8 14 9 15 7 16 3 17 4 18 5 19 6 20 2 21 1 22 22 23
REMARK SMILES IDX 23 24 24 25 25 26 26 28 27 29 28 30 89 31 29 32 88 33 30 34
REMARK SMILES IDX 31 35 32 36 82 37 33 38 87 39 81 40 83 41 34 42 86 43 80 44
REMARK SMILES IDX 79 45 35 47 67 48 47 49 66 50 48 51 51 52 65 53 84 54 49 55
REMARK SMILES IDX 50 56 64 58 85 59 52 60 36 61 37 62 45 63 38 64 39 65 43 66
REMARK SMILES IDX 46 67 40 68 41 69 44 70 42 71 68 72 69 73 77 74 70 75 71 76
REMARK SMILES IDX 75 77 78 78 72 79 73 80 76 81 74 82 53 83 54 84 62 85 55 86
REMARK SMILES IDX 56 87 60 88 63 89 57 90 58 91 61 92 59 93
REMARK H PARENT 20 5 24 27 83 46 51 57
REMARK Flexibility Score: inf
ROOT
ATOM      1  C   UNL A   1      36.611  22.021  25.451  1.00  0.00     0.118 C 
ENDROOT
BRANCH   1   2
ATOM      2  N   UNL A   1      35.656  21.935  26.509  1.00  0.00    -0.352 N 
ATOM      3  C   UNL A   1      34.292  21.749  26.412  1.00  0.00     0.256 C 
ATOM      4  O   UNL A   1      33.768  21.377  27.466  1.00  0.00    -0.269 OA
ATOM      5  H   UNL A   1      36.016  22.018  27.422  1.00  0.00     0.163 HD
BRANCH   3   6
ATOM      6  C   UNL A   1      33.458  22.030  25.221  1.00  0.00     0.097 A 
ATOM      7  C   UNL A   1      32.853  23.188  24.719  1.00  0.00     0.131 A 
ATOM      8  S   UNL A   1      32.111  22.866  23.208  1.00  0.00    -0.017 S 
ATOM      9  N   UNL A   1      32.362  21.250  23.229  1.00  0.00    -0.195 NA
ATOM     10  C   UNL A   1      33.063  20.927  24.316  1.00  0.00     0.066 A 
ATOM     11  C   UNL A   1      33.287  19.458  24.504  1.00  0.00     0.069 C 
BRANCH   7  12
ATOM     12  N   UNL A   1      32.598  24.489  25.197  1.00  0.00    -0.300 N 
ATOM     13  C   UNL A   1      31.295  24.696  25.821  1.00  0.00     0.154 C 
BRANCH  12  14
ATOM     14  C   UNL A   1      33.633  25.431  25.034  1.00  0.00     0.275 C 
ATOM     15  O   UNL A   1      34.643  25.306  25.737  1.00  0.00    -0.267 OA
BRANCH  14  16
ATOM     16  C   UNL A   1      33.514  26.664  24.206  1.00  0.00     0.107 A 
ATOM     17  N   UNL A   1      33.358  28.035  24.426  1.00  0.00    -0.344 N 
ATOM     18  C   UNL A   1      33.563  28.719  23.243  1.00  0.00     0.086 A 
ATOM     19  C   UNL A   1      33.618  27.822  22.214  1.00  0.00     0.020 A 
ATOM     20  C   UNL A   1      33.576  26.552  22.806  1.00  0.00     0.033 A 
BRANCH  17  21
ATOM     21  C   UNL A   1      32.987  28.743  25.640  1.00  0.00     0.119 C 
ATOM     22  C   UNL A   1      34.109  29.106  26.608  1.00  0.00     0.027 C 
ENDBRANCH  17  21
ENDBRANCH  14  16
ENDBRANCH  12  14
ENDBRANCH   7  12
ENDBRANCH   3   6
ENDBRANCH   1   2
BRANCH   1  23
ATOM     23  C   UNL A   1      37.282  23.348  25.155  1.00  0.00     0.042 C 
BRANCH  23  24
ATOM     24  C   UNL A   1      37.753  24.091  26.386  1.00  0.00     0.118 C 
BRANCH  24  25
ATOM     25  N   UNL A   1      39.001  23.570  26.924  1.00  0.00    -0.352 N 
ATOM     26  C   UNL A   1      39.985  24.243  27.617  1.00  0.00     0.251 C 
ATOM     27  H   UNL A   1      39.165  22.611  26.774  1.00  0.00     0.163 HD
ATOM     28  O   UNL A   1      41.072  23.749  27.830  1.00  0.00    -0.269 OA
BRANCH  26  29
ATOM     29  C   UNL A   1      39.708  25.625  28.043  1.00  0.00     0.039 A 
ATOM     30  C   UNL A   1      39.146  25.822  29.306  1.00  0.00     0.014 A 
ATOM     31  C   UNL A   1      40.059  26.702  27.224  1.00  0.00     0.014 A 
ATOM     32  C   UNL A   1      39.038  27.114  29.794  1.00  0.00     0.010 A 
ATOM     33  C   UNL A   1      40.011  27.987  27.731  1.00  0.00     0.010 A 
ATOM     34  C   UNL A   1      39.520  28.184  29.025  1.00  0.00    -0.014 A 
BRANCH  34  35
ATOM     35  C   UNL A   1      39.676  29.496  29.680  1.00  0.00     0.031 A 
ATOM     36  C   UNL A   1      38.432  30.372  29.462  1.00  0.00     0.074 A 
ATOM     37  C   UNL A   1      40.861  29.722  30.323  1.00  0.00     0.049 A 
ATOM     38  N   UNL A   1      38.337  31.654  29.297  1.00  0.00    -0.248 NA
ATOM     39  C   UNL A   1      37.101  29.718  29.312  1.00  0.00     0.031 C 
ATOM     40  C   UNL A   1      41.927  28.710  30.486  1.00  0.00     0.029 A 
ATOM     41  N   UNL A   1      41.419  30.811  30.962  1.00  0.00    -0.354 N 
ATOM     42  C   UNL A   1      36.961  31.979  29.230  1.00  0.00     0.074 A 
ATOM     43  C   UNL A   1      36.266  30.736  29.089  1.00  0.00     0.031 C 
ATOM     44  C   UNL A   1      43.006  29.239  31.098  1.00  0.00     0.029 A 
ATOM     45  C   UNL A   1      42.761  30.635  31.397  1.00  0.00     0.049 A 
ATOM     46  H   UNL A   1      40.924  31.650  31.105  1.00  0.00     0.167 HD
ATOM     47  C   UNL A   1      36.491  33.241  29.482  1.00  0.00     0.037 A 
ATOM     48  C   UNL A   1      43.633  31.556  31.915  1.00  0.00     0.037 A 
ATOM     49  C   UNL A   1      37.590  34.095  29.782  1.00  0.00     0.049 A 
ATOM     50  C   UNL A   1      42.841  32.778  32.094  1.00  0.00     0.074 A 
ATOM     51  C   UNL A   1      38.622  34.585  29.026  1.00  0.00     0.029 A 
ATOM     52  N   UNL A   1      37.904  34.222  31.114  1.00  0.00    -0.354 N 
ATOM     53  N   UNL A   1      41.974  32.964  33.044  1.00  0.00    -0.248 NA
ATOM     54  C   UNL A   1      42.949  33.837  31.084  1.00  0.00     0.031 C 
ATOM     55  C   UNL A   1      39.717  34.523  29.911  1.00  0.00     0.029 A 
ATOM     56  C   UNL A   1      39.268  34.249  31.208  1.00  0.00     0.049 A 
ATOM     57  H   UNL A   1      37.266  34.283  31.860  1.00  0.00     0.167 HD
ATOM     58  C   UNL A   1      41.221  33.996  32.535  1.00  0.00     0.074 A 
ATOM     59  C   UNL A   1      42.048  34.686  31.571  1.00  0.00     0.031 C 
ATOM     60  C   UNL A   1      39.875  33.844  32.453  1.00  0.00     0.037 A 
BRANCH  47  61
ATOM     61  C   UNL A   1      35.122  33.785  29.817  1.00  0.00     0.064 A 
ATOM     62  C   UNL A   1      34.529  34.692  28.895  1.00  0.00     0.173 A 
ATOM     63  C   UNL A   1      34.572  33.777  31.103  1.00  0.00     0.173 A 
ATOM     64  F   UNL A   1      34.939  34.740  27.617  1.00  0.00    -0.203 F 
ATOM     65  C   UNL A   1      33.590  35.641  29.288  1.00  0.00     0.198 A 
ATOM     66  C   UNL A   1      33.583  34.695  31.478  1.00  0.00     0.198 A 
ATOM     67  F   UNL A   1      35.036  32.964  32.058  1.00  0.00    -0.203 F 
ATOM     68  F   UNL A   1      33.194  36.588  28.425  1.00  0.00    -0.200 F 
ATOM     69  C   UNL A   1      33.133  35.657  30.589  1.00  0.00     0.200 A 
ATOM     70  F   UNL A   1      33.129  34.697  32.739  1.00  0.00    -0.200 F 
ATOM     71  F   UNL A   1      32.289  36.615  30.996  1.00  0.00    -0.200 F 
ENDBRANCH  47  61
BRANCH  48  72
ATOM     72  C   UNL A   1      45.106  31.659  32.256  1.00  0.00     0.064 A 
ATOM     73  C   UNL A   1      45.659  31.677  33.541  1.00  0.00     0.173 A 
ATOM     74  C   UNL A   1      46.077  31.718  31.212  1.00  0.00     0.173 A 
ATOM     75  F   UNL A   1      44.882  31.763  34.626  1.00  0.00    -0.203 F 
ATOM     76  C   UNL A   1      47.052  31.642  33.758  1.00  0.00     0.198 A 
ATOM     77  C   UNL A   1      47.453  31.641  31.422  1.00  0.00     0.198 A 
ATOM     78  F   UNL A   1      45.734  31.859  29.927  1.00  0.00    -0.203 F 
ATOM     79  F   UNL A   1      47.530  31.655  35.009  1.00  0.00    -0.200 F 
ATOM     80  C   UNL A   1      47.944  31.588  32.700  1.00  0.00     0.200 A 
ATOM     81  F   UNL A   1      48.283  31.612  30.369  1.00  0.00    -0.200 F 
ATOM     82  F   UNL A   1      49.265  31.505  32.909  1.00  0.00    -0.200 F 
ENDBRANCH  48  72
BRANCH  60  83
ATOM     83  C   UNL A   1      39.287  32.899  33.486  1.00  0.00     0.064 A 
ATOM     84  C   UNL A   1      39.369  33.218  34.851  1.00  0.00     0.173 A 
ATOM     85  C   UNL A   1      38.748  31.639  33.184  1.00  0.00     0.173 A 
ATOM     86  F   UNL A   1      39.845  34.414  35.230  1.00  0.00    -0.203 F 
ATOM     87  C   UNL A   1      38.961  32.322  35.845  1.00  0.00     0.198 A 
ATOM     88  C   UNL A   1      38.337  30.740  34.172  1.00  0.00     0.198 A 
ATOM     89  F   UNL A   1      38.605  31.251  31.920  1.00  0.00    -0.203 F 
ATOM     90  F   UNL A   1      39.058  32.668  37.136  1.00  0.00    -0.200 F 
ATOM     91  C   UNL A   1      38.449  31.081  35.505  1.00  0.00     0.200 A 
ATOM     92  F   UNL A   1      37.823  29.549  33.825  1.00  0.00    -0.200 F 
ATOM     93  F   UNL A   1      38.047  30.226  36.457  1.00  0.00    -0.200 F 
ENDBRANCH  60  83
ENDBRANCH  34  35
ENDBRANCH  26  29
ENDBRANCH  24  25
ENDBRANCH  23  24
ENDBRANCH   1  23
TORSDOF 14
ENDMDL
MODEL 2
REMARK VINA RESULT:     -12.7      4.680      9.771
REMARK SMILES CCn1cccc1C(=O)N(C)c1snc(C)c1C(=O)NCCCNC(=O)c1ccc(-c2c3nc(c(-c4c(F)c(F)c(F)c(F)c4F)c4ccc([nH]4)c(-c4c(F)c(F)c(F)c(F)c4F)c4nc(c(-c5c(F)c(F)c(F)c(F)c5F)c5ccc2[nH]5)C=C4)C=C3)cc1
REMARK SMILES IDX 21 1 20 2 18 3 19 4 17 6 12 7 13 8 14 9 15 10 16 11 10 12
REMARK SMILES IDX 11 13 8 14 9 15 7 16 3 17 4 18 5 19 6 20 2 21 1 22 22 23
REMARK SMILES IDX 23 24 24 25 25 26 26 28 27 29 28 30 89 31 29 32 88 33 30 34
REMARK SMILES IDX 31 35 32 36 82 37 33 38 87 39 81 40 83 41 34 42 86 43 80 44
REMARK SMILES IDX 79 45 35 47 67 48 47 49 66 50 48 51 51 52 65 53 84 54 49 55
REMARK SMILES IDX 50 56 64 58 85 59 52 60 36 61 37 62 45 63 38 64 39 65 43 66
REMARK SMILES IDX 46 67 40 68 41 69 44 70 42 71 68 72 69 73 77 74 70 75 71 76
REMARK SMILES IDX 75 77 78 78 72 79 73 80 76 81 74 82 53 83 54 84 62 85 55 86
REMARK SMILES IDX 56 87 60 88 63 89 57 90 58 91 61 92 59 93
REMARK H PARENT 20 5 24 27 83 46 51 57
REMARK Flexibility Score: inf
ROOT
ATOM      1  C   UNL A   1      33.001  29.683  25.620  1.00  0.00     0.118 C 
ENDROOT
BRANCH   1   2
ATOM      2  N   UNL A   1      33.667  29.372  24.396  1.00  0.00    -0.352 N 
ATOM      3  C   UNL A   1      33.291  28.459  23.431  1.00  0.00     0.256 C 
ATOM      4  O   UNL A   1      33.847  28.634  22.343  1.00  0.00    -0.269 OA
ATOM      5  H   UNL A   1      34.496  29.871  24.218  1.00  0.00     0.163 HD
BRANCH   3   6
ATOM      6  C   UNL A   1      32.386  27.304  23.631  1.00  0.00     0.097 A 
ATOM      7  C   UNL A   1      32.564  26.017  24.150  1.00  0.00     0.131 A 
ATOM      8  S   UNL A   1      31.066  25.188  24.217  1.00  0.00    -0.017 S 
ATOM      9  N   UNL A   1      30.196  26.333  23.438  1.00  0.00    -0.195 NA
ATOM     10  C   UNL A   1      30.979  27.380  23.178  1.00  0.00     0.066 A 
ATOM     11  C   UNL A   1      30.324  28.469  22.384  1.00  0.00     0.069 C 
BRANCH   7  12
ATOM     12  N   UNL A   1      33.663  25.207  24.500  1.00  0.00    -0.300 N 
ATOM     13  C   UNL A   1      34.280  25.489  25.793  1.00  0.00     0.154 C 
BRANCH  12  14
ATOM     14  C   UNL A   1      34.026  24.209  23.573  1.00  0.00     0.275 C 
ATOM     15  O   UNL A   1      34.020  24.506  22.373  1.00  0.00    -0.267 OA
BRANCH  14  16
ATOM     16  C   UNL A   1      34.236  22.778  23.931  1.00  0.00     0.107 A 
ATOM     17  N   UNL A   1      35.298  21.970  24.347  1.00  0.00    -0.344 N 
ATOM     18  C   UNL A   1      34.812  20.748  24.770  1.00  0.00     0.086 A 
ATOM     19  C   UNL A   1      33.493  20.651  24.426  1.00  0.00     0.020 A 
ATOM     20  C   UNL A   1      33.138  21.900  23.897  1.00  0.00     0.033 A 
BRANCH  17  21
ATOM     21  C   UNL A   1      36.726  22.238  24.333  1.00  0.00     0.119 C 
ATOM     22  C   UNL A   1      37.215  23.471  25.086  1.00  0.00     0.027 C 
ENDBRANCH  17  21
ENDBRANCH  14  16
ENDBRANCH  12  14
ENDBRANCH   7  12
ENDBRANCH   3   6
ENDBRANCH   1   2
BRANCH   1  23
ATOM     23  C   UNL A   1      33.471  29.041  26.912  1.00  0.00     0.042 C 
BRANCH  23  24
ATOM     24  C   UNL A   1      34.968  29.101  27.122  1.00  0.00     0.118 C 
BRANCH  24  25
ATOM     25  N   UNL A   1      35.431  30.413  27.552  1.00  0.00    -0.352 N 
ATOM     26  C   UNL A   1      36.641  30.752  28.119  1.00  0.00     0.251 C 
ATOM     27  H   UNL A   1      34.797  31.154  27.422  1.00  0.00     0.163 HD
ATOM     28  O   UNL A   1      36.830  31.838  28.627  1.00  0.00    -0.269 OA
BRANCH  26  29
ATOM     29  C   UNL A   1      37.699  29.728  28.157  1.00  0.00     0.039 A 
ATOM     30  C   UNL A   1      38.626  29.704  27.113  1.00  0.00     0.014 A 
ATOM     31  C   UNL A   1      37.799  28.854  29.243  1.00  0.00     0.014 A 
ATOM     32  C   UNL A   1      39.724  28.866  27.215  1.00  0.00     0.010 A 
ATOM     33  C   UNL A   1      38.923  28.063  29.378  1.00  0.00     0.010 A 
ATOM     34  C   UNL A   1      39.893  28.090  28.372  1.00  0.00    -0.014 A 
BRANCH  34  35
ATOM     35  C   UNL A   1      41.203  27.450  28.594  1.00  0.00     0.031 A 
ATOM     36  C   UNL A   1      41.201  25.999  28.086  1.00  0.00     0.074 A 
ATOM     37  C   UNL A   1      42.157  28.207  29.213  1.00  0.00     0.049 A 
ATOM     38  N   UNL A   1      41.799  24.952  28.560  1.00  0.00    -0.248 NA
ATOM     39  C   UNL A   1      40.330  25.636  26.932  1.00  0.00     0.031 C 
ATOM     40  C   UNL A   1      41.989  29.633  29.569  1.00  0.00     0.029 A 
ATOM     41  N   UNL A   1      43.438  27.962  29.668  1.00  0.00    -0.354 N 
ATOM     42  C   UNL A   1      41.551  23.875  27.674  1.00  0.00     0.074 A 
ATOM     43  C   UNL A   1      40.521  24.322  26.787  1.00  0.00     0.031 C 
ATOM     44  C   UNL A   1      43.067  30.097  30.233  1.00  0.00     0.029 A 
ATOM     45  C   UNL A   1      44.043  29.036  30.378  1.00  0.00     0.049 A 
ATOM     46  H   UNL A   1      43.898  27.106  29.514  1.00  0.00     0.167 HD
ATOM     47  C   UNL A   1      42.349  22.763  27.628  1.00  0.00     0.037 A 
ATOM     48  C   UNL A   1      45.221  29.058  31.077  1.00  0.00     0.037 A 
ATOM     49  C   UNL A   1      43.386  22.894  28.595  1.00  0.00     0.049 A 
ATOM     50  C   UNL A   1      45.849  27.759  30.814  1.00  0.00     0.074 A 
ATOM     51  C   UNL A   1      43.388  22.891  29.965  1.00  0.00     0.029 A 
ATOM     52  N   UNL A   1      44.562  23.444  28.142  1.00  0.00    -0.354 N 
ATOM     53  N   UNL A   1      46.437  27.434  29.702  1.00  0.00    -0.248 NA
ATOM     54  C   UNL A   1      45.731  26.705  31.829  1.00  0.00     0.031 C 
ATOM     55  C   UNL A   1      44.333  23.888  30.281  1.00  0.00     0.029 A 
ATOM     56  C   UNL A   1      45.032  24.265  29.129  1.00  0.00     0.049 A 
ATOM     57  H   UNL A   1      44.986  23.276  27.270  1.00  0.00     0.167 HD
ATOM     58  C   UNL A   1      46.442  26.061  29.781  1.00  0.00     0.074 A 
ATOM     59  C   UNL A   1      46.346  25.719  31.182  1.00  0.00     0.031 C 
ATOM     60  C   UNL A   1      45.913  25.346  28.756  1.00  0.00     0.037 A 
BRANCH  47  61
ATOM     61  C   UNL A   1      42.538  21.670  26.603  1.00  0.00     0.064 A 
ATOM     62  C   UNL A   1      42.102  20.360  26.949  1.00  0.00     0.173 A 
ATOM     63  C   UNL A   1      43.431  21.751  25.529  1.00  0.00     0.173 A 
ATOM     64  F   UNL A   1      41.199  20.170  27.925  1.00  0.00    -0.203 F 
ATOM     65  C   UNL A   1      42.663  19.218  26.383  1.00  0.00     0.198 A 
ATOM     66  C   UNL A   1      43.947  20.600  24.923  1.00  0.00     0.198 A 
ATOM     67  F   UNL A   1      43.907  22.926  25.103  1.00  0.00    -0.203 F 
ATOM     68  F   UNL A   1      42.348  18.008  26.867  1.00  0.00    -0.200 F 
ATOM     69  C   UNL A   1      43.605  19.339  25.383  1.00  0.00     0.200 A 
ATOM     70  F   UNL A   1      44.850  20.721  23.940  1.00  0.00    -0.200 F 
ATOM     71  F   UNL A   1      44.207  18.250  24.888  1.00  0.00    -0.200 F 
ENDBRANCH  47  61
BRANCH  48  72
ATOM     72  C   UNL A   1      45.954  29.973  32.037  1.00  0.00     0.064 A 
ATOM     73  C   UNL A   1      47.242  30.492  31.865  1.00  0.00     0.173 A 
ATOM     74  C   UNL A   1      45.315  30.407  33.237  1.00  0.00     0.173 A 
ATOM     75  F   UNL A   1      48.025  30.079  30.863  1.00  0.00    -0.203 F 
ATOM     76  C   UNL A   1      47.791  31.443  32.751  1.00  0.00     0.198 A 
ATOM     77  C   UNL A   1      45.838  31.377  34.091  1.00  0.00     0.198 A 
ATOM     78  F   UNL A   1      44.145  29.902  33.644  1.00  0.00    -0.203 F 
ATOM     79  F   UNL A   1      49.028  31.913  32.537  1.00  0.00    -0.200 F 
ATOM     80  C   UNL A   1      47.076  31.909  33.841  1.00  0.00     0.200 A 
ATOM     81  F   UNL A   1      45.119  31.786  35.147  1.00  0.00    -0.200 F 
ATOM     82  F   UNL A   1      47.580  32.848  34.652  1.00  0.00    -0.200 F 
ENDBRANCH  48  72
BRANCH  60  83
ATOM     83  C   UNL A   1      45.981  26.039  27.407  1.00  0.00     0.064 A 
ATOM     84  C   UNL A   1      47.228  26.332  26.834  1.00  0.00     0.173 A 
ATOM     85  C   UNL A   1      44.861  26.526  26.715  1.00  0.00     0.173 A 
ATOM     86  F   UNL A   1      48.352  25.881  27.413  1.00  0.00    -0.203 F 
ATOM     87  C   UNL A   1      47.344  27.084  25.660  1.00  0.00     0.198 A 
ATOM     88  C   UNL A   1      44.969  27.276  25.541  1.00  0.00     0.198 A 
ATOM     89  F   UNL A   1      43.632  26.282  27.162  1.00  0.00    -0.203 F 
ATOM     90  F   UNL A   1      48.555  27.340  25.148  1.00  0.00    -0.200 F 
ATOM     91  C   UNL A   1      46.214  27.559  25.016  1.00  0.00     0.200 A 
ATOM     92  F   UNL A   1      43.863  27.712  24.918  1.00  0.00    -0.200 F 
ATOM     93  F   UNL A   1      46.324  28.270  23.884  1.00  0.00    -0.200 F 
ENDBRANCH  60  83
ENDBRANCH  34  35
ENDBRANCH  26  29
ENDBRANCH  24  25
ENDBRANCH  23  24
ENDBRANCH   1  23
TORSDOF 14
ENDMDL
MODEL 3
REMARK VINA RESULT:     -12.3      4.716      9.720
REMARK SMILES CCn1cccc1C(=O)N(C)c1snc(C)c1C(=O)NCCCNC(=O)c1ccc(-c2c3nc(c(-c4c(F)c(F)c(F)c(F)c4F)c4ccc([nH]4)c(-c4c(F)c(F)c(F)c(F)c4F)c4nc(c(-c5c(F)c(F)c(F)c(F)c5F)c5ccc2[nH]5)C=C4)C=C3)cc1
REMARK SMILES IDX 21 1 20 2 18 3 19 4 17 6 12 7 13 8 14 9 15 10 16 11 10 12
REMARK SMILES IDX 11 13 8 14 9 15 7 16 3 17 4 18 5 19 6 20 2 21 1 22 22 23
REMARK SMILES IDX 23 24 24 25 25 26 26 28 27 29 28 30 89 31 29 32 88 33 30 34
REMARK SMILES IDX 31 35 32 36 82 37 33 38 87 39 81 40 83 41 34 42 86 43 80 44
REMARK SMILES IDX 79 45 35 47 67 48 47 49 66 50 48 51 51 52 65 53 84 54 49 55
REMARK SMILES IDX 50 56 64 58 85 59 52 60 36 61 37 62 45 63 38 64 39 65 43 66
REMARK SMILES IDX 46 67 40 68 41 69 44 70 42 71 68 72 69 73 77 74 70 75 71 76
REMARK SMILES IDX 75 77 78 78 72 79 73 80 76 81 74 82 53 83 54 84 62 85 55 86
REMARK SMILES IDX 56 87 60 88 63 89 57 90 58 91 61 92 59 93
REMARK H PARENT 20 5 24 27 83 46 51 57
REMARK Flexibility Score: inf
ROOT
ATOM      1  C   UNL A   1      33.056  27.808  26.267  1.00  0.00     0.118 C 
ENDROOT
BRANCH   1   2
ATOM      2  N   UNL A   1      33.274  27.111  25.041  1.00  0.00    -0.352 N 
ATOM      3  C   UNL A   1      32.987  25.793  24.748  1.00  0.00     0.256 C 
ATOM      4  O   UNL A   1      32.961  25.550  23.538  1.00  0.00    -0.269 OA
ATOM      5  H   UNL A   1      33.679  27.636  24.313  1.00  0.00     0.163 HD
BRANCH   3   6
ATOM      6  C   UNL A   1      32.803  24.702  25.733  1.00  0.00     0.097 A 
ATOM      7  C   UNL A   1      33.628  23.669  26.192  1.00  0.00     0.131 A 
ATOM      8  S   UNL A   1      32.851  22.800  27.449  1.00  0.00    -0.017 S 
ATOM      9  N   UNL A   1      31.411  23.566  27.328  1.00  0.00    -0.195 NA
ATOM     10  C   UNL A   1      31.498  24.526  26.408  1.00  0.00     0.066 A 
ATOM     11  C   UNL A   1      30.215  25.250  26.135  1.00  0.00     0.069 C 
BRANCH   7  12
ATOM     12  N   UNL A   1      34.854  23.097  25.798  1.00  0.00    -0.300 N 
ATOM     13  C   UNL A   1      36.022  23.969  25.877  1.00  0.00     0.154 C 
BRANCH  12  14
ATOM     14  C   UNL A   1      34.814  21.748  25.392  1.00  0.00     0.275 C 
ATOM     15  O   UNL A   1      35.748  21.013  25.736  1.00  0.00    -0.267 OA
BRANCH  14  16
ATOM     16  C   UNL A   1      33.819  21.198  24.429  1.00  0.00     0.107 A 
ATOM     17  N   UNL A   1      33.122  20.000  24.246  1.00  0.00    -0.344 N 
ATOM     18  C   UNL A   1      32.134  20.180  23.297  1.00  0.00     0.086 A 
ATOM     19  C   UNL A   1      32.315  21.391  22.691  1.00  0.00     0.020 A 
ATOM     20  C   UNL A   1      33.363  22.016  23.381  1.00  0.00     0.033 A 
BRANCH  17  21
ATOM     21  C   UNL A   1      33.343  18.698  24.852  1.00  0.00     0.119 C 
ATOM     22  C   UNL A   1      34.401  17.801  24.217  1.00  0.00     0.027 C 
ENDBRANCH  17  21
ENDBRANCH  14  16
ENDBRANCH  12  14
ENDBRANCH   7  12
ENDBRANCH   3   6
ENDBRANCH   1   2
BRANCH   1  23
ATOM     23  C   UNL A   1      33.686  29.172  26.475  1.00  0.00     0.042 C 
BRANCH  23  24
ATOM     24  C   UNL A   1      35.054  29.128  27.118  1.00  0.00     0.118 C 
BRANCH  24  25
ATOM     25  N   UNL A   1      35.518  30.435  27.562  1.00  0.00    -0.352 N 
ATOM     26  C   UNL A   1      36.727  30.768  28.136  1.00  0.00     0.251 C 
ATOM     27  H   UNL A   1      34.886  31.179  27.436  1.00  0.00     0.163 HD
ATOM     28  O   UNL A   1      36.915  31.848  28.654  1.00  0.00    -0.269 OA
BRANCH  26  29
ATOM     29  C   UNL A   1      37.783  29.742  28.168  1.00  0.00     0.039 A 
ATOM     30  C   UNL A   1      38.702  29.713  27.117  1.00  0.00     0.014 A 
ATOM     31  C   UNL A   1      37.889  28.869  29.255  1.00  0.00     0.014 A 
ATOM     32  C   UNL A   1      39.799  28.873  27.213  1.00  0.00     0.010 A 
ATOM     33  C   UNL A   1      39.013  28.076  29.383  1.00  0.00     0.010 A 
ATOM     34  C   UNL A   1      39.976  28.100  28.370  1.00  0.00    -0.014 A 
BRANCH  34  35
ATOM     35  C   UNL A   1      41.286  27.458  28.583  1.00  0.00     0.031 A 
ATOM     36  C   UNL A   1      41.277  26.005  28.080  1.00  0.00     0.074 A 
ATOM     37  C   UNL A   1      42.246  28.215  29.193  1.00  0.00     0.049 A 
ATOM     38  N   UNL A   1      41.877  24.958  28.551  1.00  0.00    -0.248 NA
ATOM     39  C   UNL A   1      40.396  25.641  26.934  1.00  0.00     0.031 C 
ATOM     40  C   UNL A   1      42.083  29.642  29.546  1.00  0.00     0.029 A 
ATOM     41  N   UNL A   1      43.530  27.969  29.639  1.00  0.00    -0.354 N 
ATOM     42  C   UNL A   1      41.620  23.880  27.671  1.00  0.00     0.074 A 
ATOM     43  C   UNL A   1      40.584  24.326  26.790  1.00  0.00     0.031 C 
ATOM     44  C   UNL A   1      43.168  30.105  30.201  1.00  0.00     0.029 A 
ATOM     45  C   UNL A   1      44.143  29.043  30.341  1.00  0.00     0.049 A 
ATOM     46  H   UNL A   1      43.987  27.111  29.483  1.00  0.00     0.167 HD
ATOM     47  C   UNL A   1      42.415  22.766  27.621  1.00  0.00     0.037 A 
ATOM     48  C   UNL A   1      45.326  29.064  31.031  1.00  0.00     0.037 A 
ATOM     49  C   UNL A   1      43.460  22.898  28.580  1.00  0.00     0.049 A 
ATOM     50  C   UNL A   1      45.950  27.764  30.767  1.00  0.00     0.074 A 
ATOM     51  C   UNL A   1      43.473  22.898  29.950  1.00  0.00     0.029 A 
ATOM     52  N   UNL A   1      44.634  23.444  28.116  1.00  0.00    -0.354 N 
ATOM     53  N   UNL A   1      46.528  27.434  29.651  1.00  0.00    -0.248 NA
ATOM     54  C   UNL A   1      45.838  26.712  31.786  1.00  0.00     0.031 C 
ATOM     55  C   UNL A   1      44.422  23.894  30.256  1.00  0.00     0.029 A 
ATOM     56  C   UNL A   1      45.113  24.267  29.097  1.00  0.00     0.049 A 
ATOM     57  H   UNL A   1      45.050  23.273  27.241  1.00  0.00     0.167 HD
ATOM     58  C   UNL A   1      46.531  26.062  29.733  1.00  0.00     0.074 A 
ATOM     59  C   UNL A   1      46.445  25.724  31.136  1.00  0.00     0.031 C 
ATOM     60  C   UNL A   1      45.993  25.345  28.714  1.00  0.00     0.037 A 
BRANCH  47  61
ATOM     61  C   UNL A   1      42.595  21.670  26.598  1.00  0.00     0.064 A 
ATOM     62  C   UNL A   1      42.154  20.363  26.948  1.00  0.00     0.173 A 
ATOM     63  C   UNL A   1      43.483  21.744  25.519  1.00  0.00     0.173 A 
ATOM     64  F   UNL A   1      41.255  20.180  27.929  1.00  0.00    -0.203 F 
ATOM     65  C   UNL A   1      42.706  19.217  26.383  1.00  0.00     0.198 A 
ATOM     66  C   UNL A   1      43.990  20.590  24.913  1.00  0.00     0.198 A 
ATOM     67  F   UNL A   1      43.963  22.916  25.089  1.00  0.00    -0.203 F 
ATOM     68  F   UNL A   1      42.388  18.010  26.870  1.00  0.00    -0.200 F 
ATOM     69  C   UNL A   1      43.644  19.332  25.378  1.00  0.00     0.200 A 
ATOM     70  F   UNL A   1      44.889  20.704  23.926  1.00  0.00    -0.200 F 
ATOM     71  F   UNL A   1      44.239  18.238  24.882  1.00  0.00    -0.200 F 
ENDBRANCH  47  61
BRANCH  48  72
ATOM     72  C   UNL A   1      46.069  29.980  31.983  1.00  0.00     0.064 A 
ATOM     73  C   UNL A   1      45.823  30.125  33.353  1.00  0.00     0.173 A 
ATOM     74  C   UNL A   1      47.152  30.778  31.507  1.00  0.00     0.173 A 
ATOM     75  F   UNL A   1      44.761  29.552  33.929  1.00  0.00    -0.203 F 
ATOM     76  C   UNL A   1      46.653  30.905  34.185  1.00  0.00     0.198 A 
ATOM     77  C   UNL A   1      47.999  31.516  32.332  1.00  0.00     0.198 A 
ATOM     78  F   UNL A   1      47.439  30.884  30.204  1.00  0.00    -0.203 F 
ATOM     79  F   UNL A   1      46.377  31.006  35.492  1.00  0.00    -0.200 F 
ATOM     80  C   UNL A   1      47.758  31.569  33.680  1.00  0.00     0.200 A 
ATOM     81  F   UNL A   1      49.047  32.160  31.798  1.00  0.00    -0.200 F 
ATOM     82  F   UNL A   1      48.573  32.269  34.481  1.00  0.00    -0.200 F 
ENDBRANCH  48  72
BRANCH  60  83
ATOM     83  C   UNL A   1      46.052  26.035  27.363  1.00  0.00     0.064 A 
ATOM     84  C   UNL A   1      47.295  26.330  26.783  1.00  0.00     0.173 A 
ATOM     85  C   UNL A   1      44.926  26.516  26.676  1.00  0.00     0.173 A 
ATOM     86  F   UNL A   1      48.423  25.885  27.358  1.00  0.00    -0.203 F 
ATOM     87  C   UNL A   1      47.402  27.079  25.606  1.00  0.00     0.198 A 
ATOM     88  C   UNL A   1      45.027  27.263  25.499  1.00  0.00     0.198 A 
ATOM     89  F   UNL A   1      43.701  26.269  27.129  1.00  0.00    -0.203 F 
ATOM     90  F   UNL A   1      48.611  27.337  25.088  1.00  0.00    -0.200 F 
ATOM     91  C   UNL A   1      46.268  27.548  24.967  1.00  0.00     0.200 A 
ATOM     92  F   UNL A   1      43.916  27.693  24.880  1.00  0.00    -0.200 F 
ATOM     93  F   UNL A   1      46.370  28.257  23.832  1.00  0.00    -0.200 F 
ENDBRANCH  60  83
ENDBRANCH  34  35
ENDBRANCH  26  29
ENDBRANCH  24  25
ENDBRANCH  23  24
ENDBRANCH   1  23
TORSDOF 14
ENDMDL
