MODEL 1
REMARK VINA RESULT:     -10.7      0.000      0.000
REMARK SMILES CN(CC(C)(C)C)C(=O)N1CCO[C@@H](CC(=O)NCCCNC(=O)c2ccc(-c3c4nc(c(-c5c(F)c(F)c(F)c(F)c5F)c5ccc([nH]5)c(-c5c(F)c(F)c(F)c(F)c5F)c5nc(c(-c6c(F)c(F)c(F)c(F)c6F)c6ccc3[nH]6)C=C5)C=C4)cc2)C1
REMARK SMILES IDX 16 1 17 2 18 3 15 5 14 6 10 7 11 8 88 9 12 10 13 11 8 12
REMARK SMILES IDX 9 13 2 14 1 15 3 16 4 17 5 18 6 19 7 20 19 21 20 22 21 23
REMARK SMILES IDX 22 24 23 25 24 27 25 28 26 29 87 30 27 31 86 32 28 33 29 34
REMARK SMILES IDX 30 35 80 36 31 37 85 38 79 39 81 40 32 41 84 42 78 43 77 44
REMARK SMILES IDX 33 46 65 47 45 48 64 49 46 50 49 51 63 52 82 53 47 54 48 55
REMARK SMILES IDX 62 57 83 58 50 59 34 60 35 61 43 62 36 63 37 64 41 65 44 66
REMARK SMILES IDX 38 67 39 68 42 69 40 70 66 71 67 72 75 73 68 74 69 75 73 76
REMARK SMILES IDX 76 77 70 78 71 79 74 80 72 81 51 82 52 83 60 84 53 85 54 86
REMARK SMILES IDX 58 87 61 88 55 89 56 90 59 91 57 92
REMARK H PARENT 18 4 22 26 81 45 49 56
REMARK Flexibility Score: inf
ROOT
ATOM      1  C   UNL A   1      32.227  21.779  25.354  1.00  0.00     0.222 C 
ATOM      2  O   UNL A   1      31.063  21.735  25.759  1.00  0.00    -0.275 OA
ATOM      3  N   UNL A   1      33.233  21.558  26.252  1.00  0.00    -0.356 N 
ATOM      4  H   UNL A   1      32.926  21.256  27.137  1.00  0.00     0.163 HD
ENDROOT
BRANCH   1   5
ATOM      5  C   UNL A   1      32.526  22.077  23.901  1.00  0.00     0.133 C 
BRANCH   5   6
ATOM      6  C   UNL A   1      32.104  23.474  23.412  1.00  0.00     0.147 C 
ATOM      7  N   UNL A   1      32.751  25.888  23.895  1.00  0.00    -0.320 N 
ATOM      8  C   UNL A   1      33.592  25.805  22.711  1.00  0.00     0.150 C 
ATOM      9  C   UNL A   1      32.499  24.562  24.428  1.00  0.00     0.154 C 
ATOM     10  C   UNL A   1      32.857  24.969  21.674  1.00  0.00     0.182 C 
ATOM     11  O   UNL A   1      32.766  23.616  22.131  1.00  0.00    -0.374 OA
BRANCH   7  12
ATOM     12  C   UNL A   1      33.087  26.832  24.854  1.00  0.00     0.319 C 
ATOM     13  O   UNL A   1      33.907  26.582  25.737  1.00  0.00    -0.248 OA
BRANCH  12  14
ATOM     14  N   UNL A   1      32.355  28.008  24.818  1.00  0.00    -0.327 N 
ATOM     15  C   UNL A   1      30.980  27.904  24.354  1.00  0.00     0.148 C 
BRANCH  14  16
ATOM     16  C   UNL A   1      32.874  29.337  25.155  1.00  0.00     0.127 C 
BRANCH  16  17
ATOM     17  C   UNL A   1      32.599  29.810  26.616  1.00  0.00    -0.020 C 
ATOM     18  C   UNL A   1      33.895  30.130  27.369  1.00  0.00     0.012 C 
ATOM     19  C   UNL A   1      31.766  31.104  26.547  1.00  0.00     0.012 C 
ATOM     20  C   UNL A   1      31.820  28.768  27.434  1.00  0.00     0.012 C 
ENDBRANCH  16  17
ENDBRANCH  14  16
ENDBRANCH  12  14
ENDBRANCH   7  12
ENDBRANCH   5   6
ENDBRANCH   1   5
BRANCH   3  21
ATOM     21  C   UNL A   1      34.685  21.694  26.131  1.00  0.00     0.117 C 
BRANCH  21  22
ATOM     22  C   UNL A   1      35.162  23.090  26.542  1.00  0.00     0.042 C 
BRANCH  22  23
ATOM     23  C   UNL A   1      36.422  23.571  25.844  1.00  0.00     0.118 C 
BRANCH  23  24
ATOM     24  N   UNL A   1      37.509  22.615  25.938  1.00  0.00    -0.352 N 
ATOM     25  C   UNL A   1      38.829  22.801  26.261  1.00  0.00     0.251 C 
ATOM     26  H   UNL A   1      37.259  21.684  25.739  1.00  0.00     0.163 HD
ATOM     27  O   UNL A   1      39.616  21.867  26.079  1.00  0.00    -0.269 OA
BRANCH  25  28
ATOM     28  C   UNL A   1      39.346  24.080  26.817  1.00  0.00     0.039 A 
ATOM     29  C   UNL A   1      39.098  24.364  28.165  1.00  0.00     0.014 A 
ATOM     30  C   UNL A   1      39.985  25.042  26.030  1.00  0.00     0.014 A 
ATOM     31  C   UNL A   1      39.507  25.581  28.722  1.00  0.00     0.010 A 
ATOM     32  C   UNL A   1      40.473  26.218  26.605  1.00  0.00     0.010 A 
ATOM     33  C   UNL A   1      40.214  26.515  27.950  1.00  0.00    -0.014 A 
BRANCH  33  34
ATOM     34  C   UNL A   1      40.633  27.823  28.525  1.00  0.00     0.031 A 
ATOM     35  C   UNL A   1      42.076  28.072  28.879  1.00  0.00     0.074 A 
ATOM     36  C   UNL A   1      39.717  28.785  28.755  1.00  0.00     0.049 A 
ATOM     37  N   UNL A   1      42.632  29.135  29.407  1.00  0.00    -0.248 NA
ATOM     38  C   UNL A   1      43.019  26.969  28.628  1.00  0.00     0.031 C 
ATOM     39  C   UNL A   1      38.282  28.662  28.503  1.00  0.00     0.029 A 
ATOM     40  N   UNL A   1      39.860  30.057  29.254  1.00  0.00    -0.354 N 
ATOM     41  C   UNL A   1      43.976  28.821  29.566  1.00  0.00     0.074 A 
ATOM     42  C   UNL A   1      44.146  27.454  29.128  1.00  0.00     0.031 C 
ATOM     43  C   UNL A   1      37.679  29.820  28.819  1.00  0.00     0.029 A 
ATOM     44  C   UNL A   1      38.680  30.756  29.324  1.00  0.00     0.049 A 
ATOM     45  H   UNL A   1      40.727  30.432  29.534  1.00  0.00     0.167 HD
ATOM     46  C   UNL A   1      44.984  29.608  30.014  1.00  0.00     0.037 A 
ATOM     47  C   UNL A   1      38.433  32.012  29.748  1.00  0.00     0.037 A 
ATOM     48  C   UNL A   1      44.829  30.982  30.413  1.00  0.00     0.049 A 
ATOM     49  C   UNL A   1      39.573  32.872  30.223  1.00  0.00     0.074 A 
ATOM     50  C   UNL A   1      45.803  31.880  30.815  1.00  0.00     0.029 A 
ATOM     51  N   UNL A   1      43.620  31.658  30.455  1.00  0.00    -0.354 N 
ATOM     52  N   UNL A   1      40.848  32.583  30.309  1.00  0.00    -0.248 NA
ATOM     53  C   UNL A   1      39.237  34.236  30.655  1.00  0.00     0.031 C 
ATOM     54  C   UNL A   1      45.178  33.090  31.137  1.00  0.00     0.029 A 
ATOM     55  C   UNL A   1      43.820  32.958  30.896  1.00  0.00     0.049 A 
ATOM     56  H   UNL A   1      42.748  31.274  30.209  1.00  0.00     0.167 HD
ATOM     57  C   UNL A   1      41.468  33.731  30.782  1.00  0.00     0.074 A 
ATOM     58  C   UNL A   1      40.432  34.729  30.947  1.00  0.00     0.031 C 
ATOM     59  C   UNL A   1      42.780  33.940  31.056  1.00  0.00     0.037 A 
BRANCH  46  60
ATOM     60  C   UNL A   1      46.356  29.002  30.089  1.00  0.00     0.064 A 
ATOM     61  C   UNL A   1      46.817  28.369  31.253  1.00  0.00     0.173 A 
ATOM     62  C   UNL A   1      47.206  29.021  28.973  1.00  0.00     0.173 A 
ATOM     63  F   UNL A   1      46.048  28.332  32.351  1.00  0.00    -0.203 F 
ATOM     64  C   UNL A   1      48.088  27.803  31.306  1.00  0.00     0.198 A 
ATOM     65  C   UNL A   1      48.465  28.430  29.021  1.00  0.00     0.198 A 
ATOM     66  F   UNL A   1      46.812  29.607  27.832  1.00  0.00    -0.203 F 
ATOM     67  F   UNL A   1      48.524  27.245  32.444  1.00  0.00    -0.200 F 
ATOM     68  C   UNL A   1      48.908  27.828  30.188  1.00  0.00     0.200 A 
ATOM     69  F   UNL A   1      49.253  28.444  27.936  1.00  0.00    -0.200 F 
ATOM     70  F   UNL A   1      50.129  27.278  30.240  1.00  0.00    -0.200 F 
ENDBRANCH  46  60
BRANCH  47  71
ATOM     71  C   UNL A   1      37.047  32.544  29.712  1.00  0.00     0.064 A 
ATOM     72  C   UNL A   1      36.194  32.401  30.816  1.00  0.00     0.173 A 
ATOM     73  C   UNL A   1      36.545  33.200  28.580  1.00  0.00     0.173 A 
ATOM     74  F   UNL A   1      36.622  31.760  31.913  1.00  0.00    -0.203 F 
ATOM     75  C   UNL A   1      34.887  32.879  30.781  1.00  0.00     0.198 A 
ATOM     76  C   UNL A   1      35.246  33.700  28.554  1.00  0.00     0.198 A 
ATOM     77  F   UNL A   1      37.323  33.362  27.498  1.00  0.00    -0.203 F 
ATOM     78  F   UNL A   1      34.078  32.692  31.833  1.00  0.00    -0.200 F 
ATOM     79  C   UNL A   1      34.415  33.534  29.652  1.00  0.00     0.200 A 
ATOM     80  F   UNL A   1      34.798  34.341  27.466  1.00  0.00    -0.200 F 
ATOM     81  F   UNL A   1      33.158  33.996  29.620  1.00  0.00    -0.200 F 
ENDBRANCH  47  71
BRANCH  59  82
ATOM     82  C   UNL A   1      43.171  35.303  31.546  1.00  0.00     0.064 A 
ATOM     83  C   UNL A   1      43.115  35.636  32.907  1.00  0.00     0.173 A 
ATOM     84  C   UNL A   1      43.638  36.275  30.649  1.00  0.00     0.173 A 
ATOM     85  F   UNL A   1      42.661  34.745  33.801  1.00  0.00    -0.203 F 
ATOM     86  C   UNL A   1      43.491  36.901  33.349  1.00  0.00     0.198 A 
ATOM     87  C   UNL A   1      44.038  37.531  31.098  1.00  0.00     0.198 A 
ATOM     88  F   UNL A   1      43.715  36.003  29.337  1.00  0.00    -0.203 F 
ATOM     89  F   UNL A   1      43.387  37.213  34.649  1.00  0.00    -0.200 F 
ATOM     90  C   UNL A   1      43.957  37.846  32.446  1.00  0.00     0.200 A 
ATOM     91  F   UNL A   1      44.498  38.438  30.226  1.00  0.00    -0.200 F 
ATOM     92  F   UNL A   1      44.321  39.062  32.874  1.00  0.00    -0.200 F 
ENDBRANCH  59  82
ENDBRANCH  33  34
ENDBRANCH  25  28
ENDBRANCH  23  24
ENDBRANCH  22  23
ENDBRANCH  21  22
ENDBRANCH   3  21
TORSDOF 15
ENDMDL
MODEL 2
REMARK VINA RESULT:     -10.6      4.014      9.295
REMARK SMILES CN(CC(C)(C)C)C(=O)N1CCO[C@@H](CC(=O)NCCCNC(=O)c2ccc(-c3c4nc(c(-c5c(F)c(F)c(F)c(F)c5F)c5ccc([nH]5)c(-c5c(F)c(F)c(F)c(F)c5F)c5nc(c(-c6c(F)c(F)c(F)c(F)c6F)c6ccc3[nH]6)C=C5)C=C4)cc2)C1
REMARK SMILES IDX 16 1 17 2 18 3 15 5 14 6 10 7 11 8 88 9 12 10 13 11 8 12
REMARK SMILES IDX 9 13 2 14 1 15 3 16 4 17 5 18 6 19 7 20 19 21 20 22 21 23
REMARK SMILES IDX 22 24 23 25 24 27 25 28 26 29 87 30 27 31 86 32 28 33 29 34
REMARK SMILES IDX 30 35 80 36 31 37 85 38 79 39 81 40 32 41 84 42 78 43 77 44
REMARK SMILES IDX 33 46 65 47 45 48 64 49 46 50 49 51 63 52 82 53 47 54 48 55
REMARK SMILES IDX 62 57 83 58 50 59 34 60 35 61 43 62 36 63 37 64 41 65 44 66
REMARK SMILES IDX 38 67 39 68 42 69 40 70 66 71 67 72 75 73 68 74 69 75 73 76
REMARK SMILES IDX 76 77 70 78 71 79 74 80 72 81 51 82 52 83 60 84 53 85 54 86
REMARK SMILES IDX 58 87 61 88 55 89 56 90 59 91 57 92
REMARK H PARENT 18 4 22 26 81 45 49 56
REMARK Flexibility Score: inf
ROOT
ATOM      1  C   UNL A   1      33.382  29.211  26.724  1.00  0.00     0.222 C 
ATOM      2  O   UNL A   1      34.612  29.125  26.740  1.00  0.00    -0.275 OA
ATOM      3  N   UNL A   1      32.821  30.356  26.231  1.00  0.00    -0.356 N 
ATOM      4  H   UNL A   1      33.462  30.972  25.810  1.00  0.00     0.163 HD
ENDROOT
BRANCH   1   5
ATOM      5  C   UNL A   1      32.523  28.080  27.244  1.00  0.00     0.133 C 
BRANCH   5   6
ATOM      6  C   UNL A   1      32.135  27.012  26.206  1.00  0.00     0.147 C 
ATOM      7  N   UNL A   1      32.738  24.588  25.717  1.00  0.00    -0.320 N 
ATOM      8  C   UNL A   1      31.521  24.235  26.430  1.00  0.00     0.150 C 
ATOM      9  C   UNL A   1      33.199  25.901  26.126  1.00  0.00     0.154 C 
ATOM     10  C   UNL A   1      30.464  25.276  26.092  1.00  0.00     0.182 C 
ATOM     11  O   UNL A   1      30.841  26.537  26.652  1.00  0.00    -0.374 OA
BRANCH   7  12
ATOM     12  C   UNL A   1      33.739  23.630  25.646  1.00  0.00     0.319 C 
ATOM     13  O   UNL A   1      34.425  23.349  26.629  1.00  0.00    -0.248 OA
BRANCH  12  14
ATOM     14  N   UNL A   1      33.986  23.114  24.384  1.00  0.00    -0.327 N 
ATOM     15  C   UNL A   1      35.199  23.570  23.721  1.00  0.00     0.148 C 
BRANCH  14  16
ATOM     16  C   UNL A   1      33.101  22.201  23.656  1.00  0.00     0.127 C 
BRANCH  16  17
ATOM     17  C   UNL A   1      33.070  20.735  24.190  1.00  0.00    -0.020 C 
ATOM     18  C   UNL A   1      34.458  20.253  24.626  1.00  0.00     0.012 C 
ATOM     19  C   UNL A   1      32.152  20.700  25.428  1.00  0.00     0.012 C 
ATOM     20  C   UNL A   1      32.527  19.743  23.150  1.00  0.00     0.012 C 
ENDBRANCH  16  17
ENDBRANCH  14  16
ENDBRANCH  12  14
ENDBRANCH   7  12
ENDBRANCH   5   6
ENDBRANCH   1   5
BRANCH   3  21
ATOM     21  C   UNL A   1      31.436  30.827  26.220  1.00  0.00     0.117 C 
BRANCH  21  22
ATOM     22  C   UNL A   1      31.333  32.302  26.620  1.00  0.00     0.042 C 
BRANCH  22  23
ATOM     23  C   UNL A   1      32.654  32.972  26.957  1.00  0.00     0.118 C 
BRANCH  23  24
ATOM     24  N   UNL A   1      32.476  34.246  27.625  1.00  0.00    -0.352 N 
ATOM     25  C   UNL A   1      33.051  34.737  28.769  1.00  0.00     0.251 C 
ATOM     26  H   UNL A   1      31.839  34.857  27.187  1.00  0.00     0.163 HD
ATOM     27  O   UNL A   1      32.591  35.773  29.260  1.00  0.00    -0.269 OA
BRANCH  25  28
ATOM     28  C   UNL A   1      34.199  34.070  29.438  1.00  0.00     0.039 A 
ATOM     29  C   UNL A   1      35.493  34.409  29.025  1.00  0.00     0.014 A 
ATOM     30  C   UNL A   1      34.037  33.062  30.392  1.00  0.00     0.014 A 
ATOM     31  C   UNL A   1      36.607  33.766  29.578  1.00  0.00     0.010 A 
ATOM     32  C   UNL A   1      35.148  32.484  31.009  1.00  0.00     0.010 A 
ATOM     33  C   UNL A   1      36.446  32.806  30.588  1.00  0.00    -0.014 A 
BRANCH  33  34
ATOM     34  C   UNL A   1      37.621  32.098  31.166  1.00  0.00     0.031 A 
ATOM     35  C   UNL A   1      38.100  32.427  32.556  1.00  0.00     0.074 A 
ATOM     36  C   UNL A   1      38.279  31.174  30.438  1.00  0.00     0.049 A 
ATOM     37  N   UNL A   1      39.115  31.935  33.225  1.00  0.00    -0.248 NA
ATOM     38  C   UNL A   1      37.353  33.465  33.285  1.00  0.00     0.031 C 
ATOM     39  C   UNL A   1      37.952  30.792  29.065  1.00  0.00     0.029 A 
ATOM     40  N   UNL A   1      39.361  30.389  30.753  1.00  0.00    -0.354 N 
ATOM     41  C   UNL A   1      39.136  32.615  34.437  1.00  0.00     0.074 A 
ATOM     42  C   UNL A   1      38.068  33.588  34.394  1.00  0.00     0.031 C 
ATOM     43  C   UNL A   1      38.794  29.824  28.665  1.00  0.00     0.029 A 
ATOM     44  C   UNL A   1      39.740  29.541  29.742  1.00  0.00     0.049 A 
ATOM     45  H   UNL A   1      39.822  30.431  31.623  1.00  0.00     0.167 HD
ATOM     46  C   UNL A   1      39.956  32.429  35.499  1.00  0.00     0.037 A 
ATOM     47  C   UNL A   1      40.736  28.634  29.689  1.00  0.00     0.037 A 
ATOM     48  C   UNL A   1      40.995  31.435  35.563  1.00  0.00     0.049 A 
ATOM     49  C   UNL A   1      41.621  28.435  30.890  1.00  0.00     0.074 A 
ATOM     50  C   UNL A   1      41.831  31.126  36.622  1.00  0.00     0.029 A 
ATOM     51  N   UNL A   1      41.336  30.585  34.523  1.00  0.00    -0.354 N 
ATOM     52  N   UNL A   1      41.590  29.040  32.051  1.00  0.00    -0.248 NA
ATOM     53  C   UNL A   1      42.677  27.419  30.771  1.00  0.00     0.031 C 
ATOM     54  C   UNL A   1      42.705  30.114  36.210  1.00  0.00     0.029 A 
ATOM     55  C   UNL A   1      42.384  29.763  34.908  1.00  0.00     0.049 A 
ATOM     56  H   UNL A   1      40.899  30.566  33.641  1.00  0.00     0.167 HD
ATOM     57  C   UNL A   1      42.603  28.466  32.808  1.00  0.00     0.074 A 
ATOM     58  C   UNL A   1      43.220  27.451  31.980  1.00  0.00     0.031 C 
ATOM     59  C   UNL A   1      42.988  28.757  34.075  1.00  0.00     0.037 A 
BRANCH  46  60
ATOM     60  C   UNL A   1      39.757  33.320  36.692  1.00  0.00     0.064 A 
ATOM     61  C   UNL A   1      40.459  34.527  36.834  1.00  0.00     0.173 A 
ATOM     62  C   UNL A   1      38.827  32.981  37.686  1.00  0.00     0.173 A 
ATOM     63  F   UNL A   1      41.367  34.891  35.916  1.00  0.00    -0.203 F 
ATOM     64  C   UNL A   1      40.258  35.346  37.941  1.00  0.00     0.198 A 
ATOM     65  C   UNL A   1      38.609  33.818  38.778  1.00  0.00     0.198 A 
ATOM     66  F   UNL A   1      38.124  31.843  37.596  1.00  0.00    -0.203 F 
ATOM     67  F   UNL A   1      40.974  36.471  38.078  1.00  0.00    -0.200 F 
ATOM     68  C   UNL A   1      39.329  34.995  38.908  1.00  0.00     0.200 A 
ATOM     69  F   UNL A   1      37.702  33.483  39.706  1.00  0.00    -0.200 F 
ATOM     70  F   UNL A   1      39.133  35.789  39.970  1.00  0.00    -0.200 F 
ENDBRANCH  46  60
BRANCH  47  71
ATOM     71  C   UNL A   1      40.931  27.822  28.461  1.00  0.00     0.064 A 
ATOM     72  C   UNL A   1      41.782  28.261  27.437  1.00  0.00     0.173 A 
ATOM     73  C   UNL A   1      40.272  26.598  28.284  1.00  0.00     0.173 A 
ATOM     74  F   UNL A   1      42.415  29.437  27.552  1.00  0.00    -0.203 F 
ATOM     75  C   UNL A   1      41.952  27.513  26.274  1.00  0.00     0.198 A 
ATOM     76  C   UNL A   1      40.462  25.838  27.132  1.00  0.00     0.198 A 
ATOM     77  F   UNL A   1      39.447  26.134  29.236  1.00  0.00    -0.203 F 
ATOM     78  F   UNL A   1      42.737  27.975  25.292  1.00  0.00    -0.200 F 
ATOM     79  C   UNL A   1      41.297  26.300  26.124  1.00  0.00     0.200 A 
ATOM     80  F   UNL A   1      39.836  24.662  26.996  1.00  0.00    -0.200 F 
ATOM     81  F   UNL A   1      41.463  25.580  25.007  1.00  0.00    -0.200 F 
ENDBRANCH  47  71
BRANCH  59  82
ATOM     82  C   UNL A   1      44.118  27.954  34.650  1.00  0.00     0.064 A 
ATOM     83  C   UNL A   1      45.445  28.400  34.575  1.00  0.00     0.173 A 
ATOM     84  C   UNL A   1      43.866  26.744  35.314  1.00  0.00     0.173 A 
ATOM     85  F   UNL A   1      45.738  29.543  33.937  1.00  0.00    -0.203 F 
ATOM     86  C   UNL A   1      46.483  27.650  35.121  1.00  0.00     0.198 A 
ATOM     87  C   UNL A   1      44.902  26.010  35.883  1.00  0.00     0.198 A 
ATOM     88  F   UNL A   1      42.612  26.279  35.418  1.00  0.00    -0.203 F 
ATOM     89  F   UNL A   1      47.749  28.071  34.998  1.00  0.00    -0.200 F 
ATOM     90  C   UNL A   1      46.211  26.459  35.780  1.00  0.00     0.200 A 
ATOM     91  F   UNL A   1      44.637  24.866  36.528  1.00  0.00    -0.200 F 
ATOM     92  F   UNL A   1      47.210  25.741  36.309  1.00  0.00    -0.200 F 
ENDBRANCH  59  82
ENDBRANCH  33  34
ENDBRANCH  25  28
ENDBRANCH  23  24
ENDBRANCH  22  23
ENDBRANCH  21  22
ENDBRANCH   3  21
TORSDOF 15
ENDMDL
MODEL 3
REMARK VINA RESULT:     -10.6      2.697      8.293
REMARK SMILES CN(CC(C)(C)C)C(=O)N1CCO[C@@H](CC(=O)NCCCNC(=O)c2ccc(-c3c4nc(c(-c5c(F)c(F)c(F)c(F)c5F)c5ccc([nH]5)c(-c5c(F)c(F)c(F)c(F)c5F)c5nc(c(-c6c(F)c(F)c(F)c(F)c6F)c6ccc3[nH]6)C=C5)C=C4)cc2)C1
REMARK SMILES IDX 16 1 17 2 18 3 15 5 14 6 10 7 11 8 88 9 12 10 13 11 8 12
REMARK SMILES IDX 9 13 2 14 1 15 3 16 4 17 5 18 6 19 7 20 19 21 20 22 21 23
REMARK SMILES IDX 22 24 23 25 24 27 25 28 26 29 87 30 27 31 86 32 28 33 29 34
REMARK SMILES IDX 30 35 80 36 31 37 85 38 79 39 81 40 32 41 84 42 78 43 77 44
REMARK SMILES IDX 33 46 65 47 45 48 64 49 46 50 49 51 63 52 82 53 47 54 48 55
REMARK SMILES IDX 62 57 83 58 50 59 34 60 35 61 43 62 36 63 37 64 41 65 44 66
REMARK SMILES IDX 38 67 39 68 42 69 40 70 66 71 67 72 75 73 68 74 69 75 73 76
REMARK SMILES IDX 76 77 70 78 71 79 74 80 72 81 51 82 52 83 60 84 53 85 54 86
REMARK SMILES IDX 58 87 61 88 55 89 56 90 59 91 57 92
REMARK H PARENT 18 4 22 26 81 45 49 56
REMARK Flexibility Score: inf
ROOT
ATOM      1  C   UNL A   1      36.605  22.952  23.814  1.00  0.00     0.222 C 
ATOM      2  O   UNL A   1      36.565  23.493  22.707  1.00  0.00    -0.275 OA
ATOM      3  N   UNL A   1      37.106  21.683  23.896  1.00  0.00    -0.356 N 
ATOM      4  H   UNL A   1      37.514  21.355  23.063  1.00  0.00     0.163 HD
ENDROOT
BRANCH   1   5
ATOM      5  C   UNL A   1      36.102  23.676  25.044  1.00  0.00     0.133 C 
BRANCH   5   6
ATOM      6  C   UNL A   1      34.573  23.822  25.147  1.00  0.00     0.147 C 
ATOM      7  N   UNL A   1      32.760  25.223  24.037  1.00  0.00    -0.320 N 
ATOM      8  C   UNL A   1      32.522  24.074  23.179  1.00  0.00     0.150 C 
ATOM      9  C   UNL A   1      34.104  25.176  24.582  1.00  0.00     0.154 C 
ATOM     10  C   UNL A   1      32.689  22.818  24.022  1.00  0.00     0.182 C 
ATOM     11  O   UNL A   1      34.059  22.684  24.411  1.00  0.00    -0.374 OA
BRANCH   7  12
ATOM     12  C   UNL A   1      32.384  26.469  23.557  1.00  0.00     0.319 C 
ATOM     13  O   UNL A   1      32.942  26.973  22.583  1.00  0.00    -0.248 OA
BRANCH  12  14
ATOM     14  N   UNL A   1      31.439  27.141  24.316  1.00  0.00    -0.327 N 
ATOM     15  C   UNL A   1      30.183  26.447  24.554  1.00  0.00     0.148 C 
BRANCH  14  16
ATOM     16  C   UNL A   1      31.590  28.501  24.841  1.00  0.00     0.127 C 
BRANCH  16  17
ATOM     17  C   UNL A   1      32.379  28.616  26.182  1.00  0.00    -0.020 C 
ATOM     18  C   UNL A   1      32.000  29.877  26.966  1.00  0.00     0.012 C 
ATOM     19  C   UNL A   1      32.015  27.397  27.052  1.00  0.00     0.012 C 
ATOM     20  C   UNL A   1      33.901  28.629  25.968  1.00  0.00     0.012 C 
ENDBRANCH  16  17
ENDBRANCH  14  16
ENDBRANCH  12  14
ENDBRANCH   7  12
ENDBRANCH   5   6
ENDBRANCH   1   5
BRANCH   3  21
ATOM     21  C   UNL A   1      37.142  20.727  25.003  1.00  0.00     0.117 C 
BRANCH  21  22
ATOM     22  C   UNL A   1      38.384  19.833  24.942  1.00  0.00     0.042 C 
BRANCH  22  23
ATOM     23  C   UNL A   1      39.329  19.959  26.125  1.00  0.00     0.118 C 
BRANCH  23  24
ATOM     24  N   UNL A   1      40.505  19.124  25.987  1.00  0.00    -0.352 N 
ATOM     25  C   UNL A   1      41.836  19.455  26.002  1.00  0.00     0.251 C 
ATOM     26  H   UNL A   1      40.319  18.165  25.863  1.00  0.00     0.163 HD
ATOM     27  O   UNL A   1      42.659  18.599  25.661  1.00  0.00    -0.269 OA
BRANCH  25  28
ATOM     28  C   UNL A   1      42.322  20.801  26.407  1.00  0.00     0.039 A 
ATOM     29  C   UNL A   1      42.300  21.130  27.768  1.00  0.00     0.014 A 
ATOM     30  C   UNL A   1      42.713  21.773  25.483  1.00  0.00     0.014 A 
ATOM     31  C   UNL A   1      42.687  22.405  28.196  1.00  0.00     0.010 A 
ATOM     32  C   UNL A   1      43.185  23.015  25.916  1.00  0.00     0.010 A 
ATOM     33  C   UNL A   1      43.149  23.357  27.275  1.00  0.00    -0.014 A 
BRANCH  33  34
ATOM     34  C   UNL A   1      43.540  24.723  27.717  1.00  0.00     0.031 A 
ATOM     35  C   UNL A   1      42.485  25.745  28.052  1.00  0.00     0.074 A 
ATOM     36  C   UNL A   1      44.842  25.062  27.796  1.00  0.00     0.049 A 
ATOM     37  N   UNL A   1      42.625  26.991  28.434  1.00  0.00    -0.248 NA
ATOM     38  C   UNL A   1      41.082  25.318  27.918  1.00  0.00     0.031 C 
ATOM     39  C   UNL A   1      45.964  24.187  27.458  1.00  0.00     0.029 A 
ATOM     40  N   UNL A   1      45.440  26.235  28.186  1.00  0.00    -0.354 N 
ATOM     41  C   UNL A   1      41.337  27.496  28.566  1.00  0.00     0.074 A 
ATOM     42  C   UNL A   1      40.428  26.441  28.175  1.00  0.00     0.031 C 
ATOM     43  C   UNL A   1      47.115  24.842  27.683  1.00  0.00     0.029 A 
ATOM     44  C   UNL A   1      46.812  26.192  28.153  1.00  0.00     0.049 A 
ATOM     45  H   UNL A   1      44.932  27.033  28.465  1.00  0.00     0.167 HD
ATOM     46  C   UNL A   1      40.944  28.719  28.996  1.00  0.00     0.037 A 
ATOM     47  C   UNL A   1      47.724  27.134  28.466  1.00  0.00     0.037 A 
ATOM     48  C   UNL A   1      41.842  29.758  29.425  1.00  0.00     0.049 A 
ATOM     49  C   UNL A   1      47.261  28.478  28.960  1.00  0.00     0.074 A 
ATOM     50  C   UNL A   1      41.535  31.006  29.942  1.00  0.00     0.029 A 
ATOM     51  N   UNL A   1      43.224  29.669  29.390  1.00  0.00    -0.354 N 
ATOM     52  N   UNL A   1      46.041  28.919  29.139  1.00  0.00    -0.248 NA
ATOM     53  C   UNL A   1      48.308  29.453  29.300  1.00  0.00     0.031 C 
ATOM     54  C   UNL A   1      42.733  31.686  30.185  1.00  0.00     0.029 A 
ATOM     55  C   UNL A   1      43.786  30.847  29.859  1.00  0.00     0.049 A 
ATOM     56  H   UNL A   1      43.733  28.886  29.079  1.00  0.00     0.167 HD
ATOM     57  C   UNL A   1      46.171  30.211  29.632  1.00  0.00     0.074 A 
ATOM     58  C   UNL A   1      47.589  30.476  29.741  1.00  0.00     0.031 C 
ATOM     59  C   UNL A   1      45.200  31.098  29.962  1.00  0.00     0.037 A 
BRANCH  46  60
ATOM     60  C   UNL A   1      39.469  28.999  29.034  1.00  0.00     0.064 A 
ATOM     61  C   UNL A   1      38.739  28.935  30.231  1.00  0.00     0.173 A 
ATOM     62  C   UNL A   1      38.785  29.373  27.868  1.00  0.00     0.173 A 
ATOM     63  F   UNL A   1      39.344  28.572  31.372  1.00  0.00    -0.203 F 
ATOM     64  C   UNL A   1      37.373  29.206  30.252  1.00  0.00     0.198 A 
ATOM     65  C   UNL A   1      37.425  29.671  27.899  1.00  0.00     0.198 A 
ATOM     66  F   UNL A   1      39.436  29.458  26.699  1.00  0.00    -0.203 F 
ATOM     67  F   UNL A   1      36.688  29.092  31.399  1.00  0.00    -0.200 F 
ATOM     68  C   UNL A   1      36.719  29.580  29.089  1.00  0.00     0.200 A 
ATOM     69  F   UNL A   1      36.796  30.044  26.776  1.00  0.00    -0.200 F 
ATOM     70  F   UNL A   1      35.406  29.846  29.113  1.00  0.00    -0.200 F 
ENDBRANCH  46  60
BRANCH  47  71
ATOM     71  C   UNL A   1      49.173  26.826  28.352  1.00  0.00     0.064 A 
ATOM     72  C   UNL A   1      49.843  26.969  27.128  1.00  0.00     0.173 A 
ATOM     73  C   UNL A   1      49.914  26.382  29.455  1.00  0.00     0.173 A 
ATOM     74  F   UNL A   1      49.169  27.368  26.040  1.00  0.00    -0.203 F 
ATOM     75  C   UNL A   1      51.196  26.662  27.010  1.00  0.00     0.198 A 
ATOM     76  C   UNL A   1      51.273  26.100  29.342  1.00  0.00     0.198 A 
ATOM     77  F   UNL A   1      49.318  26.230  30.648  1.00  0.00    -0.203 F 
ATOM     78  F   UNL A   1      51.803  26.766  25.820  1.00  0.00    -0.200 F 
ATOM     79  C   UNL A   1      51.912  26.233  28.118  1.00  0.00     0.200 A 
ATOM     80  F   UNL A   1      51.963  25.696  30.417  1.00  0.00    -0.200 F 
ATOM     81  F   UNL A   1      53.214  25.941  28.004  1.00  0.00    -0.200 F 
ENDBRANCH  47  71
BRANCH  59  82
ATOM     82  C   UNL A   1      45.639  32.432  30.491  1.00  0.00     0.064 A 
ATOM     83  C   UNL A   1      45.865  32.638  31.859  1.00  0.00     0.173 A 
ATOM     84  C   UNL A   1      45.870  33.504  29.616  1.00  0.00     0.173 A 
ATOM     85  F   UNL A   1      45.644  31.648  32.737  1.00  0.00    -0.203 F 
ATOM     86  C   UNL A   1      46.282  33.878  32.335  1.00  0.00     0.198 A 
ATOM     87  C   UNL A   1      46.312  34.734  30.092  1.00  0.00     0.198 A 
ATOM     88  F   UNL A   1      45.673  33.354  28.297  1.00  0.00    -0.203 F 
ATOM     89  F   UNL A   1      46.448  34.067  33.652  1.00  0.00    -0.200 F 
ATOM     90  C   UNL A   1      46.511  34.923  31.452  1.00  0.00     0.200 A 
ATOM     91  F   UNL A   1      46.543  35.740  29.237  1.00  0.00    -0.200 F 
ATOM     92  F   UNL A   1      46.916  36.115  31.912  1.00  0.00    -0.200 F 
ENDBRANCH  59  82
ENDBRANCH  33  34
ENDBRANCH  25  28
ENDBRANCH  23  24
ENDBRANCH  22  23
ENDBRANCH  21  22
ENDBRANCH   3  21
TORSDOF 15
ENDMDL
