MODEL 1
REMARK VINA RESULT:     -12.6      0.000      0.000
REMARK SMILES Cc1nsc(N(C)C(=O)[C@@H](C)NC(N)=O)c1C(=O)NCCCNC(=O)c1ccc(-c2c3nc(c(-c4c(F)c(F)c(F)c(F)c4F)c4ccc([nH]4)c(-c4c(F)c(F)c(F)c(F)c4F)c4nc(c(-c5c(F)c(F)c(F)c(F)c5F)c5ccc2[nH]5)C=C4)C=C3)cc1
REMARK SMILES IDX 20 1 19 2 17 3 18 4 16 6 1 7 2 8 3 9 4 10 5 11 6 12 7 13
REMARK SMILES IDX 8 14 9 15 10 16 11 17 12 18 13 19 14 21 15 22 21 25 22 26
REMARK SMILES IDX 23 27 24 28 25 30 26 31 27 32 88 33 28 34 87 35 29 36 30 37
REMARK SMILES IDX 31 38 81 39 32 40 86 41 80 42 82 43 33 44 85 45 79 46 78 47
REMARK SMILES IDX 34 49 66 50 46 51 65 52 47 53 50 54 64 55 83 56 48 57 49 58
REMARK SMILES IDX 63 60 84 61 51 62 35 63 36 64 44 65 37 66 38 67 42 68 45 69
REMARK SMILES IDX 39 70 40 71 43 72 41 73 67 74 68 75 76 76 69 77 70 78 74 79
REMARK SMILES IDX 77 80 71 81 72 82 75 83 73 84 52 85 53 86 61 87 54 88 55 89
REMARK SMILES IDX 59 90 62 91 56 92 57 93 60 94 58 95
REMARK H PARENT 19 5 12 20 14 23 14 24 23 29 82 48 50 59
REMARK Flexibility Score: inf
ROOT
ATOM      1  C   UNL A   1      32.980  28.575  27.411  1.00  0.00     0.118 C 
ENDROOT
BRANCH   1   2
ATOM      2  N   UNL A   1      33.463  27.892  26.226  1.00  0.00    -0.352 N 
ATOM      3  C   UNL A   1      33.000  28.078  24.941  1.00  0.00     0.256 C 
ATOM      4  O   UNL A   1      33.798  28.577  24.143  1.00  0.00    -0.269 OA
ATOM      5  H   UNL A   1      34.187  27.235  26.352  1.00  0.00     0.163 HD
BRANCH   3   6
ATOM      6  C   UNL A   1      31.679  27.599  24.502  1.00  0.00     0.097 A 
ATOM      7  C   UNL A   1      30.219  29.782  23.910  1.00  0.00     0.069 C 
ATOM      8  C   UNL A   1      30.507  28.328  24.005  1.00  0.00     0.066 A 
ATOM      9  N   UNL A   1      29.519  27.586  23.512  1.00  0.00    -0.195 NA
ATOM     10  S   UNL A   1      29.898  26.014  23.634  1.00  0.00    -0.017 S 
ATOM     11  C   UNL A   1      31.393  26.217  24.442  1.00  0.00     0.131 A 
BRANCH  11  12
ATOM     12  N   UNL A   1      32.046  25.035  24.899  1.00  0.00    -0.303 N 
ATOM     13  C   UNL A   1      31.629  24.313  26.101  1.00  0.00     0.154 C 
BRANCH  12  14
ATOM     14  C   UNL A   1      33.276  24.718  24.292  1.00  0.00     0.249 C 
ATOM     15  O   UNL A   1      34.349  24.932  24.879  1.00  0.00    -0.272 OA
BRANCH  14  16
ATOM     16  C   UNL A   1      33.324  23.873  22.973  1.00  0.00     0.170 C 
ATOM     17  C   UNL A   1      33.012  22.402  23.254  1.00  0.00     0.041 C 
BRANCH  16  18
ATOM     18  N   UNL A   1      32.560  24.324  21.810  1.00  0.00    -0.327 N 
ATOM     19  C   UNL A   1      32.834  25.487  21.159  1.00  0.00     0.312 C 
ATOM     20  H   UNL A   1      31.819  23.763  21.485  1.00  0.00     0.166 HD
ATOM     21  N   UNL A   1      32.019  25.698  20.097  1.00  0.00    -0.352 N 
ATOM     22  O   UNL A   1      33.720  26.276  21.445  1.00  0.00    -0.249 OA
ATOM     23  H   UNL A   1      31.311  25.048  19.885  1.00  0.00     0.161 HD
ATOM     24  H   UNL A   1      32.136  26.499  19.537  1.00  0.00     0.161 HD
ENDBRANCH  16  18
ENDBRANCH  14  16
ENDBRANCH  12  14
ENDBRANCH  11  12
ENDBRANCH   3   6
ENDBRANCH   1   2
BRANCH   1  25
ATOM     25  C   UNL A   1      32.819  30.082  27.197  1.00  0.00     0.042 C 
BRANCH  25  26
ATOM     26  C   UNL A   1      34.126  30.836  27.329  1.00  0.00     0.118 C 
BRANCH  26  27
ATOM     27  N   UNL A   1      34.155  31.686  28.523  1.00  0.00    -0.352 N 
ATOM     28  C   UNL A   1      35.099  31.702  29.527  1.00  0.00     0.251 C 
ATOM     29  H   UNL A   1      33.410  32.323  28.619  1.00  0.00     0.163 HD
ATOM     30  O   UNL A   1      34.851  32.189  30.628  1.00  0.00    -0.269 OA
BRANCH  28  31
ATOM     31  C   UNL A   1      36.415  31.116  29.248  1.00  0.00     0.039 A 
ATOM     32  C   UNL A   1      37.575  31.890  29.272  1.00  0.00     0.014 A 
ATOM     33  C   UNL A   1      36.469  29.737  29.058  1.00  0.00     0.014 A 
ATOM     34  C   UNL A   1      38.803  31.242  29.200  1.00  0.00     0.010 A 
ATOM     35  C   UNL A   1      37.671  29.092  29.171  1.00  0.00     0.010 A 
ATOM     36  C   UNL A   1      38.843  29.836  29.188  1.00  0.00    -0.014 A 
BRANCH  36  37
ATOM     37  C   UNL A   1      40.109  29.128  29.341  1.00  0.00     0.031 A 
ATOM     38  C   UNL A   1      40.502  28.901  30.756  1.00  0.00     0.074 A 
ATOM     39  C   UNL A   1      40.780  28.568  28.310  1.00  0.00     0.049 A 
ATOM     40  N   UNL A   1      41.476  29.467  31.387  1.00  0.00    -0.248 NA
ATOM     41  C   UNL A   1      39.629  28.087  31.618  1.00  0.00     0.031 C 
ATOM     42  C   UNL A   1      40.376  28.463  26.903  1.00  0.00     0.029 A 
ATOM     43  N   UNL A   1      41.961  27.890  28.326  1.00  0.00    -0.354 N 
ATOM     44  C   UNL A   1      41.475  28.921  32.665  1.00  0.00     0.074 A 
ATOM     45  C   UNL A   1      40.220  28.229  32.807  1.00  0.00     0.031 C 
ATOM     46  C   UNL A   1      41.169  27.577  26.262  1.00  0.00     0.029 A 
ATOM     47  C   UNL A   1      42.245  27.193  27.155  1.00  0.00     0.049 A 
ATOM     48  H   UNL A   1      42.565  27.891  29.103  1.00  0.00     0.167 HD
ATOM     49  C   UNL A   1      42.629  28.865  33.385  1.00  0.00     0.037 A 
ATOM     50  C   UNL A   1      43.293  26.362  26.934  1.00  0.00     0.037 A 
ATOM     51  C   UNL A   1      43.617  29.766  32.839  1.00  0.00     0.049 A 
ATOM     52  C   UNL A   1      44.336  26.705  27.929  1.00  0.00     0.074 A 
ATOM     53  C   UNL A   1      43.680  31.130  32.630  1.00  0.00     0.029 A 
ATOM     54  N   UNL A   1      44.588  29.223  32.035  1.00  0.00    -0.354 N 
ATOM     55  N   UNL A   1      44.992  27.831  27.927  1.00  0.00    -0.248 NA
ATOM     56  C   UNL A   1      44.320  25.992  29.195  1.00  0.00     0.031 C 
ATOM     57  C   UNL A   1      44.343  31.284  31.374  1.00  0.00     0.029 A 
ATOM     58  C   UNL A   1      44.721  30.017  30.926  1.00  0.00     0.049 A 
ATOM     59  H   UNL A   1      45.103  28.405  32.223  1.00  0.00     0.167 HD
ATOM     60  C   UNL A   1      45.060  28.194  29.262  1.00  0.00     0.074 A 
ATOM     61  C   UNL A   1      44.723  26.978  30.002  1.00  0.00     0.031 C 
ATOM     62  C   UNL A   1      45.094  29.510  29.625  1.00  0.00     0.037 A 
BRANCH  49  63
ATOM     63  C   UNL A   1      43.009  27.714  34.289  1.00  0.00     0.064 A 
ATOM     64  C   UNL A   1      43.354  26.477  33.707  1.00  0.00     0.173 A 
ATOM     65  C   UNL A   1      42.745  27.680  35.675  1.00  0.00     0.173 A 
ATOM     66  F   UNL A   1      43.606  26.386  32.393  1.00  0.00    -0.203 F 
ATOM     67  C   UNL A   1      43.346  25.288  34.443  1.00  0.00     0.198 A 
ATOM     68  C   UNL A   1      42.790  26.500  36.415  1.00  0.00     0.198 A 
ATOM     69  F   UNL A   1      42.317  28.753  36.351  1.00  0.00    -0.203 F 
ATOM     70  F   UNL A   1      43.547  24.119  33.818  1.00  0.00    -0.200 F 
ATOM     71  C   UNL A   1      43.057  25.300  35.794  1.00  0.00     0.200 A 
ATOM     72  F   UNL A   1      42.483  26.530  37.720  1.00  0.00    -0.200 F 
ATOM     73  F   UNL A   1      42.982  24.156  36.487  1.00  0.00    -0.200 F 
ENDBRANCH  49  63
BRANCH  50  74
ATOM     74  C   UNL A   1      43.344  25.114  26.134  1.00  0.00     0.064 A 
ATOM     75  C   UNL A   1      44.374  24.893  25.203  1.00  0.00     0.173 A 
ATOM     76  C   UNL A   1      42.568  23.993  26.485  1.00  0.00     0.173 A 
ATOM     77  F   UNL A   1      45.189  25.897  24.846  1.00  0.00    -0.203 F 
ATOM     78  C   UNL A   1      44.637  23.619  24.686  1.00  0.00     0.198 A 
ATOM     79  C   UNL A   1      42.829  22.723  25.966  1.00  0.00     0.198 A 
ATOM     80  F   UNL A   1      41.610  24.088  27.419  1.00  0.00    -0.203 F 
ATOM     81  F   UNL A   1      45.674  23.434  23.858  1.00  0.00    -0.200 F 
ATOM     82  C   UNL A   1      43.872  22.533  25.079  1.00  0.00     0.200 A 
ATOM     83  F   UNL A   1      42.109  21.673  26.386  1.00  0.00    -0.200 F 
ATOM     84  F   UNL A   1      44.169  21.301  24.642  1.00  0.00    -0.200 F 
ENDBRANCH  50  74
BRANCH  62  85
ATOM     85  C   UNL A   1      45.348  30.520  28.535  1.00  0.00     0.064 A 
ATOM     86  C   UNL A   1      44.350  31.088  27.721  1.00  0.00     0.173 A 
ATOM     87  C   UNL A   1      46.652  31.003  28.373  1.00  0.00     0.173 A 
ATOM     88  F   UNL A   1      43.062  30.763  27.877  1.00  0.00    -0.203 F 
ATOM     89  C   UNL A   1      44.658  32.045  26.754  1.00  0.00     0.198 A 
ATOM     90  C   UNL A   1      46.952  31.986  27.434  1.00  0.00     0.198 A 
ATOM     91  F   UNL A   1      47.641  30.542  29.156  1.00  0.00    -0.203 F 
ATOM     92  F   UNL A   1      43.690  32.548  25.972  1.00  0.00    -0.200 F 
ATOM     93  C   UNL A   1      45.959  32.495  26.614  1.00  0.00     0.200 A 
ATOM     94  F   UNL A   1      48.204  32.452  27.336  1.00  0.00    -0.200 F 
ATOM     95  F   UNL A   1      46.253  33.434  25.704  1.00  0.00    -0.200 F 
ENDBRANCH  62  85
ENDBRANCH  36  37
ENDBRANCH  28  31
ENDBRANCH  26  27
ENDBRANCH  25  26
ENDBRANCH   1  25
TORSDOF 14
ENDMDL
MODEL 2
REMARK VINA RESULT:     -12.4      3.297      8.878
REMARK SMILES Cc1nsc(N(C)C(=O)[C@@H](C)NC(N)=O)c1C(=O)NCCCNC(=O)c1ccc(-c2c3nc(c(-c4c(F)c(F)c(F)c(F)c4F)c4ccc([nH]4)c(-c4c(F)c(F)c(F)c(F)c4F)c4nc(c(-c5c(F)c(F)c(F)c(F)c5F)c5ccc2[nH]5)C=C4)C=C3)cc1
REMARK SMILES IDX 20 1 19 2 17 3 18 4 16 6 1 7 2 8 3 9 4 10 5 11 6 12 7 13
REMARK SMILES IDX 8 14 9 15 10 16 11 17 12 18 13 19 14 21 15 22 21 25 22 26
REMARK SMILES IDX 23 27 24 28 25 30 26 31 27 32 88 33 28 34 87 35 29 36 30 37
REMARK SMILES IDX 31 38 81 39 32 40 86 41 80 42 82 43 33 44 85 45 79 46 78 47
REMARK SMILES IDX 34 49 66 50 46 51 65 52 47 53 50 54 64 55 83 56 48 57 49 58
REMARK SMILES IDX 63 60 84 61 51 62 35 63 36 64 44 65 37 66 38 67 42 68 45 69
REMARK SMILES IDX 39 70 40 71 43 72 41 73 67 74 68 75 76 76 69 77 70 78 74 79
REMARK SMILES IDX 77 80 71 81 72 82 75 83 73 84 52 85 53 86 61 87 54 88 55 89
REMARK SMILES IDX 59 90 62 91 56 92 57 93 60 94 58 95
REMARK H PARENT 19 5 12 20 14 23 14 24 23 29 82 48 50 59
REMARK Flexibility Score: inf
ROOT
ATOM      1  C   UNL A   1      37.874  22.268  25.417  1.00  0.00     0.118 C 
ENDROOT
BRANCH   1   2
ATOM      2  N   UNL A   1      37.177  21.924  24.192  1.00  0.00    -0.352 N 
ATOM      3  C   UNL A   1      35.971  22.447  23.775  1.00  0.00     0.256 C 
ATOM      4  O   UNL A   1      36.002  23.139  22.755  1.00  0.00    -0.269 OA
ATOM      5  H   UNL A   1      37.604  21.257  23.606  1.00  0.00     0.163 HD
BRANCH   3   6
ATOM      6  C   UNL A   1      34.696  22.104  24.427  1.00  0.00     0.097 A 
ATOM      7  C   UNL A   1      34.673  19.429  24.731  1.00  0.00     0.069 C 
ATOM      8  C   UNL A   1      34.166  20.817  24.888  1.00  0.00     0.066 A 
ATOM      9  N   UNL A   1      33.049  20.865  25.611  1.00  0.00    -0.195 NA
ATOM     10  S   UNL A   1      32.555  22.402  25.755  1.00  0.00    -0.017 S 
ATOM     11  C   UNL A   1      33.769  23.110  24.778  1.00  0.00     0.131 A 
BRANCH  11  12
ATOM     12  N   UNL A   1      33.640  24.501  24.495  1.00  0.00    -0.303 N 
ATOM     13  C   UNL A   1      34.294  25.537  25.295  1.00  0.00     0.154 C 
BRANCH  12  14
ATOM     14  C   UNL A   1      32.653  24.868  23.561  1.00  0.00     0.249 C 
ATOM     15  O   UNL A   1      32.532  24.254  22.488  1.00  0.00    -0.272 OA
BRANCH  14  16
ATOM     16  C   UNL A   1      31.531  25.893  23.943  1.00  0.00     0.170 C 
ATOM     17  C   UNL A   1      31.063  26.675  22.713  1.00  0.00     0.041 C 
BRANCH  16  18
ATOM     18  N   UNL A   1      30.369  25.428  24.700  1.00  0.00    -0.327 N 
ATOM     19  C   UNL A   1      30.321  25.456  26.060  1.00  0.00     0.312 C 
ATOM     20  H   UNL A   1      29.591  25.081  24.207  1.00  0.00     0.166 HD
ATOM     21  N   UNL A   1      29.143  25.001  26.552  1.00  0.00    -0.352 N 
ATOM     22  O   UNL A   1      31.204  25.861  26.799  1.00  0.00    -0.249 OA
ATOM     23  H   UNL A   1      28.445  24.679  25.938  1.00  0.00     0.161 HD
ATOM     24  H   UNL A   1      28.986  24.993  27.524  1.00  0.00     0.161 HD
ENDBRANCH  16  18
ENDBRANCH  14  16
ENDBRANCH  12  14
ENDBRANCH  11  12
ENDBRANCH   3   6
ENDBRANCH   1   2
BRANCH   1  25
ATOM     25  C   UNL A   1      39.002  21.288  25.748  1.00  0.00     0.042 C 
BRANCH  25  26
ATOM     26  C   UNL A   1      40.045  21.886  26.670  1.00  0.00     0.118 C 
BRANCH  26  27
ATOM     27  N   UNL A   1      41.323  22.109  25.986  1.00  0.00    -0.352 N 
ATOM     28  C   UNL A   1      41.987  23.302  25.802  1.00  0.00     0.251 C 
ATOM     29  H   UNL A   1      41.760  21.308  25.613  1.00  0.00     0.163 HD
ATOM     30  O   UNL A   1      42.848  23.426  24.933  1.00  0.00    -0.269 OA
BRANCH  28  31
ATOM     31  C   UNL A   1      41.635  24.431  26.672  1.00  0.00     0.039 A 
ATOM     32  C   UNL A   1      42.236  24.602  27.919  1.00  0.00     0.014 A 
ATOM     33  C   UNL A   1      40.750  25.376  26.159  1.00  0.00     0.014 A 
ATOM     34  C   UNL A   1      42.010  25.791  28.602  1.00  0.00     0.010 A 
ATOM     35  C   UNL A   1      40.676  26.612  26.745  1.00  0.00     0.010 A 
ATOM     36  C   UNL A   1      41.258  26.810  27.990  1.00  0.00    -0.014 A 
BRANCH  36  37
ATOM     37  C   UNL A   1      41.193  28.142  28.578  1.00  0.00     0.031 A 
ATOM     38  C   UNL A   1      42.286  29.046  28.136  1.00  0.00     0.074 A 
ATOM     39  C   UNL A   1      40.149  28.583  29.314  1.00  0.00     0.049 A 
ATOM     40  N   UNL A   1      43.272  29.475  28.852  1.00  0.00    -0.248 NA
ATOM     41  C   UNL A   1      42.398  29.385  26.708  1.00  0.00     0.031 C 
ATOM     42  C   UNL A   1      38.877  27.908  29.597  1.00  0.00     0.029 A 
ATOM     43  N   UNL A   1      39.976  29.794  29.913  1.00  0.00    -0.354 N 
ATOM     44  C   UNL A   1      44.012  30.311  28.026  1.00  0.00     0.074 A 
ATOM     45  C   UNL A   1      43.543  30.073  26.685  1.00  0.00     0.031 C 
ATOM     46  C   UNL A   1      37.989  28.791  30.103  1.00  0.00     0.029 A 
ATOM     47  C   UNL A   1      38.679  30.042  30.353  1.00  0.00     0.049 A 
ATOM     48  H   UNL A   1      40.707  30.442  30.026  1.00  0.00     0.167 HD
ATOM     49  C   UNL A   1      44.755  31.319  28.562  1.00  0.00     0.037 A 
ATOM     50  C   UNL A   1      38.205  31.194  30.890  1.00  0.00     0.037 A 
ATOM     51  C   UNL A   1      44.967  31.102  29.974  1.00  0.00     0.049 A 
ATOM     52  C   UNL A   1      39.375  31.951  31.394  1.00  0.00     0.074 A 
ATOM     53  C   UNL A   1      45.563  30.109  30.728  1.00  0.00     0.029 A 
ATOM     54  N   UNL A   1      44.165  31.798  30.845  1.00  0.00    -0.354 N 
ATOM     55  N   UNL A   1      40.104  31.564  32.403  1.00  0.00    -0.248 NA
ATOM     56  C   UNL A   1      40.012  32.891  30.486  1.00  0.00     0.031 C 
ATOM     57  C   UNL A   1      44.729  29.965  31.878  1.00  0.00     0.029 A 
ATOM     58  C   UNL A   1      43.721  30.928  31.807  1.00  0.00     0.049 A 
ATOM     59  H   UNL A   1      43.948  32.756  30.789  1.00  0.00     0.167 HD
ATOM     60  C   UNL A   1      41.406  31.826  32.010  1.00  0.00     0.074 A 
ATOM     61  C   UNL A   1      41.281  32.735  30.871  1.00  0.00     0.031 C 
ATOM     62  C   UNL A   1      42.438  31.052  32.459  1.00  0.00     0.037 A 
BRANCH  49  63
ATOM     63  C   UNL A   1      44.916  32.682  27.929  1.00  0.00     0.064 A 
ATOM     64  C   UNL A   1      46.186  33.067  27.453  1.00  0.00     0.173 A 
ATOM     65  C   UNL A   1      43.975  33.726  28.057  1.00  0.00     0.173 A 
ATOM     66  F   UNL A   1      47.165  32.161  27.311  1.00  0.00    -0.203 F 
ATOM     67  C   UNL A   1      46.509  34.405  27.211  1.00  0.00     0.198 A 
ATOM     68  C   UNL A   1      44.287  35.053  27.764  1.00  0.00     0.198 A 
ATOM     69  F   UNL A   1      42.758  33.536  28.580  1.00  0.00    -0.203 F 
ATOM     70  F   UNL A   1      47.769  34.737  26.891  1.00  0.00    -0.200 F 
ATOM     71  C   UNL A   1      45.562  35.398  27.374  1.00  0.00     0.200 A 
ATOM     72  F   UNL A   1      43.359  36.003  27.951  1.00  0.00    -0.200 F 
ATOM     73  F   UNL A   1      45.887  36.686  27.208  1.00  0.00    -0.200 F 
ENDBRANCH  49  63
BRANCH  50  74
ATOM     74  C   UNL A   1      36.868  31.817  30.735  1.00  0.00     0.064 A 
ATOM     75  C   UNL A   1      35.978  31.899  31.820  1.00  0.00     0.173 A 
ATOM     76  C   UNL A   1      36.563  32.613  29.615  1.00  0.00     0.173 A 
ATOM     77  F   UNL A   1      36.219  31.208  32.944  1.00  0.00    -0.203 F 
ATOM     78  C   UNL A   1      34.872  32.755  31.800  1.00  0.00     0.198 A 
ATOM     79  C   UNL A   1      35.456  33.465  29.594  1.00  0.00     0.198 A 
ATOM     80  F   UNL A   1      37.389  32.659  28.560  1.00  0.00    -0.203 F 
ATOM     81  F   UNL A   1      34.088  32.861  32.882  1.00  0.00    -0.200 F 
ATOM     82  C   UNL A   1      34.620  33.547  30.693  1.00  0.00     0.200 A 
ATOM     83  F   UNL A   1      35.246  34.258  28.534  1.00  0.00    -0.200 F 
ATOM     84  F   UNL A   1      33.604  34.422  30.701  1.00  0.00    -0.200 F 
ENDBRANCH  50  74
BRANCH  62  85
ATOM     85  C   UNL A   1      42.148  30.112  33.602  1.00  0.00     0.064 A 
ATOM     86  C   UNL A   1      41.732  28.776  33.455  1.00  0.00     0.173 A 
ATOM     87  C   UNL A   1      42.396  30.563  34.905  1.00  0.00     0.173 A 
ATOM     88  F   UNL A   1      41.572  28.231  32.245  1.00  0.00    -0.203 F 
ATOM     89  C   UNL A   1      41.517  27.955  34.562  1.00  0.00     0.198 A 
ATOM     90  C   UNL A   1      42.217  29.730  36.007  1.00  0.00     0.198 A 
ATOM     91  F   UNL A   1      42.847  31.810  35.110  1.00  0.00    -0.203 F 
ATOM     92  F   UNL A   1      41.093  26.694  34.393  1.00  0.00    -0.200 F 
ATOM     93  C   UNL A   1      41.763  28.434  35.837  1.00  0.00     0.200 A 
ATOM     94  F   UNL A   1      42.504  30.183  37.235  1.00  0.00    -0.200 F 
ATOM     95  F   UNL A   1      41.583  27.638  36.901  1.00  0.00    -0.200 F 
ENDBRANCH  62  85
ENDBRANCH  36  37
ENDBRANCH  28  31
ENDBRANCH  26  27
ENDBRANCH  25  26
ENDBRANCH   1  25
TORSDOF 14
ENDMDL
MODEL 3
REMARK VINA RESULT:     -12.3      3.608      8.939
REMARK SMILES Cc1nsc(N(C)C(=O)[C@@H](C)NC(N)=O)c1C(=O)NCCCNC(=O)c1ccc(-c2c3nc(c(-c4c(F)c(F)c(F)c(F)c4F)c4ccc([nH]4)c(-c4c(F)c(F)c(F)c(F)c4F)c4nc(c(-c5c(F)c(F)c(F)c(F)c5F)c5ccc2[nH]5)C=C4)C=C3)cc1
REMARK SMILES IDX 20 1 19 2 17 3 18 4 16 6 1 7 2 8 3 9 4 10 5 11 6 12 7 13
REMARK SMILES IDX 8 14 9 15 10 16 11 17 12 18 13 19 14 21 15 22 21 25 22 26
REMARK SMILES IDX 23 27 24 28 25 30 26 31 27 32 88 33 28 34 87 35 29 36 30 37
REMARK SMILES IDX 31 38 81 39 32 40 86 41 80 42 82 43 33 44 85 45 79 46 78 47
REMARK SMILES IDX 34 49 66 50 46 51 65 52 47 53 50 54 64 55 83 56 48 57 49 58
REMARK SMILES IDX 63 60 84 61 51 62 35 63 36 64 44 65 37 66 38 67 42 68 45 69
REMARK SMILES IDX 39 70 40 71 43 72 41 73 67 74 68 75 76 76 69 77 70 78 74 79
REMARK SMILES IDX 77 80 71 81 72 82 75 83 73 84 52 85 53 86 61 87 54 88 55 89
REMARK SMILES IDX 59 90 62 91 56 92 57 93 60 94 58 95
REMARK H PARENT 19 5 12 20 14 23 14 24 23 29 82 48 50 59
REMARK Flexibility Score: inf
ROOT
ATOM      1  C   UNL A   1      37.288  22.506  25.197  1.00  0.00     0.118 C 
ENDROOT
BRANCH   1   2
ATOM      2  N   UNL A   1      36.370  22.151  24.131  1.00  0.00    -0.352 N 
ATOM      3  C   UNL A   1      35.361  22.950  23.636  1.00  0.00     0.256 C 
ATOM      4  O   UNL A   1      35.491  23.328  22.469  1.00  0.00    -0.269 OA
ATOM      5  H   UNL A   1      36.477  21.260  23.726  1.00  0.00     0.163 HD
BRANCH   3   6
ATOM      6  C   UNL A   1      34.136  23.237  24.400  1.00  0.00     0.097 A 
ATOM      7  C   UNL A   1      34.397  25.732  25.377  1.00  0.00     0.069 C 
ATOM      8  C   UNL A   1      33.699  24.451  25.097  1.00  0.00     0.066 A 
ATOM      9  N   UNL A   1      32.445  24.453  25.544  1.00  0.00    -0.195 NA
ATOM     10  S   UNL A   1      31.737  23.036  25.199  1.00  0.00    -0.017 S 
ATOM     11  C   UNL A   1      33.101  22.281  24.495  1.00  0.00     0.131 A 
BRANCH  11  12
ATOM     12  N   UNL A   1      32.973  20.902  24.157  1.00  0.00    -0.303 N 
ATOM     13  C   UNL A   1      32.153  20.433  23.040  1.00  0.00     0.154 C 
BRANCH  12  14
ATOM     14  C   UNL A   1      33.465  19.973  25.093  1.00  0.00     0.249 C 
ATOM     15  O   UNL A   1      33.277  20.135  26.310  1.00  0.00    -0.272 OA
BRANCH  14  16
ATOM     16  C   UNL A   1      34.050  18.596  24.624  1.00  0.00     0.170 C 
ATOM     17  C   UNL A   1      35.579  18.623  24.626  1.00  0.00     0.041 C 
BRANCH  16  18
ATOM     18  N   UNL A   1      33.579  17.368  25.264  1.00  0.00    -0.327 N 
ATOM     19  C   UNL A   1      33.433  16.197  24.585  1.00  0.00     0.312 C 
ATOM     20  H   UNL A   1      33.359  17.389  26.223  1.00  0.00     0.166 HD
ATOM     21  N   UNL A   1      33.008  15.183  25.376  1.00  0.00    -0.352 N 
ATOM     22  O   UNL A   1      33.670  16.022  23.401  1.00  0.00    -0.249 OA
ATOM     23  H   UNL A   1      32.822  15.347  26.329  1.00  0.00     0.161 HD
ATOM     24  H   UNL A   1      32.885  14.281  24.998  1.00  0.00     0.161 HD
ENDBRANCH  16  18
ENDBRANCH  14  16
ENDBRANCH  12  14
ENDBRANCH  11  12
ENDBRANCH   3   6
ENDBRANCH   1   2
BRANCH   1  25
ATOM     25  C   UNL A   1      38.363  21.441  25.428  1.00  0.00     0.042 C 
BRANCH  25  26
ATOM     26  C   UNL A   1      39.385  21.855  26.467  1.00  0.00     0.118 C 
BRANCH  26  27
ATOM     27  N   UNL A   1      40.752  21.829  25.937  1.00  0.00    -0.352 N 
ATOM     28  C   UNL A   1      41.670  22.856  25.916  1.00  0.00     0.251 C 
ATOM     29  H   UNL A   1      41.050  20.974  25.550  1.00  0.00     0.163 HD
ATOM     30  O   UNL A   1      42.634  22.835  25.152  1.00  0.00    -0.269 OA
BRANCH  28  31
ATOM     31  C   UNL A   1      41.466  23.986  26.830  1.00  0.00     0.039 A 
ATOM     32  C   UNL A   1      42.301  24.190  27.929  1.00  0.00     0.014 A 
ATOM     33  C   UNL A   1      40.469  24.899  26.499  1.00  0.00     0.014 A 
ATOM     34  C   UNL A   1      42.181  25.382  28.635  1.00  0.00     0.010 A 
ATOM     35  C   UNL A   1      40.477  26.140  27.078  1.00  0.00     0.010 A 
ATOM     36  C   UNL A   1      41.291  26.371  28.179  1.00  0.00    -0.014 A 
BRANCH  36  37
ATOM     37  C   UNL A   1      41.305  27.708  28.758  1.00  0.00     0.031 A 
ATOM     38  C   UNL A   1      42.441  28.549  28.298  1.00  0.00     0.074 A 
ATOM     39  C   UNL A   1      40.295  28.211  29.502  1.00  0.00     0.049 A 
ATOM     40  N   UNL A   1      43.456  28.928  28.999  1.00  0.00    -0.248 NA
ATOM     41  C   UNL A   1      42.556  28.872  26.866  1.00  0.00     0.031 C 
ATOM     42  C   UNL A   1      38.991  27.608  29.803  1.00  0.00     0.029 A 
ATOM     43  N   UNL A   1      40.195  29.434  30.094  1.00  0.00    -0.354 N 
ATOM     44  C   UNL A   1      44.232  29.717  28.159  1.00  0.00     0.074 A 
ATOM     45  C   UNL A   1      43.736  29.496  26.826  1.00  0.00     0.031 C 
ATOM     46  C   UNL A   1      38.159  28.542  30.313  1.00  0.00     0.029 A 
ATOM     47  C   UNL A   1      38.918  29.755  30.546  1.00  0.00     0.049 A 
ATOM     48  H   UNL A   1      40.962  30.041  30.194  1.00  0.00     0.167 HD
ATOM     49  C   UNL A   1      45.035  30.686  28.680  1.00  0.00     0.037 A 
ATOM     50  C   UNL A   1      38.514  30.935  31.080  1.00  0.00     0.037 A 
ATOM     51  C   UNL A   1      45.250  30.467  30.091  1.00  0.00     0.049 A 
ATOM     52  C   UNL A   1      39.730  31.630  31.565  1.00  0.00     0.074 A 
ATOM     53  C   UNL A   1      45.800  29.449  30.846  1.00  0.00     0.029 A 
ATOM     54  N   UNL A   1      44.497  31.212  30.966  1.00  0.00    -0.354 N 
ATOM     55  N   UNL A   1      40.447  31.211  32.569  1.00  0.00    -0.248 NA
ATOM     56  C   UNL A   1      40.406  32.527  30.644  1.00  0.00     0.031 C 
ATOM     57  C   UNL A   1      44.972  29.358  32.006  1.00  0.00     0.029 A 
ATOM     58  C   UNL A   1      44.018  30.374  31.939  1.00  0.00     0.049 A 
ATOM     59  H   UNL A   1      44.332  32.180  30.905  1.00  0.00     0.167 HD
ATOM     60  C   UNL A   1      41.757  31.398  32.160  1.00  0.00     0.074 A 
ATOM     61  C   UNL A   1      41.670  32.305  31.016  1.00  0.00     0.031 C 
ATOM     62  C   UNL A   1      42.750  30.572  32.604  1.00  0.00     0.037 A 
BRANCH  49  63
ATOM     63  C   UNL A   1      45.262  32.034  28.035  1.00  0.00     0.064 A 
ATOM     64  C   UNL A   1      44.153  32.872  27.799  1.00  0.00     0.173 A 
ATOM     65  C   UNL A   1      46.450  32.396  27.363  1.00  0.00     0.173 A 
ATOM     66  F   UNL A   1      42.967  32.613  28.369  1.00  0.00    -0.203 F 
ATOM     67  C   UNL A   1      44.211  33.935  26.891  1.00  0.00     0.198 A 
ATOM     68  C   UNL A   1      46.516  33.488  26.499  1.00  0.00     0.198 A 
ATOM     69  F   UNL A   1      47.559  31.650  27.414  1.00  0.00    -0.203 F 
ATOM     70  F   UNL A   1      43.096  34.618  26.597  1.00  0.00    -0.200 F 
ATOM     71  C   UNL A   1      45.390  34.236  26.237  1.00  0.00     0.200 A 
ATOM     72  F   UNL A   1      47.664  33.749  25.857  1.00  0.00    -0.200 F 
ATOM     73  F   UNL A   1      45.431  35.209  25.318  1.00  0.00    -0.200 F 
ENDBRANCH  49  63
BRANCH  50  74
ATOM     74  C   UNL A   1      37.212  31.629  30.935  1.00  0.00     0.064 A 
ATOM     75  C   UNL A   1      36.339  31.765  32.028  1.00  0.00     0.173 A 
ATOM     76  C   UNL A   1      36.938  32.435  29.813  1.00  0.00     0.173 A 
ATOM     77  F   UNL A   1      36.553  31.067  33.153  1.00  0.00    -0.203 F 
ATOM     78  C   UNL A   1      35.280  32.680  32.014  1.00  0.00     0.198 A 
ATOM     79  C   UNL A   1      35.879  33.345  29.799  1.00  0.00     0.198 A 
ATOM     80  F   UNL A   1      37.755  32.431  28.750  1.00  0.00    -0.203 F 
ATOM     81  F   UNL A   1      34.514  32.833  33.104  1.00  0.00    -0.200 F 
ATOM     82  C   UNL A   1      35.060  33.479  30.905  1.00  0.00     0.200 A 
ATOM     83  F   UNL A   1      35.702  34.143  28.736  1.00  0.00    -0.200 F 
ATOM     84  F   UNL A   1      34.093  34.407  30.918  1.00  0.00    -0.200 F 
ENDBRANCH  50  74
BRANCH  62  85
ATOM     85  C   UNL A   1      42.423  29.658  33.757  1.00  0.00     0.064 A 
ATOM     86  C   UNL A   1      41.894  28.360  33.625  1.00  0.00     0.173 A 
ATOM     87  C   UNL A   1      42.749  30.084  35.050  1.00  0.00     0.173 A 
ATOM     88  F   UNL A   1      41.650  27.832  32.421  1.00  0.00    -0.203 F 
ATOM     89  C   UNL A   1      41.648  27.558  34.739  1.00  0.00     0.198 A 
ATOM     90  C   UNL A   1      42.540  29.267  36.159  1.00  0.00     0.198 A 
ATOM     91  F   UNL A   1      43.308  31.290  35.239  1.00  0.00    -0.203 F 
ATOM     92  F   UNL A   1      41.117  26.336  34.586  1.00  0.00    -0.200 F 
ATOM     93  C   UNL A   1      41.975  28.012  36.005  1.00  0.00     0.200 A 
ATOM     94  F   UNL A   1      42.903  29.693  37.376  1.00  0.00    -0.200 F 
ATOM     95  F   UNL A   1      41.766  27.233  37.075  1.00  0.00    -0.200 F 
ENDBRANCH  62  85
ENDBRANCH  36  37
ENDBRANCH  28  31
ENDBRANCH  26  27
ENDBRANCH  25  26
ENDBRANCH   1  25
TORSDOF 14
ENDMDL
