MODEL 1
REMARK VINA RESULT:     -12.3      0.000      0.000
REMARK SMILES O=C(CC[N@@H+]1CCC[C@@H]1c1csc(Nc2ccccn2)n1)NCCCNC(=O)c1ccc(-c2c3nc(c(-c4c(F)c(F)c(F)c(F)c4F)c4ccc([nH]4)c(-c4c(F)c(F)c(F)c(F)c4F)c4nc(c(-c5c(F)c(F)c(F)c(F)c5F)c5ccc2[nH]5)C=C4)C=C3)cc1
REMARK SMILES IDX 1 1 2 2 22 3 3 5 4 6 5 7 6 8 9 9 7 11 8 12 10 13 11 14 21 15
REMARK SMILES IDX 12 16 13 17 14 18 15 20 16 21 20 22 17 23 19 24 18 25 23 26
REMARK SMILES IDX 24 27 25 28 26 29 27 30 28 32 29 33 30 34 91 35 31 36 90 37
REMARK SMILES IDX 32 38 33 39 34 40 84 41 35 42 89 43 83 44 85 45 36 46 88 47
REMARK SMILES IDX 82 48 81 49 37 51 69 52 49 53 68 54 50 55 53 56 67 57 86 58
REMARK SMILES IDX 51 59 52 60 66 62 87 63 54 64 38 65 39 66 47 67 40 68 41 69
REMARK SMILES IDX 45 70 48 71 42 72 43 73 46 74 44 75 70 76 71 77 79 78 72 79
REMARK SMILES IDX 73 80 77 81 80 82 74 83 75 84 78 85 76 86 55 87 56 88 64 89
REMARK SMILES IDX 57 90 58 91 62 92 65 93 59 94 60 95 63 96 61 97
REMARK H PARENT 22 4 5 10 14 19 26 31 85 50 53 61
REMARK Flexibility Score: inf
ROOT
ATOM      1  O   UNL A   1      35.407  24.370  24.628  1.00  0.00    -0.275 OA
ATOM      2  C   UNL A   1      35.151  23.295  24.100  1.00  0.00     0.225 C 
ATOM      3  N   UNL A   1      35.983  22.200  24.130  1.00  0.00    -0.356 N 
ATOM      4  H   UNL A   1      35.647  21.342  23.783  1.00  0.00     0.163 HD
ENDROOT
BRANCH   2   5
ATOM      5  C   UNL A   1      33.849  23.023  23.379  1.00  0.00     0.161 C 
BRANCH   5   6
ATOM      6  C   UNL A   1      32.706  23.946  23.802  1.00  0.00     0.272 C 
BRANCH   6   7
ATOM      7  N   UNL A   1      32.508  24.335  25.202  1.00  0.00    -0.327 N 
ATOM      8  C   UNL A   1      31.818  23.353  26.034  1.00  0.00     0.263 C 
ATOM      9  C   UNL A   1      31.964  25.656  25.583  1.00  0.00     0.235 C 
ATOM     10  H   UNL A   1      33.510  24.400  25.382  1.00  0.00     0.348 HD
ATOM     11  C   UNL A   1      30.417  23.896  26.249  1.00  0.00     0.068 C 
ATOM     12  C   UNL A   1      30.532  25.401  26.051  1.00  0.00     0.078 C 
BRANCH   9  13
ATOM     13  C   UNL A   1      32.160  26.770  24.591  1.00  0.00     0.111 A 
ATOM     14  C   UNL A   1      33.290  27.556  24.482  1.00  0.00     0.098 A 
ATOM     15  N   UNL A   1      31.123  27.162  23.744  1.00  0.00    -0.219 NA
ATOM     16  S   UNL A   1      33.153  28.623  23.166  1.00  0.00    -0.105 S 
ATOM     17  C   UNL A   1      31.522  28.094  22.899  1.00  0.00     0.188 A 
BRANCH  17  18
ATOM     18  N   UNL A   1      30.693  28.678  21.995  1.00  0.00    -0.316 N 
ATOM     19  H   UNL A   1      30.737  28.352  21.067  1.00  0.00     0.170 HD
BRANCH  18  20
ATOM     20  C   UNL A   1      29.784  29.702  22.271  1.00  0.00     0.132 A 
ATOM     21  C   UNL A   1      29.673  30.247  23.553  1.00  0.00     0.047 A 
ATOM     22  N   UNL A   1      28.997  30.114  21.255  1.00  0.00    -0.239 NA
ATOM     23  C   UNL A   1      28.694  31.203  23.809  1.00  0.00     0.005 A 
ATOM     24  C   UNL A   1      28.026  31.013  21.539  1.00  0.00     0.113 A 
ATOM     25  C   UNL A   1      27.834  31.579  22.788  1.00  0.00     0.020 A 
ENDBRANCH  18  20
ENDBRANCH  17  18
ENDBRANCH   9  13
ENDBRANCH   6   7
ENDBRANCH   5   6
ENDBRANCH   2   5
BRANCH   3  26
ATOM     26  C   UNL A   1      37.332  22.255  24.649  1.00  0.00     0.117 C 
BRANCH  26  27
ATOM     27  C   UNL A   1      37.871  20.878  25.025  1.00  0.00     0.042 C 
BRANCH  27  28
ATOM     28  C   UNL A   1      39.105  20.871  25.926  1.00  0.00     0.118 C 
BRANCH  28  29
ATOM     29  N   UNL A   1      39.932  19.680  25.825  1.00  0.00    -0.352 N 
ATOM     30  C   UNL A   1      41.280  19.541  26.067  1.00  0.00     0.251 C 
ATOM     31  H   UNL A   1      39.464  18.861  25.544  1.00  0.00     0.163 HD
ATOM     32  O   UNL A   1      41.831  18.453  25.935  1.00  0.00    -0.269 OA
BRANCH  30  33
ATOM     33  C   UNL A   1      42.091  20.729  26.418  1.00  0.00     0.039 A 
ATOM     34  C   UNL A   1      42.599  21.510  25.377  1.00  0.00     0.014 A 
ATOM     35  C   UNL A   1      42.302  21.108  27.748  1.00  0.00     0.014 A 
ATOM     36  C   UNL A   1      43.213  22.733  25.661  1.00  0.00     0.010 A 
ATOM     37  C   UNL A   1      42.871  22.350  28.028  1.00  0.00     0.010 A 
ATOM     38  C   UNL A   1      43.294  23.190  26.985  1.00  0.00    -0.014 A 
BRANCH  38  39
ATOM     39  C   UNL A   1      43.703  24.587  27.282  1.00  0.00     0.031 A 
ATOM     40  C   UNL A   1      42.706  25.607  27.741  1.00  0.00     0.074 A 
ATOM     41  C   UNL A   1      44.980  24.950  27.053  1.00  0.00     0.049 A 
ATOM     42  N   UNL A   1      42.878  26.886  27.966  1.00  0.00    -0.248 NA
ATOM     43  C   UNL A   1      41.331  25.135  27.960  1.00  0.00     0.031 C 
ATOM     44  C   UNL A   1      46.036  24.060  26.566  1.00  0.00     0.029 A 
ATOM     45  N   UNL A   1      45.605  26.166  27.182  1.00  0.00    -0.354 N 
ATOM     46  C   UNL A   1      41.637  27.374  28.349  1.00  0.00     0.074 A 
ATOM     47  C   UNL A   1      40.712  26.261  28.291  1.00  0.00     0.031 C 
ATOM     48  C   UNL A   1      47.178  24.755  26.448  1.00  0.00     0.029 A 
ATOM     49  C   UNL A   1      46.929  26.145  26.812  1.00  0.00     0.049 A 
ATOM     50  H   UNL A   1      45.150  26.975  27.507  1.00  0.00     0.167 HD
ATOM     51  C   UNL A   1      41.307  28.632  28.728  1.00  0.00     0.037 A 
ATOM     52  C   UNL A   1      47.837  27.138  26.758  1.00  0.00     0.037 A 
ATOM     53  C   UNL A   1      42.230  29.736  28.796  1.00  0.00     0.049 A 
ATOM     54  C   UNL A   1      47.435  28.529  27.157  1.00  0.00     0.074 A 
ATOM     55  C   UNL A   1      41.998  31.031  29.230  1.00  0.00     0.029 A 
ATOM     56  N   UNL A   1      43.563  29.678  28.414  1.00  0.00    -0.354 N 
ATOM     57  N   UNL A   1      46.273  28.965  27.579  1.00  0.00    -0.248 NA
ATOM     58  C   UNL A   1      48.471  29.568  27.073  1.00  0.00     0.031 C 
ATOM     59  C   UNL A   1      43.177  31.766  29.069  1.00  0.00     0.029 A 
ATOM     60  C   UNL A   1      44.156  30.920  28.575  1.00  0.00     0.049 A 
ATOM     61  H   UNL A   1      44.019  28.873  28.079  1.00  0.00     0.167 HD
ATOM     62  C   UNL A   1      46.441  30.319  27.827  1.00  0.00     0.074 A 
ATOM     63  C   UNL A   1      47.822  30.633  27.524  1.00  0.00     0.031 C 
ATOM     64  C   UNL A   1      45.530  31.222  28.264  1.00  0.00     0.037 A 
BRANCH  51  65
ATOM     65  C   UNL A   1      39.877  28.889  29.100  1.00  0.00     0.064 A 
ATOM     66  C   UNL A   1      38.932  29.287  28.143  1.00  0.00     0.173 A 
ATOM     67  C   UNL A   1      39.436  28.687  30.417  1.00  0.00     0.173 A 
ATOM     68  F   UNL A   1      39.306  29.501  26.873  1.00  0.00    -0.203 F 
ATOM     69  C   UNL A   1      37.601  29.497  28.496  1.00  0.00     0.198 A 
ATOM     70  C   UNL A   1      38.100  28.874  30.760  1.00  0.00     0.198 A 
ATOM     71  F   UNL A   1      40.300  28.300  31.367  1.00  0.00    -0.203 F 
ATOM     72  F   UNL A   1      36.723  29.914  27.573  1.00  0.00    -0.200 F 
ATOM     73  C   UNL A   1      37.186  29.284  29.802  1.00  0.00     0.200 A 
ATOM     74  F   UNL A   1      37.697  28.658  32.020  1.00  0.00    -0.200 F 
ATOM     75  F   UNL A   1      35.903  29.480  30.138  1.00  0.00    -0.200 F 
ENDBRANCH  51  65
BRANCH  52  76
ATOM     76  C   UNL A   1      49.223  26.848  26.309  1.00  0.00     0.064 A 
ATOM     77  C   UNL A   1      50.202  26.438  27.224  1.00  0.00     0.173 A 
ATOM     78  C   UNL A   1      49.594  26.974  24.963  1.00  0.00     0.173 A 
ATOM     79  F   UNL A   1      49.897  26.326  28.525  1.00  0.00    -0.203 F 
ATOM     80  C   UNL A   1      51.507  26.181  26.811  1.00  0.00     0.198 A 
ATOM     81  C   UNL A   1      50.893  26.693  24.548  1.00  0.00     0.198 A 
ATOM     82  F   UNL A   1      48.691  27.361  24.050  1.00  0.00    -0.203 F 
ATOM     83  F   UNL A   1      52.435  25.830  27.712  1.00  0.00    -0.200 F 
ATOM     84  C   UNL A   1      51.850  26.302  25.473  1.00  0.00     0.200 A 
ATOM     85  F   UNL A   1      51.219  26.800  23.252  1.00  0.00    -0.200 F 
ATOM     86  F   UNL A   1      53.105  26.051  25.075  1.00  0.00    -0.200 F 
ENDBRANCH  52  76
BRANCH  64  87
ATOM     87  C   UNL A   1      46.003  32.633  28.455  1.00  0.00     0.064 A 
ATOM     88  C   UNL A   1      46.566  33.057  29.667  1.00  0.00     0.173 A 
ATOM     89  C   UNL A   1      45.918  33.562  27.408  1.00  0.00     0.173 A 
ATOM     90  F   UNL A   1      46.651  32.210  30.705  1.00  0.00    -0.203 F 
ATOM     91  C   UNL A   1      47.011  34.366  29.829  1.00  0.00     0.198 A 
ATOM     92  C   UNL A   1      46.387  34.864  27.565  1.00  0.00     0.198 A 
ATOM     93  F   UNL A   1      45.389  33.205  26.228  1.00  0.00    -0.203 F 
ATOM     94  F   UNL A   1      47.508  34.761  31.010  1.00  0.00    -0.200 F 
ATOM     95  C   UNL A   1      46.927  35.266  28.778  1.00  0.00     0.200 A 
ATOM     96  F   UNL A   1      46.312  35.729  26.546  1.00  0.00    -0.200 F 
ATOM     97  F   UNL A   1      47.359  36.525  28.935  1.00  0.00    -0.200 F 
ENDBRANCH  64  87
ENDBRANCH  38  39
ENDBRANCH  30  33
ENDBRANCH  28  29
ENDBRANCH  27  28
ENDBRANCH  26  27
ENDBRANCH   3  26
TORSDOF 15
ENDMDL
MODEL 2
REMARK VINA RESULT:     -12.3      1.913      4.430
REMARK SMILES O=C(CC[N@@H+]1CCC[C@@H]1c1csc(Nc2ccccn2)n1)NCCCNC(=O)c1ccc(-c2c3nc(c(-c4c(F)c(F)c(F)c(F)c4F)c4ccc([nH]4)c(-c4c(F)c(F)c(F)c(F)c4F)c4nc(c(-c5c(F)c(F)c(F)c(F)c5F)c5ccc2[nH]5)C=C4)C=C3)cc1
REMARK SMILES IDX 1 1 2 2 22 3 3 5 4 6 5 7 6 8 9 9 7 11 8 12 10 13 11 14 21 15
REMARK SMILES IDX 12 16 13 17 14 18 15 20 16 21 20 22 17 23 19 24 18 25 23 26
REMARK SMILES IDX 24 27 25 28 26 29 27 30 28 32 29 33 30 34 91 35 31 36 90 37
REMARK SMILES IDX 32 38 33 39 34 40 84 41 35 42 89 43 83 44 85 45 36 46 88 47
REMARK SMILES IDX 82 48 81 49 37 51 69 52 49 53 68 54 50 55 53 56 67 57 86 58
REMARK SMILES IDX 51 59 52 60 66 62 87 63 54 64 38 65 39 66 47 67 40 68 41 69
REMARK SMILES IDX 45 70 48 71 42 72 43 73 46 74 44 75 70 76 71 77 79 78 72 79
REMARK SMILES IDX 73 80 77 81 80 82 74 83 75 84 78 85 76 86 55 87 56 88 64 89
REMARK SMILES IDX 57 90 58 91 62 92 65 93 59 94 60 95 63 96 61 97
REMARK H PARENT 22 4 5 10 14 19 26 31 85 50 53 61
REMARK Flexibility Score: inf
ROOT
ATOM      1  O   UNL A   1      35.918  23.727  23.114  1.00  0.00    -0.275 OA
ATOM      2  C   UNL A   1      35.896  23.569  24.329  1.00  0.00     0.225 C 
ATOM      3  N   UNL A   1      36.640  22.627  25.001  1.00  0.00    -0.356 N 
ATOM      4  H   UNL A   1      36.651  22.648  25.985  1.00  0.00     0.163 HD
ENDROOT
BRANCH   2   5
ATOM      5  C   UNL A   1      35.069  24.434  25.255  1.00  0.00     0.161 C 
BRANCH   5   6
ATOM      6  C   UNL A   1      34.143  25.406  24.527  1.00  0.00     0.272 C 
BRANCH   6   7
ATOM      7  N   UNL A   1      33.627  25.120  23.184  1.00  0.00    -0.327 N 
ATOM      8  C   UNL A   1      33.585  26.261  22.273  1.00  0.00     0.263 C 
ATOM      9  C   UNL A   1      32.373  24.368  22.965  1.00  0.00     0.235 C 
ATOM     10  H   UNL A   1      34.373  24.455  22.981  1.00  0.00     0.348 HD
ATOM     11  C   UNL A   1      32.123  26.655  22.162  1.00  0.00     0.068 C 
ATOM     12  C   UNL A   1      31.338  25.399  22.518  1.00  0.00     0.078 C 
BRANCH   9  13
ATOM     13  C   UNL A   1      31.957  23.430  24.065  1.00  0.00     0.111 A 
ATOM     14  C   UNL A   1      31.047  23.719  25.063  1.00  0.00     0.098 A 
ATOM     15  N   UNL A   1      32.568  22.184  24.209  1.00  0.00    -0.219 NA
ATOM     16  S   UNL A   1      30.775  22.355  26.039  1.00  0.00    -0.105 S 
ATOM     17  C   UNL A   1      32.006  21.486  25.178  1.00  0.00     0.188 A 
BRANCH  17  18
ATOM     18  N   UNL A   1      32.441  20.254  25.551  1.00  0.00    -0.316 N 
ATOM     19  H   UNL A   1      32.397  20.032  26.509  1.00  0.00     0.170 HD
BRANCH  18  20
ATOM     20  C   UNL A   1      32.944  19.276  24.689  1.00  0.00     0.132 A 
ATOM     21  C   UNL A   1      32.196  18.810  23.606  1.00  0.00     0.047 A 
ATOM     22  N   UNL A   1      34.167  18.780  24.973  1.00  0.00    -0.239 NA
ATOM     23  C   UNL A   1      32.696  17.772  22.824  1.00  0.00     0.005 A 
ATOM     24  C   UNL A   1      34.611  17.744  24.224  1.00  0.00     0.113 A 
ATOM     25  C   UNL A   1      33.919  17.208  23.152  1.00  0.00     0.020 A 
ENDBRANCH  18  20
ENDBRANCH  17  18
ENDBRANCH   9  13
ENDBRANCH   6   7
ENDBRANCH   5   6
ENDBRANCH   2   5
BRANCH   3  26
ATOM     26  C   UNL A   1      37.407  21.605  24.323  1.00  0.00     0.117 C 
BRANCH  26  27
ATOM     27  C   UNL A   1      37.832  20.476  25.256  1.00  0.00     0.042 C 
BRANCH  27  28
ATOM     28  C   UNL A   1      39.210  20.629  25.899  1.00  0.00     0.118 C 
BRANCH  28  29
ATOM     29  N   UNL A   1      40.050  19.444  25.840  1.00  0.00    -0.352 N 
ATOM     30  C   UNL A   1      41.389  19.319  26.134  1.00  0.00     0.251 C 
ATOM     31  H   UNL A   1      39.600  18.618  25.550  1.00  0.00     0.163 HD
ATOM     32  O   UNL A   1      41.953  18.234  26.033  1.00  0.00    -0.269 OA
BRANCH  30  33
ATOM     33  C   UNL A   1      42.177  20.516  26.505  1.00  0.00     0.039 A 
ATOM     34  C   UNL A   1      42.756  21.267  25.477  1.00  0.00     0.014 A 
ATOM     35  C   UNL A   1      42.297  20.935  27.833  1.00  0.00     0.014 A 
ATOM     36  C   UNL A   1      43.350  22.498  25.766  1.00  0.00     0.010 A 
ATOM     37  C   UNL A   1      42.848  22.185  28.115  1.00  0.00     0.010 A 
ATOM     38  C   UNL A   1      43.342  22.993  27.079  1.00  0.00    -0.014 A 
BRANCH  38  39
ATOM     39  C   UNL A   1      43.733  24.399  27.362  1.00  0.00     0.031 A 
ATOM     40  C   UNL A   1      42.728  25.403  27.839  1.00  0.00     0.074 A 
ATOM     41  C   UNL A   1      44.997  24.784  27.102  1.00  0.00     0.049 A 
ATOM     42  N   UNL A   1      42.882  26.685  28.056  1.00  0.00    -0.248 NA
ATOM     43  C   UNL A   1      41.367  24.908  28.091  1.00  0.00     0.031 C 
ATOM     44  C   UNL A   1      46.058  23.912  26.595  1.00  0.00     0.029 A 
ATOM     45  N   UNL A   1      45.603  26.011  27.213  1.00  0.00    -0.354 N 
ATOM     46  C   UNL A   1      41.642  27.153  28.466  1.00  0.00     0.074 A 
ATOM     47  C   UNL A   1      40.736  26.023  28.432  1.00  0.00     0.031 C 
ATOM     48  C   UNL A   1      47.185  24.626  26.448  1.00  0.00     0.029 A 
ATOM     49  C   UNL A   1      46.918  26.013  26.813  1.00  0.00     0.049 A 
ATOM     50  H   UNL A   1      45.141  26.814  27.546  1.00  0.00     0.167 HD
ATOM     51  C   UNL A   1      41.297  28.406  28.847  1.00  0.00     0.037 A 
ATOM     52  C   UNL A   1      47.807  27.022  26.735  1.00  0.00     0.037 A 
ATOM     53  C   UNL A   1      42.202  29.527  28.891  1.00  0.00     0.049 A 
ATOM     54  C   UNL A   1      47.389  28.407  27.138  1.00  0.00     0.074 A 
ATOM     55  C   UNL A   1      41.956  30.819  29.325  1.00  0.00     0.029 A 
ATOM     56  N   UNL A   1      43.526  29.491  28.479  1.00  0.00    -0.354 N 
ATOM     57  N   UNL A   1      46.229  28.823  27.585  1.00  0.00    -0.248 NA
ATOM     58  C   UNL A   1      48.404  29.464  27.027  1.00  0.00     0.031 C 
ATOM     59  C   UNL A   1      43.118  31.575  29.135  1.00  0.00     0.029 A 
ATOM     60  C   UNL A   1      44.101  30.745  28.621  1.00  0.00     0.049 A 
ATOM     61  H   UNL A   1      43.989  28.693  28.136  1.00  0.00     0.167 HD
ATOM     62  C   UNL A   1      46.378  30.181  27.824  1.00  0.00     0.074 A 
ATOM     63  C   UNL A   1      47.746  30.519  27.489  1.00  0.00     0.031 C 
ATOM     64  C   UNL A   1      45.461  31.070  28.278  1.00  0.00     0.037 A 
BRANCH  51  65
ATOM     65  C   UNL A   1      39.872  28.639  29.250  1.00  0.00     0.064 A 
ATOM     66  C   UNL A   1      39.435  28.410  30.563  1.00  0.00     0.173 A 
ATOM     67  C   UNL A   1      38.943  29.142  28.326  1.00  0.00     0.173 A 
ATOM     68  F   UNL A   1      40.282  27.921  31.480  1.00  0.00    -0.203 F 
ATOM     69  C   UNL A   1      38.115  28.654  30.931  1.00  0.00     0.198 A 
ATOM     70  C   UNL A   1      37.630  29.409  28.704  1.00  0.00     0.198 A 
ATOM     71  F   UNL A   1      39.314  29.385  27.059  1.00  0.00    -0.203 F 
ATOM     72  F   UNL A   1      37.709  28.392  32.182  1.00  0.00    -0.200 F 
ATOM     73  C   UNL A   1      37.216  29.160  30.003  1.00  0.00     0.200 A 
ATOM     74  F   UNL A   1      36.765  29.907  27.809  1.00  0.00    -0.200 F 
ATOM     75  F   UNL A   1      35.947  29.400  30.361  1.00  0.00    -0.200 F 
ENDBRANCH  51  65
BRANCH  52  76
ATOM     76  C   UNL A   1      49.187  26.755  26.256  1.00  0.00     0.064 A 
ATOM     77  C   UNL A   1      49.532  26.956  24.913  1.00  0.00     0.173 A 
ATOM     78  C   UNL A   1      50.184  26.295  27.128  1.00  0.00     0.173 A 
ATOM     79  F   UNL A   1      48.604  27.373  24.039  1.00  0.00    -0.203 F 
ATOM     80  C   UNL A   1      50.821  26.691  24.455  1.00  0.00     0.198 A 
ATOM     81  C   UNL A   1      51.479  26.055  26.674  1.00  0.00     0.198 A 
ATOM     82  F   UNL A   1      49.903  26.090  28.423  1.00  0.00    -0.203 F 
ATOM     83  F   UNL A   1      51.115  26.853  23.158  1.00  0.00    -0.200 F 
ATOM     84  C   UNL A   1      51.795  26.247  25.338  1.00  0.00     0.200 A 
ATOM     85  F   UNL A   1      52.421  25.637  27.531  1.00  0.00    -0.200 F 
ATOM     86  F   UNL A   1      53.036  25.997  24.898  1.00  0.00    -0.200 F 
ENDBRANCH  52  76
BRANCH  64  87
ATOM     87  C   UNL A   1      45.913  32.489  28.454  1.00  0.00     0.064 A 
ATOM     88  C   UNL A   1      45.768  33.435  27.429  1.00  0.00     0.173 A 
ATOM     89  C   UNL A   1      46.469  32.916  29.669  1.00  0.00     0.173 A 
ATOM     90  F   UNL A   1      45.259  33.071  26.242  1.00  0.00    -0.203 F 
ATOM     91  C   UNL A   1      46.181  34.753  27.608  1.00  0.00     0.198 A 
ATOM     92  C   UNL A   1      46.858  34.240  29.854  1.00  0.00     0.198 A 
ATOM     93  F   UNL A   1      46.627  32.050  30.682  1.00  0.00    -0.203 F 
ATOM     94  F   UNL A   1      46.072  35.630  26.601  1.00  0.00    -0.200 F 
ATOM     95  C   UNL A   1      46.720  35.155  28.821  1.00  0.00     0.200 A 
ATOM     96  F   UNL A   1      47.370  34.629  31.029  1.00  0.00    -0.200 F 
ATOM     97  F   UNL A   1      47.113  36.425  28.992  1.00  0.00    -0.200 F 
ENDBRANCH  64  87
ENDBRANCH  38  39
ENDBRANCH  30  33
ENDBRANCH  28  29
ENDBRANCH  27  28
ENDBRANCH  26  27
ENDBRANCH   3  26
TORSDOF 15
ENDMDL
MODEL 3
REMARK VINA RESULT:     -12.2      5.825     11.440
REMARK SMILES O=C(CC[N@@H+]1CCC[C@@H]1c1csc(Nc2ccccn2)n1)NCCCNC(=O)c1ccc(-c2c3nc(c(-c4c(F)c(F)c(F)c(F)c4F)c4ccc([nH]4)c(-c4c(F)c(F)c(F)c(F)c4F)c4nc(c(-c5c(F)c(F)c(F)c(F)c5F)c5ccc2[nH]5)C=C4)C=C3)cc1
REMARK SMILES IDX 1 1 2 2 22 3 3 5 4 6 5 7 6 8 9 9 7 11 8 12 10 13 11 14 21 15
REMARK SMILES IDX 12 16 13 17 14 18 15 20 16 21 20 22 17 23 19 24 18 25 23 26
REMARK SMILES IDX 24 27 25 28 26 29 27 30 28 32 29 33 30 34 91 35 31 36 90 37
REMARK SMILES IDX 32 38 33 39 34 40 84 41 35 42 89 43 83 44 85 45 36 46 88 47
REMARK SMILES IDX 82 48 81 49 37 51 69 52 49 53 68 54 50 55 53 56 67 57 86 58
REMARK SMILES IDX 51 59 52 60 66 62 87 63 54 64 38 65 39 66 47 67 40 68 41 69
REMARK SMILES IDX 45 70 48 71 42 72 43 73 46 74 44 75 70 76 71 77 79 78 72 79
REMARK SMILES IDX 73 80 77 81 80 82 74 83 75 84 78 85 76 86 55 87 56 88 64 89
REMARK SMILES IDX 57 90 58 91 62 92 65 93 59 94 60 95 63 96 61 97
REMARK H PARENT 22 4 5 10 14 19 26 31 85 50 53 61
REMARK Flexibility Score: inf
ROOT
ATOM      1  O   UNL A   1      33.894  27.599  26.103  1.00  0.00    -0.275 OA
ATOM      2  C   UNL A   1      32.671  27.628  26.031  1.00  0.00     0.225 C 
ATOM      3  N   UNL A   1      31.936  28.762  25.771  1.00  0.00    -0.356 N 
ATOM      4  H   UNL A   1      30.969  28.672  25.613  1.00  0.00     0.163 HD
ENDROOT
BRANCH   2   5
ATOM      5  C   UNL A   1      31.810  26.392  26.176  1.00  0.00     0.161 C 
BRANCH   5   6
ATOM      6  C   UNL A   1      31.877  25.450  24.975  1.00  0.00     0.272 C 
BRANCH   6   7
ATOM      7  N   UNL A   1      33.004  25.475  24.036  1.00  0.00    -0.327 N 
ATOM      8  C   UNL A   1      32.784  26.244  22.815  1.00  0.00     0.263 C 
ATOM      9  C   UNL A   1      33.720  24.247  23.630  1.00  0.00     0.235 C 
ATOM     10  H   UNL A   1      33.622  25.932  24.708  1.00  0.00     0.348 HD
ATOM     11  C   UNL A   1      32.588  25.224  21.708  1.00  0.00     0.068 C 
ATOM     12  C   UNL A   1      33.278  23.958  22.197  1.00  0.00     0.078 C 
BRANCH   9  13
ATOM     13  C   UNL A   1      33.668  23.095  24.596  1.00  0.00     0.111 A 
ATOM     14  C   UNL A   1      34.481  22.938  25.701  1.00  0.00     0.098 A 
ATOM     15  N   UNL A   1      32.819  22.010  24.368  1.00  0.00    -0.219 NA
ATOM     16  S   UNL A   1      34.028  21.562  26.589  1.00  0.00    -0.105 S 
ATOM     17  C   UNL A   1      32.864  21.150  25.368  1.00  0.00     0.188 A 
BRANCH  17  18
ATOM     18  N   UNL A   1      32.164  19.986  25.376  1.00  0.00    -0.316 N 
ATOM     19  H   UNL A   1      31.226  20.027  25.669  1.00  0.00     0.170 HD
BRANCH  18  20
ATOM     20  C   UNL A   1      32.665  18.736  25.001  1.00  0.00     0.132 A 
ATOM     21  C   UNL A   1      33.246  18.534  23.748  1.00  0.00     0.047 A 
ATOM     22  N   UNL A   1      32.528  17.730  25.891  1.00  0.00    -0.239 NA
ATOM     23  C   UNL A   1      33.652  17.254  23.379  1.00  0.00     0.005 A 
ATOM     24  C   UNL A   1      32.891  16.489  25.492  1.00  0.00     0.113 A 
ATOM     25  C   UNL A   1      33.449  16.202  24.258  1.00  0.00     0.020 A 
ENDBRANCH  18  20
ENDBRANCH  17  18
ENDBRANCH   9  13
ENDBRANCH   6   7
ENDBRANCH   5   6
ENDBRANCH   2   5
BRANCH   3  26
ATOM     26  C   UNL A   1      32.526  30.082  25.720  1.00  0.00     0.117 C 
BRANCH  26  27
ATOM     27  C   UNL A   1      32.074  30.969  26.876  1.00  0.00     0.042 C 
BRANCH  27  28
ATOM     28  C   UNL A   1      33.099  31.990  27.369  1.00  0.00     0.118 C 
BRANCH  28  29
ATOM     29  N   UNL A   1      32.578  33.332  27.577  1.00  0.00    -0.352 N 
ATOM     30  C   UNL A   1      33.077  34.338  28.372  1.00  0.00     0.251 C 
ATOM     31  H   UNL A   1      31.755  33.549  27.082  1.00  0.00     0.163 HD
ATOM     32  O   UNL A   1      32.511  35.425  28.435  1.00  0.00    -0.269 OA
BRANCH  30  33
ATOM     33  C   UNL A   1      34.265  34.088  29.218  1.00  0.00     0.039 A 
ATOM     34  C   UNL A   1      34.065  33.543  30.490  1.00  0.00     0.014 A 
ATOM     35  C   UNL A   1      35.562  34.325  28.753  1.00  0.00     0.014 A 
ATOM     36  C   UNL A   1      35.161  33.123  31.247  1.00  0.00     0.010 A 
ATOM     37  C   UNL A   1      36.654  33.863  29.488  1.00  0.00     0.010 A 
ATOM     38  C   UNL A   1      36.460  33.222  30.722  1.00  0.00    -0.014 A 
BRANCH  38  39
ATOM     39  C   UNL A   1      37.603  32.552  31.394  1.00  0.00     0.031 A 
ATOM     40  C   UNL A   1      38.289  31.375  30.770  1.00  0.00     0.074 A 
ATOM     41  C   UNL A   1      37.966  32.968  32.623  1.00  0.00     0.049 A 
ATOM     42  N   UNL A   1      39.247  30.626  31.255  1.00  0.00    -0.248 NA
ATOM     43  C   UNL A   1      37.830  30.976  29.431  1.00  0.00     0.031 C 
ATOM     44  C   UNL A   1      37.349  34.075  33.355  1.00  0.00     0.029 A 
ATOM     45  N   UNL A   1      38.930  32.500  33.481  1.00  0.00    -0.354 N 
ATOM     46  C   UNL A   1      39.505  29.665  30.287  1.00  0.00     0.074 A 
ATOM     47  C   UNL A   1      38.576  29.904  29.202  1.00  0.00     0.031 C 
ATOM     48  C   UNL A   1      37.954  34.208  34.546  1.00  0.00     0.029 A 
ATOM     49  C   UNL A   1      38.975  33.175  34.678  1.00  0.00     0.049 A 
ATOM     50  H   UNL A   1      39.532  31.753  33.261  1.00  0.00     0.167 HD
ATOM     51  C   UNL A   1      40.439  28.684  30.301  1.00  0.00     0.037 A 
ATOM     52  C   UNL A   1      39.742  32.974  35.766  1.00  0.00     0.037 A 
ATOM     53  C   UNL A   1      41.369  28.454  31.377  1.00  0.00     0.049 A 
ATOM     54  C   UNL A   1      40.751  31.861  35.764  1.00  0.00     0.074 A 
ATOM     55  C   UNL A   1      42.393  27.524  31.450  1.00  0.00     0.029 A 
ATOM     56  N   UNL A   1      41.385  29.157  32.573  1.00  0.00    -0.354 N 
ATOM     57  N   UNL A   1      41.028  30.999  34.817  1.00  0.00    -0.248 NA
ATOM     58  C   UNL A   1      41.554  31.693  36.983  1.00  0.00     0.031 C 
ATOM     59  C   UNL A   1      42.999  27.635  32.707  1.00  0.00     0.029 A 
ATOM     60  C   UNL A   1      42.381  28.662  33.401  1.00  0.00     0.049 A 
ATOM     61  H   UNL A   1      40.778  29.898  32.800  1.00  0.00     0.167 HD
ATOM     62  C   UNL A   1      42.046  30.200  35.315  1.00  0.00     0.074 A 
ATOM     63  C   UNL A   1      42.351  30.689  36.644  1.00  0.00     0.031 C 
ATOM     64  C   UNL A   1      42.670  29.152  34.724  1.00  0.00     0.037 A 
BRANCH  51  65
ATOM     65  C   UNL A   1      40.505  27.775  29.110  1.00  0.00     0.064 A 
ATOM     66  C   UNL A   1      39.708  26.625  29.022  1.00  0.00     0.173 A 
ATOM     67  C   UNL A   1      41.337  28.085  28.023  1.00  0.00     0.173 A 
ATOM     68  F   UNL A   1      38.903  26.282  30.038  1.00  0.00    -0.203 F 
ATOM     69  C   UNL A   1      39.759  25.803  27.899  1.00  0.00     0.198 A 
ATOM     70  C   UNL A   1      41.367  27.274  26.892  1.00  0.00     0.198 A 
ATOM     71  F   UNL A   1      42.114  29.178  28.056  1.00  0.00    -0.203 F 
ATOM     72  F   UNL A   1      39.018  24.687  27.853  1.00  0.00    -0.200 F 
ATOM     73  C   UNL A   1      40.583  26.132  26.833  1.00  0.00     0.200 A 
ATOM     74  F   UNL A   1      42.156  27.598  25.858  1.00  0.00    -0.200 F 
ATOM     75  F   UNL A   1      40.626  25.343  25.750  1.00  0.00    -0.200 F 
ENDBRANCH  51  65
BRANCH  52  76
ATOM     76  C   UNL A   1      39.586  33.855  36.952  1.00  0.00     0.064 A 
ATOM     77  C   UNL A   1      38.780  33.468  38.031  1.00  0.00     0.173 A 
ATOM     78  C   UNL A   1      40.237  35.094  37.029  1.00  0.00     0.173 A 
ATOM     79  F   UNL A   1      38.121  32.302  37.990  1.00  0.00    -0.203 F 
ATOM     80  C   UNL A   1      38.617  34.298  39.139  1.00  0.00     0.198 A 
ATOM     81  C   UNL A   1      40.093  35.912  38.148  1.00  0.00     0.198 A 
ATOM     82  F   UNL A   1      41.020  35.506  36.022  1.00  0.00    -0.203 F 
ATOM     83  F   UNL A   1      37.810  33.924  40.140  1.00  0.00    -0.200 F 
ATOM     84  C   UNL A   1      39.279  35.516  39.199  1.00  0.00     0.200 A 
ATOM     85  F   UNL A   1      40.742  37.082  38.208  1.00  0.00    -0.200 F 
ATOM     86  F   UNL A   1      39.125  36.311  40.266  1.00  0.00    -0.200 F 
ENDBRANCH  52  76
BRANCH  64  87
ATOM     87  C   UNL A   1      43.756  28.474  35.505  1.00  0.00     0.064 A 
ATOM     88  C   UNL A   1      45.101  28.848  35.366  1.00  0.00     0.173 A 
ATOM     89  C   UNL A   1      43.448  27.459  36.424  1.00  0.00     0.173 A 
ATOM     90  F   UNL A   1      45.448  29.800  34.486  1.00  0.00    -0.203 F 
ATOM     91  C   UNL A   1      46.099  28.218  36.104  1.00  0.00     0.198 A 
ATOM     92  C   UNL A   1      44.445  26.849  37.179  1.00  0.00     0.198 A 
ATOM     93  F   UNL A   1      42.176  27.067  36.596  1.00  0.00    -0.203 F 
ATOM     94  F   UNL A   1      47.381  28.563  35.925  1.00  0.00    -0.200 F 
ATOM     95  C   UNL A   1      45.770  27.224  37.014  1.00  0.00     0.200 A 
ATOM     96  F   UNL A   1      44.125  25.895  38.063  1.00  0.00    -0.200 F 
ATOM     97  F   UNL A   1      46.732  26.622  37.727  1.00  0.00    -0.200 F 
ENDBRANCH  64  87
ENDBRANCH  38  39
ENDBRANCH  30  33
ENDBRANCH  28  29
ENDBRANCH  27  28
ENDBRANCH  26  27
ENDBRANCH   3  26
TORSDOF 15
ENDMDL
