MODEL 1
REMARK VINA RESULT:     -12.1      0.000      0.000
REMARK SMILES [NH3+][C@@H](CCCCC(=O)NCCCNC(=O)c1ccc(-c2c3nc(c(-c4c(F)c(F)c(F)c(F)c4F)c4ccc([nH]4)c(-c4c(F)c(F)c(F)c(F)c4F)c4nc(c(-c5c(F)c(F)c(F)c(F)c5F)c5ccc2[nH]5)C=C4)C=C3)cc1)c1ccc(-c2ccccc2)cc1
REMARK SMILES IDX 7 1 8 2 9 3 6 5 5 6 4 7 3 8 2 9 1 10 79 14 80 15 90 16 81 17
REMARK SMILES IDX 89 18 82 19 83 20 84 21 88 22 85 23 87 24 86 25 10 26 11 27
REMARK SMILES IDX 12 28 13 29 14 30 15 32 16 33 17 34 78 35 18 36 77 37 19 38
REMARK SMILES IDX 20 39 21 40 71 41 22 42 76 43 70 44 72 45 23 46 75 47 69 48
REMARK SMILES IDX 68 49 24 51 56 52 36 53 55 54 37 55 40 56 54 57 73 58 38 59
REMARK SMILES IDX 39 60 53 62 74 63 41 64 25 65 26 66 34 67 27 68 28 69 32 70
REMARK SMILES IDX 35 71 29 72 30 73 33 74 31 75 57 76 58 77 66 78 59 79 60 80
REMARK SMILES IDX 64 81 67 82 61 83 62 84 65 85 63 86 42 87 43 88 51 89 44 90
REMARK SMILES IDX 45 91 49 92 52 93 46 94 47 95 50 96 48 97
REMARK H PARENT 9 4 1 11 1 12 1 13 13 31 72 50 40 61
REMARK Flexibility Score: inf
ROOT
ATOM      1  C   UNL A   1      32.685  29.124  25.110  1.00  0.00     0.219 C 
ATOM      2  O   UNL A   1      33.441  28.990  24.148  1.00  0.00    -0.275 OA
ATOM      3  N   UNL A   1      32.145  30.352  25.344  1.00  0.00    -0.356 N 
ATOM      4  H   UNL A   1      32.279  31.020  24.632  1.00  0.00     0.163 HD
ENDROOT
BRANCH   1   5
ATOM      5  C   UNL A   1      32.308  27.951  25.996  1.00  0.00     0.100 C 
BRANCH   5   6
ATOM      6  C   UNL A   1      32.972  26.614  25.654  1.00  0.00     0.010 C 
BRANCH   6   7
ATOM      7  C   UNL A   1      32.363  25.290  26.160  1.00  0.00     0.007 C 
BRANCH   7   8
ATOM      8  C   UNL A   1      30.955  24.857  25.699  1.00  0.00     0.070 C 
BRANCH   8   9
ATOM      9  C   UNL A   1      30.715  24.722  24.173  1.00  0.00     0.211 C 
BRANCH   9  10
ATOM     10  N   UNL A   1      31.936  24.216  23.532  1.00  0.00    -0.351 N 
ATOM     11  H   UNL A   1      32.090  24.712  22.654  1.00  0.00     0.345 HD
ATOM     12  H   UNL A   1      31.834  23.218  23.345  1.00  0.00     0.345 HD
ATOM     13  H   UNL A   1      32.732  24.365  24.151  1.00  0.00     0.345 HD
ENDBRANCH   9  10
BRANCH   9  14
ATOM     14  C   UNL A   1      30.194  26.008  23.556  1.00  0.00     0.009 A 
ATOM     15  C   UNL A   1      30.965  26.786  22.683  1.00  0.00     0.010 A 
ATOM     16  C   UNL A   1      28.916  26.477  23.896  1.00  0.00     0.010 A 
ATOM     17  C   UNL A   1      30.548  28.066  22.314  1.00  0.00     0.009 A 
ATOM     18  C   UNL A   1      28.515  27.770  23.564  1.00  0.00     0.009 A 
ATOM     19  C   UNL A   1      29.349  28.593  22.805  1.00  0.00    -0.018 A 
BRANCH  19  20
ATOM     20  C   UNL A   1      28.986  29.983  22.553  1.00  0.00    -0.018 A 
ATOM     21  C   UNL A   1      28.568  30.394  21.282  1.00  0.00     0.009 A 
ATOM     22  C   UNL A   1      29.049  30.932  23.588  1.00  0.00     0.009 A 
ATOM     23  C   UNL A   1      28.223  31.725  21.047  1.00  0.00     0.001 A 
ATOM     24  C   UNL A   1      28.705  32.263  23.352  1.00  0.00     0.001 A 
ATOM     25  C   UNL A   1      28.294  32.658  22.081  1.00  0.00     0.000 A 
ENDBRANCH  19  20
ENDBRANCH   9  14
ENDBRANCH   8   9
ENDBRANCH   7   8
ENDBRANCH   6   7
ENDBRANCH   5   6
ENDBRANCH   1   5
BRANCH   3  26
ATOM     26  C   UNL A   1      31.403  30.807  26.499  1.00  0.00     0.117 C 
BRANCH  26  27
ATOM     27  C   UNL A   1      31.388  32.326  26.548  1.00  0.00     0.042 C 
BRANCH  27  28
ATOM     28  C   UNL A   1      32.618  32.905  27.216  1.00  0.00     0.118 C 
BRANCH  28  29
ATOM     29  N   UNL A   1      32.417  34.282  27.632  1.00  0.00    -0.352 N 
ATOM     30  C   UNL A   1      33.012  34.981  28.652  1.00  0.00     0.251 C 
ATOM     31  H   UNL A   1      31.757  34.788  27.104  1.00  0.00     0.163 HD
ATOM     32  O   UNL A   1      32.566  36.075  28.978  1.00  0.00    -0.269 OA
BRANCH  30  33
ATOM     33  C   UNL A   1      34.168  34.404  29.373  1.00  0.00     0.039 A 
ATOM     34  C   UNL A   1      33.939  33.719  30.568  1.00  0.00     0.014 A 
ATOM     35  C   UNL A   1      35.470  34.542  28.885  1.00  0.00     0.014 A 
ATOM     36  C   UNL A   1      35.011  33.134  31.244  1.00  0.00     0.010 A 
ATOM     37  C   UNL A   1      36.515  33.860  29.494  1.00  0.00     0.010 A 
ATOM     38  C   UNL A   1      36.303  33.172  30.696  1.00  0.00    -0.014 A 
BRANCH  38  39
ATOM     39  C   UNL A   1      37.453  32.536  31.385  1.00  0.00     0.031 A 
ATOM     40  C   UNL A   1      38.182  31.395  30.729  1.00  0.00     0.074 A 
ATOM     41  C   UNL A   1      37.806  32.952  32.617  1.00  0.00     0.049 A 
ATOM     42  N   UNL A   1      39.172  30.672  31.188  1.00  0.00    -0.248 NA
ATOM     43  C   UNL A   1      37.717  30.988  29.393  1.00  0.00     0.031 C 
ATOM     44  C   UNL A   1      37.138  34.010  33.377  1.00  0.00     0.029 A 
ATOM     45  N   UNL A   1      38.811  32.529  33.450  1.00  0.00    -0.354 N 
ATOM     46  C   UNL A   1      39.430  29.721  30.208  1.00  0.00     0.074 A 
ATOM     47  C   UNL A   1      38.453  29.913  29.161  1.00  0.00     0.031 C 
ATOM     48  C   UNL A   1      37.769  34.175  34.549  1.00  0.00     0.029 A 
ATOM     49  C   UNL A   1      38.858  33.208  34.643  1.00  0.00     0.049 A 
ATOM     50  H   UNL A   1      39.439  31.810  33.214  1.00  0.00     0.167 HD
ATOM     51  C   UNL A   1      40.412  28.791  30.173  1.00  0.00     0.037 A 
ATOM     52  C   UNL A   1      39.681  33.058  35.698  1.00  0.00     0.037 A 
ATOM     53  C   UNL A   1      41.401  28.629  31.205  1.00  0.00     0.049 A 
ATOM     54  C   UNL A   1      40.770  32.021  35.631  1.00  0.00     0.074 A 
ATOM     55  C   UNL A   1      42.479  27.763  31.236  1.00  0.00     0.029 A 
ATOM     56  N   UNL A   1      41.429  29.348  32.391  1.00  0.00    -0.354 N 
ATOM     57  N   UNL A   1      41.049  31.176  34.667  1.00  0.00    -0.248 NA
ATOM     58  C   UNL A   1      41.662  31.922  36.792  1.00  0.00     0.031 C 
ATOM     59  C   UNL A   1      43.125  27.917  32.466  1.00  0.00     0.029 A 
ATOM     60  C   UNL A   1      42.491  28.927  33.173  1.00  0.00     0.049 A 
ATOM     61  H   UNL A   1      40.789  30.055  32.639  1.00  0.00     0.167 HD
ATOM     62  C   UNL A   1      42.163  30.466  35.093  1.00  0.00     0.074 A 
ATOM     63  C   UNL A   1      42.519  30.992  36.395  1.00  0.00     0.031 C 
ATOM     64  C   UNL A   1      42.831  29.467  34.465  1.00  0.00     0.037 A 
BRANCH  51  65
ATOM     65  C   UNL A   1      40.471  27.880  28.979  1.00  0.00     0.064 A 
ATOM     66  C   UNL A   1      41.275  28.169  27.866  1.00  0.00     0.173 A 
ATOM     67  C   UNL A   1      39.744  26.679  28.967  1.00  0.00     0.173 A 
ATOM     68  F   UNL A   1      41.980  29.310  27.820  1.00  0.00    -0.203 F 
ATOM     69  C   UNL A   1      41.328  27.306  26.775  1.00  0.00     0.198 A 
ATOM     70  C   UNL A   1      39.827  25.801  27.889  1.00  0.00     0.198 A 
ATOM     71  F   UNL A   1      38.961  26.351  30.005  1.00  0.00    -0.203 F 
ATOM     72  F   UNL A   1      42.064  27.629  25.703  1.00  0.00    -0.200 F 
ATOM     73  C   UNL A   1      40.613  26.119  26.791  1.00  0.00     0.200 A 
ATOM     74  F   UNL A   1      39.145  24.648  27.913  1.00  0.00    -0.200 F 
ATOM     75  F   UNL A   1      40.676  25.282  25.745  1.00  0.00    -0.200 F 
ENDBRANCH  51  65
BRANCH  52  76
ATOM     76  C   UNL A   1      39.518  33.925  36.895  1.00  0.00     0.064 A 
ATOM     77  C   UNL A   1      40.079  35.210  36.940  1.00  0.00     0.173 A 
ATOM     78  C   UNL A   1      38.796  33.491  38.016  1.00  0.00     0.173 A 
ATOM     79  F   UNL A   1      40.792  35.666  35.900  1.00  0.00    -0.203 F 
ATOM     80  C   UNL A   1      39.943  36.016  38.068  1.00  0.00     0.198 A 
ATOM     81  C   UNL A   1      38.634  34.311  39.131  1.00  0.00     0.198 A 
ATOM     82  F   UNL A   1      38.233  32.275  38.022  1.00  0.00    -0.203 F 
ATOM     83  F   UNL A   1      40.530  37.221  38.102  1.00  0.00    -0.200 F 
ATOM     84  C   UNL A   1      39.215  35.569  39.160  1.00  0.00     0.200 A 
ATOM     85  F   UNL A   1      37.914  33.881  40.176  1.00  0.00    -0.200 F 
ATOM     86  F   UNL A   1      39.079  36.348  40.242  1.00  0.00    -0.200 F 
ENDBRANCH  52  76
BRANCH  64  87
ATOM     87  C   UNL A   1      44.037  28.901  35.159  1.00  0.00     0.064 A 
ATOM     88  C   UNL A   1      45.320  29.431  34.960  1.00  0.00     0.173 A 
ATOM     89  C   UNL A   1      43.898  27.841  36.069  1.00  0.00     0.173 A 
ATOM     90  F   UNL A   1      45.508  30.435  34.091  1.00  0.00    -0.203 F 
ATOM     91  C   UNL A   1      46.423  28.903  35.625  1.00  0.00     0.198 A 
ATOM     92  C   UNL A   1      44.997  27.340  36.760  1.00  0.00     0.198 A 
ATOM     93  F   UNL A   1      42.691  27.304  36.304  1.00  0.00    -0.203 F 
ATOM     94  F   UNL A   1      47.647  29.390  35.380  1.00  0.00    -0.200 F 
ATOM     95  C   UNL A   1      46.260  27.864  36.530  1.00  0.00     0.200 A 
ATOM     96  F   UNL A   1      44.833  26.350  37.648  1.00  0.00    -0.200 F 
ATOM     97  F   UNL A   1      47.321  27.365  37.177  1.00  0.00    -0.200 F 
ENDBRANCH  64  87
ENDBRANCH  38  39
ENDBRANCH  30  33
ENDBRANCH  28  29
ENDBRANCH  27  28
ENDBRANCH  26  27
ENDBRANCH   3  26
TORSDOF 17
ENDMDL
MODEL 2
REMARK VINA RESULT:     -12.1      2.359      8.677
REMARK SMILES [NH3+][C@@H](CCCCC(=O)NCCCNC(=O)c1ccc(-c2c3nc(c(-c4c(F)c(F)c(F)c(F)c4F)c4ccc([nH]4)c(-c4c(F)c(F)c(F)c(F)c4F)c4nc(c(-c5c(F)c(F)c(F)c(F)c5F)c5ccc2[nH]5)C=C4)C=C3)cc1)c1ccc(-c2ccccc2)cc1
REMARK SMILES IDX 7 1 8 2 9 3 6 5 5 6 4 7 3 8 2 9 1 10 79 14 80 15 90 16 81 17
REMARK SMILES IDX 89 18 82 19 83 20 84 21 88 22 85 23 87 24 86 25 10 26 11 27
REMARK SMILES IDX 12 28 13 29 14 30 15 32 16 33 17 34 78 35 18 36 77 37 19 38
REMARK SMILES IDX 20 39 21 40 71 41 22 42 76 43 70 44 72 45 23 46 75 47 69 48
REMARK SMILES IDX 68 49 24 51 56 52 36 53 55 54 37 55 40 56 54 57 73 58 38 59
REMARK SMILES IDX 39 60 53 62 74 63 41 64 25 65 26 66 34 67 27 68 28 69 32 70
REMARK SMILES IDX 35 71 29 72 30 73 33 74 31 75 57 76 58 77 66 78 59 79 60 80
REMARK SMILES IDX 64 81 67 82 61 83 62 84 65 85 63 86 42 87 43 88 51 89 44 90
REMARK SMILES IDX 45 91 49 92 52 93 46 94 47 95 50 96 48 97
REMARK H PARENT 9 4 1 11 1 12 1 13 13 31 72 50 40 61
REMARK Flexibility Score: inf
ROOT
ATOM      1  C   UNL A   1      30.670  29.022  22.483  1.00  0.00     0.219 C 
ATOM      2  O   UNL A   1      29.960  29.581  21.647  1.00  0.00    -0.275 OA
ATOM      3  N   UNL A   1      32.016  28.997  22.276  1.00  0.00    -0.356 N 
ATOM      4  H   UNL A   1      32.346  29.565  21.542  1.00  0.00     0.163 HD
ENDROOT
BRANCH   1   5
ATOM      5  C   UNL A   1      30.087  28.415  23.744  1.00  0.00     0.100 C 
BRANCH   5   6
ATOM      6  C   UNL A   1      29.514  27.002  23.605  1.00  0.00     0.010 C 
BRANCH   6   7
ATOM      7  C   UNL A   1      29.611  26.003  24.777  1.00  0.00     0.007 C 
BRANCH   7   8
ATOM      8  C   UNL A   1      30.845  25.087  24.915  1.00  0.00     0.070 C 
BRANCH   8   9
ATOM      9  C   UNL A   1      31.683  24.822  23.638  1.00  0.00     0.211 C 
BRANCH   9  10
ATOM     10  N   UNL A   1      31.064  23.737  22.867  1.00  0.00    -0.351 N 
ATOM     11  H   UNL A   1      30.448  24.132  22.157  1.00  0.00     0.345 HD
ATOM     12  H   UNL A   1      30.523  23.140  23.493  1.00  0.00     0.345 HD
ATOM     13  H   UNL A   1      31.791  23.182  22.415  1.00  0.00     0.345 HD
ENDBRANCH   9  10
BRANCH   9  14
ATOM     14  C   UNL A   1      33.150  24.585  23.951  1.00  0.00     0.009 A 
ATOM     15  C   UNL A   1      33.964  23.770  23.154  1.00  0.00     0.010 A 
ATOM     16  C   UNL A   1      33.719  25.154  25.100  1.00  0.00     0.010 A 
ATOM     17  C   UNL A   1      35.236  23.393  23.587  1.00  0.00     0.009 A 
ATOM     18  C   UNL A   1      34.972  24.748  25.557  1.00  0.00     0.009 A 
ATOM     19  C   UNL A   1      35.724  23.828  24.824  1.00  0.00    -0.018 A 
BRANCH  19  20
ATOM     20  C   UNL A   1      36.981  23.311  25.354  1.00  0.00    -0.018 A 
ATOM     21  C   UNL A   1      37.816  24.121  26.131  1.00  0.00     0.009 A 
ATOM     22  C   UNL A   1      37.370  21.986  25.092  1.00  0.00     0.009 A 
ATOM     23  C   UNL A   1      39.017  23.622  26.635  1.00  0.00     0.001 A 
ATOM     24  C   UNL A   1      38.572  21.488  25.594  1.00  0.00     0.001 A 
ATOM     25  C   UNL A   1      39.394  22.307  26.364  1.00  0.00     0.000 A 
ENDBRANCH  19  20
ENDBRANCH   9  14
ENDBRANCH   8   9
ENDBRANCH   7   8
ENDBRANCH   6   7
ENDBRANCH   5   6
ENDBRANCH   1   5
BRANCH   3  26
ATOM     26  C   UNL A   1      33.025  28.247  22.991  1.00  0.00     0.117 C 
BRANCH  26  27
ATOM     27  C   UNL A   1      33.836  29.174  23.880  1.00  0.00     0.042 C 
BRANCH  27  28
ATOM     28  C   UNL A   1      33.426  29.102  25.336  1.00  0.00     0.118 C 
BRANCH  28  29
ATOM     29  N   UNL A   1      32.962  30.383  25.838  1.00  0.00    -0.352 N 
ATOM     30  C   UNL A   1      33.415  31.120  26.903  1.00  0.00     0.251 C 
ATOM     31  H   UNL A   1      32.211  30.782  25.340  1.00  0.00     0.163 HD
ATOM     32  O   UNL A   1      32.766  32.081  27.296  1.00  0.00    -0.269 OA
BRANCH  30  33
ATOM     33  C   UNL A   1      34.667  30.737  27.593  1.00  0.00     0.039 A 
ATOM     34  C   UNL A   1      35.666  31.699  27.754  1.00  0.00     0.014 A 
ATOM     35  C   UNL A   1      34.864  29.439  28.072  1.00  0.00     0.014 A 
ATOM     36  C   UNL A   1      36.838  31.370  28.436  1.00  0.00     0.010 A 
ATOM     37  C   UNL A   1      35.976  29.148  28.852  1.00  0.00     0.010 A 
ATOM     38  C   UNL A   1      36.989  30.101  29.018  1.00  0.00    -0.014 A 
BRANCH  38  39
ATOM     39  C   UNL A   1      38.217  29.738  29.768  1.00  0.00     0.031 A 
ATOM     40  C   UNL A   1      38.442  30.289  31.150  1.00  0.00     0.074 A 
ATOM     41  C   UNL A   1      39.146  28.955  29.187  1.00  0.00     0.049 A 
ATOM     42  N   UNL A   1      39.470  30.137  31.944  1.00  0.00    -0.248 NA
ATOM     43  C   UNL A   1      37.386  31.155  31.701  1.00  0.00     0.031 C 
ATOM     44  C   UNL A   1      39.066  28.409  27.831  1.00  0.00     0.029 A 
ATOM     45  N   UNL A   1      40.347  28.489  29.662  1.00  0.00    -0.354 N 
ATOM     46  C   UNL A   1      39.192  30.900  33.072  1.00  0.00     0.074 A 
ATOM     47  C   UNL A   1      37.932  31.567  32.834  1.00  0.00     0.031 C 
ATOM     48  C   UNL A   1      40.151  27.657  27.594  1.00  0.00     0.029 A 
ATOM     49  C   UNL A   1      41.026  27.704  28.762  1.00  0.00     0.049 A 
ATOM     50  H   UNL A   1      40.688  28.697  30.560  1.00  0.00     0.167 HD
ATOM     51  C   UNL A   1      39.908  31.010  34.215  1.00  0.00     0.037 A 
ATOM     52  C   UNL A   1      42.223  27.097  28.866  1.00  0.00     0.037 A 
ATOM     53  C   UNL A   1      41.145  30.315  34.456  1.00  0.00     0.049 A 
ATOM     54  C   UNL A   1      42.998  27.230  30.150  1.00  0.00     0.074 A 
ATOM     55  C   UNL A   1      41.916  30.303  35.605  1.00  0.00     0.029 A 
ATOM     56  N   UNL A   1      41.792  29.511  33.529  1.00  0.00    -0.354 N 
ATOM     57  N   UNL A   1      42.688  27.895  31.238  1.00  0.00    -0.248 NA
ATOM     58  C   UNL A   1      44.281  26.521  30.226  1.00  0.00     0.031 C 
ATOM     59  C   UNL A   1      43.059  29.540  35.352  1.00  0.00     0.029 A 
ATOM     60  C   UNL A   1      42.968  29.019  34.071  1.00  0.00     0.049 A 
ATOM     61  H   UNL A   1      41.463  29.318  32.621  1.00  0.00     0.167 HD
ATOM     62  C   UNL A   1      43.723  27.663  32.134  1.00  0.00     0.074 A 
ATOM     63  C   UNL A   1      44.659  26.780  31.469  1.00  0.00     0.031 C 
ATOM     64  C   UNL A   1      43.885  28.138  33.393  1.00  0.00     0.037 A 
BRANCH  51  65
ATOM     65  C   UNL A   1      39.372  31.907  35.294  1.00  0.00     0.064 A 
ATOM     66  C   UNL A   1      39.643  33.284  35.314  1.00  0.00     0.173 A 
ATOM     67  C   UNL A   1      38.539  31.390  36.298  1.00  0.00     0.173 A 
ATOM     68  F   UNL A   1      40.444  33.829  34.386  1.00  0.00    -0.203 F 
ATOM     69  C   UNL A   1      39.124  34.103  36.314  1.00  0.00     0.198 A 
ATOM     70  C   UNL A   1      37.993  32.218  37.276  1.00  0.00     0.198 A 
ATOM     71  F   UNL A   1      38.244  30.082  36.325  1.00  0.00    -0.203 F 
ATOM     72  F   UNL A   1      39.440  35.405  36.341  1.00  0.00    -0.200 F 
ATOM     73  C   UNL A   1      38.293  33.572  37.288  1.00  0.00     0.200 A 
ATOM     74  F   UNL A   1      37.178  31.704  38.207  1.00  0.00    -0.200 F 
ATOM     75  F   UNL A   1      37.784  34.364  38.242  1.00  0.00    -0.200 F 
ENDBRANCH  51  65
BRANCH  52  76
ATOM     76  C   UNL A   1      42.750  26.296  27.730  1.00  0.00     0.064 A 
ATOM     77  C   UNL A   1      42.416  24.942  27.582  1.00  0.00     0.173 A 
ATOM     78  C   UNL A   1      43.595  26.867  26.767  1.00  0.00     0.173 A 
ATOM     79  F   UNL A   1      41.625  24.345  28.486  1.00  0.00    -0.203 F 
ATOM     80  C   UNL A   1      42.925  24.186  26.528  1.00  0.00     0.198 A 
ATOM     81  C   UNL A   1      44.076  26.118  25.695  1.00  0.00     0.198 A 
ATOM     82  F   UNL A   1      43.939  28.159  26.856  1.00  0.00    -0.203 F 
ATOM     83  F   UNL A   1      42.627  22.882  26.439  1.00  0.00    -0.200 F 
ATOM     84  C   UNL A   1      43.748  24.775  25.582  1.00  0.00     0.200 A 
ATOM     85  F   UNL A   1      44.857  26.696  24.773  1.00  0.00    -0.200 F 
ATOM     86  F   UNL A   1      44.231  24.049  24.565  1.00  0.00    -0.200 F 
ENDBRANCH  52  76
BRANCH  64  87
ATOM     87  C   UNL A   1      45.100  27.686  34.150  1.00  0.00     0.064 A 
ATOM     88  C   UNL A   1      45.094  26.520  34.930  1.00  0.00     0.173 A 
ATOM     89  C   UNL A   1      46.302  28.407  34.057  1.00  0.00     0.173 A 
ATOM     90  F   UNL A   1      43.968  25.803  35.062  1.00  0.00    -0.203 F 
ATOM     91  C   UNL A   1      46.237  26.109  35.611  1.00  0.00     0.198 A 
ATOM     92  C   UNL A   1      47.452  27.973  34.710  1.00  0.00     0.198 A 
ATOM     93  F   UNL A   1      46.365  29.524  33.317  1.00  0.00    -0.203 F 
ATOM     94  F   UNL A   1      46.192  25.021  36.392  1.00  0.00    -0.200 F 
ATOM     95  C   UNL A   1      47.416  26.830  35.494  1.00  0.00     0.200 A 
ATOM     96  F   UNL A   1      48.594  28.661  34.579  1.00  0.00    -0.200 F 
ATOM     97  F   UNL A   1      48.517  26.426  36.141  1.00  0.00    -0.200 F 
ENDBRANCH  64  87
ENDBRANCH  38  39
ENDBRANCH  30  33
ENDBRANCH  28  29
ENDBRANCH  27  28
ENDBRANCH  26  27
ENDBRANCH   3  26
TORSDOF 17
ENDMDL
MODEL 3
REMARK VINA RESULT:     -12.1      0.863      7.253
REMARK SMILES [NH3+][C@@H](CCCCC(=O)NCCCNC(=O)c1ccc(-c2c3nc(c(-c4c(F)c(F)c(F)c(F)c4F)c4ccc([nH]4)c(-c4c(F)c(F)c(F)c(F)c4F)c4nc(c(-c5c(F)c(F)c(F)c(F)c5F)c5ccc2[nH]5)C=C4)C=C3)cc1)c1ccc(-c2ccccc2)cc1
REMARK SMILES IDX 7 1 8 2 9 3 6 5 5 6 4 7 3 8 2 9 1 10 79 14 80 15 90 16 81 17
REMARK SMILES IDX 89 18 82 19 83 20 84 21 88 22 85 23 87 24 86 25 10 26 11 27
REMARK SMILES IDX 12 28 13 29 14 30 15 32 16 33 17 34 78 35 18 36 77 37 19 38
REMARK SMILES IDX 20 39 21 40 71 41 22 42 76 43 70 44 72 45 23 46 75 47 69 48
REMARK SMILES IDX 68 49 24 51 56 52 36 53 55 54 37 55 40 56 54 57 73 58 38 59
REMARK SMILES IDX 39 60 53 62 74 63 41 64 25 65 26 66 34 67 27 68 28 69 32 70
REMARK SMILES IDX 35 71 29 72 30 73 33 74 31 75 57 76 58 77 66 78 59 79 60 80
REMARK SMILES IDX 64 81 67 82 61 83 62 84 65 85 63 86 42 87 43 88 51 89 44 90
REMARK SMILES IDX 45 91 49 92 52 93 46 94 47 95 50 96 48 97
REMARK H PARENT 9 4 1 11 1 12 1 13 13 31 72 50 40 61
REMARK Flexibility Score: inf
ROOT
ATOM      1  C   UNL A   1      33.033  29.159  24.926  1.00  0.00     0.219 C 
ATOM      2  O   UNL A   1      33.594  29.127  23.831  1.00  0.00    -0.275 OA
ATOM      3  N   UNL A   1      32.052  30.081  25.124  1.00  0.00    -0.356 N 
ATOM      4  H   UNL A   1      31.751  30.565  24.320  1.00  0.00     0.163 HD
ENDROOT
BRANCH   1   5
ATOM      5  C   UNL A   1      33.375  28.170  26.023  1.00  0.00     0.100 C 
BRANCH   5   6
ATOM      6  C   UNL A   1      32.297  27.132  26.350  1.00  0.00     0.010 C 
BRANCH   6   7
ATOM      7  C   UNL A   1      32.533  25.638  26.043  1.00  0.00     0.007 C 
BRANCH   7   8
ATOM      8  C   UNL A   1      32.189  25.069  24.651  1.00  0.00     0.070 C 
BRANCH   8   9
ATOM      9  C   UNL A   1      30.688  24.953  24.279  1.00  0.00     0.211 C 
BRANCH   9  10
ATOM     10  N   UNL A   1      30.478  23.737  23.482  1.00  0.00    -0.351 N 
ATOM     11  H   UNL A   1      30.646  23.942  22.497  1.00  0.00     0.345 HD
ATOM     12  H   UNL A   1      29.518  23.413  23.603  1.00  0.00     0.345 HD
ATOM     13  H   UNL A   1      31.122  23.010  23.793  1.00  0.00     0.345 HD
ENDBRANCH   9  10
BRANCH   9  14
ATOM     14  C   UNL A   1      30.160  26.212  23.615  1.00  0.00     0.009 A 
ATOM     15  C   UNL A   1      30.947  26.995  22.761  1.00  0.00     0.010 A 
ATOM     16  C   UNL A   1      28.857  26.652  23.892  1.00  0.00     0.010 A 
ATOM     17  C   UNL A   1      30.512  28.256  22.349  1.00  0.00     0.009 A 
ATOM     18  C   UNL A   1      28.435  27.927  23.517  1.00  0.00     0.009 A 
ATOM     19  C   UNL A   1      29.279  28.759  22.778  1.00  0.00    -0.018 A 
BRANCH  19  20
ATOM     20  C   UNL A   1      28.891  30.133  22.484  1.00  0.00    -0.018 A 
ATOM     21  C   UNL A   1      28.464  30.497  21.201  1.00  0.00     0.009 A 
ATOM     22  C   UNL A   1      28.937  31.115  23.489  1.00  0.00     0.009 A 
ATOM     23  C   UNL A   1      28.094  31.813  20.926  1.00  0.00     0.001 A 
ATOM     24  C   UNL A   1      28.569  32.431  23.212  1.00  0.00     0.001 A 
ATOM     25  C   UNL A   1      28.149  32.779  21.930  1.00  0.00     0.000 A 
ENDBRANCH  19  20
ENDBRANCH   9  14
ENDBRANCH   8   9
ENDBRANCH   7   8
ENDBRANCH   6   7
ENDBRANCH   5   6
ENDBRANCH   1   5
BRANCH   3  26
ATOM     26  C   UNL A   1      31.393  30.447  26.359  1.00  0.00     0.117 C 
BRANCH  26  27
ATOM     27  C   UNL A   1      31.348  31.958  26.502  1.00  0.00     0.042 C 
BRANCH  27  28
ATOM     28  C   UNL A   1      32.689  32.556  26.872  1.00  0.00     0.118 C 
BRANCH  28  29
ATOM     29  N   UNL A   1      32.556  33.872  27.472  1.00  0.00    -0.352 N 
ATOM     30  C   UNL A   1      33.226  34.417  28.538  1.00  0.00     0.251 C 
ATOM     31  H   UNL A   1      31.886  34.458  27.051  1.00  0.00     0.163 HD
ATOM     32  O   UNL A   1      32.834  35.470  29.026  1.00  0.00    -0.269 OA
BRANCH  30  33
ATOM     33  C   UNL A   1      34.398  33.722  29.114  1.00  0.00     0.039 A 
ATOM     34  C   UNL A   1      35.674  34.222  28.846  1.00  0.00     0.014 A 
ATOM     35  C   UNL A   1      34.248  32.579  29.906  1.00  0.00     0.014 A 
ATOM     36  C   UNL A   1      36.790  33.605  29.412  1.00  0.00     0.010 A 
ATOM     37  C   UNL A   1      35.347  32.041  30.562  1.00  0.00     0.010 A 
ATOM     38  C   UNL A   1      36.633  32.529  30.300  1.00  0.00    -0.014 A 
BRANCH  38  39
ATOM     39  C   UNL A   1      37.805  31.872  30.932  1.00  0.00     0.031 A 
ATOM     40  C   UNL A   1      38.233  32.275  32.317  1.00  0.00     0.074 A 
ATOM     41  C   UNL A   1      38.508  30.954  30.241  1.00  0.00     0.049 A 
ATOM     42  N   UNL A   1      39.257  31.864  33.019  1.00  0.00    -0.248 NA
ATOM     43  C   UNL A   1      37.423  33.302  32.991  1.00  0.00     0.031 C 
ATOM     44  C   UNL A   1      38.224  30.525  28.871  1.00  0.00     0.029 A 
ATOM     45  N   UNL A   1      39.613  30.222  30.596  1.00  0.00    -0.354 N 
ATOM     46  C   UNL A   1      39.222  32.593  34.201  1.00  0.00     0.074 A 
ATOM     47  C   UNL A   1      38.117  33.519  34.097  1.00  0.00     0.031 C 
ATOM     48  C   UNL A   1      39.109  29.583  28.512  1.00  0.00     0.029 A 
ATOM     49  C   UNL A   1      40.050  29.373  29.608  1.00  0.00     0.049 A 
ATOM     50  H   UNL A   1      40.050  30.296  31.474  1.00  0.00     0.167 HD
ATOM     51  C   UNL A   1      40.020  32.479  35.288  1.00  0.00     0.037 A 
ATOM     52  C   UNL A   1      41.097  28.527  29.587  1.00  0.00     0.037 A 
ATOM     53  C   UNL A   1      41.097  31.531  35.396  1.00  0.00     0.049 A 
ATOM     54  C   UNL A   1      41.967  28.414  30.811  1.00  0.00     0.074 A 
ATOM     55  C   UNL A   1      41.923  31.286  36.478  1.00  0.00     0.029 A 
ATOM     56  N   UNL A   1      41.497  30.672  34.383  1.00  0.00    -0.354 N 
ATOM     57  N   UNL A   1      41.878  29.057  31.951  1.00  0.00    -0.248 NA
ATOM     58  C   UNL A   1      43.074  27.453  30.749  1.00  0.00     0.031 C 
ATOM     59  C   UNL A   1      42.862  30.322  36.099  1.00  0.00     0.029 A 
ATOM     60  C   UNL A   1      42.577  29.915  34.805  1.00  0.00     0.049 A 
ATOM     61  H   UNL A   1      41.075  30.610  33.495  1.00  0.00     0.167 HD
ATOM     62  C   UNL A   1      42.898  28.560  32.750  1.00  0.00     0.074 A 
ATOM     63  C   UNL A   1      43.582  27.548  31.970  1.00  0.00     0.031 C 
ATOM     64  C   UNL A   1      43.241  28.909  34.014  1.00  0.00     0.037 A 
BRANCH  51  65
ATOM     65  C   UNL A   1      39.758  33.396  36.449  1.00  0.00     0.064 A 
ATOM     66  C   UNL A   1      40.389  34.644  36.563  1.00  0.00     0.173 A 
ATOM     67  C   UNL A   1      38.829  33.039  37.439  1.00  0.00     0.173 A 
ATOM     68  F   UNL A   1      41.296  35.029  35.652  1.00  0.00    -0.203 F 
ATOM     69  C   UNL A   1      40.122  35.488  37.639  1.00  0.00     0.198 A 
ATOM     70  C   UNL A   1      38.538  33.901  38.494  1.00  0.00     0.198 A 
ATOM     71  F   UNL A   1      38.194  31.860  37.378  1.00  0.00    -0.203 F 
ATOM     72  F   UNL A   1      40.776  36.652  37.753  1.00  0.00    -0.200 F 
ATOM     73  C   UNL A   1      39.191  35.120  38.597  1.00  0.00     0.200 A 
ATOM     74  F   UNL A   1      37.627  33.548  39.411  1.00  0.00    -0.200 F 
ATOM     75  F   UNL A   1      38.925  35.939  39.625  1.00  0.00    -0.200 F 
ENDBRANCH  51  65
BRANCH  52  76
ATOM     76  C   UNL A   1      41.367  27.710  28.375  1.00  0.00     0.064 A 
ATOM     77  C   UNL A   1      42.260  28.150  27.388  1.00  0.00     0.173 A 
ATOM     78  C   UNL A   1      40.740  26.470  28.179  1.00  0.00     0.173 A 
ATOM     79  F   UNL A   1      42.872  29.336  27.520  1.00  0.00    -0.203 F 
ATOM     80  C   UNL A   1      42.499  27.394  26.243  1.00  0.00     0.198 A 
ATOM     81  C   UNL A   1      41.005  25.700  27.048  1.00  0.00     0.198 A 
ATOM     82  F   UNL A   1      39.883  25.998  29.095  1.00  0.00    -0.203 F 
ATOM     83  F   UNL A   1      43.322  27.862  25.294  1.00  0.00    -0.200 F 
ATOM     84  C   UNL A   1      41.877  26.166  26.077  1.00  0.00     0.200 A 
ATOM     85  F   UNL A   1      40.415  24.506  26.902  1.00  0.00    -0.200 F 
ATOM     86  F   UNL A   1      42.113  25.436  24.978  1.00  0.00    -0.200 F 
ENDBRANCH  52  76
BRANCH  64  87
ATOM     87  C   UNL A   1      44.382  28.169  34.649  1.00  0.00     0.064 A 
ATOM     88  C   UNL A   1      45.697  28.652  34.597  1.00  0.00     0.173 A 
ATOM     89  C   UNL A   1      44.147  26.980  35.360  1.00  0.00     0.173 A 
ATOM     90  F   UNL A   1      45.977  29.776  33.920  1.00  0.00    -0.203 F 
ATOM     91  C   UNL A   1      46.739  27.958  35.207  1.00  0.00     0.198 A 
ATOM     92  C   UNL A   1      45.185  26.309  35.999  1.00  0.00     0.198 A 
ATOM     93  F   UNL A   1      42.906  26.480  35.449  1.00  0.00    -0.203 F 
ATOM     94  F   UNL A   1      47.996  28.411  35.099  1.00  0.00    -0.200 F 
ATOM     95  C   UNL A   1      46.482  26.793  35.914  1.00  0.00     0.200 A 
ATOM     96  F   UNL A   1      44.930  25.194  36.697  1.00  0.00    -0.200 F 
ATOM     97  F   UNL A   1      47.484  26.134  36.509  1.00  0.00    -0.200 F 
ENDBRANCH  64  87
ENDBRANCH  38  39
ENDBRANCH  30  33
ENDBRANCH  28  29
ENDBRANCH  27  28
ENDBRANCH  26  27
ENDBRANCH   3  26
TORSDOF 17
ENDMDL
