MODEL 1
REMARK VINA RESULT:     -11.5      0.000      0.000
REMARK SMILES COCC[C@H](NC(=O)N1CC[C@H](C(=O)OC)C1)C(=O)NCCCNC(=O)c1ccc(-c2c3nc(c(-c4c(F)c(F)c(F)c(F)c4F)c4ccc([nH]4)c(-c4c(F)c(F)c(F)c(F)c4F)c4nc(c(-c5c(F)c(F)c(F)c(F)c5F)c5ccc2[nH]5)C=C4)C=C3)cc1
REMARK SMILES IDX 21 1 20 2 18 3 19 4 5 6 4 7 3 8 2 9 1 10 6 11 7 12 8 14 9 15
REMARK SMILES IDX 10 16 17 17 11 18 12 19 13 20 14 21 15 22 16 23 22 24 23 25
REMARK SMILES IDX 24 26 25 27 26 29 27 30 28 31 89 32 29 33 88 34 30 35 31 36
REMARK SMILES IDX 32 37 82 38 33 39 87 40 81 41 83 42 34 43 86 44 80 45 79 46
REMARK SMILES IDX 35 48 67 49 47 50 66 51 48 52 51 53 65 54 84 55 49 56 50 57
REMARK SMILES IDX 64 59 85 60 52 61 36 62 37 63 45 64 38 65 39 66 43 67 46 68
REMARK SMILES IDX 40 69 41 70 44 71 42 72 68 73 69 74 77 75 70 76 71 77 75 78
REMARK SMILES IDX 78 79 72 80 73 81 76 82 74 83 53 84 54 85 62 86 55 87 56 88
REMARK SMILES IDX 60 89 63 90 57 91 58 92 61 93 59 94
REMARK H PARENT 20 5 6 13 24 28 83 47 51 58
REMARK Flexibility Score: inf
ROOT
ATOM      1  C   UNL A   1      31.765  30.448  26.902  1.00  0.00     0.117 C 
ENDROOT
BRANCH   1   2
ATOM      2  N   UNL A   1      32.958  29.938  26.255  1.00  0.00    -0.354 N 
ATOM      3  C   UNL A   1      33.111  28.841  25.463  1.00  0.00     0.242 C 
ATOM      4  O   UNL A   1      34.243  28.589  25.043  1.00  0.00    -0.273 OA
ATOM      5  H   UNL A   1      33.777  30.461  26.411  1.00  0.00     0.163 HD
BRANCH   3   6
ATOM      6  C   UNL A   1      31.895  28.003  25.015  1.00  0.00     0.175 C 
BRANCH   6   7
ATOM      7  C   UNL A   1      31.936  26.683  25.800  1.00  0.00     0.063 C 
BRANCH   7   8
ATOM      8  C   UNL A   1      32.690  25.552  25.098  1.00  0.00     0.162 C 
BRANCH   8   9
ATOM      9  O   UNL A   1      32.011  25.004  23.974  1.00  0.00    -0.385 OA
ATOM     10  C   UNL A   1      30.679  24.576  24.233  1.00  0.00     0.194 C 
ENDBRANCH   8   9
ENDBRANCH   7   8
ENDBRANCH   6   7
BRANCH   6  11
ATOM     11  N   UNL A   1      31.756  28.029  23.542  1.00  0.00    -0.326 N 
ATOM     12  C   UNL A   1      30.691  28.036  22.712  1.00  0.00     0.318 C 
ATOM     13  H   UNL A   1      32.619  28.044  23.069  1.00  0.00     0.166 HD
ATOM     14  O   UNL A   1      30.698  27.256  21.761  1.00  0.00    -0.249 OA
BRANCH  12  15
ATOM     15  N   UNL A   1      29.645  28.862  22.954  1.00  0.00    -0.324 N 
ATOM     16  C   UNL A   1      28.259  28.471  23.100  1.00  0.00     0.122 C 
ATOM     17  C   UNL A   1      29.831  30.168  23.554  1.00  0.00     0.136 C 
ATOM     18  C   UNL A   1      27.511  29.777  22.884  1.00  0.00     0.039 C 
ATOM     19  C   UNL A   1      28.467  30.849  23.432  1.00  0.00     0.120 C 
BRANCH  19  20
ATOM     20  C   UNL A   1      28.499  32.076  22.548  1.00  0.00     0.310 C 
ATOM     21  O   UNL A   1      28.258  33.203  22.965  1.00  0.00    -0.252 OA
BRANCH  20  22
ATOM     22  O   UNL A   1      28.780  31.779  21.250  1.00  0.00    -0.469 OA
ATOM     23  C   UNL A   1      27.856  32.335  20.310  1.00  0.00     0.282 C 
ENDBRANCH  20  22
ENDBRANCH  19  20
ENDBRANCH  12  15
ENDBRANCH   6  11
ENDBRANCH   3   6
ENDBRANCH   1   2
BRANCH   1  24
ATOM     24  C   UNL A   1      31.653  31.954  26.722  1.00  0.00     0.042 C 
BRANCH  24  25
ATOM     25  C   UNL A   1      32.803  32.702  27.378  1.00  0.00     0.118 C 
BRANCH  25  26
ATOM     26  N   UNL A   1      32.477  34.097  27.648  1.00  0.00    -0.352 N 
ATOM     27  C   UNL A   1      33.001  34.929  28.608  1.00  0.00     0.251 C 
ATOM     28  H   UNL A   1      31.789  34.495  27.065  1.00  0.00     0.163 HD
ATOM     29  O   UNL A   1      32.506  36.020  28.831  1.00  0.00    -0.269 OA
BRANCH  27  30
ATOM     30  C   UNL A   1      34.169  34.459  29.377  1.00  0.00     0.039 A 
ATOM     31  C   UNL A   1      33.965  33.829  30.605  1.00  0.00     0.014 A 
ATOM     32  C   UNL A   1      35.453  34.599  28.846  1.00  0.00     0.014 A 
ATOM     33  C   UNL A   1      35.056  33.279  31.278  1.00  0.00     0.010 A 
ATOM     34  C   UNL A   1      36.523  33.982  29.476  1.00  0.00     0.010 A 
ATOM     35  C   UNL A   1      36.336  33.323  30.701  1.00  0.00    -0.014 A 
BRANCH  35  36
ATOM     36  C   UNL A   1      37.514  32.720  31.369  1.00  0.00     0.031 A 
ATOM     37  C   UNL A   1      38.236  31.587  30.697  1.00  0.00     0.074 A 
ATOM     38  C   UNL A   1      37.877  33.131  32.598  1.00  0.00     0.049 A 
ATOM     39  N   UNL A   1      39.184  30.814  31.162  1.00  0.00    -0.248 NA
ATOM     40  C   UNL A   1      37.810  31.256  29.327  1.00  0.00     0.031 C 
ATOM     41  C   UNL A   1      37.231  34.199  33.363  1.00  0.00     0.029 A 
ATOM     42  N   UNL A   1      38.870  32.681  33.432  1.00  0.00    -0.354 N 
ATOM     43  C   UNL A   1      39.452  29.901  30.151  1.00  0.00     0.074 A 
ATOM     44  C   UNL A   1      38.528  30.173  29.073  1.00  0.00     0.031 C 
ATOM     45  C   UNL A   1      37.854  34.333  34.545  1.00  0.00     0.029 A 
ATOM     46  C   UNL A   1      38.911  33.332  34.641  1.00  0.00     0.049 A 
ATOM     47  H   UNL A   1      39.494  31.960  33.186  1.00  0.00     0.167 HD
ATOM     48  C   UNL A   1      40.405  28.940  30.115  1.00  0.00     0.037 A 
ATOM     49  C   UNL A   1      39.705  33.128  35.710  1.00  0.00     0.037 A 
ATOM     50  C   UNL A   1      41.337  28.692  31.179  1.00  0.00     0.049 A 
ATOM     51  C   UNL A   1      40.742  32.037  35.649  1.00  0.00     0.074 A 
ATOM     52  C   UNL A   1      42.354  27.756  31.238  1.00  0.00     0.029 A 
ATOM     53  N   UNL A   1      41.371  29.397  32.375  1.00  0.00    -0.354 N 
ATOM     54  N   UNL A   1      41.012  31.202  34.675  1.00  0.00    -0.248 NA
ATOM     55  C   UNL A   1      41.589  31.861  36.839  1.00  0.00     0.031 C 
ATOM     56  C   UNL A   1      42.987  27.876  32.479  1.00  0.00     0.029 A 
ATOM     57  C   UNL A   1      42.391  28.915  33.176  1.00  0.00     0.049 A 
ATOM     58  H   UNL A   1      40.760  30.131  32.615  1.00  0.00     0.167 HD
ATOM     59  C   UNL A   1      42.081  30.434  35.115  1.00  0.00     0.074 A 
ATOM     60  C   UNL A   1      42.416  30.905  36.442  1.00  0.00     0.031 C 
ATOM     61  C   UNL A   1      42.729  29.427  34.479  1.00  0.00     0.037 A 
BRANCH  48  62
ATOM     62  C   UNL A   1      40.494  28.102  28.874  1.00  0.00     0.064 A 
ATOM     63  C   UNL A   1      39.780  26.899  28.752  1.00  0.00     0.173 A 
ATOM     64  C   UNL A   1      41.271  28.517  27.782  1.00  0.00     0.173 A 
ATOM     65  F   UNL A   1      39.035  26.451  29.774  1.00  0.00    -0.203 F 
ATOM     66  C   UNL A   1      39.860  26.132  27.594  1.00  0.00     0.198 A 
ATOM     67  C   UNL A   1      41.325  27.761  26.614  1.00  0.00     0.198 A 
ATOM     68  F   UNL A   1      41.972  29.659  27.845  1.00  0.00    -0.203 F 
ATOM     69  F   UNL A   1      39.208  24.963  27.521  1.00  0.00    -0.200 F 
ATOM     70  C   UNL A   1      40.626  26.566  26.523  1.00  0.00     0.200 A 
ATOM     71  F   UNL A   1      42.056  28.188  25.575  1.00  0.00    -0.200 F 
ATOM     72  F   UNL A   1      40.697  25.831  25.406  1.00  0.00    -0.200 F 
ENDBRANCH  48  62
BRANCH  49  73
ATOM     73  C   UNL A   1      39.571  33.978  36.921  1.00  0.00     0.064 A 
ATOM     74  C   UNL A   1      38.802  33.552  38.014  1.00  0.00     0.173 A 
ATOM     75  C   UNL A   1      40.171  35.243  37.001  1.00  0.00     0.173 A 
ATOM     76  F   UNL A   1      38.191  32.359  37.977  1.00  0.00    -0.203 F 
ATOM     77  C   UNL A   1      38.612  34.371  39.125  1.00  0.00     0.198 A 
ATOM     78  C   UNL A   1      40.006  36.049  38.126  1.00  0.00     0.198 A 
ATOM     79  F   UNL A   1      40.919  35.696  35.985  1.00  0.00    -0.203 F 
ATOM     80  F   UNL A   1      37.824  33.962  40.128  1.00  0.00    -0.200 F 
ATOM     81  C   UNL A   1      39.217  35.618  39.182  1.00  0.00     0.200 A 
ATOM     82  F   UNL A   1      40.600  37.248  38.181  1.00  0.00    -0.200 F 
ATOM     83  F   UNL A   1      39.028  36.408  40.246  1.00  0.00    -0.200 F 
ENDBRANCH  49  73
BRANCH  61  84
ATOM     84  C   UNL A   1      43.905  28.814  35.177  1.00  0.00     0.064 A 
ATOM     85  C   UNL A   1      45.216  29.249  34.938  1.00  0.00     0.173 A 
ATOM     86  C   UNL A   1      43.707  27.815  36.142  1.00  0.00     0.173 A 
ATOM     87  F   UNL A   1      45.456  30.191  34.013  1.00  0.00    -0.203 F 
ATOM     88  C   UNL A   1      46.289  28.693  35.627  1.00  0.00     0.198 A 
ATOM     89  C   UNL A   1      44.780  27.281  36.851  1.00  0.00     0.198 A 
ATOM     90  F   UNL A   1      42.470  27.370  36.412  1.00  0.00    -0.203 F 
ATOM     91  F   UNL A   1      47.538  29.095  35.355  1.00  0.00    -0.200 F 
ATOM     92  C   UNL A   1      46.069  27.717  36.588  1.00  0.00     0.200 A 
ATOM     93  F   UNL A   1      44.564  26.349  37.788  1.00  0.00    -0.200 F 
ATOM     94  F   UNL A   1      47.103  27.191  37.260  1.00  0.00    -0.200 F 
ENDBRANCH  61  84
ENDBRANCH  35  36
ENDBRANCH  27  30
ENDBRANCH  25  26
ENDBRANCH  24  25
ENDBRANCH   1  24
TORSDOF 17
ENDMDL
MODEL 2
REMARK VINA RESULT:     -11.4      0.327      2.023
REMARK SMILES COCC[C@H](NC(=O)N1CC[C@H](C(=O)OC)C1)C(=O)NCCCNC(=O)c1ccc(-c2c3nc(c(-c4c(F)c(F)c(F)c(F)c4F)c4ccc([nH]4)c(-c4c(F)c(F)c(F)c(F)c4F)c4nc(c(-c5c(F)c(F)c(F)c(F)c5F)c5ccc2[nH]5)C=C4)C=C3)cc1
REMARK SMILES IDX 21 1 20 2 18 3 19 4 5 6 4 7 3 8 2 9 1 10 6 11 7 12 8 14 9 15
REMARK SMILES IDX 10 16 17 17 11 18 12 19 13 20 14 21 15 22 16 23 22 24 23 25
REMARK SMILES IDX 24 26 25 27 26 29 27 30 28 31 89 32 29 33 88 34 30 35 31 36
REMARK SMILES IDX 32 37 82 38 33 39 87 40 81 41 83 42 34 43 86 44 80 45 79 46
REMARK SMILES IDX 35 48 67 49 47 50 66 51 48 52 51 53 65 54 84 55 49 56 50 57
REMARK SMILES IDX 64 59 85 60 52 61 36 62 37 63 45 64 38 65 39 66 43 67 46 68
REMARK SMILES IDX 40 69 41 70 44 71 42 72 68 73 69 74 77 75 70 76 71 77 75 78
REMARK SMILES IDX 78 79 72 80 73 81 76 82 74 83 53 84 54 85 62 86 55 87 56 88
REMARK SMILES IDX 60 89 63 90 57 91 58 92 61 93 59 94
REMARK H PARENT 20 5 6 13 24 28 83 47 51 58
REMARK Flexibility Score: inf
ROOT
ATOM      1  C   UNL A   1      31.774  30.523  26.881  1.00  0.00     0.117 C 
ENDROOT
BRANCH   1   2
ATOM      2  N   UNL A   1      32.936  29.993  26.196  1.00  0.00    -0.354 N 
ATOM      3  C   UNL A   1      33.047  28.891  25.405  1.00  0.00     0.242 C 
ATOM      4  O   UNL A   1      34.160  28.621  24.946  1.00  0.00    -0.273 OA
ATOM      5  H   UNL A   1      33.767  30.506  26.321  1.00  0.00     0.163 HD
BRANCH   3   6
ATOM      6  C   UNL A   1      31.804  28.067  25.003  1.00  0.00     0.175 C 
BRANCH   6   7
ATOM      7  C   UNL A   1      31.781  26.814  25.890  1.00  0.00     0.063 C 
BRANCH   7   8
ATOM      8  C   UNL A   1      32.641  25.658  25.373  1.00  0.00     0.162 C 
BRANCH   8   9
ATOM      9  O   UNL A   1      32.190  25.093  24.148  1.00  0.00    -0.385 OA
ATOM     10  C   UNL A   1      30.965  24.375  24.238  1.00  0.00     0.194 C 
ENDBRANCH   8   9
ENDBRANCH   7   8
ENDBRANCH   6   7
BRANCH   6  11
ATOM     11  N   UNL A   1      31.687  27.983  23.530  1.00  0.00    -0.326 N 
ATOM     12  C   UNL A   1      30.638  27.851  22.691  1.00  0.00     0.318 C 
ATOM     13  H   UNL A   1      32.554  28.033  23.066  1.00  0.00     0.166 HD
ATOM     14  O   UNL A   1      30.720  27.011  21.795  1.00  0.00    -0.249 OA
BRANCH  12  15
ATOM     15  N   UNL A   1      29.528  28.607  22.864  1.00  0.00    -0.324 N 
ATOM     16  C   UNL A   1      28.220  28.133  23.263  1.00  0.00     0.122 C 
ATOM     17  C   UNL A   1      29.612  30.030  23.123  1.00  0.00     0.136 C 
ATOM     18  C   UNL A   1      27.302  29.272  22.848  1.00  0.00     0.039 C 
ATOM     19  C   UNL A   1      28.169  30.530  23.016  1.00  0.00     0.120 C 
BRANCH  19  20
ATOM     20  C   UNL A   1      27.968  31.506  21.879  1.00  0.00     0.310 C 
ATOM     21  O   UNL A   1      28.000  31.171  20.701  1.00  0.00    -0.252 OA
BRANCH  20  22
ATOM     22  O   UNL A   1      27.795  32.785  22.312  1.00  0.00    -0.469 OA
ATOM     23  C   UNL A   1      28.914  33.317  23.028  1.00  0.00     0.282 C 
ENDBRANCH  20  22
ENDBRANCH  19  20
ENDBRANCH  12  15
ENDBRANCH   6  11
ENDBRANCH   3   6
ENDBRANCH   1   2
BRANCH   1  24
ATOM     24  C   UNL A   1      31.672  32.028  26.691  1.00  0.00     0.042 C 
BRANCH  24  25
ATOM     25  C   UNL A   1      32.819  32.773  27.357  1.00  0.00     0.118 C 
BRANCH  25  26
ATOM     26  N   UNL A   1      32.486  34.165  27.641  1.00  0.00    -0.352 N 
ATOM     27  C   UNL A   1      33.007  34.989  28.610  1.00  0.00     0.251 C 
ATOM     28  H   UNL A   1      31.797  34.566  27.063  1.00  0.00     0.163 HD
ATOM     29  O   UNL A   1      32.508  36.075  28.844  1.00  0.00    -0.269 OA
BRANCH  27  30
ATOM     30  C   UNL A   1      34.178  34.515  29.373  1.00  0.00     0.039 A 
ATOM     31  C   UNL A   1      33.979  33.900  30.610  1.00  0.00     0.014 A 
ATOM     32  C   UNL A   1      35.458  34.637  28.829  1.00  0.00     0.014 A 
ATOM     33  C   UNL A   1      35.070  33.346  31.278  1.00  0.00     0.010 A 
ATOM     34  C   UNL A   1      36.528  34.017  29.457  1.00  0.00     0.010 A 
ATOM     35  C   UNL A   1      36.345  33.372  30.690  1.00  0.00    -0.014 A 
BRANCH  35  36
ATOM     36  C   UNL A   1      37.524  32.765  31.354  1.00  0.00     0.031 A 
ATOM     37  C   UNL A   1      38.234  31.623  30.684  1.00  0.00     0.074 A 
ATOM     38  C   UNL A   1      37.897  33.181  32.579  1.00  0.00     0.049 A 
ATOM     39  N   UNL A   1      39.179  30.846  31.148  1.00  0.00    -0.248 NA
ATOM     40  C   UNL A   1      37.796  31.287  29.319  1.00  0.00     0.031 C 
ATOM     41  C   UNL A   1      37.264  34.258  33.341  1.00  0.00     0.029 A 
ATOM     42  N   UNL A   1      38.892  32.729  33.409  1.00  0.00    -0.354 N 
ATOM     43  C   UNL A   1      39.434  29.925  30.141  1.00  0.00     0.074 A 
ATOM     44  C   UNL A   1      38.505  30.197  29.066  1.00  0.00     0.031 C 
ATOM     45  C   UNL A   1      37.895  34.394  34.518  1.00  0.00     0.029 A 
ATOM     46  C   UNL A   1      38.946  33.387  34.613  1.00  0.00     0.049 A 
ATOM     47  H   UNL A   1      39.509  32.002  33.163  1.00  0.00     0.167 HD
ATOM     48  C   UNL A   1      40.379  28.957  30.104  1.00  0.00     0.037 A 
ATOM     49  C   UNL A   1      39.746  33.183  35.678  1.00  0.00     0.037 A 
ATOM     50  C   UNL A   1      41.317  28.709  31.164  1.00  0.00     0.049 A 
ATOM     51  C   UNL A   1      40.774  32.084  35.617  1.00  0.00     0.074 A 
ATOM     52  C   UNL A   1      42.328  27.766  31.221  1.00  0.00     0.029 A 
ATOM     53  N   UNL A   1      41.363  29.421  32.355  1.00  0.00    -0.354 N 
ATOM     54  N   UNL A   1      41.032  31.242  34.646  1.00  0.00    -0.248 NA
ATOM     55  C   UNL A   1      41.627  31.910  36.802  1.00  0.00     0.031 C 
ATOM     56  C   UNL A   1      42.969  27.889  32.458  1.00  0.00     0.029 A 
ATOM     57  C   UNL A   1      42.386  28.936  33.153  1.00  0.00     0.049 A 
ATOM     58  H   UNL A   1      40.759  30.161  32.594  1.00  0.00     0.167 HD
ATOM     59  C   UNL A   1      42.099  30.469  35.084  1.00  0.00     0.074 A 
ATOM     60  C   UNL A   1      42.446  30.945  36.406  1.00  0.00     0.031 C 
ATOM     61  C   UNL A   1      42.735  29.454  34.450  1.00  0.00     0.037 A 
BRANCH  48  62
ATOM     62  C   UNL A   1      40.455  28.111  28.868  1.00  0.00     0.064 A 
ATOM     63  C   UNL A   1      41.244  28.491  27.771  1.00  0.00     0.173 A 
ATOM     64  C   UNL A   1      39.763  26.894  28.787  1.00  0.00     0.173 A 
ATOM     65  F   UNL A   1      41.913  29.654  27.792  1.00  0.00    -0.203 F 
ATOM     66  C   UNL A   1      41.317  27.697  26.630  1.00  0.00     0.198 A 
ATOM     67  C   UNL A   1      39.862  26.088  27.656  1.00  0.00     0.198 A 
ATOM     68  F   UNL A   1      38.996  26.482  29.808  1.00  0.00    -0.203 F 
ATOM     69  F   UNL A   1      42.038  28.106  25.576  1.00  0.00    -0.200 F 
ATOM     70  C   UNL A   1      40.632  26.493  26.576  1.00  0.00     0.200 A 
ATOM     71  F   UNL A   1      39.210  24.917  27.611  1.00  0.00    -0.200 F 
ATOM     72  F   UNL A   1      40.709  25.725  25.481  1.00  0.00    -0.200 F 
ENDBRANCH  48  62
BRANCH  49  73
ATOM     73  C   UNL A   1      39.625  34.042  36.885  1.00  0.00     0.064 A 
ATOM     74  C   UNL A   1      40.326  35.253  36.976  1.00  0.00     0.173 A 
ATOM     75  C   UNL A   1      38.842  33.659  37.983  1.00  0.00     0.173 A 
ATOM     76  F   UNL A   1      41.105  35.653  35.959  1.00  0.00    -0.203 F 
ATOM     77  C   UNL A   1      40.276  36.031  38.130  1.00  0.00     0.198 A 
ATOM     78  C   UNL A   1      38.768  34.453  39.127  1.00  0.00     0.198 A 
ATOM     79  F   UNL A   1      38.149  32.512  37.947  1.00  0.00    -0.203 F 
ATOM     80  F   UNL A   1      41.003  37.153  38.212  1.00  0.00    -0.200 F 
ATOM     81  C   UNL A   1      39.494  35.632  39.204  1.00  0.00     0.200 A 
ATOM     82  F   UNL A   1      38.003  34.069  40.158  1.00  0.00    -0.200 F 
ATOM     83  F   UNL A   1      39.451  36.375  40.317  1.00  0.00    -0.200 F 
ENDBRANCH  49  73
BRANCH  61  84
ATOM     84  C   UNL A   1      43.911  28.836  35.144  1.00  0.00     0.064 A 
ATOM     85  C   UNL A   1      43.771  27.730  35.993  1.00  0.00     0.173 A 
ATOM     86  C   UNL A   1      45.205  29.326  34.907  1.00  0.00     0.173 A 
ATOM     87  F   UNL A   1      42.553  27.236  36.262  1.00  0.00    -0.203 F 
ATOM     88  C   UNL A   1      44.882  27.147  36.595  1.00  0.00     0.198 A 
ATOM     89  C   UNL A   1      46.316  28.723  35.488  1.00  0.00     0.198 A 
ATOM     90  F   UNL A   1      45.391  30.379  34.096  1.00  0.00    -0.203 F 
ATOM     91  F   UNL A   1      44.722  26.116  37.435  1.00  0.00    -0.200 F 
ATOM     92  C   UNL A   1      46.153  27.638  36.335  1.00  0.00     0.200 A 
ATOM     93  F   UNL A   1      47.544  29.190  35.225  1.00  0.00    -0.200 F 
ATOM     94  F   UNL A   1      47.223  27.068  36.906  1.00  0.00    -0.200 F 
ENDBRANCH  61  84
ENDBRANCH  35  36
ENDBRANCH  27  30
ENDBRANCH  25  26
ENDBRANCH  24  25
ENDBRANCH   1  24
TORSDOF 17
ENDMDL
MODEL 3
REMARK VINA RESULT:     -11.4      0.597      7.352
REMARK SMILES COCC[C@H](NC(=O)N1CC[C@H](C(=O)OC)C1)C(=O)NCCCNC(=O)c1ccc(-c2c3nc(c(-c4c(F)c(F)c(F)c(F)c4F)c4ccc([nH]4)c(-c4c(F)c(F)c(F)c(F)c4F)c4nc(c(-c5c(F)c(F)c(F)c(F)c5F)c5ccc2[nH]5)C=C4)C=C3)cc1
REMARK SMILES IDX 21 1 20 2 18 3 19 4 5 6 4 7 3 8 2 9 1 10 6 11 7 12 8 14 9 15
REMARK SMILES IDX 10 16 17 17 11 18 12 19 13 20 14 21 15 22 16 23 22 24 23 25
REMARK SMILES IDX 24 26 25 27 26 29 27 30 28 31 89 32 29 33 88 34 30 35 31 36
REMARK SMILES IDX 32 37 82 38 33 39 87 40 81 41 83 42 34 43 86 44 80 45 79 46
REMARK SMILES IDX 35 48 67 49 47 50 66 51 48 52 51 53 65 54 84 55 49 56 50 57
REMARK SMILES IDX 64 59 85 60 52 61 36 62 37 63 45 64 38 65 39 66 43 67 46 68
REMARK SMILES IDX 40 69 41 70 44 71 42 72 68 73 69 74 77 75 70 76 71 77 75 78
REMARK SMILES IDX 78 79 72 80 73 81 76 82 74 83 53 84 54 85 62 86 55 87 56 88
REMARK SMILES IDX 60 89 63 90 57 91 58 92 61 93 59 94
REMARK H PARENT 20 5 6 13 24 28 83 47 51 58
REMARK Flexibility Score: inf
ROOT
ATOM      1  C   UNL A   1      31.438  30.892  26.867  1.00  0.00     0.117 C 
ENDROOT
BRANCH   1   2
ATOM      2  N   UNL A   1      32.667  30.275  26.409  1.00  0.00    -0.354 N 
ATOM      3  C   UNL A   1      32.850  29.104  25.739  1.00  0.00     0.242 C 
ATOM      4  O   UNL A   1      34.007  28.768  25.475  1.00  0.00    -0.273 OA
ATOM      5  H   UNL A   1      33.490  30.777  26.610  1.00  0.00     0.163 HD
BRANCH   3   6
ATOM      6  C   UNL A   1      31.650  28.278  25.231  1.00  0.00     0.175 C 
BRANCH   6   7
ATOM      7  C   UNL A   1      31.616  26.974  26.043  1.00  0.00     0.063 C 
BRANCH   7   8
ATOM      8  C   UNL A   1      32.025  25.728  25.254  1.00  0.00     0.162 C 
BRANCH   8   9
ATOM      9  O   UNL A   1      33.215  25.104  25.720  1.00  0.00    -0.385 OA
ATOM     10  C   UNL A   1      34.344  25.263  24.869  1.00  0.00     0.194 C 
ENDBRANCH   8   9
ENDBRANCH   7   8
ENDBRANCH   6   7
BRANCH   6  11
ATOM     11  N   UNL A   1      31.605  28.277  23.752  1.00  0.00    -0.326 N 
ATOM     12  C   UNL A   1      30.595  28.285  22.856  1.00  0.00     0.318 C 
ATOM     13  H   UNL A   1      32.497  28.267  23.334  1.00  0.00     0.166 HD
ATOM     14  O   UNL A   1      30.648  27.485  21.922  1.00  0.00    -0.249 OA
BRANCH  12  15
ATOM     15  N   UNL A   1      29.551  29.133  23.014  1.00  0.00    -0.324 N 
ATOM     16  C   UNL A   1      28.154  28.767  23.104  1.00  0.00     0.122 C 
ATOM     17  C   UNL A   1      29.728  30.458  23.575  1.00  0.00     0.136 C 
ATOM     18  C   UNL A   1      27.438  30.074  22.803  1.00  0.00     0.039 C 
ATOM     19  C   UNL A   1      28.382  31.153  23.359  1.00  0.00     0.120 C 
BRANCH  19  20
ATOM     20  C   UNL A   1      28.477  32.345  22.435  1.00  0.00     0.310 C 
ATOM     21  O   UNL A   1      28.490  33.502  22.840  1.00  0.00    -0.252 OA
BRANCH  20  22
ATOM     22  O   UNL A   1      28.503  31.989  21.122  1.00  0.00    -0.469 OA
ATOM     23  C   UNL A   1      27.695  32.813  20.276  1.00  0.00     0.282 C 
ENDBRANCH  20  22
ENDBRANCH  19  20
ENDBRANCH  12  15
ENDBRANCH   6  11
ENDBRANCH   3   6
ENDBRANCH   1   2
BRANCH   1  24
ATOM     24  C   UNL A   1      31.478  32.398  26.661  1.00  0.00     0.042 C 
BRANCH  24  25
ATOM     25  C   UNL A   1      32.725  33.031  27.258  1.00  0.00     0.118 C 
BRANCH  25  26
ATOM     26  N   UNL A   1      32.500  34.407  27.686  1.00  0.00    -0.352 N 
ATOM     27  C   UNL A   1      33.067  35.078  28.743  1.00  0.00     0.251 C 
ATOM     28  H   UNL A   1      31.856  34.922  27.147  1.00  0.00     0.163 HD
ATOM     29  O   UNL A   1      32.652  36.170  29.088  1.00  0.00    -0.269 OA
BRANCH  27  30
ATOM     30  C   UNL A   1      34.181  34.432  29.463  1.00  0.00     0.039 A 
ATOM     31  C   UNL A   1      33.898  33.605  30.550  1.00  0.00     0.014 A 
ATOM     32  C   UNL A   1      35.493  34.611  29.019  1.00  0.00     0.014 A 
ATOM     33  C   UNL A   1      34.937  32.900  31.159  1.00  0.00     0.010 A 
ATOM     34  C   UNL A   1      36.511  33.850  29.574  1.00  0.00     0.010 A 
ATOM     35  C   UNL A   1      36.244  32.993  30.653  1.00  0.00    -0.014 A 
BRANCH  35  36
ATOM     36  C   UNL A   1      37.368  32.235  31.250  1.00  0.00     0.031 A 
ATOM     37  C   UNL A   1      37.873  32.624  32.611  1.00  0.00     0.074 A 
ATOM     38  C   UNL A   1      37.980  31.266  30.544  1.00  0.00     0.049 A 
ATOM     39  N   UNL A   1      38.933  32.208  33.254  1.00  0.00    -0.248 NA
ATOM     40  C   UNL A   1      37.096  33.647  33.332  1.00  0.00     0.031 C 
ATOM     41  C   UNL A   1      37.600  30.824  29.202  1.00  0.00     0.029 A 
ATOM     42  N   UNL A   1      39.069  30.490  30.852  1.00  0.00    -0.354 N 
ATOM     43  C   UNL A   1      38.958  32.928  34.441  1.00  0.00     0.074 A 
ATOM     44  C   UNL A   1      37.845  33.851  34.405  1.00  0.00     0.031 C 
ATOM     45  C   UNL A   1      38.432  29.845  28.809  1.00  0.00     0.029 A 
ATOM     46  C   UNL A   1      39.429  29.622  29.850  1.00  0.00     0.049 A 
ATOM     47  H   UNL A   1      39.547  30.550  31.712  1.00  0.00     0.167 HD
ATOM     48  C   UNL A   1      39.817  32.808  35.481  1.00  0.00     0.037 A 
ATOM     49  C   UNL A   1      40.460  28.758  29.779  1.00  0.00     0.037 A 
ATOM     50  C   UNL A   1      40.904  31.871  35.522  1.00  0.00     0.049 A 
ATOM     51  C   UNL A   1      41.412  28.662  30.943  1.00  0.00     0.074 A 
ATOM     52  C   UNL A   1      41.822  31.654  36.534  1.00  0.00     0.029 A 
ATOM     53  N   UNL A   1      41.215  30.983  34.501  1.00  0.00    -0.354 N 
ATOM     54  N   UNL A   1      41.406  29.322  32.076  1.00  0.00    -0.248 NA
ATOM     55  C   UNL A   1      42.515  27.698  30.818  1.00  0.00     0.031 C 
ATOM     56  C   UNL A   1      42.704  30.654  36.116  1.00  0.00     0.029 A 
ATOM     57  C   UNL A   1      42.311  30.218  34.861  1.00  0.00     0.049 A 
ATOM     58  H   UNL A   1      40.727  30.909  33.649  1.00  0.00     0.167 HD
ATOM     59  C   UNL A   1      42.472  28.825  32.813  1.00  0.00     0.074 A 
ATOM     60  C   UNL A   1      43.101  27.803  32.002  1.00  0.00     0.031 C 
ATOM     61  C   UNL A   1      42.895  29.181  34.051  1.00  0.00     0.037 A 
BRANCH  48  62
ATOM     62  C   UNL A   1      39.595  33.701  36.666  1.00  0.00     0.064 A 
ATOM     63  C   UNL A   1      38.819  33.285  37.759  1.00  0.00     0.173 A 
ATOM     64  C   UNL A   1      40.190  34.970  36.729  1.00  0.00     0.173 A 
ATOM     65  F   UNL A   1      38.216  32.087  37.740  1.00  0.00    -0.203 F 
ATOM     66  C   UNL A   1      38.625  34.116  38.858  1.00  0.00     0.198 A 
ATOM     67  C   UNL A   1      40.018  35.786  37.845  1.00  0.00     0.198 A 
ATOM     68  F   UNL A   1      40.944  35.416  35.713  1.00  0.00    -0.203 F 
ATOM     69  F   UNL A   1      37.839  33.715  39.868  1.00  0.00    -0.200 F 
ATOM     70  C   UNL A   1      39.231  35.362  38.905  1.00  0.00     0.200 A 
ATOM     71  F   UNL A   1      40.615  36.985  37.893  1.00  0.00    -0.200 F 
ATOM     72  F   UNL A   1      39.051  36.157  39.967  1.00  0.00    -0.200 F 
ENDBRANCH  48  62
BRANCH  49  73
ATOM     73  C   UNL A   1      40.643  27.902  28.579  1.00  0.00     0.064 A 
ATOM     74  C   UNL A   1      41.398  28.352  27.485  1.00  0.00     0.173 A 
ATOM     75  C   UNL A   1      40.043  26.638  28.480  1.00  0.00     0.173 A 
ATOM     76  F   UNL A   1      41.974  29.562  27.523  1.00  0.00    -0.203 F 
ATOM     77  C   UNL A   1      41.517  27.586  26.327  1.00  0.00     0.198 A 
ATOM     78  C   UNL A   1      40.189  25.860  27.332  1.00  0.00     0.198 A 
ATOM     79  F   UNL A   1      39.315  26.159  29.498  1.00  0.00    -0.203 F 
ATOM     80  F   UNL A   1      42.193  28.068  25.276  1.00  0.00    -0.200 F 
ATOM     81  C   UNL A   1      40.915  26.339  26.253  1.00  0.00     0.200 A 
ATOM     82  F   UNL A   1      39.615  24.651  27.268  1.00  0.00    -0.200 F 
ATOM     83  F   UNL A   1      41.023  25.607  25.137  1.00  0.00    -0.200 F 
ENDBRANCH  49  73
BRANCH  61  84
ATOM     84  C   UNL A   1      44.047  28.419  34.632  1.00  0.00     0.064 A 
ATOM     85  C   UNL A   1      45.364  28.891  34.546  1.00  0.00     0.173 A 
ATOM     86  C   UNL A   1      43.818  27.226  35.336  1.00  0.00     0.173 A 
ATOM     87  F   UNL A   1      45.633  30.019  33.871  1.00  0.00    -0.203 F 
ATOM     88  C   UNL A   1      46.414  28.188  35.128  1.00  0.00     0.198 A 
ATOM     89  C   UNL A   1      44.867  26.540  35.941  1.00  0.00     0.198 A 
ATOM     90  F   UNL A   1      42.574  26.737  35.451  1.00  0.00    -0.203 F 
ATOM     91  F   UNL A   1      47.670  28.636  35.001  1.00  0.00    -0.200 F 
ATOM     92  C   UNL A   1      46.164  27.019  35.833  1.00  0.00     0.200 A 
ATOM     93  F   UNL A   1      44.621  25.419  36.632  1.00  0.00    -0.200 F 
ATOM     94  F   UNL A   1      47.174  26.349  36.403  1.00  0.00    -0.200 F 
ENDBRANCH  61  84
ENDBRANCH  35  36
ENDBRANCH  27  30
ENDBRANCH  25  26
ENDBRANCH  24  25
ENDBRANCH   1  24
TORSDOF 17
ENDMDL
