MODEL 1
REMARK VINA RESULT:     -13.4      0.000      0.000
REMARK SMILES Cc1ccc2n[nH]cc2c1C(=O)NCCCNC(=O)c1ccc(-c2c3nc(c(-c4c(F)c(F)c(F)c(F)c4F)c4ccc([nH]4)c(-c4c(F)c(F)c(F)c(F)c4F)c4nc(c(-c5c(F)c(F)c(F)c(F)c5F)c5ccc2[nH]5)C=C4)C=C3)cc1
REMARK SMILES IDX 16 1 15 2 14 3 13 4 11 5 12 6 10 8 1 9 2 10 3 11 4 12 9 13
REMARK SMILES IDX 5 14 8 15 6 16 7 17 17 19 18 20 19 22 20 23 21 24 82 25
REMARK SMILES IDX 22 26 81 27 23 28 24 29 25 30 75 31 26 32 80 33 74 34 76 35
REMARK SMILES IDX 27 36 79 37 73 38 72 39 28 41 60 42 40 43 59 44 41 45 44 46
REMARK SMILES IDX 58 47 77 48 42 49 43 50 57 52 78 53 45 54 29 55 30 56 38 57
REMARK SMILES IDX 31 58 32 59 36 60 39 61 33 62 34 63 37 64 35 65 61 66 62 67
REMARK SMILES IDX 70 68 63 69 64 70 68 71 71 72 65 73 66 74 69 75 67 76 46 77
REMARK SMILES IDX 47 78 55 79 48 80 49 81 53 82 56 83 50 84 51 85 54 86 52 87
REMARK H PARENT 13 7 7 18 17 21 76 40 44 51
REMARK Flexibility Score: inf
ROOT
ATOM      1  C   UNL A   1      33.440  30.668  26.734  1.00  0.00     0.118 C 
ENDROOT
BRANCH   1   2
ATOM      2  C   UNL A   1      32.337  29.661  27.051  1.00  0.00     0.042 C 
BRANCH   2   3
ATOM      3  C   UNL A   1      32.841  28.224  27.257  1.00  0.00     0.118 C 
BRANCH   3   4
ATOM      4  N   UNL A   1      33.314  27.668  26.008  1.00  0.00    -0.352 N 
ATOM      5  C   UNL A   1      32.765  27.205  24.844  1.00  0.00     0.252 C 
ATOM      6  O   UNL A   1      33.607  26.697  24.094  1.00  0.00    -0.269 OA
ATOM      7  H   UNL A   1      34.297  27.607  25.990  1.00  0.00     0.163 HD
BRANCH   5   8
ATOM      8  C   UNL A   1      31.335  27.285  24.385  1.00  0.00     0.053 A 
ATOM      9  C   UNL A   1      30.220  25.247  25.559  1.00  0.00     0.045 C 
ATOM     10  C   UNL A   1      30.190  26.471  24.685  1.00  0.00    -0.038 A 
ATOM     11  C   UNL A   1      28.874  26.699  24.112  1.00  0.00     0.006 A 
ATOM     12  C   UNL A   1      28.577  27.655  23.132  1.00  0.00     0.031 A 
ATOM     13  C   UNL A   1      30.987  28.225  23.372  1.00  0.00     0.033 A 
ATOM     14  C   UNL A   1      29.688  28.407  22.751  1.00  0.00     0.093 A 
ATOM     15  C   UNL A   1      31.797  29.147  22.751  1.00  0.00     0.114 A 
ATOM     16  N   UNL A   1      29.749  29.355  21.802  1.00  0.00    -0.176 NA
ATOM     17  N   UNL A   1      31.028  29.753  21.804  1.00  0.00    -0.284 N 
ATOM     18  H   UNL A   1      31.382  30.424  21.176  1.00  0.00     0.189 HD
ENDBRANCH   5   8
ENDBRANCH   3   4
ENDBRANCH   2   3
ENDBRANCH   1   2
BRANCH   1  19
ATOM     19  N   UNL A   1      33.727  31.566  27.832  1.00  0.00    -0.352 N 
ATOM     20  C   UNL A   1      34.797  31.792  28.645  1.00  0.00     0.251 C 
ATOM     21  H   UNL A   1      32.966  32.155  28.042  1.00  0.00     0.163 HD
ATOM     22  O   UNL A   1      34.657  32.710  29.464  1.00  0.00    -0.269 OA
BRANCH  20  23
ATOM     23  C   UNL A   1      36.065  31.012  28.669  1.00  0.00     0.039 A 
ATOM     24  C   UNL A   1      36.212  29.656  28.376  1.00  0.00     0.014 A 
ATOM     25  C   UNL A   1      37.207  31.734  29.073  1.00  0.00     0.014 A 
ATOM     26  C   UNL A   1      37.439  29.022  28.582  1.00  0.00     0.010 A 
ATOM     27  C   UNL A   1      38.434  31.112  29.261  1.00  0.00     0.010 A 
ATOM     28  C   UNL A   1      38.536  29.741  29.068  1.00  0.00    -0.014 A 
BRANCH  28  29
ATOM     29  C   UNL A   1      39.804  29.037  29.267  1.00  0.00     0.031 A 
ATOM     30  C   UNL A   1      40.183  28.831  30.695  1.00  0.00     0.074 A 
ATOM     31  C   UNL A   1      40.533  28.511  28.260  1.00  0.00     0.049 A 
ATOM     32  N   UNL A   1      41.235  29.262  31.314  1.00  0.00    -0.248 NA
ATOM     33  C   UNL A   1      39.216  28.146  31.569  1.00  0.00     0.031 C 
ATOM     34  C   UNL A   1      40.173  28.387  26.845  1.00  0.00     0.029 A 
ATOM     35  N   UNL A   1      41.748  27.891  28.314  1.00  0.00    -0.354 N 
ATOM     36  C   UNL A   1      41.145  28.773  32.618  1.00  0.00     0.074 A 
ATOM     37  C   UNL A   1      39.830  28.202  32.752  1.00  0.00     0.031 C 
ATOM     38  C   UNL A   1      41.036  27.546  26.230  1.00  0.00     0.029 A 
ATOM     39  C   UNL A   1      42.091  27.189  27.163  1.00  0.00     0.049 A 
ATOM     40  H   UNL A   1      42.335  27.937  29.104  1.00  0.00     0.167 HD
ATOM     41  C   UNL A   1      42.236  28.702  33.430  1.00  0.00     0.037 A 
ATOM     42  C   UNL A   1      43.138  26.339  27.011  1.00  0.00     0.037 A 
ATOM     43  C   UNL A   1      43.286  29.573  32.979  1.00  0.00     0.049 A 
ATOM     44  C   UNL A   1      44.119  26.654  28.076  1.00  0.00     0.074 A 
ATOM     45  C   UNL A   1      43.425  30.939  32.838  1.00  0.00     0.029 A 
ATOM     46  N   UNL A   1      44.318  29.021  32.265  1.00  0.00    -0.354 N 
ATOM     47  N   UNL A   1      44.808  27.758  28.132  1.00  0.00    -0.248 NA
ATOM     48  C   UNL A   1      44.022  25.909  29.321  1.00  0.00     0.031 C 
ATOM     49  C   UNL A   1      44.219  31.111  31.665  1.00  0.00     0.029 A 
ATOM     50  C   UNL A   1      44.560  29.842  31.196  1.00  0.00     0.049 A 
ATOM     51  H   UNL A   1      44.796  28.188  32.481  1.00  0.00     0.167 HD
ATOM     52  C   UNL A   1      44.859  28.068  29.482  1.00  0.00     0.074 A 
ATOM     53  C   UNL A   1      44.438  26.851  30.171  1.00  0.00     0.031 C 
ATOM     54  C   UNL A   1      44.968  29.363  29.898  1.00  0.00     0.037 A 
BRANCH  41  55
ATOM     55  C   UNL A   1      42.487  27.590  34.421  1.00  0.00     0.064 A 
ATOM     56  C   UNL A   1      43.052  26.378  33.975  1.00  0.00     0.173 A 
ATOM     57  C   UNL A   1      41.913  27.555  35.710  1.00  0.00     0.173 A 
ATOM     58  F   UNL A   1      43.605  26.288  32.757  1.00  0.00    -0.203 F 
ATOM     59  C   UNL A   1      42.975  25.204  34.732  1.00  0.00     0.198 A 
ATOM     60  C   UNL A   1      41.884  26.394  36.483  1.00  0.00     0.198 A 
ATOM     61  F   UNL A   1      41.258  28.601  36.225  1.00  0.00    -0.203 F 
ATOM     62  F   UNL A   1      43.413  24.048  34.213  1.00  0.00    -0.200 F 
ATOM     63  C   UNL A   1      42.387  25.213  35.982  1.00  0.00     0.200 A 
ATOM     64  F   UNL A   1      41.289  26.418  37.684  1.00  0.00    -0.200 F 
ATOM     65  F   UNL A   1      42.254  24.078  36.681  1.00  0.00    -0.200 F 
ENDBRANCH  41  55
BRANCH  42  66
ATOM     66  C   UNL A   1      43.196  25.060  26.256  1.00  0.00     0.064 A 
ATOM     67  C   UNL A   1      44.223  24.819  25.325  1.00  0.00     0.173 A 
ATOM     68  C   UNL A   1      42.444  23.940  26.658  1.00  0.00     0.173 A 
ATOM     69  F   UNL A   1      45.015  25.822  24.918  1.00  0.00    -0.203 F 
ATOM     70  C   UNL A   1      44.507  23.529  24.860  1.00  0.00     0.198 A 
ATOM     71  C   UNL A   1      42.725  22.655  26.189  1.00  0.00     0.198 A 
ATOM     72  F   UNL A   1      41.491  24.052  27.593  1.00  0.00    -0.203 F 
ATOM     73  F   UNL A   1      45.542  23.329  24.032  1.00  0.00    -0.200 F 
ATOM     74  C   UNL A   1      43.767  22.447  25.304  1.00  0.00     0.200 A 
ATOM     75  F   UNL A   1      42.025  21.612  26.655  1.00  0.00    -0.200 F 
ATOM     76  F   UNL A   1      44.084  21.203  24.918  1.00  0.00    -0.200 F 
ENDBRANCH  42  66
BRANCH  54  77
ATOM     77  C   UNL A   1      45.303  30.405  28.868  1.00  0.00     0.064 A 
ATOM     78  C   UNL A   1      44.347  31.061  28.072  1.00  0.00     0.173 A 
ATOM     79  C   UNL A   1      46.624  30.866  28.803  1.00  0.00     0.173 A 
ATOM     80  F   UNL A   1      43.049  30.741  28.148  1.00  0.00    -0.203 F 
ATOM     81  C   UNL A   1      44.708  32.111  27.231  1.00  0.00     0.198 A 
ATOM     82  C   UNL A   1      46.975  31.939  27.988  1.00  0.00     0.198 A 
ATOM     83  F   UNL A   1      47.568  30.312  29.579  1.00  0.00    -0.203 F 
ATOM     84  F   UNL A   1      43.779  32.723  26.480  1.00  0.00    -0.200 F 
ATOM     85  C   UNL A   1      46.020  32.556  27.197  1.00  0.00     0.200 A 
ATOM     86  F   UNL A   1      48.233  32.398  27.999  1.00  0.00    -0.200 F 
ATOM     87  F   UNL A   1      46.357  33.601  26.428  1.00  0.00    -0.200 F 
ENDBRANCH  54  77
ENDBRANCH  28  29
ENDBRANCH  20  23
ENDBRANCH   1  19
TORSDOF 10
ENDMDL
MODEL 2
REMARK VINA RESULT:     -13.3      5.083     11.144
REMARK SMILES Cc1ccc2n[nH]cc2c1C(=O)NCCCNC(=O)c1ccc(-c2c3nc(c(-c4c(F)c(F)c(F)c(F)c4F)c4ccc([nH]4)c(-c4c(F)c(F)c(F)c(F)c4F)c4nc(c(-c5c(F)c(F)c(F)c(F)c5F)c5ccc2[nH]5)C=C4)C=C3)cc1
REMARK SMILES IDX 16 1 15 2 14 3 13 4 11 5 12 6 10 8 1 9 2 10 3 11 4 12 9 13
REMARK SMILES IDX 5 14 8 15 6 16 7 17 17 19 18 20 19 22 20 23 21 24 82 25
REMARK SMILES IDX 22 26 81 27 23 28 24 29 25 30 75 31 26 32 80 33 74 34 76 35
REMARK SMILES IDX 27 36 79 37 73 38 72 39 28 41 60 42 40 43 59 44 41 45 44 46
REMARK SMILES IDX 58 47 77 48 42 49 43 50 57 52 78 53 45 54 29 55 30 56 38 57
REMARK SMILES IDX 31 58 32 59 36 60 39 61 33 62 34 63 37 64 35 65 61 66 62 67
REMARK SMILES IDX 70 68 63 69 64 70 68 71 71 72 65 73 66 74 69 75 67 76 46 77
REMARK SMILES IDX 47 78 55 79 48 80 49 81 53 82 56 83 50 84 51 85 54 86 52 87
REMARK H PARENT 13 7 7 18 17 21 76 40 44 51
REMARK Flexibility Score: inf
ROOT
ATOM      1  C   UNL A   1      43.194  22.585  24.970  1.00  0.00     0.118 C 
ENDROOT
BRANCH   1   2
ATOM      2  C   UNL A   1      44.251  21.483  24.999  1.00  0.00     0.042 C 
BRANCH   2   3
ATOM      3  C   UNL A   1      45.538  21.870  25.745  1.00  0.00     0.118 C 
BRANCH   3   4
ATOM      4  N   UNL A   1      46.277  22.866  25.000  1.00  0.00    -0.352 N 
ATOM      5  C   UNL A   1      46.507  24.212  25.080  1.00  0.00     0.252 C 
ATOM      6  O   UNL A   1      47.127  24.644  24.101  1.00  0.00    -0.269 OA
ATOM      7  H   UNL A   1      46.738  22.468  24.227  1.00  0.00     0.163 HD
BRANCH   5   8
ATOM      8  C   UNL A   1      46.149  25.160  26.190  1.00  0.00     0.053 A 
ATOM      9  C   UNL A   1      43.911  26.210  25.375  1.00  0.00     0.045 C 
ATOM     10  C   UNL A   1      45.021  26.032  26.373  1.00  0.00    -0.038 A 
ATOM     11  C   UNL A   1      44.865  26.907  27.523  1.00  0.00     0.006 A 
ATOM     12  C   UNL A   1      45.820  27.090  28.532  1.00  0.00     0.031 A 
ATOM     13  C   UNL A   1      47.096  25.398  27.227  1.00  0.00     0.033 A 
ATOM     14  C   UNL A   1      46.968  26.322  28.340  1.00  0.00     0.093 A 
ATOM     15  C   UNL A   1      48.336  24.828  27.396  1.00  0.00     0.114 A 
ATOM     16  N   UNL A   1      48.082  26.312  29.090  1.00  0.00    -0.176 NA
ATOM     17  N   UNL A   1      48.891  25.436  28.481  1.00  0.00    -0.284 N 
ATOM     18  H   UNL A   1      49.808  25.248  28.790  1.00  0.00     0.189 HD
ENDBRANCH   5   8
ENDBRANCH   3   4
ENDBRANCH   2   3
ENDBRANCH   1   2
BRANCH   1  19
ATOM     19  N   UNL A   1      41.955  22.204  25.613  1.00  0.00    -0.352 N 
ATOM     20  C   UNL A   1      41.048  22.827  26.418  1.00  0.00     0.251 C 
ATOM     21  H   UNL A   1      41.707  21.269  25.424  1.00  0.00     0.163 HD
ATOM     22  O   UNL A   1      40.062  22.148  26.733  1.00  0.00    -0.269 OA
BRANCH  20  23
ATOM     23  C   UNL A   1      41.169  24.200  26.982  1.00  0.00     0.039 A 
ATOM     24  C   UNL A   1      41.848  24.563  28.145  1.00  0.00     0.014 A 
ATOM     25  C   UNL A   1      40.483  25.204  26.269  1.00  0.00     0.014 A 
ATOM     26  C   UNL A   1      41.756  25.868  28.633  1.00  0.00     0.010 A 
ATOM     27  C   UNL A   1      40.403  26.508  26.740  1.00  0.00     0.010 A 
ATOM     28  C   UNL A   1      40.996  26.827  27.954  1.00  0.00    -0.014 A 
BRANCH  28  29
ATOM     29  C   UNL A   1      40.927  28.183  28.501  1.00  0.00     0.031 A 
ATOM     30  C   UNL A   1      42.000  29.102  28.020  1.00  0.00     0.074 A 
ATOM     31  C   UNL A   1      39.923  28.622  29.289  1.00  0.00     0.049 A 
ATOM     32  N   UNL A   1      42.899  29.717  28.719  1.00  0.00    -0.248 NA
ATOM     33  C   UNL A   1      42.153  29.277  26.566  1.00  0.00     0.031 C 
ATOM     34  C   UNL A   1      38.670  27.941  29.628  1.00  0.00     0.029 A 
ATOM     35  N   UNL A   1      39.780  29.833  29.903  1.00  0.00    -0.354 N 
ATOM     36  C   UNL A   1      43.638  30.480  27.815  1.00  0.00     0.074 A 
ATOM     37  C   UNL A   1      43.218  30.077  26.499  1.00  0.00     0.031 C 
ATOM     38  C   UNL A   1      37.813  28.824  30.190  1.00  0.00     0.029 A 
ATOM     39  C   UNL A   1      38.501  30.088  30.387  1.00  0.00     0.049 A 
ATOM     40  H   UNL A   1      40.522  30.474  29.995  1.00  0.00     0.167 HD
ATOM     41  C   UNL A   1      44.403  31.530  28.225  1.00  0.00     0.037 A 
ATOM     42  C   UNL A   1      38.034  31.269  30.866  1.00  0.00     0.037 A 
ATOM     43  C   UNL A   1      44.707  31.444  29.627  1.00  0.00     0.049 A 
ATOM     44  C   UNL A   1      39.211  32.085  31.249  1.00  0.00     0.074 A 
ATOM     45  C   UNL A   1      45.416  30.561  30.417  1.00  0.00     0.029 A 
ATOM     46  N   UNL A   1      43.966  32.203  30.495  1.00  0.00    -0.354 N 
ATOM     47  N   UNL A   1      40.004  31.803  32.243  1.00  0.00    -0.248 NA
ATOM     48  C   UNL A   1      39.752  32.994  30.251  1.00  0.00     0.031 C 
ATOM     49  C   UNL A   1      44.698  30.509  31.648  1.00  0.00     0.029 A 
ATOM     50  C   UNL A   1      43.631  31.402  31.554  1.00  0.00     0.049 A 
ATOM     51  H   UNL A   1      43.720  33.149  30.377  1.00  0.00     0.167 HD
ATOM     52  C   UNL A   1      41.268  32.137  31.786  1.00  0.00     0.074 A 
ATOM     53  C   UNL A   1      41.042  32.947  30.591  1.00  0.00     0.031 C 
ATOM     54  C   UNL A   1      42.375  31.494  32.258  1.00  0.00     0.037 A 
BRANCH  41  55
ATOM     55  C   UNL A   1      44.578  32.811  27.445  1.00  0.00     0.064 A 
ATOM     56  C   UNL A   1      45.757  33.013  26.697  1.00  0.00     0.173 A 
ATOM     57  C   UNL A   1      43.786  33.961  27.653  1.00  0.00     0.173 A 
ATOM     58  F   UNL A   1      46.598  31.996  26.457  1.00  0.00    -0.203 F 
ATOM     59  C   UNL A   1      46.148  34.284  26.262  1.00  0.00     0.198 A 
ATOM     60  C   UNL A   1      44.154  35.218  27.172  1.00  0.00     0.198 A 
ATOM     61  F   UNL A   1      42.692  33.941  28.421  1.00  0.00    -0.203 F 
ATOM     62  F   UNL A   1      47.338  34.446  25.667  1.00  0.00    -0.200 F 
ATOM     63  C   UNL A   1      45.349  35.385  26.505  1.00  0.00     0.200 A 
ATOM     64  F   UNL A   1      43.377  36.277  27.438  1.00  0.00    -0.200 F 
ATOM     65  F   UNL A   1      45.751  36.611  26.148  1.00  0.00    -0.200 F 
ENDBRANCH  41  55
BRANCH  42  66
ATOM     66  C   UNL A   1      36.692  31.881  30.687  1.00  0.00     0.064 A 
ATOM     67  C   UNL A   1      35.871  32.156  31.797  1.00  0.00     0.173 A 
ATOM     68  C   UNL A   1      36.323  32.491  29.473  1.00  0.00     0.173 A 
ATOM     69  F   UNL A   1      36.172  31.650  33.001  1.00  0.00    -0.203 F 
ATOM     70  C   UNL A   1      34.777  33.025  31.706  1.00  0.00     0.198 A 
ATOM     71  C   UNL A   1      35.227  33.352  29.383  1.00  0.00     0.198 A 
ATOM     72  F   UNL A   1      37.078  32.349  28.376  1.00  0.00    -0.203 F 
ATOM     73  F   UNL A   1      34.065  33.322  32.802  1.00  0.00    -0.200 F 
ATOM     74  C   UNL A   1      34.465  33.633  30.501  1.00  0.00     0.200 A 
ATOM     75  F   UNL A   1      34.959  33.964  28.221  1.00  0.00    -0.200 F 
ATOM     76  F   UNL A   1      33.464  34.521  30.429  1.00  0.00    -0.200 F 
ENDBRANCH  42  66
BRANCH  54  77
ATOM     77  C   UNL A   1      42.214  30.619  33.469  1.00  0.00     0.064 A 
ATOM     78  C   UNL A   1      42.236  31.095  34.792  1.00  0.00     0.173 A 
ATOM     79  C   UNL A   1      41.865  29.277  33.271  1.00  0.00     0.173 A 
ATOM     80  F   UNL A   1      42.469  32.386  35.058  1.00  0.00    -0.203 F 
ATOM     81  C   UNL A   1      41.950  30.254  35.866  1.00  0.00     0.198 A 
ATOM     82  C   UNL A   1      41.544  28.448  34.343  1.00  0.00     0.198 A 
ATOM     83  F   UNL A   1      41.776  28.782  32.027  1.00  0.00    -0.203 F 
ATOM     84  F   UNL A   1      41.978  30.729  37.120  1.00  0.00    -0.200 F 
ATOM     85  C   UNL A   1      41.594  28.934  35.640  1.00  0.00     0.200 A 
ATOM     86  F   UNL A   1      41.150  27.189  34.115  1.00  0.00    -0.200 F 
ATOM     87  F   UNL A   1      41.266  28.139  36.668  1.00  0.00    -0.200 F 
ENDBRANCH  54  77
ENDBRANCH  28  29
ENDBRANCH  20  23
ENDBRANCH   1  19
TORSDOF 10
ENDMDL
MODEL 3
REMARK VINA RESULT:     -13.2      4.010      9.187
REMARK SMILES Cc1ccc2n[nH]cc2c1C(=O)NCCCNC(=O)c1ccc(-c2c3nc(c(-c4c(F)c(F)c(F)c(F)c4F)c4ccc([nH]4)c(-c4c(F)c(F)c(F)c(F)c4F)c4nc(c(-c5c(F)c(F)c(F)c(F)c5F)c5ccc2[nH]5)C=C4)C=C3)cc1
REMARK SMILES IDX 16 1 15 2 14 3 13 4 11 5 12 6 10 8 1 9 2 10 3 11 4 12 9 13
REMARK SMILES IDX 5 14 8 15 6 16 7 17 17 19 18 20 19 22 20 23 21 24 82 25
REMARK SMILES IDX 22 26 81 27 23 28 24 29 25 30 75 31 26 32 80 33 74 34 76 35
REMARK SMILES IDX 27 36 79 37 73 38 72 39 28 41 60 42 40 43 59 44 41 45 44 46
REMARK SMILES IDX 58 47 77 48 42 49 43 50 57 52 78 53 45 54 29 55 30 56 38 57
REMARK SMILES IDX 31 58 32 59 36 60 39 61 33 62 34 63 37 64 35 65 61 66 62 67
REMARK SMILES IDX 70 68 63 69 64 70 68 71 71 72 65 73 66 74 69 75 67 76 46 77
REMARK SMILES IDX 47 78 55 79 48 80 49 81 53 82 56 83 50 84 51 85 54 86 52 87
REMARK H PARENT 13 7 7 18 17 21 76 40 44 51
REMARK Flexibility Score: inf
ROOT
ATOM      1  C   UNL A   1      40.057  21.594  26.657  1.00  0.00     0.118 C 
ENDROOT
BRANCH   1   2
ATOM      2  C   UNL A   1      38.811  21.607  25.775  1.00  0.00     0.042 C 
BRANCH   2   3
ATOM      3  C   UNL A   1      38.050  22.942  25.784  1.00  0.00     0.118 C 
BRANCH   3   4
ATOM      4  N   UNL A   1      37.427  23.181  24.501  1.00  0.00    -0.352 N 
ATOM      5  C   UNL A   1      36.162  23.170  23.982  1.00  0.00     0.252 C 
ATOM      6  O   UNL A   1      36.153  23.324  22.755  1.00  0.00    -0.269 OA
ATOM      7  H   UNL A   1      38.094  23.415  23.815  1.00  0.00     0.163 HD
BRANCH   5   8
ATOM      8  C   UNL A   1      34.851  23.044  24.708  1.00  0.00     0.053 A 
ATOM      9  C   UNL A   1      34.262  25.509  25.299  1.00  0.00     0.045 C 
ATOM     10  C   UNL A   1      33.979  24.033  25.279  1.00  0.00    -0.038 A 
ATOM     11  C   UNL A   1      32.746  23.705  25.976  1.00  0.00     0.006 A 
ATOM     12  C   UNL A   1      32.307  22.407  26.269  1.00  0.00     0.031 A 
ATOM     13  C   UNL A   1      34.373  21.746  25.051  1.00  0.00     0.033 A 
ATOM     14  C   UNL A   1      33.177  21.421  25.805  1.00  0.00     0.093 A 
ATOM     15  C   UNL A   1      34.939  20.526  24.762  1.00  0.00     0.114 A 
ATOM     16  N   UNL A   1      33.073  20.093  25.974  1.00  0.00    -0.176 NA
ATOM     17  N   UNL A   1      34.158  19.590  25.369  1.00  0.00    -0.284 N 
ATOM     18  H   UNL A   1      34.371  18.629  25.364  1.00  0.00     0.189 HD
ENDBRANCH   5   8
ENDBRANCH   3   4
ENDBRANCH   2   3
ENDBRANCH   1   2
BRANCH   1  19
ATOM     19  N   UNL A   1      41.253  22.019  25.962  1.00  0.00    -0.352 N 
ATOM     20  C   UNL A   1      41.987  23.166  25.908  1.00  0.00     0.251 C 
ATOM     21  H   UNL A   1      41.627  21.308  25.392  1.00  0.00     0.163 HD
ATOM     22  O   UNL A   1      43.004  23.113  25.203  1.00  0.00    -0.269 OA
BRANCH  20  23
ATOM     23  C   UNL A   1      41.646  24.461  26.559  1.00  0.00     0.039 A 
ATOM     24  C   UNL A   1      40.786  25.440  26.062  1.00  0.00     0.014 A 
ATOM     25  C   UNL A   1      42.308  24.711  27.779  1.00  0.00     0.014 A 
ATOM     26  C   UNL A   1      40.673  26.671  26.712  1.00  0.00     0.010 A 
ATOM     27  C   UNL A   1      42.185  25.926  28.439  1.00  0.00     0.010 A 
ATOM     28  C   UNL A   1      41.408  26.929  27.874  1.00  0.00    -0.014 A 
BRANCH  28  29
ATOM     29  C   UNL A   1      41.259  28.232  28.524  1.00  0.00     0.031 A 
ATOM     30  C   UNL A   1      42.345  29.208  28.218  1.00  0.00     0.074 A 
ATOM     31  C   UNL A   1      40.179  28.584  29.254  1.00  0.00     0.049 A 
ATOM     32  N   UNL A   1      43.165  29.777  29.042  1.00  0.00    -0.248 NA
ATOM     33  C   UNL A   1      42.619  29.508  26.802  1.00  0.00     0.031 C 
ATOM     34  C   UNL A   1      38.919  27.855  29.423  1.00  0.00     0.029 A 
ATOM     35  N   UNL A   1      39.953  29.735  29.952  1.00  0.00    -0.354 N 
ATOM     36  C   UNL A   1      43.960  30.627  28.273  1.00  0.00     0.074 A 
ATOM     37  C   UNL A   1      43.665  30.330  26.896  1.00  0.00     0.031 C 
ATOM     38  C   UNL A   1      37.995  28.671  29.980  1.00  0.00     0.029 A 
ATOM     39  C   UNL A   1      38.632  29.926  30.341  1.00  0.00     0.049 A 
ATOM     40  H   UNL A   1      40.669  30.380  30.162  1.00  0.00     0.167 HD
ATOM     41  C   UNL A   1      44.660  31.652  28.835  1.00  0.00     0.037 A 
ATOM     42  C   UNL A   1      38.096  31.053  30.874  1.00  0.00     0.037 A 
ATOM     43  C   UNL A   1      44.844  31.452  30.246  1.00  0.00     0.049 A 
ATOM     44  C   UNL A   1      39.215  31.855  31.426  1.00  0.00     0.074 A 
ATOM     45  C   UNL A   1      45.504  30.518  31.019  1.00  0.00     0.029 A 
ATOM     46  N   UNL A   1      44.012  32.120  31.105  1.00  0.00    -0.354 N 
ATOM     47  N   UNL A   1      39.925  31.503  32.459  1.00  0.00    -0.248 NA
ATOM     48  C   UNL A   1      39.816  32.855  30.558  1.00  0.00     0.031 C 
ATOM     49  C   UNL A   1      44.685  30.348  32.174  1.00  0.00     0.029 A 
ATOM     50  C   UNL A   1      43.607  31.227  32.060  1.00  0.00     0.049 A 
ATOM     51  H   UNL A   1      43.753  33.069  31.046  1.00  0.00     0.167 HD
ATOM     52  C   UNL A   1      41.216  31.897  32.144  1.00  0.00     0.074 A 
ATOM     53  C   UNL A   1      41.073  32.802  31.006  1.00  0.00     0.031 C 
ATOM     54  C   UNL A   1      42.293  31.236  32.656  1.00  0.00     0.037 A 
BRANCH  41  55
ATOM     55  C   UNL A   1      44.869  32.998  28.182  1.00  0.00     0.064 A 
ATOM     56  C   UNL A   1      46.171  33.395  27.813  1.00  0.00     0.173 A 
ATOM     57  C   UNL A   1      43.901  34.024  28.193  1.00  0.00     0.173 A 
ATOM     58  F   UNL A   1      47.176  32.508  27.790  1.00  0.00    -0.203 F 
ATOM     59  C   UNL A   1      46.490  34.732  27.553  1.00  0.00     0.198 A 
ATOM     60  C   UNL A   1      44.212  35.348  27.883  1.00  0.00     0.198 A 
ATOM     61  F   UNL A   1      42.648  33.816  28.614  1.00  0.00    -0.203 F 
ATOM     62  F   UNL A   1      47.765  35.081  27.331  1.00  0.00    -0.200 F 
ATOM     63  C   UNL A   1      45.511  35.707  27.594  1.00  0.00     0.200 A 
ATOM     64  F   UNL A   1      43.254  36.282  27.950  1.00  0.00    -0.200 F 
ATOM     65  F   UNL A   1      45.825  36.996  27.409  1.00  0.00    -0.200 F 
ENDBRANCH  41  55
BRANCH  42  66
ATOM     66  C   UNL A   1      36.759  31.654  30.630  1.00  0.00     0.064 A 
ATOM     67  C   UNL A   1      35.884  31.925  31.698  1.00  0.00     0.173 A 
ATOM     68  C   UNL A   1      36.444  32.259  29.398  1.00  0.00     0.173 A 
ATOM     69  F   UNL A   1      36.130  31.423  32.917  1.00  0.00    -0.203 F 
ATOM     70  C   UNL A   1      34.788  32.784  31.552  1.00  0.00     0.198 A 
ATOM     71  C   UNL A   1      35.347  33.111  29.253  1.00  0.00     0.198 A 
ATOM     72  F   UNL A   1      37.252  32.121  28.338  1.00  0.00    -0.203 F 
ATOM     73  F   UNL A   1      34.022  33.078  32.612  1.00  0.00    -0.200 F 
ATOM     74  C   UNL A   1      34.530  33.388  30.333  1.00  0.00     0.200 A 
ATOM     75  F   UNL A   1      35.131  33.718  28.078  1.00  0.00    -0.200 F 
ATOM     76  F   UNL A   1      33.526  34.268  30.210  1.00  0.00    -0.200 F 
ENDBRANCH  42  66
BRANCH  54  77
ATOM     77  C   UNL A   1      42.051  30.258  33.771  1.00  0.00     0.064 A 
ATOM     78  C   UNL A   1      41.678  28.916  33.574  1.00  0.00     0.173 A 
ATOM     79  C   UNL A   1      42.366  30.655  35.077  1.00  0.00     0.173 A 
ATOM     80  F   UNL A   1      41.452  28.435  32.345  1.00  0.00    -0.203 F 
ATOM     81  C   UNL A   1      41.597  28.026  34.643  1.00  0.00     0.198 A 
ATOM     82  C   UNL A   1      42.319  29.755  36.138  1.00  0.00     0.198 A 
ATOM     83  F   UNL A   1      42.778  31.910  35.316  1.00  0.00    -0.203 F 
ATOM     84  F   UNL A   1      41.239  26.750  34.432  1.00  0.00    -0.200 F 
ATOM     85  C   UNL A   1      41.928  28.443  35.922  1.00  0.00     0.200 A 
ATOM     86  F   UNL A   1      42.690  30.150  37.362  1.00  0.00    -0.200 F 
ATOM     87  F   UNL A   1      41.903  27.574  36.942  1.00  0.00    -0.200 F 
ENDBRANCH  54  77
ENDBRANCH  28  29
ENDBRANCH  20  23
ENDBRANCH   1  19
TORSDOF 10
ENDMDL
