MODEL 1
REMARK VINA RESULT:     -13.4      0.000      0.000
REMARK SMILES O=C(NCCCNC(=O)c1cc(S(=O)(=O)ON2C(=O)c3cccc4cccc(c34)C2=O)ccc1Br)c1ccc(-c2c3nc(c(-c4c(F)c(F)c(F)c(F)c4F)c4ccc([nH]4)c(-c4c(F)c(F)c(F)c(F)c4F)c4nc(c(-c5c(F)c(F)c(F)c(F)c5F)c5ccc2[nH]5)C=C4)C=C3)cc1
REMARK SMILES IDX 5 1 4 2 3 3 1 4 2 5 36 7 37 8 98 9 38 10 97 11 39 12 40 13
REMARK SMILES IDX 41 14 91 15 42 16 96 17 90 18 92 19 43 20 95 21 89 22 88 23
REMARK SMILES IDX 44 25 76 26 56 27 75 28 57 29 60 30 74 31 93 32 58 33 59 34
REMARK SMILES IDX 73 36 94 37 61 38 45 39 46 40 54 41 47 42 48 43 52 44 55 45
REMARK SMILES IDX 49 46 50 47 53 48 51 49 77 50 78 51 86 52 79 53 80 54 84 55
REMARK SMILES IDX 87 56 81 57 82 58 85 59 83 60 62 61 63 62 71 63 64 64 65 65
REMARK SMILES IDX 69 66 72 67 66 68 67 69 70 70 68 71 6 72 7 73 8 74 9 76
REMARK SMILES IDX 10 77 11 78 34 79 12 80 33 81 35 82 32 83 13 84 14 85 15 86
REMARK SMILES IDX 16 87 17 88 18 89 30 90 19 91 20 92 28 93 31 94 21 95 29 96
REMARK SMILES IDX 27 97 22 98 24 99 26 100 23 101 25 102
REMARK H PARENT 3 6 92 24 60 35 7 75
REMARK Flexibility Score: inf
ROOT
ATOM      1  C   UNL A   1      33.892  28.093  25.834  1.00  0.00     0.042 C 
ENDROOT
BRANCH   1   2
ATOM      2  C   UNL A   1      33.796  28.432  27.314  1.00  0.00     0.118 C 
BRANCH   2   3
ATOM      3  N   UNL A   1      33.701  29.864  27.570  1.00  0.00    -0.352 N 
ATOM      4  O   UNL A   1      34.222  31.873  28.441  1.00  0.00    -0.269 OA
ATOM      5  C   UNL A   1      34.577  30.727  28.181  1.00  0.00     0.251 C 
ATOM      6  H   UNL A   1      32.868  30.282  27.253  1.00  0.00     0.163 HD
BRANCH   5   7
ATOM      7  C   UNL A   1      35.938  30.282  28.554  1.00  0.00     0.039 A 
ATOM      8  C   UNL A   1      36.192  29.710  29.800  1.00  0.00     0.014 A 
ATOM      9  C   UNL A   1      36.976  30.412  27.625  1.00  0.00     0.014 A 
ATOM     10  C   UNL A   1      37.500  29.439  30.185  1.00  0.00     0.010 A 
ATOM     11  C   UNL A   1      38.277  30.036  27.975  1.00  0.00     0.010 A 
ATOM     12  C   UNL A   1      38.556  29.583  29.272  1.00  0.00    -0.014 A 
BRANCH  12  13
ATOM     13  C   UNL A   1      39.930  29.196  29.684  1.00  0.00     0.031 A 
ATOM     14  C   UNL A   1      40.709  30.025  30.664  1.00  0.00     0.074 A 
ATOM     15  C   UNL A   1      40.460  28.064  29.181  1.00  0.00     0.049 A 
ATOM     16  N   UNL A   1      41.918  29.830  31.132  1.00  0.00    -0.248 NA
ATOM     17  C   UNL A   1      40.056  31.234  31.184  1.00  0.00     0.031 C 
ATOM     18  C   UNL A   1      39.800  27.184  28.215  1.00  0.00     0.029 A 
ATOM     19  N   UNL A   1      41.664  27.452  29.419  1.00  0.00    -0.354 N 
ATOM     20  C   UNL A   1      42.176  30.898  31.980  1.00  0.00     0.074 A 
ATOM     21  C   UNL A   1      41.010  31.754  31.945  1.00  0.00     0.031 C 
ATOM     22  C   UNL A   1      40.584  26.123  27.978  1.00  0.00     0.029 A 
ATOM     23  C   UNL A   1      41.830  26.283  28.720  1.00  0.00     0.049 A 
ATOM     24  H   UNL A   1      42.343  27.816  30.032  1.00  0.00     0.167 HD
ATOM     25  C   UNL A   1      43.283  31.135  32.727  1.00  0.00     0.037 A 
ATOM     26  C   UNL A   1      42.878  25.440  28.661  1.00  0.00     0.037 A 
ATOM     27  C   UNL A   1      44.434  30.269  32.768  1.00  0.00     0.049 A 
ATOM     28  C   UNL A   1      44.101  25.744  29.476  1.00  0.00     0.074 A 
ATOM     29  C   UNL A   1      45.588  30.402  33.520  1.00  0.00     0.029 A 
ATOM     30  N   UNL A   1      44.577  29.106  32.022  1.00  0.00    -0.354 N 
ATOM     31  N   UNL A   1      44.321  26.741  30.298  1.00  0.00    -0.248 NA
ATOM     32  C   UNL A   1      45.225  24.807  29.352  1.00  0.00     0.031 C 
ATOM     33  C   UNL A   1      46.451  29.351  33.191  1.00  0.00     0.029 A 
ATOM     34  C   UNL A   1      45.811  28.529  32.277  1.00  0.00     0.049 A 
ATOM     35  H   UNL A   1      43.901  28.746  31.404  1.00  0.00     0.167 HD
ATOM     36  C   UNL A   1      45.597  26.543  30.804  1.00  0.00     0.074 A 
ATOM     37  C   UNL A   1      46.095  25.320  30.210  1.00  0.00     0.031 C 
ATOM     38  C   UNL A   1      46.292  27.309  31.678  1.00  0.00     0.037 A 
BRANCH  25  39
ATOM     39  C   UNL A   1      43.316  32.394  33.546  1.00  0.00     0.064 A 
ATOM     40  C   UNL A   1      43.831  33.596  33.037  1.00  0.00     0.173 A 
ATOM     41  C   UNL A   1      42.783  32.410  34.845  1.00  0.00     0.173 A 
ATOM     42  F   UNL A   1      44.362  33.634  31.805  1.00  0.00    -0.203 F 
ATOM     43  C   UNL A   1      43.835  34.758  33.805  1.00  0.00     0.198 A 
ATOM     44  C   UNL A   1      42.762  33.580  35.599  1.00  0.00     0.198 A 
ATOM     45  F   UNL A   1      42.270  31.291  35.378  1.00  0.00    -0.203 F 
ATOM     46  F   UNL A   1      44.372  35.883  33.314  1.00  0.00    -0.200 F 
ATOM     47  C   UNL A   1      43.295  34.750  35.082  1.00  0.00     0.200 A 
ATOM     48  F   UNL A   1      42.226  33.574  36.828  1.00  0.00    -0.200 F 
ATOM     49  F   UNL A   1      43.292  35.872  35.816  1.00  0.00    -0.200 F 
ENDBRANCH  25  39
BRANCH  26  50
ATOM     50  C   UNL A   1      42.807  24.240  27.791  1.00  0.00     0.064 A 
ATOM     51  C   UNL A   1      43.071  24.327  26.417  1.00  0.00     0.173 A 
ATOM     52  C   UNL A   1      42.496  22.978  28.317  1.00  0.00     0.173 A 
ATOM     53  F   UNL A   1      43.356  25.515  25.864  1.00  0.00    -0.203 F 
ATOM     54  C   UNL A   1      43.014  23.199  25.602  1.00  0.00     0.198 A 
ATOM     55  C   UNL A   1      42.470  21.846  27.506  1.00  0.00     0.198 A 
ATOM     56  F   UNL A   1      42.241  22.840  29.627  1.00  0.00    -0.203 F 
ATOM     57  F   UNL A   1      43.232  23.316  24.285  1.00  0.00    -0.200 F 
ATOM     58  C   UNL A   1      42.721  21.958  26.148  1.00  0.00     0.200 A 
ATOM     59  F   UNL A   1      42.205  20.647  28.043  1.00  0.00    -0.200 F 
ATOM     60  F   UNL A   1      42.676  20.873  25.365  1.00  0.00    -0.200 F 
ENDBRANCH  26  50
BRANCH  38  61
ATOM     61  C   UNL A   1      47.659  26.827  32.071  1.00  0.00     0.064 A 
ATOM     62  C   UNL A   1      47.842  25.900  33.108  1.00  0.00     0.173 A 
ATOM     63  C   UNL A   1      48.795  27.279  31.383  1.00  0.00     0.173 A 
ATOM     64  F   UNL A   1      46.789  25.452  33.808  1.00  0.00    -0.203 F 
ATOM     65  C   UNL A   1      49.118  25.463  33.458  1.00  0.00     0.198 A 
ATOM     66  C   UNL A   1      50.065  26.817  31.716  1.00  0.00     0.198 A 
ATOM     67  F   UNL A   1      48.672  28.162  30.380  1.00  0.00    -0.203 F 
ATOM     68  F   UNL A   1      49.274  24.617  34.485  1.00  0.00    -0.200 F 
ATOM     69  C   UNL A   1      50.225  25.916  32.758  1.00  0.00     0.200 A 
ATOM     70  F   UNL A   1      51.133  27.246  31.030  1.00  0.00    -0.200 F 
ATOM     71  F   UNL A   1      51.451  25.491  33.093  1.00  0.00    -0.200 F 
ENDBRANCH  38  61
ENDBRANCH  12  13
ENDBRANCH   5   7
ENDBRANCH   2   3
ENDBRANCH   1   2
BRANCH   1  72
ATOM     72  C   UNL A   1      33.267  29.133  24.918  1.00  0.00     0.118 C 
BRANCH  72  73
ATOM     73  N   UNL A   1      33.816  29.096  23.570  1.00  0.00    -0.352 N 
ATOM     74  C   UNL A   1      33.564  28.218  22.549  1.00  0.00     0.252 C 
ATOM     75  H   UNL A   1      34.463  29.808  23.361  1.00  0.00     0.163 HD
ATOM     76  O   UNL A   1      34.186  28.297  21.494  1.00  0.00    -0.269 OA
BRANCH  74  77
ATOM     77  C   UNL A   1      32.594  27.124  22.736  1.00  0.00     0.055 A 
ATOM     78  C   UNL A   1      33.116  25.825  22.782  1.00  0.00     0.038 A 
ATOM     79  C   UNL A   1      31.211  27.332  22.829  1.00  0.00     0.030 A 
ATOM     80  C   UNL A   1      32.250  24.747  22.985  1.00  0.00     0.097 A 
ATOM     81  C   UNL A   1      30.365  26.249  23.087  1.00  0.00     0.018 A 
ATOM     82  Br  UNL A   1      30.391  29.024  22.550  1.00  0.00    -0.050 Br
ATOM     83  C   UNL A   1      30.882  24.955  23.174  1.00  0.00     0.024 A 
BRANCH  80  84
ATOM     84  S   UNL A   1      32.927  23.101  22.987  1.00  0.00     0.318 S 
ATOM     85  O   UNL A   1      31.852  22.215  22.578  1.00  0.00    -0.192 OA
ATOM     86  O   UNL A   1      34.159  23.167  22.234  1.00  0.00    -0.192 OA
BRANCH  84  87
ATOM     87  O   UNL A   1      33.278  22.819  24.560  1.00  0.00    -0.134 OA
BRANCH  87  88
ATOM     88  N   UNL A   1      34.639  22.519  24.778  1.00  0.00    -0.127 N 
ATOM     89  C   UNL A   1      35.363  23.535  25.372  1.00  0.00     0.286 C 
ATOM     90  C   UNL A   1      34.957  21.176  24.701  1.00  0.00     0.286 C 
ATOM     91  O   UNL A   1      34.905  24.631  25.682  1.00  0.00    -0.266 OA
ATOM     92  C   UNL A   1      36.767  23.191  25.692  1.00  0.00     0.051 A 
ATOM     93  C   UNL A   1      36.371  20.857  25.014  1.00  0.00     0.051 A 
ATOM     94  O   UNL A   1      34.156  20.281  24.459  1.00  0.00    -0.266 OA
ATOM     95  C   UNL A   1      37.620  24.180  26.196  1.00  0.00     0.014 A 
ATOM     96  C   UNL A   1      37.215  21.873  25.498  1.00  0.00     0.007 A 
ATOM     97  C   UNL A   1      36.839  19.550  24.840  1.00  0.00     0.014 A 
ATOM     98  C   UNL A   1      38.937  23.860  26.509  1.00  0.00     0.001 A 
ATOM     99  C   UNL A   1      38.554  21.553  25.819  1.00  0.00    -0.017 A 
ATOM    100  C   UNL A   1      38.161  19.243  25.150  1.00  0.00     0.001 A 
ATOM    101  C   UNL A   1      39.400  22.556  26.321  1.00  0.00     0.009 A 
ATOM    102  C   UNL A   1      39.011  20.237  25.638  1.00  0.00     0.009 A 
ENDBRANCH  87  88
ENDBRANCH  84  87
ENDBRANCH  80  84
ENDBRANCH  74  77
ENDBRANCH  72  73
ENDBRANCH   1  72
TORSDOF 13
ENDMDL
MODEL 2
REMARK VINA RESULT:     -13.3      3.931      9.059
REMARK SMILES O=C(NCCCNC(=O)c1cc(S(=O)(=O)ON2C(=O)c3cccc4cccc(c34)C2=O)ccc1Br)c1ccc(-c2c3nc(c(-c4c(F)c(F)c(F)c(F)c4F)c4ccc([nH]4)c(-c4c(F)c(F)c(F)c(F)c4F)c4nc(c(-c5c(F)c(F)c(F)c(F)c5F)c5ccc2[nH]5)C=C4)C=C3)cc1
REMARK SMILES IDX 5 1 4 2 3 3 1 4 2 5 36 7 37 8 98 9 38 10 97 11 39 12 40 13
REMARK SMILES IDX 41 14 91 15 42 16 96 17 90 18 92 19 43 20 95 21 89 22 88 23
REMARK SMILES IDX 44 25 76 26 56 27 75 28 57 29 60 30 74 31 93 32 58 33 59 34
REMARK SMILES IDX 73 36 94 37 61 38 45 39 46 40 54 41 47 42 48 43 52 44 55 45
REMARK SMILES IDX 49 46 50 47 53 48 51 49 77 50 78 51 86 52 79 53 80 54 84 55
REMARK SMILES IDX 87 56 81 57 82 58 85 59 83 60 62 61 63 62 71 63 64 64 65 65
REMARK SMILES IDX 69 66 72 67 66 68 67 69 70 70 68 71 6 72 7 73 8 74 9 76
REMARK SMILES IDX 10 77 11 78 34 79 12 80 33 81 35 82 32 83 13 84 14 85 15 86
REMARK SMILES IDX 16 87 17 88 18 89 30 90 19 91 20 92 28 93 31 94 21 95 29 96
REMARK SMILES IDX 27 97 22 98 24 99 26 100 23 101 25 102
REMARK H PARENT 3 6 92 24 60 35 7 75
REMARK Flexibility Score: inf
ROOT
ATOM      1  C   UNL A   1      35.954  22.212  25.211  1.00  0.00     0.042 C 
ENDROOT
BRANCH   1   2
ATOM      2  C   UNL A   1      37.435  22.154  24.866  1.00  0.00     0.118 C 
BRANCH   2   3
ATOM      3  N   UNL A   1      38.149  21.101  25.576  1.00  0.00    -0.352 N 
ATOM      4  O   UNL A   1      39.810  20.106  26.723  1.00  0.00    -0.269 OA
ATOM      5  C   UNL A   1      39.281  21.149  26.352  1.00  0.00     0.251 C 
ATOM      6  H   UNL A   1      37.754  20.204  25.484  1.00  0.00     0.163 HD
BRANCH   5   7
ATOM      7  C   UNL A   1      39.887  22.447  26.722  1.00  0.00     0.039 A 
ATOM      8  C   UNL A   1      39.385  23.647  26.217  1.00  0.00     0.014 A 
ATOM      9  C   UNL A   1      40.961  22.467  27.619  1.00  0.00     0.014 A 
ATOM     10  C   UNL A   1      40.060  24.838  26.458  1.00  0.00     0.010 A 
ATOM     11  C   UNL A   1      41.574  23.681  27.947  1.00  0.00     0.010 A 
ATOM     12  C   UNL A   1      41.152  24.872  27.339  1.00  0.00    -0.014 A 
BRANCH  12  13
ATOM     13  C   UNL A   1      41.794  26.175  27.648  1.00  0.00     0.031 A 
ATOM     14  C   UNL A   1      43.150  26.522  27.103  1.00  0.00     0.074 A 
ATOM     15  C   UNL A   1      41.124  27.060  28.411  1.00  0.00     0.049 A 
ATOM     16  N   UNL A   1      43.854  27.615  27.274  1.00  0.00    -0.248 NA
ATOM     17  C   UNL A   1      43.810  25.513  26.262  1.00  0.00     0.031 C 
ATOM     18  C   UNL A   1      39.805  26.830  29.004  1.00  0.00     0.029 A 
ATOM     19  N   UNL A   1      41.448  28.333  28.807  1.00  0.00    -0.354 N 
ATOM     20  C   UNL A   1      45.041  27.416  26.582  1.00  0.00     0.074 A 
ATOM     21  C   UNL A   1      44.978  26.089  26.010  1.00  0.00     0.031 C 
ATOM     22  C   UNL A   1      39.412  27.938  29.647  1.00  0.00     0.029 A 
ATOM     23  C   UNL A   1      40.478  28.930  29.573  1.00  0.00     0.049 A 
ATOM     24  H   UNL A   1      42.294  28.774  28.566  1.00  0.00     0.167 HD
ATOM     25  C   UNL A   1      46.084  28.270  26.433  1.00  0.00     0.037 A 
ATOM     26  C   UNL A   1      40.456  30.136  30.171  1.00  0.00     0.037 A 
ATOM     27  C   UNL A   1      46.132  29.597  26.993  1.00  0.00     0.049 A 
ATOM     28  C   UNL A   1      41.636  31.048  30.012  1.00  0.00     0.074 A 
ATOM     29  C   UNL A   1      47.126  30.552  26.868  1.00  0.00     0.029 A 
ATOM     30  N   UNL A   1      45.141  30.157  27.789  1.00  0.00    -0.354 N 
ATOM     31  N   UNL A   1      42.741  30.861  29.331  1.00  0.00    -0.248 NA
ATOM     32  C   UNL A   1      41.570  32.339  30.709  1.00  0.00     0.031 C 
ATOM     33  C   UNL A   1      46.763  31.668  27.629  1.00  0.00     0.029 A 
ATOM     34  C   UNL A   1      45.514  31.433  28.183  1.00  0.00     0.049 A 
ATOM     35  H   UNL A   1      44.298  29.713  28.036  1.00  0.00     0.167 HD
ATOM     36  C   UNL A   1      43.492  32.014  29.501  1.00  0.00     0.074 A 
ATOM     37  C   UNL A   1      42.709  32.904  30.333  1.00  0.00     0.031 C 
ATOM     38  C   UNL A   1      44.722  32.306  29.012  1.00  0.00     0.037 A 
BRANCH  25  39
ATOM     39  C   UNL A   1      47.273  27.791  25.650  1.00  0.00     0.064 A 
ATOM     40  C   UNL A   1      47.305  27.840  24.248  1.00  0.00     0.173 A 
ATOM     41  C   UNL A   1      48.416  27.319  26.314  1.00  0.00     0.173 A 
ATOM     42  F   UNL A   1      46.236  28.274  23.563  1.00  0.00    -0.203 F 
ATOM     43  C   UNL A   1      48.425  27.409  23.540  1.00  0.00     0.198 A 
ATOM     44  C   UNL A   1      49.544  26.916  25.604  1.00  0.00     0.198 A 
ATOM     45  F   UNL A   1      48.443  27.258  27.654  1.00  0.00    -0.203 F 
ATOM     46  F   UNL A   1      48.416  27.424  22.200  1.00  0.00    -0.200 F 
ATOM     47  C   UNL A   1      49.546  26.955  24.219  1.00  0.00     0.200 A 
ATOM     48  F   UNL A   1      50.632  26.491  26.263  1.00  0.00    -0.200 F 
ATOM     49  F   UNL A   1      50.625  26.549  23.536  1.00  0.00    -0.200 F 
ENDBRANCH  25  39
BRANCH  26  50
ATOM     50  C   UNL A   1      39.274  30.533  30.978  1.00  0.00     0.064 A 
ATOM     51  C   UNL A   1      39.151  30.144  32.318  1.00  0.00     0.173 A 
ATOM     52  C   UNL A   1      38.256  31.329  30.432  1.00  0.00     0.173 A 
ATOM     53  F   UNL A   1      40.091  29.368  32.879  1.00  0.00    -0.203 F 
ATOM     54  C   UNL A   1      38.047  30.523  33.077  1.00  0.00     0.198 A 
ATOM     55  C   UNL A   1      37.169  31.734  31.202  1.00  0.00     0.198 A 
ATOM     56  F   UNL A   1      38.330  31.733  29.155  1.00  0.00    -0.203 F 
ATOM     57  F   UNL A   1      37.933  30.105  34.345  1.00  0.00    -0.200 F 
ATOM     58  C   UNL A   1      37.061  31.325  32.522  1.00  0.00     0.200 A 
ATOM     59  F   UNL A   1      36.229  32.524  30.664  1.00  0.00    -0.200 F 
ATOM     60  F   UNL A   1      36.005  31.699  33.256  1.00  0.00    -0.200 F 
ENDBRANCH  26  50
BRANCH  38  61
ATOM     61  C   UNL A   1      45.282  33.660  29.341  1.00  0.00     0.064 A 
ATOM     62  C   UNL A   1      46.095  33.865  30.466  1.00  0.00     0.173 A 
ATOM     63  C   UNL A   1      45.024  34.757  28.506  1.00  0.00     0.173 A 
ATOM     64  F   UNL A   1      46.356  32.852  31.306  1.00  0.00    -0.203 F 
ATOM     65  C   UNL A   1      46.607  35.128  30.756  1.00  0.00     0.198 A 
ATOM     66  C   UNL A   1      45.562  36.010  28.782  1.00  0.00     0.198 A 
ATOM     67  F   UNL A   1      44.257  34.611  27.415  1.00  0.00    -0.203 F 
ATOM     68  F   UNL A   1      47.339  35.313  31.863  1.00  0.00    -0.200 F 
ATOM     69  C   UNL A   1      46.346  36.196  29.911  1.00  0.00     0.200 A 
ATOM     70  F   UNL A   1      45.319  37.038  27.958  1.00  0.00    -0.200 F 
ATOM     71  F   UNL A   1      46.844  37.409  30.189  1.00  0.00    -0.200 F 
ENDBRANCH  38  61
ENDBRANCH  12  13
ENDBRANCH   5   7
ENDBRANCH   2   3
ENDBRANCH   1   2
BRANCH   1  72
ATOM     72  C   UNL A   1      35.598  23.273  26.240  1.00  0.00     0.118 C 
BRANCH  72  73
ATOM     73  N   UNL A   1      34.770  22.753  27.319  1.00  0.00    -0.352 N 
ATOM     74  C   UNL A   1      33.411  22.591  27.376  1.00  0.00     0.252 C 
ATOM     75  H   UNL A   1      35.260  22.477  28.127  1.00  0.00     0.163 HD
ATOM     76  O   UNL A   1      32.874  22.206  28.410  1.00  0.00    -0.269 OA
BRANCH  74  77
ATOM     77  C   UNL A   1      32.574  22.948  26.216  1.00  0.00     0.055 A 
ATOM     78  C   UNL A   1      32.024  24.237  26.214  1.00  0.00     0.038 A 
ATOM     79  C   UNL A   1      32.291  22.059  25.171  1.00  0.00     0.030 A 
ATOM     80  C   UNL A   1      31.245  24.645  25.129  1.00  0.00     0.097 A 
ATOM     81  C   UNL A   1      31.554  22.500  24.068  1.00  0.00     0.018 A 
ATOM     82  Br  UNL A   1      32.798  20.227  25.196  1.00  0.00    -0.050 Br
ATOM     83  C   UNL A   1      31.036  23.797  24.039  1.00  0.00     0.024 A 
BRANCH  80  84
ATOM     84  S   UNL A   1      30.512  26.267  25.170  1.00  0.00     0.318 S 
ATOM     85  O   UNL A   1      29.342  26.210  24.312  1.00  0.00    -0.192 OA
ATOM     86  O   UNL A   1      30.391  26.623  26.565  1.00  0.00    -0.192 OA
BRANCH  84  87
ATOM     87  O   UNL A   1      31.637  27.227  24.471  1.00  0.00    -0.134 OA
BRANCH  87  88
ATOM     88  N   UNL A   1      32.100  28.249  25.326  1.00  0.00    -0.127 N 
ATOM     89  C   UNL A   1      33.357  28.028  25.856  1.00  0.00     0.286 C 
ATOM     90  C   UNL A   1      31.413  29.444  25.228  1.00  0.00     0.286 C 
ATOM     91  O   UNL A   1      34.040  27.031  25.644  1.00  0.00    -0.266 OA
ATOM     92  C   UNL A   1      33.889  29.141  26.675  1.00  0.00     0.051 A 
ATOM     93  C   UNL A   1      31.956  30.540  26.066  1.00  0.00     0.051 A 
ATOM     94  O   UNL A   1      30.465  29.646  24.477  1.00  0.00    -0.266 OA
ATOM     95  C   UNL A   1      35.105  28.980  27.348  1.00  0.00     0.014 A 
ATOM     96  C   UNL A   1      33.169  30.347  26.751  1.00  0.00     0.007 A 
ATOM     97  C   UNL A   1      31.265  31.754  26.148  1.00  0.00     0.014 A 
ATOM     98  C   UNL A   1      35.615  30.025  28.111  1.00  0.00     0.001 A 
ATOM     99  C   UNL A   1      33.693  31.406  27.526  1.00  0.00    -0.017 A 
ATOM    100  C   UNL A   1      31.781  32.791  26.920  1.00  0.00     0.001 A 
ATOM    101  C   UNL A   1      34.913  31.230  28.199  1.00  0.00     0.009 A 
ATOM    102  C   UNL A   1      32.987  32.619  27.602  1.00  0.00     0.009 A 
ENDBRANCH  87  88
ENDBRANCH  84  87
ENDBRANCH  80  84
ENDBRANCH  74  77
ENDBRANCH  72  73
ENDBRANCH   1  72
TORSDOF 13
ENDMDL
MODEL 3
REMARK VINA RESULT:     -13.2      3.835      9.258
REMARK SMILES O=C(NCCCNC(=O)c1cc(S(=O)(=O)ON2C(=O)c3cccc4cccc(c34)C2=O)ccc1Br)c1ccc(-c2c3nc(c(-c4c(F)c(F)c(F)c(F)c4F)c4ccc([nH]4)c(-c4c(F)c(F)c(F)c(F)c4F)c4nc(c(-c5c(F)c(F)c(F)c(F)c5F)c5ccc2[nH]5)C=C4)C=C3)cc1
REMARK SMILES IDX 5 1 4 2 3 3 1 4 2 5 36 7 37 8 98 9 38 10 97 11 39 12 40 13
REMARK SMILES IDX 41 14 91 15 42 16 96 17 90 18 92 19 43 20 95 21 89 22 88 23
REMARK SMILES IDX 44 25 76 26 56 27 75 28 57 29 60 30 74 31 93 32 58 33 59 34
REMARK SMILES IDX 73 36 94 37 61 38 45 39 46 40 54 41 47 42 48 43 52 44 55 45
REMARK SMILES IDX 49 46 50 47 53 48 51 49 77 50 78 51 86 52 79 53 80 54 84 55
REMARK SMILES IDX 87 56 81 57 82 58 85 59 83 60 62 61 63 62 71 63 64 64 65 65
REMARK SMILES IDX 69 66 72 67 66 68 67 69 70 70 68 71 6 72 7 73 8 74 9 76
REMARK SMILES IDX 10 77 11 78 34 79 12 80 33 81 35 82 32 83 13 84 14 85 15 86
REMARK SMILES IDX 16 87 17 88 18 89 30 90 19 91 20 92 28 93 31 94 21 95 29 96
REMARK SMILES IDX 27 97 22 98 24 99 26 100 23 101 25 102
REMARK H PARENT 3 6 92 24 60 35 7 75
REMARK Flexibility Score: inf
ROOT
ATOM      1  C   UNL A   1      37.779  19.578  24.993  1.00  0.00     0.042 C 
ENDROOT
BRANCH   1   2
ATOM      2  C   UNL A   1      38.975  20.173  25.722  1.00  0.00     0.118 C 
BRANCH   2   3
ATOM      3  N   UNL A   1      40.069  19.226  25.898  1.00  0.00    -0.352 N 
ATOM      4  O   UNL A   1      42.186  18.490  26.103  1.00  0.00    -0.269 OA
ATOM      5  C   UNL A   1      41.402  19.432  26.158  1.00  0.00     0.251 C 
ATOM      6  H   UNL A   1      39.809  18.280  25.816  1.00  0.00     0.163 HD
BRANCH   5   7
ATOM      7  C   UNL A   1      41.908  20.786  26.476  1.00  0.00     0.039 A 
ATOM      8  C   UNL A   1      42.145  21.175  27.795  1.00  0.00     0.014 A 
ATOM      9  C   UNL A   1      42.181  21.675  25.430  1.00  0.00     0.014 A 
ATOM     10  C   UNL A   1      42.474  22.494  28.080  1.00  0.00     0.010 A 
ATOM     11  C   UNL A   1      42.619  22.972  25.714  1.00  0.00     0.010 A 
ATOM     12  C   UNL A   1      42.732  23.404  27.043  1.00  0.00    -0.014 A 
BRANCH  12  13
ATOM     13  C   UNL A   1      43.174  24.782  27.380  1.00  0.00     0.031 A 
ATOM     14  C   UNL A   1      44.578  25.237  27.101  1.00  0.00     0.074 A 
ATOM     15  C   UNL A   1      42.281  25.634  27.918  1.00  0.00     0.049 A 
ATOM     16  N   UNL A   1      45.129  26.405  27.331  1.00  0.00    -0.248 NA
ATOM     17  C   UNL A   1      45.490  24.257  26.494  1.00  0.00     0.031 C 
ATOM     18  C   UNL A   1      40.892  25.302  28.241  1.00  0.00     0.029 A 
ATOM     19  N   UNL A   1      42.398  26.953  28.275  1.00  0.00    -0.354 N 
ATOM     20  C   UNL A   1      46.449  26.292  26.917  1.00  0.00     0.074 A 
ATOM     21  C   UNL A   1      46.629  24.936  26.446  1.00  0.00     0.031 C 
ATOM     22  C   UNL A   1      40.273  26.396  28.703  1.00  0.00     0.029 A 
ATOM     23  C   UNL A   1      41.237  27.488  28.776  1.00  0.00     0.049 A 
ATOM     24  H   UNL A   1      43.232  27.466  28.181  1.00  0.00     0.167 HD
ATOM     25  C   UNL A   1      47.419  27.240  26.922  1.00  0.00     0.037 A 
ATOM     26  C   UNL A   1      40.979  28.716  29.264  1.00  0.00     0.037 A 
ATOM     27  C   UNL A   1      47.227  28.594  27.378  1.00  0.00     0.049 A 
ATOM     28  C   UNL A   1      42.080  29.735  29.284  1.00  0.00     0.074 A 
ATOM     29  C   UNL A   1      48.136  29.638  27.389  1.00  0.00     0.029 A 
ATOM     30  N   UNL A   1      46.043  29.091  27.907  1.00  0.00    -0.354 N 
ATOM     31  N   UNL A   1      43.317  29.626  28.862  1.00  0.00    -0.248 NA
ATOM     32  C   UNL A   1      41.752  31.049  29.852  1.00  0.00     0.031 C 
ATOM     33  C   UNL A   1      47.520  30.750  27.972  1.00  0.00     0.029 A 
ATOM     34  C   UNL A   1      46.208  30.418  28.272  1.00  0.00     0.049 A 
ATOM     35  H   UNL A   1      45.210  28.576  28.008  1.00  0.00     0.167 HD
ATOM     36  C   UNL A   1      43.909  30.859  29.095  1.00  0.00     0.074 A 
ATOM     37  C   UNL A   1      42.889  31.707  29.678  1.00  0.00     0.031 C 
ATOM     38  C   UNL A   1      45.182  31.249  28.851  1.00  0.00     0.037 A 
BRANCH  25  39
ATOM     39  C   UNL A   1      48.786  26.844  26.441  1.00  0.00     0.064 A 
ATOM     40  C   UNL A   1      49.175  27.006  25.103  1.00  0.00     0.173 A 
ATOM     41  C   UNL A   1      49.736  26.337  27.341  1.00  0.00     0.173 A 
ATOM     42  F   UNL A   1      48.303  27.478  24.198  1.00  0.00    -0.203 F 
ATOM     43  C   UNL A   1      50.454  26.652  24.679  1.00  0.00     0.198 A 
ATOM     44  C   UNL A   1      51.023  26.011  26.920  1.00  0.00     0.198 A 
ATOM     45  F   UNL A   1      49.420  26.168  28.634  1.00  0.00    -0.203 F 
ATOM     46  F   UNL A   1      50.789  26.775  23.387  1.00  0.00    -0.200 F 
ATOM     47  C   UNL A   1      51.378  26.161  25.589  1.00  0.00     0.200 A 
ATOM     48  F   UNL A   1      51.919  25.550  27.804  1.00  0.00    -0.200 F 
ATOM     49  F   UNL A   1      52.611  25.829  25.181  1.00  0.00    -0.200 F 
ENDBRANCH  25  39
BRANCH  26  50
ATOM     50  C   UNL A   1      39.622  29.033  29.776  1.00  0.00     0.064 A 
ATOM     51  C   UNL A   1      38.649  29.597  28.941  1.00  0.00     0.173 A 
ATOM     52  C   UNL A   1      39.265  28.758  31.104  1.00  0.00     0.173 A 
ATOM     53  F   UNL A   1      38.950  29.894  27.668  1.00  0.00    -0.203 F 
ATOM     54  C   UNL A   1      37.373  29.887  29.419  1.00  0.00     0.198 A 
ATOM     55  C   UNL A   1      37.979  29.019  31.572  1.00  0.00     0.198 A 
ATOM     56  F   UNL A   1      40.158  28.212  31.942  1.00  0.00    -0.203 F 
ATOM     57  F   UNL A   1      36.473  30.463  28.611  1.00  0.00    -0.200 F 
ATOM     58  C   UNL A   1      37.036  29.590  30.731  1.00  0.00     0.200 A 
ATOM     59  F   UNL A   1      37.654  28.713  32.836  1.00  0.00    -0.200 F 
ATOM     60  F   UNL A   1      35.806  29.860  31.187  1.00  0.00    -0.200 F 
ENDBRANCH  26  50
BRANCH  38  61
ATOM     61  C   UNL A   1      45.537  32.670  29.185  1.00  0.00     0.064 A 
ATOM     62  C   UNL A   1      46.075  33.019  30.433  1.00  0.00     0.173 A 
ATOM     63  C   UNL A   1      45.358  33.687  28.236  1.00  0.00     0.173 A 
ATOM     64  F   UNL A   1      46.247  32.085  31.380  1.00  0.00    -0.203 F 
ATOM     65  C   UNL A   1      46.398  34.342  30.726  1.00  0.00     0.198 A 
ATOM     66  C   UNL A   1      45.711  35.003  28.522  1.00  0.00     0.198 A 
ATOM     67  F   UNL A   1      44.852  33.403  27.027  1.00  0.00    -0.203 F 
ATOM     68  F   UNL A   1      46.863  34.661  31.942  1.00  0.00    -0.200 F 
ATOM     69  C   UNL A   1      46.222  35.330  29.769  1.00  0.00     0.200 A 
ATOM     70  F   UNL A   1      45.552  35.955  27.592  1.00  0.00    -0.200 F 
ATOM     71  F   UNL A   1      46.538  36.601  30.052  1.00  0.00    -0.200 F 
ENDBRANCH  38  61
ENDBRANCH  12  13
ENDBRANCH   5   7
ENDBRANCH   2   3
ENDBRANCH   1   2
BRANCH   1  72
ATOM     72  C   UNL A   1      36.659  20.570  24.726  1.00  0.00     0.118 C 
BRANCH  72  73
ATOM     73  N   UNL A   1      36.004  21.019  25.946  1.00  0.00    -0.352 N 
ATOM     74  C   UNL A   1      34.763  21.576  26.116  1.00  0.00     0.252 C 
ATOM     75  H   UNL A   1      36.530  20.906  26.770  1.00  0.00     0.163 HD
ATOM     76  O   UNL A   1      34.406  21.969  27.222  1.00  0.00    -0.269 OA
BRANCH  74  77
ATOM     77  C   UNL A   1      33.875  21.772  24.957  1.00  0.00     0.055 A 
ATOM     78  C   UNL A   1      33.862  23.052  24.388  1.00  0.00     0.038 A 
ATOM     79  C   UNL A   1      33.045  20.765  24.446  1.00  0.00     0.030 A 
ATOM     80  C   UNL A   1      33.062  23.295  23.268  1.00  0.00     0.097 A 
ATOM     81  C   UNL A   1      32.291  21.008  23.294  1.00  0.00     0.018 A 
ATOM     82  Br  UNL A   1      32.822  19.074  25.285  1.00  0.00    -0.050 Br
ATOM     83  C   UNL A   1      32.303  22.270  22.697  1.00  0.00     0.024 A 
BRANCH  80  84
ATOM     84  S   UNL A   1      33.019  24.941  22.593  1.00  0.00     0.318 S 
ATOM     85  O   UNL A   1      34.398  25.311  22.327  1.00  0.00    -0.192 OA
ATOM     86  O   UNL A   1      32.040  24.920  21.531  1.00  0.00    -0.192 OA
BRANCH  84  87
ATOM     87  O   UNL A   1      32.453  25.859  23.824  1.00  0.00    -0.134 OA
BRANCH  87  88
ATOM     88  N   UNL A   1      31.296  26.589  23.481  1.00  0.00    -0.127 N 
ATOM     89  C   UNL A   1      30.135  26.140  24.080  1.00  0.00     0.286 C 
ATOM     90  C   UNL A   1      31.537  27.822  22.905  1.00  0.00     0.286 C 
ATOM     91  O   UNL A   1      30.066  25.177  24.837  1.00  0.00    -0.266 OA
ATOM     92  C   UNL A   1      28.935  26.961  23.801  1.00  0.00     0.051 A 
ATOM     93  C   UNL A   1      30.321  28.622  22.624  1.00  0.00     0.051 A 
ATOM     94  O   UNL A   1      32.651  28.284  22.683  1.00  0.00    -0.266 OA
ATOM     95  C   UNL A   1      27.686  26.537  24.269  1.00  0.00     0.014 A 
ATOM     96  C   UNL A   1      29.074  28.163  23.084  1.00  0.00     0.007 A 
ATOM     97  C   UNL A   1      30.433  29.828  21.923  1.00  0.00     0.014 A 
ATOM     98  C   UNL A   1      26.558  27.310  24.020  1.00  0.00     0.001 A 
ATOM     99  C   UNL A   1      27.923  28.946  22.835  1.00  0.00    -0.017 A 
ATOM    100  C   UNL A   1      29.296  30.590  21.673  1.00  0.00     0.001 A 
ATOM    101  C   UNL A   1      26.675  28.506  23.308  1.00  0.00     0.009 A 
ATOM    102  C   UNL A   1      28.050  30.153  22.128  1.00  0.00     0.009 A 
ENDBRANCH  87  88
ENDBRANCH  84  87
ENDBRANCH  80  84
ENDBRANCH  74  77
ENDBRANCH  72  73
ENDBRANCH   1  72
TORSDOF 13
ENDMDL
