MODEL 1
REMARK VINA RESULT:     -13.9      0.000      0.000
REMARK SMILES COc1ccc(-c2cc(Cl)cc3c2O[C@@H](C(F)(F)F)C(C(=O)NCCCNC(=O)c2ccc(-c4c5nc(c(-c6c(F)c(F)c(F)c(F)c6F)c6ccc([nH]6)c(-c6c(F)c(F)c(F)c(F)c6F)c6nc(c(-c7c(F)c(F)c(F)c(F)c7F)c7ccc4[nH]7)C=C6)C=C5)cc2)=C3)cc1C
REMARK SMILES IDX 25 1 24 2 23 3 21 4 22 5 20 7 7 8 8 9 13 10 9 11 12 12 14 13
REMARK SMILES IDX 10 14 11 15 93 16 15 17 6 18 3 19 4 20 95 21 5 22 94 23
REMARK SMILES IDX 96 24 2 25 1 26 16 27 17 28 18 29 19 30 26 31 27 32 28 33
REMARK SMILES IDX 29 35 30 36 31 37 92 38 32 39 91 40 33 41 34 42 35 43 85 44
REMARK SMILES IDX 36 45 90 46 84 47 86 48 37 49 89 50 83 51 82 52 38 54 70 55
REMARK SMILES IDX 50 56 69 57 51 58 54 59 68 60 87 61 52 62 53 63 67 65 88 66
REMARK SMILES IDX 55 67 39 68 40 69 48 70 41 71 42 72 46 73 49 74 43 75 44 76
REMARK SMILES IDX 47 77 45 78 71 79 72 80 80 81 73 82 74 83 78 84 81 85 75 86
REMARK SMILES IDX 76 87 79 88 77 89 56 90 57 91 65 92 58 93 59 94 63 95 66 96
REMARK SMILES IDX 60 97 61 98 64 99 62 100
REMARK H PARENT 23 6 27 34 86 53 54 64
REMARK Flexibility Score: inf
ROOT
ATOM      1  C   UNL A   1      38.761  20.590  25.375  1.00  0.00     0.042 C 
ENDROOT
BRANCH   1   2
ATOM      2  C   UNL A   1      37.370  20.476  24.755  1.00  0.00     0.118 C 
BRANCH   2   3
ATOM      3  N   UNL A   1      36.541  21.653  24.962  1.00  0.00    -0.352 N 
ATOM      4  C   UNL A   1      35.553  21.939  25.859  1.00  0.00     0.251 C 
ATOM      5  O   UNL A   1      35.473  23.118  26.214  1.00  0.00    -0.270 OA
ATOM      6  H   UNL A   1      36.728  22.386  24.332  1.00  0.00     0.163 HD
BRANCH   4   7
ATOM      7  C   UNL A   1      34.504  20.925  26.325  1.00  0.00     0.067 C 
ATOM      8  C   UNL A   1      31.925  23.486  24.582  1.00  0.00     0.026 A 
ATOM      9  C   UNL A   1      30.701  23.807  25.200  1.00  0.00     0.033 A 
ATOM     10  C   UNL A   1      32.626  22.430  25.162  1.00  0.00     0.135 A 
ATOM     11  C   UNL A   1      30.419  23.351  26.493  1.00  0.00     0.042 A 
ATOM     12  C   UNL A   1      32.528  22.212  26.562  1.00  0.00     0.019 A 
ATOM     13  O   UNL A   1      33.288  21.481  24.355  1.00  0.00    -0.475 OA
ATOM     14  Cl  UNL A   1      28.944  23.813  27.249  1.00  0.00    -0.084 Cl
ATOM     15  C   UNL A   1      31.378  22.638  27.217  1.00  0.00     0.032 A 
ATOM     16  C   UNL A   1      33.657  21.476  27.239  1.00  0.00     0.025 C 
ATOM     17  C   UNL A   1      33.649  20.347  25.208  1.00  0.00     0.314 C 
BRANCH   8  18
ATOM     18  C   UNL A   1      32.669  24.667  24.058  1.00  0.00    -0.014 A 
ATOM     19  C   UNL A   1      33.767  27.178  23.310  1.00  0.00     0.121 A 
ATOM     20  C   UNL A   1      33.355  26.235  22.351  1.00  0.00     0.047 A 
ATOM     21  C   UNL A   1      33.644  26.876  24.668  1.00  0.00    -0.008 A 
ATOM     22  C   UNL A   1      32.808  24.992  22.715  1.00  0.00     0.013 A 
ATOM     23  C   UNL A   1      33.145  25.607  25.011  1.00  0.00     0.016 A 
ATOM     24  C   UNL A   1      33.938  27.840  25.783  1.00  0.00     0.048 C 
BRANCH  19  25
ATOM     25  O   UNL A   1      34.144  28.389  22.794  1.00  0.00    -0.496 OA
ATOM     26  C   UNL A   1      33.096  29.323  22.560  1.00  0.00     0.278 C 
ENDBRANCH  19  25
ENDBRANCH   8  18
BRANCH  17  27
ATOM     27  C   UNL A   1      34.065  18.989  24.635  1.00  0.00     0.429 C 
ATOM     28  F   UNL A   1      33.568  17.981  25.409  1.00  0.00    -0.167 F 
ATOM     29  F   UNL A   1      33.612  18.765  23.391  1.00  0.00    -0.167 F 
ATOM     30  F   UNL A   1      35.406  18.807  24.646  1.00  0.00    -0.167 F 
ENDBRANCH  17  27
ENDBRANCH   4   7
ENDBRANCH   2   3
ENDBRANCH   1   2
BRANCH   1  31
ATOM     31  C   UNL A   1      39.125  21.989  25.862  1.00  0.00     0.118 C 
BRANCH  31  32
ATOM     32  N   UNL A   1      40.555  22.152  26.147  1.00  0.00    -0.352 N 
ATOM     33  C   UNL A   1      41.234  23.286  26.571  1.00  0.00     0.251 C 
ATOM     34  H   UNL A   1      41.107  21.347  26.021  1.00  0.00     0.163 HD
ATOM     35  O   UNL A   1      42.409  23.246  26.882  1.00  0.00    -0.269 OA
BRANCH  33  36
ATOM     36  C   UNL A   1      40.451  24.528  26.739  1.00  0.00     0.039 A 
ATOM     37  C   UNL A   1      40.891  25.671  26.066  1.00  0.00     0.014 A 
ATOM     38  C   UNL A   1      39.544  24.610  27.792  1.00  0.00     0.014 A 
ATOM     39  C   UNL A   1      40.657  26.912  26.645  1.00  0.00     0.010 A 
ATOM     40  C   UNL A   1      39.391  25.832  28.414  1.00  0.00     0.010 A 
ATOM     41  C   UNL A   1      40.039  26.961  27.894  1.00  0.00    -0.014 A 
BRANCH  41  42
ATOM     42  C   UNL A   1      40.228  28.075  28.821  1.00  0.00     0.031 A 
ATOM     43  C   UNL A   1      39.295  29.218  28.840  1.00  0.00     0.074 A 
ATOM     44  C   UNL A   1      41.209  27.991  29.751  1.00  0.00     0.049 A 
ATOM     45  N   UNL A   1      39.533  30.324  29.462  1.00  0.00    -0.248 NA
ATOM     46  C   UNL A   1      38.042  29.244  28.089  1.00  0.00     0.031 C 
ATOM     47  C   UNL A   1      41.368  28.804  30.956  1.00  0.00     0.029 A 
ATOM     48  N   UNL A   1      42.418  27.268  29.667  1.00  0.00    -0.354 N 
ATOM     49  C   UNL A   1      38.380  31.067  29.447  1.00  0.00     0.074 A 
ATOM     50  C   UNL A   1      37.538  30.424  28.471  1.00  0.00     0.031 C 
ATOM     51  C   UNL A   1      42.660  28.801  31.312  1.00  0.00     0.029 A 
ATOM     52  C   UNL A   1      43.392  28.102  30.275  1.00  0.00     0.049 A 
ATOM     53  H   UNL A   1      42.554  26.378  29.272  1.00  0.00     0.167 HD
ATOM     54  C   UNL A   1      38.238  32.068  30.360  1.00  0.00     0.037 A 
ATOM     55  C   UNL A   1      44.425  28.625  29.551  1.00  0.00     0.037 A 
ATOM     56  C   UNL A   1      39.527  32.427  30.953  1.00  0.00     0.049 A 
ATOM     57  C   UNL A   1      44.455  30.138  29.486  1.00  0.00     0.074 A 
ATOM     58  C   UNL A   1      40.135  32.248  32.183  1.00  0.00     0.029 A 
ATOM     59  N   UNL A   1      40.516  32.898  30.104  1.00  0.00    -0.354 N 
ATOM     60  N   UNL A   1      43.563  30.916  30.034  1.00  0.00    -0.248 NA
ATOM     61  C   UNL A   1      45.437  30.887  28.699  1.00  0.00     0.031 C 
ATOM     62  C   UNL A   1      41.527  32.532  32.027  1.00  0.00     0.029 A 
ATOM     63  C   UNL A   1      41.752  32.915  30.716  1.00  0.00     0.049 A 
ATOM     64  H   UNL A   1      40.355  33.187  29.176  1.00  0.00     0.167 HD
ATOM     65  C   UNL A   1      43.772  32.202  29.617  1.00  0.00     0.074 A 
ATOM     66  C   UNL A   1      44.967  32.141  28.797  1.00  0.00     0.031 C 
ATOM     67  C   UNL A   1      42.926  33.225  29.918  1.00  0.00     0.037 A 
BRANCH  54  68
ATOM     68  C   UNL A   1      36.920  32.657  30.815  1.00  0.00     0.064 A 
ATOM     69  C   UNL A   1      36.212  33.541  29.971  1.00  0.00     0.173 A 
ATOM     70  C   UNL A   1      36.362  32.507  32.104  1.00  0.00     0.173 A 
ATOM     71  F   UNL A   1      36.632  33.795  28.723  1.00  0.00    -0.203 F 
ATOM     72  C   UNL A   1      35.058  34.217  30.387  1.00  0.00     0.198 A 
ATOM     73  C   UNL A   1      35.179  33.136  32.498  1.00  0.00     0.198 A 
ATOM     74  F   UNL A   1      36.964  31.801  33.067  1.00  0.00    -0.203 F 
ATOM     75  F   UNL A   1      34.465  35.092  29.561  1.00  0.00    -0.200 F 
ATOM     76  C   UNL A   1      34.534  34.005  31.645  1.00  0.00     0.200 A 
ATOM     77  F   UNL A   1      34.691  32.918  33.727  1.00  0.00    -0.200 F 
ATOM     78  F   UNL A   1      33.429  34.649  32.045  1.00  0.00    -0.200 F 
ENDBRANCH  54  68
BRANCH  55  79
ATOM     79  C   UNL A   1      44.884  27.719  28.465  1.00  0.00     0.064 A 
ATOM     80  C   UNL A   1      45.637  26.581  28.817  1.00  0.00     0.173 A 
ATOM     81  C   UNL A   1      44.307  27.746  27.193  1.00  0.00     0.173 A 
ATOM     82  F   UNL A   1      46.211  26.505  30.028  1.00  0.00    -0.203 F 
ATOM     83  C   UNL A   1      45.704  25.472  27.979  1.00  0.00     0.198 A 
ATOM     84  C   UNL A   1      44.392  26.640  26.348  1.00  0.00     0.198 A 
ATOM     85  F   UNL A   1      43.558  28.790  26.808  1.00  0.00    -0.203 F 
ATOM     86  F   UNL A   1      46.323  24.357  28.394  1.00  0.00    -0.200 F 
ATOM     87  C   UNL A   1      45.057  25.493  26.755  1.00  0.00     0.200 A 
ATOM     88  F   UNL A   1      43.739  26.648  25.177  1.00  0.00    -0.200 F 
ATOM     89  F   UNL A   1      45.032  24.393  25.989  1.00  0.00    -0.200 F 
ENDBRANCH  55  79
BRANCH  67  90
ATOM     90  C   UNL A   1      43.169  34.619  29.437  1.00  0.00     0.064 A 
ATOM     91  C   UNL A   1      43.433  35.667  30.331  1.00  0.00     0.173 A 
ATOM     92  C   UNL A   1      43.039  34.961  28.078  1.00  0.00     0.173 A 
ATOM     93  F   UNL A   1      43.558  35.425  31.645  1.00  0.00    -0.203 F 
ATOM     94  C   UNL A   1      43.569  36.983  29.889  1.00  0.00     0.198 A 
ATOM     95  C   UNL A   1      43.134  36.282  27.645  1.00  0.00     0.198 A 
ATOM     96  F   UNL A   1      42.842  34.018  27.144  1.00  0.00    -0.203 F 
ATOM     97  F   UNL A   1      43.858  37.953  30.767  1.00  0.00    -0.200 F 
ATOM     98  C   UNL A   1      43.403  37.292  28.550  1.00  0.00     0.200 A 
ATOM     99  F   UNL A   1      42.964  36.570  26.346  1.00  0.00    -0.200 F 
ATOM    100  F   UNL A   1      43.509  38.560  28.130  1.00  0.00    -0.200 F 
ENDBRANCH  67  90
ENDBRANCH  41  42
ENDBRANCH  33  36
ENDBRANCH  31  32
ENDBRANCH   1  31
TORSDOF 13
ENDMDL
MODEL 2
REMARK VINA RESULT:     -13.9      2.080      3.003
REMARK SMILES COc1ccc(-c2cc(Cl)cc3c2O[C@@H](C(F)(F)F)C(C(=O)NCCCNC(=O)c2ccc(-c4c5nc(c(-c6c(F)c(F)c(F)c(F)c6F)c6ccc([nH]6)c(-c6c(F)c(F)c(F)c(F)c6F)c6nc(c(-c7c(F)c(F)c(F)c(F)c7F)c7ccc4[nH]7)C=C6)C=C5)cc2)=C3)cc1C
REMARK SMILES IDX 25 1 24 2 23 3 21 4 22 5 20 7 7 8 8 9 13 10 9 11 12 12 14 13
REMARK SMILES IDX 10 14 11 15 93 16 15 17 6 18 3 19 4 20 95 21 5 22 94 23
REMARK SMILES IDX 96 24 2 25 1 26 16 27 17 28 18 29 19 30 26 31 27 32 28 33
REMARK SMILES IDX 29 35 30 36 31 37 92 38 32 39 91 40 33 41 34 42 35 43 85 44
REMARK SMILES IDX 36 45 90 46 84 47 86 48 37 49 89 50 83 51 82 52 38 54 70 55
REMARK SMILES IDX 50 56 69 57 51 58 54 59 68 60 87 61 52 62 53 63 67 65 88 66
REMARK SMILES IDX 55 67 39 68 40 69 48 70 41 71 42 72 46 73 49 74 43 75 44 76
REMARK SMILES IDX 47 77 45 78 71 79 72 80 80 81 73 82 74 83 78 84 81 85 75 86
REMARK SMILES IDX 76 87 79 88 77 89 56 90 57 91 65 92 58 93 59 94 63 95 66 96
REMARK SMILES IDX 60 97 61 98 64 99 62 100
REMARK H PARENT 23 6 27 34 86 53 54 64
REMARK Flexibility Score: inf
ROOT
ATOM      1  C   UNL A   1      36.679  23.009  26.637  1.00  0.00     0.042 C 
ENDROOT
BRANCH   1   2
ATOM      2  C   UNL A   1      35.348  22.900  25.898  1.00  0.00     0.118 C 
BRANCH   2   3
ATOM      3  N   UNL A   1      34.393  23.935  26.260  1.00  0.00    -0.352 N 
ATOM      4  C   UNL A   1      33.050  24.064  26.055  1.00  0.00     0.251 C 
ATOM      5  O   UNL A   1      32.426  24.653  26.942  1.00  0.00    -0.270 OA
ATOM      6  H   UNL A   1      34.794  24.692  26.746  1.00  0.00     0.163 HD
BRANCH   4   7
ATOM      7  C   UNL A   1      32.338  23.638  24.768  1.00  0.00     0.067 C 
ATOM      8  C   UNL A   1      31.859  27.609  24.267  1.00  0.00     0.026 A 
ATOM      9  C   UNL A   1      30.637  28.134  23.800  1.00  0.00     0.033 A 
ATOM     10  C   UNL A   1      31.980  26.223  24.188  1.00  0.00     0.135 A 
ATOM     11  C   UNL A   1      29.526  27.300  23.634  1.00  0.00     0.042 A 
ATOM     12  C   UNL A   1      30.825  25.411  24.337  1.00  0.00     0.019 A 
ATOM     13  O   UNL A   1      33.200  25.633  23.793  1.00  0.00    -0.475 OA
ATOM     14  Cl  UNL A   1      28.029  27.979  23.126  1.00  0.00    -0.084 Cl
ATOM     15  C   UNL A   1      29.590  25.954  24.002  1.00  0.00     0.032 A 
ATOM     16  C   UNL A   1      31.021  23.987  24.794  1.00  0.00     0.025 C 
ATOM     17  C   UNL A   1      32.935  24.223  23.497  1.00  0.00     0.314 C 
BRANCH   8  18
ATOM     18  C   UNL A   1      32.421  28.334  25.442  1.00  0.00    -0.014 A 
ATOM     19  C   UNL A   1      33.524  30.092  27.383  1.00  0.00     0.121 A 
ATOM     20  C   UNL A   1      34.127  28.859  27.074  1.00  0.00     0.047 A 
ATOM     21  C   UNL A   1      32.348  30.465  26.728  1.00  0.00    -0.008 A 
ATOM     22  C   UNL A   1      33.587  27.986  26.112  1.00  0.00     0.013 A 
ATOM     23  C   UNL A   1      31.795  29.555  25.810  1.00  0.00     0.016 A 
ATOM     24  C   UNL A   1      31.675  31.800  26.884  1.00  0.00     0.048 C 
BRANCH  19  25
ATOM     25  O   UNL A   1      34.248  30.884  28.234  1.00  0.00    -0.496 OA
ATOM     26  C   UNL A   1      35.020  31.913  27.626  1.00  0.00     0.278 C 
ENDBRANCH  19  25
ENDBRANCH   8  18
BRANCH  17  27
ATOM     27  C   UNL A   1      33.922  23.349  22.717  1.00  0.00     0.429 C 
ATOM     28  F   UNL A   1      33.583  23.323  21.396  1.00  0.00    -0.167 F 
ATOM     29  F   UNL A   1      35.191  23.786  22.771  1.00  0.00    -0.167 F 
ATOM     30  F   UNL A   1      33.895  22.054  23.109  1.00  0.00    -0.167 F 
ENDBRANCH  17  27
ENDBRANCH   4   7
ENDBRANCH   2   3
ENDBRANCH   1   2
BRANCH   1  31
ATOM     31  C   UNL A   1      37.887  23.242  25.735  1.00  0.00     0.118 C 
BRANCH  31  32
ATOM     32  N   UNL A   1      39.169  22.986  26.401  1.00  0.00    -0.352 N 
ATOM     33  C   UNL A   1      39.934  23.847  27.178  1.00  0.00     0.251 C 
ATOM     34  H   UNL A   1      39.536  22.081  26.282  1.00  0.00     0.163 HD
ATOM     35  O   UNL A   1      40.924  23.462  27.768  1.00  0.00    -0.269 OA
BRANCH  33  36
ATOM     36  C   UNL A   1      39.439  25.228  27.355  1.00  0.00     0.039 A 
ATOM     37  C   UNL A   1      40.046  26.238  26.603  1.00  0.00     0.014 A 
ATOM     38  C   UNL A   1      38.661  25.522  28.471  1.00  0.00     0.014 A 
ATOM     39  C   UNL A   1      40.121  27.515  27.147  1.00  0.00     0.010 A 
ATOM     40  C   UNL A   1      38.814  26.765  29.052  1.00  0.00     0.010 A 
ATOM     41  C   UNL A   1      39.634  27.721  28.437  1.00  0.00    -0.014 A 
BRANCH  41  42
ATOM     42  C   UNL A   1      40.124  28.793  29.300  1.00  0.00     0.031 A 
ATOM     43  C   UNL A   1      39.260  29.932  29.668  1.00  0.00     0.074 A 
ATOM     44  C   UNL A   1      41.353  28.672  29.859  1.00  0.00     0.049 A 
ATOM     45  N   UNL A   1      39.700  31.011  30.226  1.00  0.00    -0.248 NA
ATOM     46  C   UNL A   1      37.833  29.988  29.363  1.00  0.00     0.031 C 
ATOM     47  C   UNL A   1      41.901  29.431  30.981  1.00  0.00     0.029 A 
ATOM     48  N   UNL A   1      42.461  27.957  29.359  1.00  0.00    -0.354 N 
ATOM     49  C   UNL A   1      38.612  31.751  30.616  1.00  0.00     0.074 A 
ATOM     50  C   UNL A   1      37.493  31.148  29.937  1.00  0.00     0.031 C 
ATOM     51  C   UNL A   1      43.239  29.417  30.901  1.00  0.00     0.029 A 
ATOM     52  C   UNL A   1      43.589  28.765  29.654  1.00  0.00     0.049 A 
ATOM     53  H   UNL A   1      42.452  27.085  28.903  1.00  0.00     0.167 HD
ATOM     54  C   UNL A   1      38.784  32.710  31.567  1.00  0.00     0.037 A 
ATOM     55  C   UNL A   1      44.339  29.322  28.658  1.00  0.00     0.037 A 
ATOM     56  C   UNL A   1      40.200  33.045  31.727  1.00  0.00     0.049 A 
ATOM     57  C   UNL A   1      44.363  30.837  28.652  1.00  0.00     0.074 A 
ATOM     58  C   UNL A   1      41.170  32.815  32.686  1.00  0.00     0.029 A 
ATOM     59  N   UNL A   1      40.867  33.557  30.625  1.00  0.00    -0.354 N 
ATOM     60  N   UNL A   1      43.705  31.588  29.491  1.00  0.00    -0.248 NA
ATOM     61  C   UNL A   1      45.047  31.623  27.622  1.00  0.00     0.031 C 
ATOM     62  C   UNL A   1      42.441  33.109  32.101  1.00  0.00     0.029 A 
ATOM     63  C   UNL A   1      42.234  33.549  30.805  1.00  0.00     0.049 A 
ATOM     64  H   UNL A   1      40.419  33.885  29.812  1.00  0.00     0.167 HD
ATOM     65  C   UNL A   1      43.783  32.891  29.084  1.00  0.00     0.074 A 
ATOM     66  C   UNL A   1      44.649  32.870  27.919  1.00  0.00     0.031 C 
ATOM     67  C   UNL A   1      43.092  33.898  29.685  1.00  0.00     0.037 A 
BRANCH  54  68
ATOM     68  C   UNL A   1      37.691  33.275  32.448  1.00  0.00     0.064 A 
ATOM     69  C   UNL A   1      36.674  34.079  31.886  1.00  0.00     0.173 A 
ATOM     70  C   UNL A   1      37.649  33.181  33.857  1.00  0.00     0.173 A 
ATOM     71  F   UNL A   1      36.597  34.273  30.562  1.00  0.00    -0.203 F 
ATOM     72  C   UNL A   1      35.714  34.734  32.666  1.00  0.00     0.198 A 
ATOM     73  C   UNL A   1      36.656  33.787  34.630  1.00  0.00     0.198 A 
ATOM     74  F   UNL A   1      38.599  32.557  34.562  1.00  0.00    -0.203 F 
ATOM     75  F   UNL A   1      34.812  35.534  32.080  1.00  0.00    -0.200 F 
ATOM     76  C   UNL A   1      35.697  34.578  34.037  1.00  0.00     0.200 A 
ATOM     77  F   UNL A   1      36.662  33.625  35.961  1.00  0.00    -0.200 F 
ATOM     78  F   UNL A   1      34.778  35.203  34.786  1.00  0.00    -0.200 F 
ENDBRANCH  54  68
BRANCH  55  79
ATOM     79  C   UNL A   1      44.412  28.466  27.445  1.00  0.00     0.064 A 
ATOM     80  C   UNL A   1      45.199  27.299  27.497  1.00  0.00     0.173 A 
ATOM     81  C   UNL A   1      43.473  28.570  26.416  1.00  0.00     0.173 A 
ATOM     82  F   UNL A   1      46.115  27.150  28.467  1.00  0.00    -0.203 F 
ATOM     83  C   UNL A   1      44.969  26.234  26.631  1.00  0.00     0.198 A 
ATOM     84  C   UNL A   1      43.258  27.507  25.537  1.00  0.00     0.198 A 
ATOM     85  F   UNL A   1      42.676  29.645  26.327  1.00  0.00    -0.203 F 
ATOM     86  F   UNL A   1      45.650  25.089  26.785  1.00  0.00    -0.200 F 
ATOM     87  C   UNL A   1      43.979  26.329  25.668  1.00  0.00     0.200 A 
ATOM     88  F   UNL A   1      42.278  27.587  24.626  1.00  0.00    -0.200 F 
ATOM     89  F   UNL A   1      43.684  25.272  24.900  1.00  0.00    -0.200 F 
ENDBRANCH  55  79
BRANCH  67  90
ATOM     90  C   UNL A   1      43.183  35.312  29.210  1.00  0.00     0.064 A 
ATOM     91  C   UNL A   1      42.285  35.826  28.262  1.00  0.00     0.173 A 
ATOM     92  C   UNL A   1      44.234  36.157  29.612  1.00  0.00     0.173 A 
ATOM     93  F   UNL A   1      41.263  35.078  27.818  1.00  0.00    -0.203 F 
ATOM     94  C   UNL A   1      42.426  37.116  27.752  1.00  0.00     0.198 A 
ATOM     95  C   UNL A   1      44.397  37.430  29.069  1.00  0.00     0.198 A 
ATOM     96  F   UNL A   1      45.108  35.771  30.555  1.00  0.00    -0.203 F 
ATOM     97  F   UNL A   1      41.528  37.587  26.876  1.00  0.00    -0.200 F 
ATOM     98  C   UNL A   1      43.491  37.910  28.143  1.00  0.00     0.200 A 
ATOM     99  F   UNL A   1      45.436  38.187  29.450  1.00  0.00    -0.200 F 
ATOM    100  F   UNL A   1      43.639  39.141  27.633  1.00  0.00    -0.200 F 
ENDBRANCH  67  90
ENDBRANCH  41  42
ENDBRANCH  33  36
ENDBRANCH  31  32
ENDBRANCH   1  31
TORSDOF 13
ENDMDL
MODEL 3
REMARK VINA RESULT:     -13.7      2.445      3.627
REMARK SMILES COc1ccc(-c2cc(Cl)cc3c2O[C@@H](C(F)(F)F)C(C(=O)NCCCNC(=O)c2ccc(-c4c5nc(c(-c6c(F)c(F)c(F)c(F)c6F)c6ccc([nH]6)c(-c6c(F)c(F)c(F)c(F)c6F)c6nc(c(-c7c(F)c(F)c(F)c(F)c7F)c7ccc4[nH]7)C=C6)C=C5)cc2)=C3)cc1C
REMARK SMILES IDX 25 1 24 2 23 3 21 4 22 5 20 7 7 8 8 9 13 10 9 11 12 12 14 13
REMARK SMILES IDX 10 14 11 15 93 16 15 17 6 18 3 19 4 20 95 21 5 22 94 23
REMARK SMILES IDX 96 24 2 25 1 26 16 27 17 28 18 29 19 30 26 31 27 32 28 33
REMARK SMILES IDX 29 35 30 36 31 37 92 38 32 39 91 40 33 41 34 42 35 43 85 44
REMARK SMILES IDX 36 45 90 46 84 47 86 48 37 49 89 50 83 51 82 52 38 54 70 55
REMARK SMILES IDX 50 56 69 57 51 58 54 59 68 60 87 61 52 62 53 63 67 65 88 66
REMARK SMILES IDX 55 67 39 68 40 69 48 70 41 71 42 72 46 73 49 74 43 75 44 76
REMARK SMILES IDX 47 77 45 78 71 79 72 80 80 81 73 82 74 83 78 84 81 85 75 86
REMARK SMILES IDX 76 87 79 88 77 89 56 90 57 91 65 92 58 93 59 94 63 95 66 96
REMARK SMILES IDX 60 97 61 98 64 99 62 100
REMARK H PARENT 23 6 27 34 86 53 54 64
REMARK Flexibility Score: inf
ROOT
ATOM      1  C   UNL A   1      36.222  22.463  26.151  1.00  0.00     0.042 C 
ENDROOT
BRANCH   1   2
ATOM      2  C   UNL A   1      34.862  22.531  25.460  1.00  0.00     0.118 C 
BRANCH   2   3
ATOM      3  N   UNL A   1      34.096  23.720  25.798  1.00  0.00    -0.352 N 
ATOM      4  C   UNL A   1      32.779  24.044  25.641  1.00  0.00     0.251 C 
ATOM      5  O   UNL A   1      32.296  24.768  26.515  1.00  0.00    -0.270 OA
ATOM      6  H   UNL A   1      34.630  24.431  26.221  1.00  0.00     0.163 HD
BRANCH   4   7
ATOM      7  C   UNL A   1      31.947  23.664  24.412  1.00  0.00     0.067 C 
ATOM      8  C   UNL A   1      31.642  27.658  23.961  1.00  0.00     0.026 A 
ATOM      9  C   UNL A   1      30.418  28.249  23.592  1.00  0.00     0.033 A 
ATOM     10  C   UNL A   1      31.683  26.268  23.869  1.00  0.00     0.135 A 
ATOM     11  C   UNL A   1      29.254  27.477  23.511  1.00  0.00     0.042 A 
ATOM     12  C   UNL A   1      30.502  25.517  24.105  1.00  0.00     0.019 A 
ATOM     13  O   UNL A   1      32.835  25.617  23.378  1.00  0.00    -0.475 OA
ATOM     14  Cl  UNL A   1      27.760  28.237  23.123  1.00  0.00    -0.084 Cl
ATOM     15  C   UNL A   1      29.274  26.127  23.869  1.00  0.00     0.032 A 
ATOM     16  C   UNL A   1      30.657  24.082  24.542  1.00  0.00     0.025 C 
ATOM     17  C   UNL A   1      32.474  24.225  23.101  1.00  0.00     0.314 C 
BRANCH   8  18
ATOM     18  C   UNL A   1      32.332  28.344  25.090  1.00  0.00    -0.014 A 
ATOM     19  C   UNL A   1      33.619  30.046  26.967  1.00  0.00     0.121 A 
ATOM     20  C   UNL A   1      34.226  28.866  26.501  1.00  0.00     0.047 A 
ATOM     21  C   UNL A   1      32.347  30.393  26.506  1.00  0.00    -0.008 A 
ATOM     22  C   UNL A   1      33.595  28.021  25.569  1.00  0.00     0.013 A 
ATOM     23  C   UNL A   1      31.711  29.508  25.617  1.00  0.00     0.016 A 
ATOM     24  C   UNL A   1      31.644  31.680  26.837  1.00  0.00     0.048 C 
BRANCH  19  25
ATOM     25  O   UNL A   1      34.420  30.826  27.758  1.00  0.00    -0.496 OA
ATOM     26  C   UNL A   1      35.693  30.281  28.088  1.00  0.00     0.278 C 
ENDBRANCH  19  25
ENDBRANCH   8  18
BRANCH  17  27
ATOM     27  C   UNL A   1      33.349  23.306  22.243  1.00  0.00     0.429 C 
ATOM     28  F   UNL A   1      33.033  22.001  22.481  1.00  0.00    -0.167 F 
ATOM     29  F   UNL A   1      33.199  23.494  20.922  1.00  0.00    -0.167 F 
ATOM     30  F   UNL A   1      34.664  23.406  22.547  1.00  0.00    -0.167 F 
ENDBRANCH  17  27
ENDBRANCH   4   7
ENDBRANCH   2   3
ENDBRANCH   1   2
BRANCH   1  31
ATOM     31  C   UNL A   1      37.417  22.594  25.212  1.00  0.00     0.118 C 
BRANCH  31  32
ATOM     32  N   UNL A   1      38.658  22.046  25.769  1.00  0.00    -0.352 N 
ATOM     33  C   UNL A   1      39.622  22.683  26.540  1.00  0.00     0.251 C 
ATOM     34  H   UNL A   1      38.831  21.098  25.570  1.00  0.00     0.163 HD
ATOM     35  O   UNL A   1      40.549  22.070  27.034  1.00  0.00    -0.269 OA
BRANCH  33  36
ATOM     36  C   UNL A   1      39.423  24.117  26.835  1.00  0.00     0.039 A 
ATOM     37  C   UNL A   1      40.134  25.043  26.067  1.00  0.00     0.014 A 
ATOM     38  C   UNL A   1      38.833  24.476  28.043  1.00  0.00     0.014 A 
ATOM     39  C   UNL A   1      40.508  26.245  26.657  1.00  0.00     0.010 A 
ATOM     40  C   UNL A   1      39.281  25.627  28.660  1.00  0.00     0.010 A 
ATOM     41  C   UNL A   1      40.203  26.452  28.001  1.00  0.00    -0.014 A 
BRANCH  41  42
ATOM     42  C   UNL A   1      40.976  27.355  28.852  1.00  0.00     0.031 A 
ATOM     43  C   UNL A   1      40.468  28.696  29.200  1.00  0.00     0.074 A 
ATOM     44  C   UNL A   1      42.119  26.899  29.418  1.00  0.00     0.049 A 
ATOM     45  N   UNL A   1      41.194  29.615  29.745  1.00  0.00    -0.248 NA
ATOM     46  C   UNL A   1      39.114  29.148  28.888  1.00  0.00     0.031 C 
ATOM     47  C   UNL A   1      42.859  27.489  30.532  1.00  0.00     0.029 A 
ATOM     48  N   UNL A   1      42.981  25.894  28.933  1.00  0.00    -0.354 N 
ATOM     49  C   UNL A   1      40.359  30.637  30.120  1.00  0.00     0.074 A 
ATOM     50  C   UNL A   1      39.116  30.365  29.445  1.00  0.00     0.031 C 
ATOM     51  C   UNL A   1      44.139  27.096  30.458  1.00  0.00     0.029 A 
ATOM     52  C   UNL A   1      44.291  26.355  29.222  1.00  0.00     0.049 A 
ATOM     53  H   UNL A   1      42.727  25.053  28.489  1.00  0.00     0.167 HD
ATOM     54  C   UNL A   1      40.794  31.522  31.060  1.00  0.00     0.037 A 
ATOM     55  C   UNL A   1      45.169  26.664  28.222  1.00  0.00     0.037 A 
ATOM     56  C   UNL A   1      42.247  31.447  31.222  1.00  0.00     0.049 A 
ATOM     57  C   UNL A   1      45.620  28.110  28.195  1.00  0.00     0.074 A 
ATOM     58  C   UNL A   1      43.112  30.966  32.188  1.00  0.00     0.029 A 
ATOM     59  N   UNL A   1      43.032  31.733  30.115  1.00  0.00    -0.354 N 
ATOM     60  N   UNL A   1      45.199  29.028  29.021  1.00  0.00    -0.248 NA
ATOM     61  C   UNL A   1      46.498  28.656  27.158  1.00  0.00     0.031 C 
ATOM     62  C   UNL A   1      44.414  30.881  31.605  1.00  0.00     0.029 A 
ATOM     63  C   UNL A   1      44.341  31.343  30.302  1.00  0.00     0.049 A 
ATOM     64  H   UNL A   1      42.695  32.163  29.297  1.00  0.00     0.167 HD
ATOM     65  C   UNL A   1      45.642  30.250  28.597  1.00  0.00     0.074 A 
ATOM     66  C   UNL A   1      46.468  29.969  27.437  1.00  0.00     0.031 C 
ATOM     67  C   UNL A   1      45.263  31.420  29.181  1.00  0.00     0.037 A 
BRANCH  54  68
ATOM     68  C   UNL A   1      39.904  32.385  31.928  1.00  0.00     0.064 A 
ATOM     69  C   UNL A   1      39.642  32.009  33.264  1.00  0.00     0.173 A 
ATOM     70  C   UNL A   1      39.175  33.510  31.484  1.00  0.00     0.173 A 
ATOM     71  F   UNL A   1      40.249  30.950  33.819  1.00  0.00    -0.203 F 
ATOM     72  C   UNL A   1      38.726  32.693  34.073  1.00  0.00     0.198 A 
ATOM     73  C   UNL A   1      38.305  34.227  32.310  1.00  0.00     0.198 A 
ATOM     74  F   UNL A   1      39.213  33.933  30.216  1.00  0.00    -0.203 F 
ATOM     75  F   UNL A   1      38.473  32.251  35.314  1.00  0.00    -0.200 F 
ATOM     76  C   UNL A   1      38.068  33.810  33.601  1.00  0.00     0.200 A 
ATOM     77  F   UNL A   1      37.674  35.306  31.827  1.00  0.00    -0.200 F 
ATOM     78  F   UNL A   1      37.192  34.467  34.373  1.00  0.00    -0.200 F 
ENDBRANCH  54  68
BRANCH  55  79
ATOM     79  C   UNL A   1      44.998  25.805  27.021  1.00  0.00     0.064 A 
ATOM     80  C   UNL A   1      45.466  24.477  27.077  1.00  0.00     0.173 A 
ATOM     81  C   UNL A   1      44.094  26.132  26.007  1.00  0.00     0.173 A 
ATOM     82  F   UNL A   1      46.334  24.111  28.033  1.00  0.00    -0.203 F 
ATOM     83  C   UNL A   1      44.956  23.495  26.231  1.00  0.00     0.198 A 
ATOM     84  C   UNL A   1      43.600  25.149  25.149  1.00  0.00     0.198 A 
ATOM     85  F   UNL A   1      43.593  27.373  25.916  1.00  0.00    -0.203 F 
ATOM     86  F   UNL A   1      45.328  22.217  26.391  1.00  0.00    -0.200 F 
ATOM     87  C   UNL A   1      44.003  23.829  25.285  1.00  0.00     0.200 A 
ATOM     88  F   UNL A   1      42.653  25.465  24.254  1.00  0.00    -0.200 F 
ATOM     89  F   UNL A   1      43.434  22.872  24.538  1.00  0.00    -0.200 F 
ENDBRANCH  55  79
BRANCH  67  90
ATOM     90  C   UNL A   1      45.750  32.744  28.688  1.00  0.00     0.064 A 
ATOM     91  C   UNL A   1      46.796  33.424  29.329  1.00  0.00     0.173 A 
ATOM     92  C   UNL A   1      45.111  33.414  27.629  1.00  0.00     0.173 A 
ATOM     93  F   UNL A   1      47.447  32.858  30.356  1.00  0.00    -0.203 F 
ATOM     94  C   UNL A   1      47.188  34.700  28.924  1.00  0.00     0.198 A 
ATOM     95  C   UNL A   1      45.477  34.706  27.254  1.00  0.00     0.198 A 
ATOM     96  F   UNL A   1      44.137  32.820  26.922  1.00  0.00    -0.203 F 
ATOM     97  F   UNL A   1      48.217  35.304  29.535  1.00  0.00    -0.200 F 
ATOM     98  C   UNL A   1      46.518  35.346  27.900  1.00  0.00     0.200 A 
ATOM     99  F   UNL A   1      44.816  35.324  26.265  1.00  0.00    -0.200 F 
ATOM    100  F   UNL A   1      46.880  36.582  27.529  1.00  0.00    -0.200 F 
ENDBRANCH  67  90
ENDBRANCH  41  42
ENDBRANCH  33  36
ENDBRANCH  31  32
ENDBRANCH   1  31
TORSDOF 13
ENDMDL
