MODEL 1
REMARK VINA RESULT:     -13.1      0.000      0.000
REMARK SMILES C[C@H]1[C@H](C(=O)NCCCNC(=O)c2ccc(-c3c4nc(c(-c5c(F)c(F)c(F)c(F)c5F)c5ccc([nH]5)c(-c5c(F)c(F)c(F)c(F)c5F)c5nc(c(-c6c(F)c(F)c(F)c(F)c6F)c6ccc3[nH]6)C=C5)C=C4)cc2)CC[N@@H+]1Cc1cnn(-c2ccccc2)c1
REMARK SMILES IDX 7 1 6 2 4 3 5 4 3 6 1 7 2 8 78 9 76 10 77 11 79 13 80 14
REMARK SMILES IDX 81 15 90 16 82 17 83 18 84 19 85 20 89 21 86 22 88 23 87 24
REMARK SMILES IDX 8 25 9 26 10 27 11 28 12 30 13 31 14 32 75 33 15 34 74 35
REMARK SMILES IDX 16 36 17 37 18 38 68 39 19 40 73 41 67 42 69 43 20 44 72 45
REMARK SMILES IDX 66 46 65 47 21 49 53 50 33 51 52 52 34 53 37 54 51 55 70 56
REMARK SMILES IDX 35 57 36 58 50 60 71 61 38 62 22 63 23 64 31 65 24 66 25 67
REMARK SMILES IDX 29 68 32 69 26 70 27 71 30 72 28 73 54 74 55 75 63 76 56 77
REMARK SMILES IDX 57 78 61 79 64 80 58 81 59 82 62 83 60 84 39 85 40 86 48 87
REMARK SMILES IDX 41 88 42 89 46 90 49 91 43 92 44 93 47 94 45 95
REMARK H PARENT 6 5 78 12 10 29 69 48 37 59
REMARK Flexibility Score: inf
ROOT
ATOM      1  C   UNL A   1      31.325  29.172  24.860  1.00  0.00     0.117 C 
ENDROOT
BRANCH   1   2
ATOM      2  N   UNL A   1      31.110  29.432  23.462  1.00  0.00    -0.356 N 
ATOM      3  C   UNL A   1      30.570  28.626  22.514  1.00  0.00     0.229 C 
ATOM      4  O   UNL A   1      29.922  29.192  21.626  1.00  0.00    -0.275 OA
ATOM      5  H   UNL A   1      31.397  30.320  23.147  1.00  0.00     0.163 HD
BRANCH   3   6
ATOM      6  C   UNL A   1      30.741  27.114  22.467  1.00  0.00     0.142 C 
ATOM      7  C   UNL A   1      32.455  25.917  21.109  1.00  0.00     0.076 C 
ATOM      8  C   UNL A   1      32.142  26.482  22.509  1.00  0.00     0.193 C 
ATOM      9  N   UNL A   1      32.067  25.367  23.477  1.00  0.00    -0.328 N 
ATOM     10  C   UNL A   1      29.929  26.358  23.508  1.00  0.00     0.081 C 
ATOM     11  C   UNL A   1      30.655  25.023  23.603  1.00  0.00     0.263 C 
ATOM     12  H   UNL A   1      32.597  24.584  23.094  1.00  0.00     0.348 HD
BRANCH   9  13
ATOM     13  C   UNL A   1      32.861  25.429  24.721  1.00  0.00     0.302 C 
BRANCH  13  14
ATOM     14  C   UNL A   1      33.842  24.318  25.012  1.00  0.00     0.045 A 
ATOM     15  C   UNL A   1      33.660  23.065  25.645  1.00  0.00     0.145 A 
ATOM     16  C   UNL A   1      35.154  24.203  24.573  1.00  0.00     0.124 A 
ATOM     17  N   UNL A   1      34.802  22.425  25.901  1.00  0.00    -0.176 NA
ATOM     18  N   UNL A   1      35.734  23.140  25.246  1.00  0.00    -0.240 N 
BRANCH  18  19
ATOM     19  C   UNL A   1      37.100  23.027  25.593  1.00  0.00     0.065 A 
ATOM     20  C   UNL A   1      37.756  24.077  26.234  1.00  0.00     0.028 A 
ATOM     21  C   UNL A   1      37.754  21.805  25.380  1.00  0.00     0.028 A 
ATOM     22  C   UNL A   1      39.058  23.882  26.708  1.00  0.00     0.002 A 
ATOM     23  C   UNL A   1      39.032  21.603  25.903  1.00  0.00     0.002 A 
ATOM     24  C   UNL A   1      39.683  22.639  26.572  1.00  0.00     0.000 A 
ENDBRANCH  18  19
ENDBRANCH  13  14
ENDBRANCH   9  13
ENDBRANCH   3   6
ENDBRANCH   1   2
BRANCH   1  25
ATOM     25  C   UNL A   1      32.649  29.703  25.408  1.00  0.00     0.042 C 
BRANCH  25  26
ATOM     26  C   UNL A   1      32.580  29.878  26.925  1.00  0.00     0.118 C 
BRANCH  26  27
ATOM     27  N   UNL A   1      32.838  31.250  27.336  1.00  0.00    -0.352 N 
ATOM     28  C   UNL A   1      33.938  31.891  27.838  1.00  0.00     0.251 C 
ATOM     29  H   UNL A   1      32.057  31.841  27.231  1.00  0.00     0.163 HD
ATOM     30  O   UNL A   1      33.800  33.006  28.340  1.00  0.00    -0.269 OA
BRANCH  28  31
ATOM     31  C   UNL A   1      35.256  31.241  27.899  1.00  0.00     0.039 A 
ATOM     32  C   UNL A   1      36.380  32.070  28.001  1.00  0.00     0.014 A 
ATOM     33  C   UNL A   1      35.391  29.861  28.002  1.00  0.00     0.014 A 
ATOM     34  C   UNL A   1      37.583  31.536  28.436  1.00  0.00     0.010 A 
ATOM     35  C   UNL A   1      36.538  29.348  28.566  1.00  0.00     0.010 A 
ATOM     36  C   UNL A   1      37.611  30.200  28.847  1.00  0.00    -0.014 A 
BRANCH  36  37
ATOM     37  C   UNL A   1      38.685  29.704  29.720  1.00  0.00     0.031 A 
ATOM     38  C   UNL A   1      38.821  30.244  31.104  1.00  0.00     0.074 A 
ATOM     39  C   UNL A   1      39.602  28.882  29.171  1.00  0.00     0.049 A 
ATOM     40  N   UNL A   1      39.750  30.010  31.988  1.00  0.00    -0.248 NA
ATOM     41  C   UNL A   1      37.807  31.223  31.530  1.00  0.00     0.031 C 
ATOM     42  C   UNL A   1      39.599  28.420  27.776  1.00  0.00     0.029 A 
ATOM     43  N   UNL A   1      40.717  28.300  29.703  1.00  0.00    -0.354 N 
ATOM     44  C   UNL A   1      39.440  30.820  33.070  1.00  0.00     0.074 A 
ATOM     45  C   UNL A   1      38.288  31.612  32.701  1.00  0.00     0.031 C 
ATOM     46  C   UNL A   1      40.633  27.590  27.580  1.00  0.00     0.029 A 
ATOM     47  C   UNL A   1      41.390  27.491  28.818  1.00  0.00     0.049 A 
ATOM     48  H   UNL A   1      41.012  28.445  30.631  1.00  0.00     0.167 HD
ATOM     49  C   UNL A   1      40.052  30.863  34.274  1.00  0.00     0.037 A 
ATOM     50  C   UNL A   1      42.492  26.745  29.005  1.00  0.00     0.037 A 
ATOM     51  C   UNL A   1      41.189  30.048  34.602  1.00  0.00     0.049 A 
ATOM     52  C   UNL A   1      43.106  26.752  30.375  1.00  0.00     0.074 A 
ATOM     53  C   UNL A   1      41.882  29.958  35.793  1.00  0.00     0.029 A 
ATOM     54  N   UNL A   1      41.799  29.169  33.712  1.00  0.00    -0.354 N 
ATOM     55  N   UNL A   1      42.758  27.454  31.429  1.00  0.00    -0.248 NA
ATOM     56  C   UNL A   1      44.247  25.859  30.593  1.00  0.00     0.031 C 
ATOM     57  C   UNL A   1      42.927  29.043  35.616  1.00  0.00     0.029 A 
ATOM     58  C   UNL A   1      42.863  28.532  34.327  1.00  0.00     0.049 A 
ATOM     59  H   UNL A   1      41.515  29.021  32.781  1.00  0.00     0.167 HD
ATOM     60  C   UNL A   1      43.625  27.079  32.441  1.00  0.00     0.074 A 
ATOM     61  C   UNL A   1      44.499  26.066  31.878  1.00  0.00     0.031 C 
ATOM     62  C   UNL A   1      43.703  27.532  33.717  1.00  0.00     0.037 A 
BRANCH  49  63
ATOM     63  C   UNL A   1      39.480  31.804  35.294  1.00  0.00     0.064 A 
ATOM     64  C   UNL A   1      39.879  33.151  35.350  1.00  0.00     0.173 A 
ATOM     65  C   UNL A   1      38.562  31.354  36.253  1.00  0.00     0.173 A 
ATOM     66  F   UNL A   1      40.774  33.627  34.471  1.00  0.00    -0.203 F 
ATOM     67  C   UNL A   1      39.414  33.997  36.353  1.00  0.00     0.198 A 
ATOM     68  C   UNL A   1      38.075  32.212  37.236  1.00  0.00     0.198 A 
ATOM     69  F   UNL A   1      38.152  30.078  36.250  1.00  0.00    -0.203 F 
ATOM     70  F   UNL A   1      39.870  35.255  36.429  1.00  0.00    -0.200 F 
ATOM     71  C   UNL A   1      38.511  33.528  37.294  1.00  0.00     0.200 A 
ATOM     72  F   UNL A   1      37.198  31.761  38.143  1.00  0.00    -0.200 F 
ATOM     73  F   UNL A   1      38.074  34.340  38.266  1.00  0.00    -0.200 F 
ENDBRANCH  49  63
BRANCH  50  74
ATOM     74  C   UNL A   1      43.017  25.897  27.903  1.00  0.00     0.064 A 
ATOM     75  C   UNL A   1      43.896  26.428  26.948  1.00  0.00     0.173 A 
ATOM     76  C   UNL A   1      42.691  24.537  27.801  1.00  0.00     0.173 A 
ATOM     77  F   UNL A   1      44.236  27.723  26.999  1.00  0.00    -0.203 F 
ATOM     78  C   UNL A   1      44.409  25.637  25.921  1.00  0.00     0.198 A 
ATOM     79  C   UNL A   1      43.226  23.741  26.789  1.00  0.00     0.198 A 
ATOM     80  F   UNL A   1      41.871  23.973  28.700  1.00  0.00    -0.203 F 
ATOM     81  F   UNL A   1      45.219  26.179  25.002  1.00  0.00    -0.200 F 
ATOM     82  C   UNL A   1      44.078  24.293  25.845  1.00  0.00     0.200 A 
ATOM     83  F   UNL A   1      42.919  22.437  26.731  1.00  0.00    -0.200 F 
ATOM     84  F   UNL A   1      44.579  23.530  24.863  1.00  0.00    -0.200 F 
ENDBRANCH  50  74
BRANCH  62  85
ATOM     85  C   UNL A   1      44.766  26.919  34.574  1.00  0.00     0.064 A 
ATOM     86  C   UNL A   1      44.519  25.756  35.319  1.00  0.00     0.173 A 
ATOM     87  C   UNL A   1      46.047  27.483  34.626  1.00  0.00     0.173 A 
ATOM     88  F   UNL A   1      43.301  25.195  35.311  1.00  0.00    -0.203 F 
ATOM     89  C   UNL A   1      45.517  25.193  36.107  1.00  0.00     0.198 A 
ATOM     90  C   UNL A   1      47.050  26.901  35.393  1.00  0.00     0.198 A 
ATOM     91  F   UNL A   1      46.326  28.593  33.927  1.00  0.00    -0.203 F 
ATOM     92  F   UNL A   1      45.249  24.110  36.849  1.00  0.00    -0.200 F 
ATOM     93  C   UNL A   1      46.782  25.762  36.138  1.00  0.00     0.200 A 
ATOM     94  F   UNL A   1      48.275  27.444  35.415  1.00  0.00    -0.200 F 
ATOM     95  F   UNL A   1      47.744  25.215  36.895  1.00  0.00    -0.200 F 
ENDBRANCH  62  85
ENDBRANCH  36  37
ENDBRANCH  28  31
ENDBRANCH  26  27
ENDBRANCH  25  26
ENDBRANCH   1  25
TORSDOF 13
ENDMDL
MODEL 2
REMARK VINA RESULT:     -13.0      2.108      7.891
REMARK SMILES C[C@H]1[C@H](C(=O)NCCCNC(=O)c2ccc(-c3c4nc(c(-c5c(F)c(F)c(F)c(F)c5F)c5ccc([nH]5)c(-c5c(F)c(F)c(F)c(F)c5F)c5nc(c(-c6c(F)c(F)c(F)c(F)c6F)c6ccc3[nH]6)C=C5)C=C4)cc2)CC[N@@H+]1Cc1cnn(-c2ccccc2)c1
REMARK SMILES IDX 7 1 6 2 4 3 5 4 3 6 1 7 2 8 78 9 76 10 77 11 79 13 80 14
REMARK SMILES IDX 81 15 90 16 82 17 83 18 84 19 85 20 89 21 86 22 88 23 87 24
REMARK SMILES IDX 8 25 9 26 10 27 11 28 12 30 13 31 14 32 75 33 15 34 74 35
REMARK SMILES IDX 16 36 17 37 18 38 68 39 19 40 73 41 67 42 69 43 20 44 72 45
REMARK SMILES IDX 66 46 65 47 21 49 53 50 33 51 52 52 34 53 37 54 51 55 70 56
REMARK SMILES IDX 35 57 36 58 50 60 71 61 38 62 22 63 23 64 31 65 24 66 25 67
REMARK SMILES IDX 29 68 32 69 26 70 27 71 30 72 28 73 54 74 55 75 63 76 56 77
REMARK SMILES IDX 57 78 61 79 64 80 58 81 59 82 62 83 60 84 39 85 40 86 48 87
REMARK SMILES IDX 41 88 42 89 46 90 49 91 43 92 44 93 47 94 45 95
REMARK H PARENT 6 5 78 12 10 29 69 48 37 59
REMARK Flexibility Score: inf
ROOT
ATOM      1  C   UNL A   1      31.992  30.453  25.949  1.00  0.00     0.117 C 
ENDROOT
BRANCH   1   2
ATOM      2  N   UNL A   1      32.427  29.671  24.822  1.00  0.00    -0.356 N 
ATOM      3  C   UNL A   1      31.724  28.787  24.071  1.00  0.00     0.229 C 
ATOM      4  O   UNL A   1      32.031  28.727  22.875  1.00  0.00    -0.275 OA
ATOM      5  H   UNL A   1      33.368  29.794  24.559  1.00  0.00     0.163 HD
BRANCH   3   6
ATOM      6  C   UNL A   1      30.637  27.869  24.611  1.00  0.00     0.142 C 
ATOM      7  C   UNL A   1      28.444  27.453  23.501  1.00  0.00     0.076 C 
ATOM      8  C   UNL A   1      29.879  26.915  23.673  1.00  0.00     0.193 C 
ATOM      9  N   UNL A   1      29.828  25.607  24.360  1.00  0.00    -0.328 N 
ATOM     10  C   UNL A   1      31.069  27.010  25.791  1.00  0.00     0.081 C 
ATOM     11  C   UNL A   1      30.054  25.875  25.775  1.00  0.00     0.263 C 
ATOM     12  H   UNL A   1      28.900  25.211  24.211  1.00  0.00     0.348 HD
BRANCH   9  13
ATOM     13  C   UNL A   1      30.530  24.448  23.771  1.00  0.00     0.302 C 
BRANCH  13  14
ATOM     14  C   UNL A   1      32.015  24.556  23.509  1.00  0.00     0.045 A 
ATOM     15  C   UNL A   1      32.726  24.877  22.329  1.00  0.00     0.145 A 
ATOM     16  C   UNL A   1      33.047  24.515  24.437  1.00  0.00     0.124 A 
ATOM     17  N   UNL A   1      34.041  24.682  22.428  1.00  0.00    -0.176 NA
ATOM     18  N   UNL A   1      34.242  24.444  23.737  1.00  0.00    -0.240 N 
BRANCH  18  19
ATOM     19  C   UNL A   1      35.421  23.800  24.178  1.00  0.00     0.065 A 
ATOM     20  C   UNL A   1      35.950  24.078  25.437  1.00  0.00     0.028 A 
ATOM     21  C   UNL A   1      35.987  22.801  23.373  1.00  0.00     0.028 A 
ATOM     22  C   UNL A   1      37.021  23.314  25.912  1.00  0.00     0.002 A 
ATOM     23  C   UNL A   1      37.021  22.009  23.877  1.00  0.00     0.002 A 
ATOM     24  C   UNL A   1      37.535  22.262  25.149  1.00  0.00     0.000 A 
ENDBRANCH  18  19
ENDBRANCH  13  14
ENDBRANCH   9  13
ENDBRANCH   3   6
ENDBRANCH   1   2
BRANCH   1  25
ATOM     25  C   UNL A   1      32.736  30.156  27.251  1.00  0.00     0.042 C 
BRANCH  25  26
ATOM     26  C   UNL A   1      33.749  31.258  27.563  1.00  0.00     0.118 C 
BRANCH  26  27
ATOM     27  N   UNL A   1      33.161  32.588  27.487  1.00  0.00    -0.352 N 
ATOM     28  C   UNL A   1      33.341  33.738  28.205  1.00  0.00     0.251 C 
ATOM     29  H   UNL A   1      32.494  32.677  26.768  1.00  0.00     0.163 HD
ATOM     30  O   UNL A   1      32.521  34.649  28.087  1.00  0.00    -0.269 OA
BRANCH  28  31
ATOM     31  C   UNL A   1      34.417  33.875  29.198  1.00  0.00     0.039 A 
ATOM     32  C   UNL A   1      34.149  33.443  30.503  1.00  0.00     0.014 A 
ATOM     33  C   UNL A   1      35.699  34.276  28.842  1.00  0.00     0.014 A 
ATOM     34  C   UNL A   1      35.203  33.194  31.368  1.00  0.00     0.010 A 
ATOM     35  C   UNL A   1      36.757  33.900  29.641  1.00  0.00     0.010 A 
ATOM     36  C   UNL A   1      36.508  33.296  30.877  1.00  0.00    -0.014 A 
BRANCH  36  37
ATOM     37  C   UNL A   1      37.625  32.629  31.564  1.00  0.00     0.031 A 
ATOM     38  C   UNL A   1      38.301  31.467  30.917  1.00  0.00     0.074 A 
ATOM     39  C   UNL A   1      37.890  33.007  32.830  1.00  0.00     0.049 A 
ATOM     40  N   UNL A   1      39.231  30.689  31.396  1.00  0.00    -0.248 NA
ATOM     41  C   UNL A   1      37.827  31.094  29.574  1.00  0.00     0.031 C 
ATOM     42  C   UNL A   1      37.172  34.054  33.570  1.00  0.00     0.029 A 
ATOM     43  N   UNL A   1      38.819  32.556  33.725  1.00  0.00    -0.354 N 
ATOM     44  C   UNL A   1      39.446  29.729  30.419  1.00  0.00     0.074 A 
ATOM     45  C   UNL A   1      38.494  29.971  29.358  1.00  0.00     0.031 C 
ATOM     46  C   UNL A   1      37.718  34.193  34.786  1.00  0.00     0.029 A 
ATOM     47  C   UNL A   1      38.796  33.227  34.924  1.00  0.00     0.049 A 
ATOM     48  H   UNL A   1      39.444  31.821  33.531  1.00  0.00     0.167 HD
ATOM     49  C   UNL A   1      40.385  28.757  30.405  1.00  0.00     0.037 A 
ATOM     50  C   UNL A   1      39.578  33.075  36.008  1.00  0.00     0.037 A 
ATOM     51  C   UNL A   1      41.321  28.560  31.478  1.00  0.00     0.049 A 
ATOM     52  C   UNL A   1      40.662  32.039  35.936  1.00  0.00     0.074 A 
ATOM     53  C   UNL A   1      42.349  27.645  31.580  1.00  0.00     0.029 A 
ATOM     54  N   UNL A   1      41.333  29.314  32.648  1.00  0.00    -0.354 N 
ATOM     55  N   UNL A   1      40.923  31.188  34.971  1.00  0.00    -0.248 NA
ATOM     56  C   UNL A   1      41.570  31.951  37.083  1.00  0.00     0.031 C 
ATOM     57  C   UNL A   1      42.969  27.827  32.823  1.00  0.00     0.029 A 
ATOM     58  C   UNL A   1      42.351  28.883  33.481  1.00  0.00     0.049 A 
ATOM     59  H   UNL A   1      40.709  30.047  32.854  1.00  0.00     0.167 HD
ATOM     60  C   UNL A   1      42.033  30.471  35.385  1.00  0.00     0.074 A 
ATOM     61  C   UNL A   1      42.411  31.009  36.679  1.00  0.00     0.031 C 
ATOM     62  C   UNL A   1      42.681  29.454  34.763  1.00  0.00     0.037 A 
BRANCH  49  63
ATOM     63  C   UNL A   1      40.433  27.874  29.193  1.00  0.00     0.064 A 
ATOM     64  C   UNL A   1      41.208  28.215  28.070  1.00  0.00     0.173 A 
ATOM     65  C   UNL A   1      39.667  26.702  29.126  1.00  0.00     0.173 A 
ATOM     66  F   UNL A   1      41.940  29.340  28.073  1.00  0.00    -0.203 F 
ATOM     67  C   UNL A   1      41.178  27.441  26.914  1.00  0.00     0.198 A 
ATOM     68  C   UNL A   1      39.665  25.913  27.978  1.00  0.00     0.198 A 
ATOM     69  F   UNL A   1      38.905  26.333  30.165  1.00  0.00    -0.203 F 
ATOM     70  F   UNL A   1      41.867  27.830  25.832  1.00  0.00    -0.200 F 
ATOM     71  C   UNL A   1      40.409  26.289  26.870  1.00  0.00     0.200 A 
ATOM     72  F   UNL A   1      38.924  24.796  27.937  1.00  0.00    -0.200 F 
ATOM     73  F   UNL A   1      40.372  25.550  25.753  1.00  0.00    -0.200 F 
ENDBRANCH  49  63
BRANCH  50  74
ATOM     74  C   UNL A   1      39.402  33.961  37.187  1.00  0.00     0.064 A 
ATOM     75  C   UNL A   1      38.683  33.525  38.310  1.00  0.00     0.173 A 
ATOM     76  C   UNL A   1      39.977  35.239  37.241  1.00  0.00     0.173 A 
ATOM     77  F   UNL A   1      38.110  32.313  38.308  1.00  0.00    -0.203 F 
ATOM     78  C   UNL A   1      38.527  34.341  39.430  1.00  0.00     0.198 A 
ATOM     79  C   UNL A   1      39.844  36.043  38.372  1.00  0.00     0.198 A 
ATOM     80  F   UNL A   1      40.693  35.697  36.203  1.00  0.00    -0.203 F 
ATOM     81  F   UNL A   1      37.806  33.911  40.474  1.00  0.00    -0.200 F 
ATOM     82  C   UNL A   1      39.112  35.597  39.462  1.00  0.00     0.200 A 
ATOM     83  F   UNL A   1      40.427  37.249  38.407  1.00  0.00    -0.200 F 
ATOM     84  F   UNL A   1      38.971  36.378  40.542  1.00  0.00    -0.200 F 
ENDBRANCH  50  74
BRANCH  62  85
ATOM     85  C   UNL A   1      43.862  28.881  35.482  1.00  0.00     0.064 A 
ATOM     86  C   UNL A   1      45.156  29.374  35.263  1.00  0.00     0.173 A 
ATOM     87  C   UNL A   1      43.690  27.853  36.418  1.00  0.00     0.173 A 
ATOM     88  F   UNL A   1      45.366  30.345  34.363  1.00  0.00    -0.203 F 
ATOM     89  C   UNL A   1      46.244  28.836  35.943  1.00  0.00     0.198 A 
ATOM     90  C   UNL A   1      44.776  27.337  37.115  1.00  0.00     0.198 A 
ATOM     91  F   UNL A   1      42.468  27.355  36.660  1.00  0.00    -0.203 F 
ATOM     92  F   UNL A   1      47.480  29.286  35.685  1.00  0.00    -0.200 F 
ATOM     93  C   UNL A   1      46.052  27.824  36.872  1.00  0.00     0.200 A 
ATOM     94  F   UNL A   1      44.590  26.367  38.021  1.00  0.00    -0.200 F 
ATOM     95  F   UNL A   1      47.102  27.311  37.529  1.00  0.00    -0.200 F 
ENDBRANCH  62  85
ENDBRANCH  36  37
ENDBRANCH  28  31
ENDBRANCH  26  27
ENDBRANCH  25  26
ENDBRANCH   1  25
TORSDOF 13
ENDMDL
MODEL 3
REMARK VINA RESULT:     -13.0      1.101      1.702
REMARK SMILES C[C@H]1[C@H](C(=O)NCCCNC(=O)c2ccc(-c3c4nc(c(-c5c(F)c(F)c(F)c(F)c5F)c5ccc([nH]5)c(-c5c(F)c(F)c(F)c(F)c5F)c5nc(c(-c6c(F)c(F)c(F)c(F)c6F)c6ccc3[nH]6)C=C5)C=C4)cc2)CC[N@@H+]1Cc1cnn(-c2ccccc2)c1
REMARK SMILES IDX 7 1 6 2 4 3 5 4 3 6 1 7 2 8 78 9 76 10 77 11 79 13 80 14
REMARK SMILES IDX 81 15 90 16 82 17 83 18 84 19 85 20 89 21 86 22 88 23 87 24
REMARK SMILES IDX 8 25 9 26 10 27 11 28 12 30 13 31 14 32 75 33 15 34 74 35
REMARK SMILES IDX 16 36 17 37 18 38 68 39 19 40 73 41 67 42 69 43 20 44 72 45
REMARK SMILES IDX 66 46 65 47 21 49 53 50 33 51 52 52 34 53 37 54 51 55 70 56
REMARK SMILES IDX 35 57 36 58 50 60 71 61 38 62 22 63 23 64 31 65 24 66 25 67
REMARK SMILES IDX 29 68 32 69 26 70 27 71 30 72 28 73 54 74 55 75 63 76 56 77
REMARK SMILES IDX 57 78 61 79 64 80 58 81 59 82 62 83 60 84 39 85 40 86 48 87
REMARK SMILES IDX 41 88 42 89 46 90 49 91 43 92 44 93 47 94 45 95
REMARK H PARENT 6 5 78 12 10 29 69 48 37 59
REMARK Flexibility Score: inf
ROOT
ATOM      1  C   UNL A   1      32.301  28.348  27.520  1.00  0.00     0.117 C 
ENDROOT
BRANCH   1   2
ATOM      2  N   UNL A   1      31.428  27.226  27.298  1.00  0.00    -0.356 N 
ATOM      3  C   UNL A   1      31.348  26.402  26.225  1.00  0.00     0.229 C 
ATOM      4  O   UNL A   1      31.047  25.227  26.464  1.00  0.00    -0.275 OA
ATOM      5  H   UNL A   1      30.799  27.028  28.030  1.00  0.00     0.163 HD
BRANCH   3   6
ATOM      6  C   UNL A   1      31.568  26.838  24.783  1.00  0.00     0.142 C 
ATOM      7  C   UNL A   1      33.632  27.944  23.929  1.00  0.00     0.076 C 
ATOM      8  C   UNL A   1      32.915  26.588  24.084  1.00  0.00     0.193 C 
ATOM      9  N   UNL A   1      32.595  26.051  22.744  1.00  0.00    -0.328 N 
ATOM     10  C   UNL A   1      30.512  26.339  23.808  1.00  0.00     0.081 C 
ATOM     11  C   UNL A   1      31.217  26.436  22.462  1.00  0.00     0.263 C 
ATOM     12  H   UNL A   1      33.234  26.480  22.075  1.00  0.00     0.348 HD
BRANCH   9  13
ATOM     13  C   UNL A   1      32.995  24.671  22.399  1.00  0.00     0.302 C 
BRANCH  13  14
ATOM     14  C   UNL A   1      33.770  23.865  23.416  1.00  0.00     0.045 A 
ATOM     15  C   UNL A   1      33.352  23.244  24.616  1.00  0.00     0.145 A 
ATOM     16  C   UNL A   1      35.076  23.406  23.322  1.00  0.00     0.124 A 
ATOM     17  N   UNL A   1      34.360  22.784  25.359  1.00  0.00    -0.176 NA
ATOM     18  N   UNL A   1      35.436  22.896  24.559  1.00  0.00    -0.240 N 
BRANCH  18  19
ATOM     19  C   UNL A   1      36.740  22.894  25.106  1.00  0.00     0.065 A 
ATOM     20  C   UNL A   1      37.212  23.999  25.812  1.00  0.00     0.028 A 
ATOM     21  C   UNL A   1      37.509  21.725  25.019  1.00  0.00     0.028 A 
ATOM     22  C   UNL A   1      38.440  23.912  26.478  1.00  0.00     0.002 A 
ATOM     23  C   UNL A   1      38.707  21.629  25.729  1.00  0.00     0.002 A 
ATOM     24  C   UNL A   1      39.170  22.721  26.463  1.00  0.00     0.000 A 
ENDBRANCH  18  19
ENDBRANCH  13  14
ENDBRANCH   9  13
ENDBRANCH   3   6
ENDBRANCH   1   2
BRANCH   1  25
ATOM     25  C   UNL A   1      31.681  29.707  27.198  1.00  0.00     0.042 C 
BRANCH  25  26
ATOM     26  C   UNL A   1      32.697  30.621  26.513  1.00  0.00     0.118 C 
BRANCH  26  27
ATOM     27  N   UNL A   1      32.874  31.880  27.219  1.00  0.00    -0.352 N 
ATOM     28  C   UNL A   1      33.913  32.425  27.924  1.00  0.00     0.251 C 
ATOM     29  H   UNL A   1      32.080  32.461  27.183  1.00  0.00     0.163 HD
ATOM     30  O   UNL A   1      33.698  33.406  28.638  1.00  0.00    -0.269 OA
BRANCH  28  31
ATOM     31  C   UNL A   1      35.247  31.809  27.946  1.00  0.00     0.039 A 
ATOM     32  C   UNL A   1      36.341  32.647  28.194  1.00  0.00     0.014 A 
ATOM     33  C   UNL A   1      35.421  30.432  27.871  1.00  0.00     0.014 A 
ATOM     34  C   UNL A   1      37.546  32.092  28.597  1.00  0.00     0.010 A 
ATOM     35  C   UNL A   1      36.565  29.878  28.403  1.00  0.00     0.010 A 
ATOM     36  C   UNL A   1      37.602  30.714  28.830  1.00  0.00    -0.014 A 
BRANCH  36  37
ATOM     37  C   UNL A   1      38.663  30.135  29.668  1.00  0.00     0.031 A 
ATOM     38  C   UNL A   1      38.819  30.588  31.080  1.00  0.00     0.074 A 
ATOM     39  C   UNL A   1      39.554  29.322  29.066  1.00  0.00     0.049 A 
ATOM     40  N   UNL A   1      39.743  30.274  31.945  1.00  0.00    -0.248 NA
ATOM     41  C   UNL A   1      37.836  31.569  31.568  1.00  0.00     0.031 C 
ATOM     42  C   UNL A   1      39.534  28.943  27.647  1.00  0.00     0.029 A 
ATOM     43  N   UNL A   1      40.653  28.675  29.558  1.00  0.00    -0.354 N 
ATOM     44  C   UNL A   1      39.460  31.027  33.074  1.00  0.00     0.074 A 
ATOM     45  C   UNL A   1      38.331  31.873  32.758  1.00  0.00     0.031 C 
ATOM     46  C   UNL A   1      40.543  28.097  27.397  1.00  0.00     0.029 A 
ATOM     47  C   UNL A   1      41.299  27.902  28.624  1.00  0.00     0.049 A 
ATOM     48  H   UNL A   1      40.955  28.757  30.492  1.00  0.00     0.167 HD
ATOM     49  C   UNL A   1      40.076  30.980  34.277  1.00  0.00     0.037 A 
ATOM     50  C   UNL A   1      42.380  27.114  28.761  1.00  0.00     0.037 A 
ATOM     51  C   UNL A   1      41.190  30.114  34.550  1.00  0.00     0.049 A 
ATOM     52  C   UNL A   1      42.997  27.021  30.126  1.00  0.00     0.074 A 
ATOM     53  C   UNL A   1      41.883  29.933  35.730  1.00  0.00     0.029 A 
ATOM     54  N   UNL A   1      41.771  29.272  33.606  1.00  0.00    -0.354 N 
ATOM     55  N   UNL A   1      42.672  27.669  31.221  1.00  0.00    -0.248 NA
ATOM     56  C   UNL A   1      44.112  26.084  30.285  1.00  0.00     0.031 C 
ATOM     57  C   UNL A   1      42.900  28.999  35.495  1.00  0.00     0.029 A 
ATOM     58  C   UNL A   1      42.817  28.569  34.177  1.00  0.00     0.049 A 
ATOM     59  H   UNL A   1      41.480  29.188  32.670  1.00  0.00     0.167 HD
ATOM     60  C   UNL A   1      43.531  27.209  32.205  1.00  0.00     0.074 A 
ATOM     61  C   UNL A   1      44.373  26.206  31.579  1.00  0.00     0.031 C 
ATOM     62  C   UNL A   1      43.626  27.582  33.506  1.00  0.00     0.037 A 
BRANCH  49  63
ATOM     63  C   UNL A   1      39.535  31.875  35.353  1.00  0.00     0.064 A 
ATOM     64  C   UNL A   1      39.979  33.201  35.493  1.00  0.00     0.173 A 
ATOM     65  C   UNL A   1      38.600  31.398  36.282  1.00  0.00     0.173 A 
ATOM     66  F   UNL A   1      40.892  33.700  34.645  1.00  0.00    -0.203 F 
ATOM     67  C   UNL A   1      39.543  33.998  36.546  1.00  0.00     0.198 A 
ATOM     68  C   UNL A   1      38.142  32.210  37.317  1.00  0.00     0.198 A 
ATOM     69  F   UNL A   1      38.147  30.139  36.200  1.00  0.00    -0.203 F 
ATOM     70  F   UNL A   1      40.041  35.234  36.700  1.00  0.00    -0.200 F 
ATOM     71  C   UNL A   1      38.622  33.503  37.456  1.00  0.00     0.200 A 
ATOM     72  F   UNL A   1      37.248  31.733  38.195  1.00  0.00    -0.200 F 
ATOM     73  F   UNL A   1      38.211  34.268  38.477  1.00  0.00    -0.200 F 
ENDBRANCH  49  63
BRANCH  50  74
ATOM     74  C   UNL A   1      42.876  26.318  27.608  1.00  0.00     0.064 A 
ATOM     75  C   UNL A   1      42.336  25.055  27.323  1.00  0.00     0.173 A 
ATOM     76  C   UNL A   1      43.863  26.813  26.743  1.00  0.00     0.173 A 
ATOM     77  F   UNL A   1      41.393  24.536  28.122  1.00  0.00    -0.203 F 
ATOM     78  C   UNL A   1      42.781  24.308  26.233  1.00  0.00     0.198 A 
ATOM     79  C   UNL A   1      44.288  26.076  25.637  1.00  0.00     0.198 A 
ATOM     80  F   UNL A   1      44.398  28.024  26.956  1.00  0.00    -0.203 F 
ATOM     81  F   UNL A   1      42.273  23.090  26.007  1.00  0.00    -0.200 F 
ATOM     82  C   UNL A   1      43.753  24.821  25.388  1.00  0.00     0.200 A 
ATOM     83  F   UNL A   1      45.213  26.585  24.811  1.00  0.00    -0.200 F 
ATOM     84  F   UNL A   1      44.173  24.108  24.334  1.00  0.00    -0.200 F 
ENDBRANCH  50  74
BRANCH  62  85
ATOM     85  C   UNL A   1      44.672  26.888  34.320  1.00  0.00     0.064 A 
ATOM     86  C   UNL A   1      44.396  25.686  34.987  1.00  0.00     0.173 A 
ATOM     87  C   UNL A   1      45.967  27.416  34.408  1.00  0.00     0.173 A 
ATOM     88  F   UNL A   1      43.164  25.156  34.943  1.00  0.00    -0.203 F 
ATOM     89  C   UNL A   1      45.379  25.048  35.736  1.00  0.00     0.198 A 
ATOM     90  C   UNL A   1      46.954  26.760  35.135  1.00  0.00     0.198 A 
ATOM     91  F   UNL A   1      46.274  28.562  33.782  1.00  0.00    -0.203 F 
ATOM     92  F   UNL A   1      45.083  23.925  36.406  1.00  0.00    -0.200 F 
ATOM     93  C   UNL A   1      46.657  25.582  35.803  1.00  0.00     0.200 A 
ATOM     94  F   UNL A   1      48.192  27.270  35.191  1.00  0.00    -0.200 F 
ATOM     95  F   UNL A   1      47.605  24.962  36.522  1.00  0.00    -0.200 F 
ENDBRANCH  62  85
ENDBRANCH  36  37
ENDBRANCH  28  31
ENDBRANCH  26  27
ENDBRANCH  25  26
ENDBRANCH   1  25
TORSDOF 13
ENDMDL
