MODEL 1
REMARK VINA RESULT:     -10.3      0.000      0.000
REMARK SMILES [NH3+]CCOCC(=O)N[C@H](C(=O)NCCCNC(=O)c1ccc(-c2c3nc(c(-c4c(F)c(F)c(F)c(F)c4F)c4ccc([nH]4)c(-c4c(F)c(F)c(F)c(F)c4F)c4nc(c(-c5c(F)c(F)c(F)c(F)c5F)c5ccc2[nH]5)C=C4)C=C3)cc1)c1ccccc1
REMARK SMILES IDX 10 1 11 2 12 3 9 5 8 6 6 7 7 8 5 10 4 11 3 12 2 13 1 14
REMARK SMILES IDX 82 18 83 19 87 20 84 21 86 22 85 23 13 24 14 25 15 26 16 27
REMARK SMILES IDX 17 28 18 30 19 31 20 32 81 33 21 34 80 35 22 36 23 37 24 38
REMARK SMILES IDX 74 39 25 40 79 41 73 42 75 43 26 44 78 45 72 46 71 47 27 49
REMARK SMILES IDX 59 50 39 51 58 52 40 53 43 54 57 55 76 56 41 57 42 58 56 60
REMARK SMILES IDX 77 61 44 62 28 63 29 64 37 65 30 66 31 67 35 68 38 69 32 70
REMARK SMILES IDX 33 71 36 72 34 73 60 74 61 75 69 76 62 77 63 78 67 79 70 80
REMARK SMILES IDX 64 81 65 82 68 83 66 84 45 85 46 86 54 87 47 88 48 89 52 90
REMARK SMILES IDX 55 91 49 92 50 93 53 94 51 95
REMARK H PARENT 12 4 8 9 1 15 1 16 1 17 16 29 75 48 43 59
REMARK Flexibility Score: inf
ROOT
ATOM      1  C   UNL A   1      44.213  22.991  24.912  1.00  0.00     0.247 C 
ATOM      2  O   UNL A   1      44.635  23.724  24.014  1.00  0.00    -0.272 OA
ATOM      3  N   UNL A   1      42.885  22.656  24.890  1.00  0.00    -0.354 N 
ATOM      4  H   UNL A   1      42.331  23.153  24.246  1.00  0.00     0.163 HD
ENDROOT
BRANCH   1   5
ATOM      5  C   UNL A   1      45.165  22.368  25.977  1.00  0.00     0.202 C 
BRANCH   5   6
ATOM      6  N   UNL A   1      46.183  21.572  25.266  1.00  0.00    -0.339 N 
ATOM      7  C   UNL A   1      46.124  20.293  24.805  1.00  0.00     0.246 C 
ATOM      8  O   UNL A   1      47.155  19.801  24.334  1.00  0.00    -0.272 OA
ATOM      9  H   UNL A   1      47.035  22.036  25.099  1.00  0.00     0.164 HD
BRANCH   7  10
ATOM     10  C   UNL A   1      44.819  19.490  24.828  1.00  0.00     0.260 C 
BRANCH  10  11
ATOM     11  O   UNL A   1      44.928  18.130  25.191  1.00  0.00    -0.366 OA
BRANCH  11  12
ATOM     12  C   UNL A   1      44.262  17.770  26.402  1.00  0.00     0.222 C 
BRANCH  12  13
ATOM     13  C   UNL A   1      42.828  18.314  26.537  1.00  0.00     0.287 C 
BRANCH  13  14
ATOM     14  N   UNL A   1      42.437  18.749  27.881  1.00  0.00    -0.356 N 
ATOM     15  H   UNL A   1      41.491  19.128  27.854  1.00  0.00     0.344 HD
ATOM     16  H   UNL A   1      43.084  19.468  28.206  1.00  0.00     0.344 HD
ATOM     17  H   UNL A   1      42.467  17.952  28.518  1.00  0.00     0.344 HD
ENDBRANCH  13  14
ENDBRANCH  12  13
ENDBRANCH  11  12
ENDBRANCH  10  11
ENDBRANCH   7  10
ENDBRANCH   5   6
BRANCH   5  18
ATOM     18  C   UNL A   1      45.780  23.504  26.824  1.00  0.00    -0.016 A 
ATOM     19  C   UNL A   1      46.986  24.109  26.407  1.00  0.00     0.006 A 
ATOM     20  C   UNL A   1      45.259  23.889  28.071  1.00  0.00     0.006 A 
ATOM     21  C   UNL A   1      47.723  24.923  27.269  1.00  0.00     0.000 A 
ATOM     22  C   UNL A   1      46.001  24.705  28.932  1.00  0.00     0.000 A 
ATOM     23  C   UNL A   1      47.245  25.195  28.543  1.00  0.00     0.000 A 
ENDBRANCH   5  18
ENDBRANCH   1   5
BRANCH   3  24
ATOM     24  C   UNL A   1      42.185  21.663  25.688  1.00  0.00     0.117 C 
BRANCH  24  25
ATOM     25  C   UNL A   1      41.807  22.198  27.059  1.00  0.00     0.042 C 
BRANCH  25  26
ATOM     26  C   UNL A   1      40.381  21.842  27.441  1.00  0.00     0.118 C 
BRANCH  26  27
ATOM     27  N   UNL A   1      39.433  22.253  26.415  1.00  0.00    -0.352 N 
ATOM     28  C   UNL A   1      38.749  23.435  26.280  1.00  0.00     0.251 C 
ATOM     29  H   UNL A   1      39.256  21.584  25.715  1.00  0.00     0.163 HD
ATOM     30  O   UNL A   1      37.773  23.497  25.541  1.00  0.00    -0.269 OA
BRANCH  28  31
ATOM     31  C   UNL A   1      39.193  24.630  27.024  1.00  0.00     0.039 A 
ATOM     32  C   UNL A   1      39.985  25.582  26.378  1.00  0.00     0.014 A 
ATOM     33  C   UNL A   1      38.858  24.790  28.370  1.00  0.00     0.014 A 
ATOM     34  C   UNL A   1      40.402  26.717  27.075  1.00  0.00     0.010 A 
ATOM     35  C   UNL A   1      39.179  25.967  29.029  1.00  0.00     0.010 A 
ATOM     36  C   UNL A   1      39.983  26.927  28.398  1.00  0.00    -0.014 A 
BRANCH  36  37
ATOM     37  C   UNL A   1      40.409  28.120  29.165  1.00  0.00     0.031 A 
ATOM     38  C   UNL A   1      41.799  28.183  29.736  1.00  0.00     0.074 A 
ATOM     39  C   UNL A   1      39.523  29.101  29.418  1.00  0.00     0.049 A 
ATOM     40  N   UNL A   1      42.340  29.097  30.499  1.00  0.00    -0.248 NA
ATOM     41  C   UNL A   1      42.683  27.043  29.447  1.00  0.00     0.031 C 
ATOM     42  C   UNL A   1      38.125  29.109  28.987  1.00  0.00     0.029 A 
ATOM     43  N   UNL A   1      39.666  30.273  30.113  1.00  0.00    -0.354 N 
ATOM     44  C   UNL A   1      43.611  28.625  30.805  1.00  0.00     0.074 A 
ATOM     45  C   UNL A   1      43.736  27.318  30.199  1.00  0.00     0.031 C 
ATOM     46  C   UNL A   1      37.543  30.241  29.410  1.00  0.00     0.029 A 
ATOM     47  C   UNL A   1      38.518  31.023  30.163  1.00  0.00     0.049 A 
ATOM     48  H   UNL A   1      40.510  30.550  30.536  1.00  0.00     0.167 HD
ATOM     49  C   UNL A   1      44.594  29.239  31.505  1.00  0.00     0.037 A 
ATOM     50  C   UNL A   1      38.283  32.211  30.750  1.00  0.00     0.037 A 
ATOM     51  C   UNL A   1      44.476  30.559  32.061  1.00  0.00     0.049 A 
ATOM     52  C   UNL A   1      39.406  32.906  31.468  1.00  0.00     0.074 A 
ATOM     53  C   UNL A   1      45.440  31.319  32.699  1.00  0.00     0.029 A 
ATOM     54  N   UNL A   1      43.314  31.318  32.043  1.00  0.00    -0.354 N 
ATOM     55  N   UNL A   1      40.634  32.494  31.674  1.00  0.00    -0.248 NA
ATOM     56  C   UNL A   1      39.116  34.234  32.021  1.00  0.00     0.031 C 
ATOM     57  C   UNL A   1      44.850  32.523  33.100  1.00  0.00     0.029 A 
ATOM     58  C   UNL A   1      43.530  32.531  32.678  1.00  0.00     0.049 A 
ATOM     59  H   UNL A   1      42.462  31.036  31.639  1.00  0.00     0.167 HD
ATOM     60  C   UNL A   1      41.267  33.513  32.370  1.00  0.00     0.074 A 
ATOM     61  C   UNL A   1      40.292  34.574  32.531  1.00  0.00     0.031 C 
ATOM     62  C   UNL A   1      42.539  33.566  32.836  1.00  0.00     0.037 A 
BRANCH  49  63
ATOM     63  C   UNL A   1      45.878  28.483  31.694  1.00  0.00     0.064 A 
ATOM     64  C   UNL A   1      46.119  27.710  32.840  1.00  0.00     0.173 A 
ATOM     65  C   UNL A   1      46.887  28.540  30.720  1.00  0.00     0.173 A 
ATOM     66  F   UNL A   1      45.194  27.634  33.810  1.00  0.00    -0.203 F 
ATOM     67  C   UNL A   1      47.337  27.063  33.027  1.00  0.00     0.198 A 
ATOM     68  C   UNL A   1      48.092  27.863  30.895  1.00  0.00     0.198 A 
ATOM     69  F   UNL A   1      46.709  29.260  29.601  1.00  0.00    -0.203 F 
ATOM     70  F   UNL A   1      47.569  26.389  34.163  1.00  0.00    -0.200 F 
ATOM     71  C   UNL A   1      48.320  27.136  32.052  1.00  0.00     0.200 A 
ATOM     72  F   UNL A   1      49.037  27.926  29.947  1.00  0.00    -0.200 F 
ATOM     73  F   UNL A   1      49.494  26.517  32.236  1.00  0.00    -0.200 F 
ENDBRANCH  49  63
BRANCH  50  74
ATOM     74  C   UNL A   1      36.937  32.825  30.635  1.00  0.00     0.064 A 
ATOM     75  C   UNL A   1      36.001  32.700  31.670  1.00  0.00     0.173 A 
ATOM     76  C   UNL A   1      36.580  33.593  29.518  1.00  0.00     0.173 A 
ATOM     77  F   UNL A   1      36.294  31.962  32.752  1.00  0.00    -0.203 F 
ATOM     78  C   UNL A   1      34.754  33.315  31.589  1.00  0.00     0.198 A 
ATOM     79  C   UNL A   1      35.341  34.227  29.448  1.00  0.00     0.198 A 
ATOM     80  F   UNL A   1      37.447  33.750  28.506  1.00  0.00    -0.203 F 
ATOM     81  F   UNL A   1      33.869  33.162  32.583  1.00  0.00    -0.200 F 
ATOM     82  C   UNL A   1      34.429  34.085  30.483  1.00  0.00     0.200 A 
ATOM     83  F   UNL A   1      35.036  34.983  28.385  1.00  0.00    -0.200 F 
ATOM     84  F   UNL A   1      33.236  34.692  30.414  1.00  0.00    -0.200 F 
ENDBRANCH  50  74
BRANCH  62  85
ATOM     85  C   UNL A   1      42.948  34.813  33.562  1.00  0.00     0.064 A 
ATOM     86  C   UNL A   1      43.405  35.944  32.870  1.00  0.00     0.173 A 
ATOM     87  C   UNL A   1      42.847  34.889  34.959  1.00  0.00     0.173 A 
ATOM     88  F   UNL A   1      43.532  35.912  31.535  1.00  0.00    -0.203 F 
ATOM     89  C   UNL A   1      43.766  37.101  33.554  1.00  0.00     0.198 A 
ATOM     90  C   UNL A   1      43.183  36.057  35.636  1.00  0.00     0.198 A 
ATOM     91  F   UNL A   1      42.410  33.835  35.664  1.00  0.00    -0.203 F 
ATOM     92  F   UNL A   1      44.240  38.156  32.877  1.00  0.00    -0.200 F 
ATOM     93  C   UNL A   1      43.649  37.159  34.935  1.00  0.00     0.200 A 
ATOM     94  F   UNL A   1      43.059  36.116  36.970  1.00  0.00    -0.200 F 
ATOM     95  F   UNL A   1      43.992  38.277  35.592  1.00  0.00    -0.200 F 
ENDBRANCH  62  85
ENDBRANCH  36  37
ENDBRANCH  28  31
ENDBRANCH  26  27
ENDBRANCH  25  26
ENDBRANCH  24  25
ENDBRANCH   3  24
TORSDOF 17
ENDMDL
MODEL 2
REMARK VINA RESULT:     -10.3      4.123      9.873
REMARK SMILES [NH3+]CCOCC(=O)N[C@H](C(=O)NCCCNC(=O)c1ccc(-c2c3nc(c(-c4c(F)c(F)c(F)c(F)c4F)c4ccc([nH]4)c(-c4c(F)c(F)c(F)c(F)c4F)c4nc(c(-c5c(F)c(F)c(F)c(F)c5F)c5ccc2[nH]5)C=C4)C=C3)cc1)c1ccccc1
REMARK SMILES IDX 10 1 11 2 12 3 9 5 8 6 6 7 7 8 5 10 4 11 3 12 2 13 1 14
REMARK SMILES IDX 82 18 83 19 87 20 84 21 86 22 85 23 13 24 14 25 15 26 16 27
REMARK SMILES IDX 17 28 18 30 19 31 20 32 81 33 21 34 80 35 22 36 23 37 24 38
REMARK SMILES IDX 74 39 25 40 79 41 73 42 75 43 26 44 78 45 72 46 71 47 27 49
REMARK SMILES IDX 59 50 39 51 58 52 40 53 43 54 57 55 76 56 41 57 42 58 56 60
REMARK SMILES IDX 77 61 44 62 28 63 29 64 37 65 30 66 31 67 35 68 38 69 32 70
REMARK SMILES IDX 33 71 36 72 34 73 60 74 61 75 69 76 62 77 63 78 67 79 70 80
REMARK SMILES IDX 64 81 65 82 68 83 66 84 45 85 46 86 54 87 47 88 48 89 52 90
REMARK SMILES IDX 55 91 49 92 50 93 53 94 51 95
REMARK H PARENT 12 4 8 9 1 15 1 16 1 17 16 29 75 48 43 59
REMARK Flexibility Score: inf
ROOT
ATOM      1  C   UNL A   1      33.516  25.570  23.180  1.00  0.00     0.247 C 
ATOM      2  O   UNL A   1      33.753  25.728  21.979  1.00  0.00    -0.272 OA
ATOM      3  N   UNL A   1      33.174  26.676  23.912  1.00  0.00    -0.354 N 
ATOM      4  H   UNL A   1      33.295  27.541  23.460  1.00  0.00     0.163 HD
ENDROOT
BRANCH   1   5
ATOM      5  C   UNL A   1      33.491  24.155  23.832  1.00  0.00     0.202 C 
BRANCH   5   6
ATOM      6  N   UNL A   1      32.907  23.216  22.856  1.00  0.00    -0.339 N 
ATOM      7  C   UNL A   1      32.438  21.951  23.037  1.00  0.00     0.246 C 
ATOM      8  O   UNL A   1      32.094  21.314  22.035  1.00  0.00    -0.272 OA
ATOM      9  H   UNL A   1      32.847  23.555  21.934  1.00  0.00     0.164 HD
BRANCH   7  10
ATOM     10  C   UNL A   1      32.299  21.337  24.434  1.00  0.00     0.260 C 
BRANCH  10  11
ATOM     11  O   UNL A   1      33.158  20.256  24.730  1.00  0.00    -0.366 OA
BRANCH  11  12
ATOM     12  C   UNL A   1      32.540  18.968  24.713  1.00  0.00     0.222 C 
BRANCH  12  13
ATOM     13  C   UNL A   1      32.898  18.096  23.496  1.00  0.00     0.287 C 
BRANCH  13  14
ATOM     14  N   UNL A   1      31.964  18.166  22.369  1.00  0.00    -0.356 N 
ATOM     15  H   UNL A   1      31.418  19.026  22.432  1.00  0.00     0.344 HD
ATOM     16  H   UNL A   1      31.336  17.362  22.397  1.00  0.00     0.344 HD
ATOM     17  H   UNL A   1      32.487  18.158  21.493  1.00  0.00     0.344 HD
ENDBRANCH  13  14
ENDBRANCH  12  13
ENDBRANCH  11  12
ENDBRANCH  10  11
ENDBRANCH   7  10
ENDBRANCH   5   6
BRANCH   5  18
ATOM     18  C   UNL A   1      34.928  23.770  24.245  1.00  0.00    -0.016 A 
ATOM     19  C   UNL A   1      35.745  23.054  23.343  1.00  0.00     0.006 A 
ATOM     20  C   UNL A   1      35.431  23.990  25.539  1.00  0.00     0.006 A 
ATOM     21  C   UNL A   1      36.925  22.438  23.765  1.00  0.00     0.000 A 
ATOM     22  C   UNL A   1      36.615  23.373  25.958  1.00  0.00     0.000 A 
ATOM     23  C   UNL A   1      37.343  22.572  25.081  1.00  0.00     0.000 A 
ENDBRANCH   5  18
ENDBRANCH   1   5
BRANCH   3  24
ATOM     24  C   UNL A   1      32.653  26.743  25.268  1.00  0.00     0.117 C 
BRANCH  24  25
ATOM     25  C   UNL A   1      33.657  27.349  26.234  1.00  0.00     0.042 C 
BRANCH  25  26
ATOM     26  C   UNL A   1      34.308  28.602  25.674  1.00  0.00     0.118 C 
BRANCH  26  27
ATOM     27  N   UNL A   1      33.879  29.795  26.390  1.00  0.00    -0.352 N 
ATOM     28  C   UNL A   1      34.409  30.377  27.513  1.00  0.00     0.251 C 
ATOM     29  H   UNL A   1      33.093  30.250  26.012  1.00  0.00     0.163 HD
ATOM     30  O   UNL A   1      33.750  31.190  28.152  1.00  0.00    -0.269 OA
BRANCH  28  31
ATOM     31  C   UNL A   1      35.776  30.026  27.948  1.00  0.00     0.039 A 
ATOM     32  C   UNL A   1      35.970  29.476  29.217  1.00  0.00     0.014 A 
ATOM     33  C   UNL A   1      36.868  30.275  27.115  1.00  0.00     0.014 A 
ATOM     34  C   UNL A   1      37.258  29.136  29.629  1.00  0.00     0.010 A 
ATOM     35  C   UNL A   1      38.132  29.837  27.481  1.00  0.00     0.010 A 
ATOM     36  C   UNL A   1      38.345  29.294  28.755  1.00  0.00    -0.014 A 
BRANCH  36  37
ATOM     37  C   UNL A   1      39.725  28.944  29.163  1.00  0.00     0.031 A 
ATOM     38  C   UNL A   1      40.520  29.904  30.004  1.00  0.00     0.074 A 
ATOM     39  C   UNL A   1      40.287  27.809  28.708  1.00  0.00     0.049 A 
ATOM     40  N   UNL A   1      41.764  29.824  30.401  1.00  0.00    -0.248 NA
ATOM     41  C   UNL A   1      39.839  31.141  30.416  1.00  0.00     0.031 C 
ATOM     42  C   UNL A   1      39.640  26.844  27.819  1.00  0.00     0.029 A 
ATOM     43  N   UNL A   1      41.535  27.286  28.920  1.00  0.00    -0.354 N 
ATOM     44  C   UNL A   1      42.019  31.010  31.077  1.00  0.00     0.074 A 
ATOM     45  C   UNL A   1      40.825  31.818  30.983  1.00  0.00     0.031 C 
ATOM     46  C   UNL A   1      40.490  25.834  27.577  1.00  0.00     0.029 A 
ATOM     47  C   UNL A   1      41.747  26.095  28.272  1.00  0.00     0.049 A 
ATOM     48  H   UNL A   1      42.214  27.722  29.483  1.00  0.00     0.167 HD
ATOM     49  C   UNL A   1      43.140  31.380  31.741  1.00  0.00     0.037 A 
ATOM     50  C   UNL A   1      42.835  25.304  28.244  1.00  0.00     0.037 A 
ATOM     51  C   UNL A   1      44.305  30.547  31.870  1.00  0.00     0.049 A 
ATOM     52  C   UNL A   1      44.047  25.701  29.039  1.00  0.00     0.074 A 
ATOM     53  C   UNL A   1      45.456  30.777  32.603  1.00  0.00     0.029 A 
ATOM     54  N   UNL A   1      44.465  29.318  31.246  1.00  0.00    -0.354 N 
ATOM     55  N   UNL A   1      44.247  26.783  29.753  1.00  0.00    -0.248 NA
ATOM     56  C   UNL A   1      45.176  24.763  29.037  1.00  0.00     0.031 C 
ATOM     57  C   UNL A   1      46.327  29.702  32.393  1.00  0.00     0.029 A 
ATOM     58  C   UNL A   1      45.704  28.784  31.561  1.00  0.00     0.049 A 
ATOM     59  H   UNL A   1      43.796  28.888  30.666  1.00  0.00     0.167 HD
ATOM     60  C   UNL A   1      45.519  26.654  30.294  1.00  0.00     0.074 A 
ATOM     61  C   UNL A   1      46.033  25.376  29.843  1.00  0.00     0.031 C 
ATOM     62  C   UNL A   1      46.199  27.515  31.090  1.00  0.00     0.037 A 
BRANCH  49  63
ATOM     63  C   UNL A   1      43.145  32.739  32.378  1.00  0.00     0.064 A 
ATOM     64  C   UNL A   1      42.689  32.943  33.690  1.00  0.00     0.173 A 
ATOM     65  C   UNL A   1      43.601  33.858  31.664  1.00  0.00     0.173 A 
ATOM     66  F   UNL A   1      42.228  31.910  34.412  1.00  0.00    -0.203 F 
ATOM     67  C   UNL A   1      42.645  34.218  34.246  1.00  0.00     0.198 A 
ATOM     68  C   UNL A   1      43.587  35.128  32.235  1.00  0.00     0.198 A 
ATOM     69  F   UNL A   1      44.052  33.721  30.408  1.00  0.00    -0.203 F 
ATOM     70  F   UNL A   1      42.139  34.395  35.475  1.00  0.00    -0.200 F 
ATOM     71  C   UNL A   1      43.098  35.309  33.520  1.00  0.00     0.200 A 
ATOM     72  F   UNL A   1      44.035  36.180  31.536  1.00  0.00    -0.200 F 
ATOM     73  F   UNL A   1      43.050  36.537  34.054  1.00  0.00    -0.200 F 
ENDBRANCH  49  63
BRANCH  50  74
ATOM     74  C   UNL A   1      42.795  24.040  27.468  1.00  0.00     0.064 A 
ATOM     75  C   UNL A   1      43.180  24.013  26.122  1.00  0.00     0.173 A 
ATOM     76  C   UNL A   1      42.427  22.828  28.069  1.00  0.00     0.173 A 
ATOM     77  F   UNL A   1      43.526  25.151  25.501  1.00  0.00    -0.203 F 
ATOM     78  C   UNL A   1      43.192  22.820  25.402  1.00  0.00     0.198 A 
ATOM     79  C   UNL A   1      42.460  21.632  27.355  1.00  0.00     0.198 A 
ATOM     80  F   UNL A   1      42.060  22.803  29.359  1.00  0.00    -0.203 F 
ATOM     81  F   UNL A   1      43.543  22.825  24.109  1.00  0.00    -0.200 F 
ATOM     82  C   UNL A   1      42.841  21.630  26.021  1.00  0.00     0.200 A 
ATOM     83  F   UNL A   1      42.136  20.483  27.961  1.00  0.00    -0.200 F 
ATOM     84  F   UNL A   1      42.870  20.481  25.333  1.00  0.00    -0.200 F 
ENDBRANCH  50  74
BRANCH  62  85
ATOM     85  C   UNL A   1      47.573  27.100  31.525  1.00  0.00     0.064 A 
ATOM     86  C   UNL A   1      48.718  27.529  30.836  1.00  0.00     0.173 A 
ATOM     87  C   UNL A   1      47.749  26.298  32.662  1.00  0.00     0.173 A 
ATOM     88  F   UNL A   1      48.598  28.285  29.734  1.00  0.00    -0.203 F 
ATOM     89  C   UNL A   1      49.988  27.151  31.259  1.00  0.00     0.198 A 
ATOM     90  C   UNL A   1      49.022  25.945  33.097  1.00  0.00     0.198 A 
ATOM     91  F   UNL A   1      46.685  25.868  33.357  1.00  0.00    -0.203 F 
ATOM     92  F   UNL A   1      51.066  27.537  30.562  1.00  0.00    -0.200 F 
ATOM     93  C   UNL A   1      50.140  26.366  32.392  1.00  0.00     0.200 A 
ATOM     94  F   UNL A   1      49.168  25.196  34.199  1.00  0.00    -0.200 F 
ATOM     95  F   UNL A   1      51.365  26.008  32.802  1.00  0.00    -0.200 F 
ENDBRANCH  62  85
ENDBRANCH  36  37
ENDBRANCH  28  31
ENDBRANCH  26  27
ENDBRANCH  25  26
ENDBRANCH  24  25
ENDBRANCH   3  24
TORSDOF 17
ENDMDL
MODEL 3
REMARK VINA RESULT:     -10.3      4.572      9.699
REMARK SMILES [NH3+]CCOCC(=O)N[C@H](C(=O)NCCCNC(=O)c1ccc(-c2c3nc(c(-c4c(F)c(F)c(F)c(F)c4F)c4ccc([nH]4)c(-c4c(F)c(F)c(F)c(F)c4F)c4nc(c(-c5c(F)c(F)c(F)c(F)c5F)c5ccc2[nH]5)C=C4)C=C3)cc1)c1ccccc1
REMARK SMILES IDX 10 1 11 2 12 3 9 5 8 6 6 7 7 8 5 10 4 11 3 12 2 13 1 14
REMARK SMILES IDX 82 18 83 19 87 20 84 21 86 22 85 23 13 24 14 25 15 26 16 27
REMARK SMILES IDX 17 28 18 30 19 31 20 32 81 33 21 34 80 35 22 36 23 37 24 38
REMARK SMILES IDX 74 39 25 40 79 41 73 42 75 43 26 44 78 45 72 46 71 47 27 49
REMARK SMILES IDX 59 50 39 51 58 52 40 53 43 54 57 55 76 56 41 57 42 58 56 60
REMARK SMILES IDX 77 61 44 62 28 63 29 64 37 65 30 66 31 67 35 68 38 69 32 70
REMARK SMILES IDX 33 71 36 72 34 73 60 74 61 75 69 76 62 77 63 78 67 79 70 80
REMARK SMILES IDX 64 81 65 82 68 83 66 84 45 85 46 86 54 87 47 88 48 89 52 90
REMARK SMILES IDX 55 91 49 92 50 93 53 94 51 95
REMARK H PARENT 12 4 8 9 1 15 1 16 1 17 16 29 75 48 43 59
REMARK Flexibility Score: inf
ROOT
ATOM      1  C   UNL A   1      33.431  25.786  23.053  1.00  0.00     0.247 C 
ATOM      2  O   UNL A   1      33.908  25.875  21.918  1.00  0.00    -0.272 OA
ATOM      3  N   UNL A   1      32.844  26.904  23.586  1.00  0.00    -0.354 N 
ATOM      4  H   UNL A   1      32.986  27.739  23.086  1.00  0.00     0.163 HD
ENDROOT
BRANCH   1   5
ATOM      5  C   UNL A   1      33.389  24.432  23.821  1.00  0.00     0.202 C 
BRANCH   5   6
ATOM      6  N   UNL A   1      32.724  23.439  22.956  1.00  0.00    -0.339 N 
ATOM      7  C   UNL A   1      32.164  22.240  23.274  1.00  0.00     0.246 C 
ATOM      8  O   UNL A   1      31.761  21.527  22.349  1.00  0.00    -0.272 OA
ATOM      9  H   UNL A   1      32.677  23.681  22.003  1.00  0.00     0.164 HD
BRANCH   7  10
ATOM     10  C   UNL A   1      31.998  21.792  24.730  1.00  0.00     0.260 C 
BRANCH  10  11
ATOM     11  O   UNL A   1      33.113  21.159  25.321  1.00  0.00    -0.366 OA
BRANCH  11  12
ATOM     12  C   UNL A   1      33.607  20.018  24.616  1.00  0.00     0.222 C 
BRANCH  12  13
ATOM     13  C   UNL A   1      32.992  18.675  25.050  1.00  0.00     0.287 C 
BRANCH  13  14
ATOM     14  N   UNL A   1      32.803  18.500  26.493  1.00  0.00    -0.356 N 
ATOM     15  H   UNL A   1      32.923  19.397  26.963  1.00  0.00     0.344 HD
ATOM     16  H   UNL A   1      33.491  17.835  26.847  1.00  0.00     0.344 HD
ATOM     17  H   UNL A   1      31.863  18.145  26.671  1.00  0.00     0.344 HD
ENDBRANCH  13  14
ENDBRANCH  12  13
ENDBRANCH  11  12
ENDBRANCH  10  11
ENDBRANCH   7  10
ENDBRANCH   5   6
BRANCH   5  18
ATOM     18  C   UNL A   1      34.830  24.025  24.198  1.00  0.00    -0.016 A 
ATOM     19  C   UNL A   1      35.570  23.196  23.327  1.00  0.00     0.006 A 
ATOM     20  C   UNL A   1      35.408  24.340  25.440  1.00  0.00     0.006 A 
ATOM     21  C   UNL A   1      36.746  22.572  23.746  1.00  0.00     0.000 A 
ATOM     22  C   UNL A   1      36.588  23.714  25.856  1.00  0.00     0.000 A 
ATOM     23  C   UNL A   1      37.238  22.807  25.023  1.00  0.00     0.000 A 
ENDBRANCH   5  18
ENDBRANCH   1   5
BRANCH   3  24
ATOM     24  C   UNL A   1      32.039  27.021  24.791  1.00  0.00     0.117 C 
BRANCH  24  25
ATOM     25  C   UNL A   1      32.786  27.727  25.908  1.00  0.00     0.042 C 
BRANCH  25  26
ATOM     26  C   UNL A   1      33.680  28.839  25.388  1.00  0.00     0.118 C 
BRANCH  26  27
ATOM     27  N   UNL A   1      33.218  30.148  25.828  1.00  0.00    -0.352 N 
ATOM     28  C   UNL A   1      33.582  30.879  26.930  1.00  0.00     0.251 C 
ATOM     29  H   UNL A   1      32.544  30.571  25.248  1.00  0.00     0.163 HD
ATOM     30  O   UNL A   1      32.879  31.810  27.308  1.00  0.00    -0.269 OA
BRANCH  28  31
ATOM     31  C   UNL A   1      34.822  30.543  27.657  1.00  0.00     0.039 A 
ATOM     32  C   UNL A   1      35.873  31.463  27.679  1.00  0.00     0.014 A 
ATOM     33  C   UNL A   1      34.960  29.304  28.285  1.00  0.00     0.014 A 
ATOM     34  C   UNL A   1      37.044  31.153  28.370  1.00  0.00     0.010 A 
ATOM     35  C   UNL A   1      36.078  29.041  29.062  1.00  0.00     0.010 A 
ATOM     36  C   UNL A   1      37.145  29.949  29.085  1.00  0.00    -0.014 A 
BRANCH  36  37
ATOM     37  C   UNL A   1      38.375  29.590  29.827  1.00  0.00     0.031 A 
ATOM     38  C   UNL A   1      38.611  30.156  31.200  1.00  0.00     0.074 A 
ATOM     39  C   UNL A   1      39.312  28.827  29.235  1.00  0.00     0.049 A 
ATOM     40  N   UNL A   1      39.653  30.030  31.981  1.00  0.00    -0.248 NA
ATOM     41  C   UNL A   1      37.552  31.018  31.749  1.00  0.00     0.031 C 
ATOM     42  C   UNL A   1      39.229  28.290  27.876  1.00  0.00     0.029 A 
ATOM     43  N   UNL A   1      40.524  28.385  29.696  1.00  0.00    -0.354 N 
ATOM     44  C   UNL A   1      39.387  30.820  33.092  1.00  0.00     0.074 A 
ATOM     45  C   UNL A   1      38.117  31.470  32.857  1.00  0.00     0.031 C 
ATOM     46  C   UNL A   1      40.334  27.574  27.620  1.00  0.00     0.029 A 
ATOM     47  C   UNL A   1      41.212  27.623  28.785  1.00  0.00     0.049 A 
ATOM     48  H   UNL A   1      40.868  28.594  30.594  1.00  0.00     0.167 HD
ATOM     49  C   UNL A   1      40.122  30.967  34.220  1.00  0.00     0.037 A 
ATOM     50  C   UNL A   1      42.417  27.032  28.882  1.00  0.00     0.037 A 
ATOM     51  C   UNL A   1      41.359  30.277  34.464  1.00  0.00     0.049 A 
ATOM     52  C   UNL A   1      43.189  27.155  30.166  1.00  0.00     0.074 A 
ATOM     53  C   UNL A   1      42.135  30.272  35.609  1.00  0.00     0.029 A 
ATOM     54  N   UNL A   1      42.001  29.465  33.539  1.00  0.00    -0.354 N 
ATOM     55  N   UNL A   1      42.886  27.830  31.249  1.00  0.00    -0.248 NA
ATOM     56  C   UNL A   1      44.459  26.424  30.246  1.00  0.00     0.031 C 
ATOM     57  C   UNL A   1      43.267  29.485  35.363  1.00  0.00     0.029 A 
ATOM     58  C   UNL A   1      43.177  28.969  34.080  1.00  0.00     0.049 A 
ATOM     59  H   UNL A   1      41.671  29.270  32.633  1.00  0.00     0.167 HD
ATOM     60  C   UNL A   1      43.921  27.599  32.145  1.00  0.00     0.074 A 
ATOM     61  C   UNL A   1      44.849  26.702  31.484  1.00  0.00     0.031 C 
ATOM     62  C   UNL A   1      44.090  28.086  33.398  1.00  0.00     0.037 A 
BRANCH  49  63
ATOM     63  C   UNL A   1      39.595  31.905  35.266  1.00  0.00     0.064 A 
ATOM     64  C   UNL A   1      38.707  31.475  36.265  1.00  0.00     0.173 A 
ATOM     65  C   UNL A   1      39.973  33.257  35.266  1.00  0.00     0.173 A 
ATOM     66  F   UNL A   1      38.301  30.197  36.303  1.00  0.00    -0.203 F 
ATOM     67  C   UNL A   1      38.181  32.370  37.193  1.00  0.00     0.198 A 
ATOM     68  C   UNL A   1      39.471  34.143  36.216  1.00  0.00     0.198 A 
ATOM     69  F   UNL A   1      40.822  33.722  34.337  1.00  0.00    -0.203 F 
ATOM     70  F   UNL A   1      37.281  31.949  38.092  1.00  0.00    -0.200 F 
ATOM     71  C   UNL A   1      38.567  33.702  37.171  1.00  0.00     0.200 A 
ATOM     72  F   UNL A   1      39.853  35.428  36.200  1.00  0.00    -0.200 F 
ATOM     73  F   UNL A   1      38.056  34.563  38.061  1.00  0.00    -0.200 F 
ENDBRANCH  49  63
BRANCH  50  74
ATOM     74  C   UNL A   1      42.930  26.236  27.741  1.00  0.00     0.064 A 
ATOM     75  C   UNL A   1      42.531  24.907  27.556  1.00  0.00     0.173 A 
ATOM     76  C   UNL A   1      43.784  26.803  26.783  1.00  0.00     0.173 A 
ATOM     77  F   UNL A   1      41.727  24.318  28.454  1.00  0.00    -0.203 F 
ATOM     78  C   UNL A   1      42.971  24.170  26.458  1.00  0.00     0.198 A 
ATOM     79  C   UNL A   1      44.206  26.073  25.674  1.00  0.00     0.198 A 
ATOM     80  F   UNL A   1      44.186  28.077  26.912  1.00  0.00    -0.203 F 
ATOM     81  F   UNL A   1      42.591  22.893  26.316  1.00  0.00    -0.200 F 
ATOM     82  C   UNL A   1      43.800  24.756  25.514  1.00  0.00     0.200 A 
ATOM     83  F   UNL A   1      44.993  26.647  24.756  1.00  0.00    -0.200 F 
ATOM     84  F   UNL A   1      44.208  24.052  24.449  1.00  0.00    -0.200 F 
ENDBRANCH  50  74
BRANCH  62  85
ATOM     85  C   UNL A   1      45.323  27.656  34.137  1.00  0.00     0.064 A 
ATOM     86  C   UNL A   1      46.514  28.393  34.060  1.00  0.00     0.173 A 
ATOM     87  C   UNL A   1      45.301  26.519  34.957  1.00  0.00     0.173 A 
ATOM     88  F   UNL A   1      46.586  29.479  33.277  1.00  0.00    -0.203 F 
ATOM     89  C   UNL A   1      47.645  27.993  34.764  1.00  0.00     0.198 A 
ATOM     90  C   UNL A   1      46.427  26.138  35.679  1.00  0.00     0.198 A 
ATOM     91  F   UNL A   1      44.183  25.785  35.066  1.00  0.00    -0.203 F 
ATOM     92  F   UNL A   1      48.786  28.687  34.644  1.00  0.00    -0.200 F 
ATOM     93  C   UNL A   1      47.600  26.871  35.577  1.00  0.00     0.200 A 
ATOM     94  F   UNL A   1      46.379  25.059  36.474  1.00  0.00    -0.200 F 
ATOM     95  F   UNL A   1      48.690  26.490  36.258  1.00  0.00    -0.200 F 
ENDBRANCH  62  85
ENDBRANCH  36  37
ENDBRANCH  28  31
ENDBRANCH  26  27
ENDBRANCH  25  26
ENDBRANCH  24  25
ENDBRANCH   3  24
TORSDOF 17
ENDMDL
