MODEL 1
REMARK VINA RESULT:     -13.7      0.000      0.000
REMARK SMILES O=C1[NH+]=C(Nc2ccc(C(=O)NCCCNC(=O)c3ccc(-c4c5nc(c(-c6c(F)c(F)c(F)c(F)c6F)c6ccc([nH]6)c(-c6c(F)c(F)c(F)c(F)c6F)c6nc(c(-c7c(F)c(F)c(F)c(F)c7F)c7ccc4[nH]7)C=C6)C=C5)cc3)c(O)c2)S/C1=C\c1ccc[nH]1
REMARK SMILES IDX 14 1 13 2 12 3 10 4 11 5 9 7 6 8 7 9 84 10 8 11 82 12 5 13
REMARK SMILES IDX 1 14 2 15 3 16 86 17 4 18 85 20 87 21 88 23 89 24 92 25
REMARK SMILES IDX 90 26 91 27 83 29 15 31 16 32 17 33 18 35 19 36 20 37 81 38
REMARK SMILES IDX 21 39 80 40 22 41 23 42 24 43 74 44 25 45 79 46 73 47 75 48
REMARK SMILES IDX 26 49 78 50 72 51 71 52 27 54 59 55 39 56 58 57 40 58 43 59
REMARK SMILES IDX 57 60 76 61 41 62 42 63 56 65 77 66 44 67 28 68 29 69 37 70
REMARK SMILES IDX 30 71 31 72 35 73 38 74 32 75 33 76 36 77 34 78 60 79 61 80
REMARK SMILES IDX 69 81 62 82 63 83 67 84 70 85 64 86 65 87 68 88 66 89 45 90
REMARK SMILES IDX 46 91 54 92 47 93 48 94 52 95 55 96 49 97 50 98 53 99 51 100
REMARK H PARENT 12 6 3 19 5 22 92 28 83 30 16 34 75 53 43 64
REMARK Flexibility Score: inf
ROOT
ATOM      1  C   UNL A   1      37.782  20.041  24.908  1.00  0.00     0.042 C 
ENDROOT
BRANCH   1   2
ATOM      2  C   UNL A   1      36.594  20.977  25.040  1.00  0.00     0.118 C 
BRANCH   2   3
ATOM      3  N   UNL A   1      35.301  20.311  25.114  1.00  0.00    -0.352 N 
ATOM      4  C   UNL A   1      34.030  20.791  24.909  1.00  0.00     0.255 C 
ATOM      5  O   UNL A   1      33.086  20.015  25.040  1.00  0.00    -0.269 OA
ATOM      6  H   UNL A   1      35.345  19.357  25.352  1.00  0.00     0.163 HD
BRANCH   4   7
ATOM      7  C   UNL A   1      33.765  22.215  24.594  1.00  0.00     0.081 A 
ATOM      8  C   UNL A   1      32.964  24.818  23.848  1.00  0.00     0.129 A 
ATOM      9  C   UNL A   1      32.966  23.777  22.916  1.00  0.00     0.053 A 
ATOM     10  C   UNL A   1      33.437  24.554  25.139  1.00  0.00     0.098 A 
ATOM     11  C   UNL A   1      33.363  22.489  23.280  1.00  0.00     0.022 A 
ATOM     12  C   UNL A   1      33.878  23.278  25.492  1.00  0.00     0.132 A 
BRANCH   8  13
ATOM     13  N   UNL A   1      32.438  26.081  23.562  1.00  0.00    -0.234 N 
ATOM     14  O   UNL A   1      27.820  26.044  24.223  1.00  0.00    -0.240 OA
ATOM     15  C   UNL A   1      28.917  26.465  23.876  1.00  0.00     0.346 C 
ATOM     16  N   UNL A   1      30.092  25.756  23.949  1.00  0.00    -0.199 N 
ATOM     17  C   UNL A   1      29.132  27.834  23.328  1.00  0.00     0.111 C 
ATOM     18  C   UNL A   1      31.123  26.434  23.571  1.00  0.00     0.322 C 
ATOM     19  H   UNL A   1      30.142  24.822  24.259  1.00  0.00     0.316 HD
ATOM     20  S   UNL A   1      30.808  28.067  23.031  1.00  0.00     0.006 SA
ATOM     21  C   UNL A   1      28.126  28.700  23.147  1.00  0.00     0.050 C 
ATOM     22  H   UNL A   1      33.083  26.787  23.330  1.00  0.00     0.313 HD
BRANCH  21  23
ATOM     23  C   UNL A   1      28.319  29.976  22.567  1.00  0.00     0.039 A 
ATOM     24  C   UNL A   1      28.775  31.186  23.055  1.00  0.00     0.027 A 
ATOM     25  N   UNL A   1      28.013  30.156  21.240  1.00  0.00    -0.362 N 
ATOM     26  C   UNL A   1      28.703  32.128  22.003  1.00  0.00     0.020 A 
ATOM     27  C   UNL A   1      28.219  31.468  20.897  1.00  0.00     0.083 A 
ATOM     28  H   UNL A   1      27.695  29.451  20.630  1.00  0.00     0.166 HD
ENDBRANCH  21  23
ENDBRANCH   8  13
BRANCH  12  29
ATOM     29  O   UNL A   1      34.436  23.176  26.736  1.00  0.00    -0.507 OA
ATOM     30  H   UNL A   1      35.254  22.733  26.848  1.00  0.00     0.293 HD
ENDBRANCH  12  29
ENDBRANCH   4   7
ENDBRANCH   2   3
ENDBRANCH   1   2
BRANCH   1  31
ATOM     31  C   UNL A   1      38.991  20.403  25.755  1.00  0.00     0.118 C 
BRANCH  31  32
ATOM     32  N   UNL A   1      39.972  19.332  25.882  1.00  0.00    -0.352 N 
ATOM     33  C   UNL A   1      41.327  19.362  26.126  1.00  0.00     0.251 C 
ATOM     34  H   UNL A   1      39.600  18.427  25.774  1.00  0.00     0.163 HD
ATOM     35  O   UNL A   1      41.977  18.322  26.066  1.00  0.00    -0.269 OA
BRANCH  33  36
ATOM     36  C   UNL A   1      42.018  20.639  26.414  1.00  0.00     0.039 A 
ATOM     37  C   UNL A   1      42.467  21.427  25.350  1.00  0.00     0.014 A 
ATOM     38  C   UNL A   1      42.219  21.072  27.723  1.00  0.00     0.014 A 
ATOM     39  C   UNL A   1      43.017  22.687  25.601  1.00  0.00     0.010 A 
ATOM     40  C   UNL A   1      42.637  22.375  27.965  1.00  0.00     0.010 A 
ATOM     41  C   UNL A   1      43.050  23.198  26.909  1.00  0.00    -0.014 A 
BRANCH  41  42
ATOM     42  C   UNL A   1      43.523  24.577  27.203  1.00  0.00     0.031 A 
ATOM     43  C   UNL A   1      42.564  25.599  27.755  1.00  0.00     0.074 A 
ATOM     44  C   UNL A   1      44.787  24.933  26.900  1.00  0.00     0.049 A 
ATOM     45  N   UNL A   1      42.753  26.874  27.987  1.00  0.00    -0.248 NA
ATOM     46  C   UNL A   1      41.200  25.136  28.052  1.00  0.00     0.031 C 
ATOM     47  C   UNL A   1      45.798  24.054  26.312  1.00  0.00     0.029 A 
ATOM     48  N   UNL A   1      45.436  26.136  27.036  1.00  0.00    -0.354 N 
ATOM     49  C   UNL A   1      41.532  27.360  28.436  1.00  0.00     0.074 A 
ATOM     50  C   UNL A   1      40.591  26.265  28.372  1.00  0.00     0.031 C 
ATOM     51  C   UNL A   1      46.947  24.733  26.173  1.00  0.00     0.029 A 
ATOM     52  C   UNL A   1      46.743  26.110  26.611  1.00  0.00     0.049 A 
ATOM     53  H   UNL A   1      45.005  26.942  27.402  1.00  0.00     0.167 HD
ATOM     54  C   UNL A   1      41.229  28.598  28.894  1.00  0.00     0.037 A 
ATOM     55  C   UNL A   1      47.668  27.088  26.573  1.00  0.00     0.037 A 
ATOM     56  C   UNL A   1      42.175  29.680  28.978  1.00  0.00     0.049 A 
ATOM     57  C   UNL A   1      47.298  28.464  27.061  1.00  0.00     0.074 A 
ATOM     58  C   UNL A   1      41.984  30.955  29.475  1.00  0.00     0.029 A 
ATOM     59  N   UNL A   1      43.491  29.610  28.545  1.00  0.00    -0.354 N 
ATOM     60  N   UNL A   1      46.161  28.892  27.551  1.00  0.00    -0.248 NA
ATOM     61  C   UNL A   1      48.346  29.491  26.993  1.00  0.00     0.031 C 
ATOM     62  C   UNL A   1      43.167  31.677  29.289  1.00  0.00     0.029 A 
ATOM     63  C   UNL A   1      44.117  30.831  28.740  1.00  0.00     0.049 A 
ATOM     64  H   UNL A   1      43.918  28.812  28.158  1.00  0.00     0.167 HD
ATOM     65  C   UNL A   1      46.365  30.225  27.883  1.00  0.00     0.074 A 
ATOM     66  C   UNL A   1      47.741  30.530  27.551  1.00  0.00     0.031 C 
ATOM     67  C   UNL A   1      45.493  31.115  28.416  1.00  0.00     0.037 A 
BRANCH  54  68
ATOM     68  C   UNL A   1      39.815  28.845  29.343  1.00  0.00     0.064 A 
ATOM     69  C   UNL A   1      39.416  28.639  30.674  1.00  0.00     0.173 A 
ATOM     70  C   UNL A   1      38.851  29.317  28.439  1.00  0.00     0.173 A 
ATOM     71  F   UNL A   1      40.293  28.178  31.578  1.00  0.00    -0.203 F 
ATOM     72  C   UNL A   1      38.099  28.855  31.071  1.00  0.00     0.198 A 
ATOM     73  C   UNL A   1      37.545  29.569  28.849  1.00  0.00     0.198 A 
ATOM     74  F   UNL A   1      39.177  29.539  27.157  1.00  0.00    -0.203 F 
ATOM     75  F   UNL A   1      37.729  28.587  32.331  1.00  0.00    -0.200 F 
ATOM     76  C   UNL A   1      37.167  29.328  30.160  1.00  0.00     0.200 A 
ATOM     77  F   UNL A   1      36.649  30.042  27.971  1.00  0.00    -0.200 F 
ATOM     78  F   UNL A   1      35.901  29.541  30.546  1.00  0.00    -0.200 F 
ENDBRANCH  54  68
BRANCH  55  79
ATOM     79  C   UNL A   1      49.041  26.799  26.079  1.00  0.00     0.064 A 
ATOM     80  C   UNL A   1      49.380  27.009  24.734  1.00  0.00     0.173 A 
ATOM     81  C   UNL A   1      50.037  26.294  26.928  1.00  0.00     0.173 A 
ATOM     82  F   UNL A   1      48.459  27.471  23.876  1.00  0.00    -0.203 F 
ATOM     83  C   UNL A   1      50.652  26.703  24.254  1.00  0.00     0.198 A 
ATOM     84  C   UNL A   1      51.319  26.020  26.454  1.00  0.00     0.198 A 
ATOM     85  F   UNL A   1      49.769  26.080  28.225  1.00  0.00    -0.203 F 
ATOM     86  F   UNL A   1      50.931  26.863  22.953  1.00  0.00    -0.200 F 
ATOM     87  C   UNL A   1      51.622  26.214  25.116  1.00  0.00     0.200 A 
ATOM     88  F   UNL A   1      52.258  25.565  27.294  1.00  0.00    -0.200 F 
ATOM     89  F   UNL A   1      52.846  25.922  24.654  1.00  0.00    -0.200 F 
ENDBRANCH  55  79
BRANCH  67  90
ATOM     90  C   UNL A   1      46.009  32.493  28.720  1.00  0.00     0.064 A 
ATOM     91  C   UNL A   1      45.920  33.540  27.791  1.00  0.00     0.173 A 
ATOM     92  C   UNL A   1      46.562  32.779  29.978  1.00  0.00     0.173 A 
ATOM     93  F   UNL A   1      45.413  33.318  26.568  1.00  0.00    -0.203 F 
ATOM     94  C   UNL A   1      46.391  34.814  28.100  1.00  0.00     0.198 A 
ATOM     95  C   UNL A   1      46.997  34.061  30.298  1.00  0.00     0.198 A 
ATOM     96  F   UNL A   1      46.663  31.816  30.908  1.00  0.00    -0.203 F 
ATOM     97  F   UNL A   1      46.345  35.785  27.177  1.00  0.00    -0.200 F 
ATOM     98  C   UNL A   1      46.920  35.075  29.355  1.00  0.00     0.200 A 
ATOM     99  F   UNL A   1      47.491  34.316  31.517  1.00  0.00    -0.200 F 
ATOM    100  F   UNL A   1      47.363  36.304  29.654  1.00  0.00    -0.200 F 
ENDBRANCH  67  90
ENDBRANCH  41  42
ENDBRANCH  33  36
ENDBRANCH  31  32
ENDBRANCH   1  31
TORSDOF 13
ENDMDL
MODEL 2
REMARK VINA RESULT:     -13.7      1.485      7.350
REMARK SMILES O=C1[NH+]=C(Nc2ccc(C(=O)NCCCNC(=O)c3ccc(-c4c5nc(c(-c6c(F)c(F)c(F)c(F)c6F)c6ccc([nH]6)c(-c6c(F)c(F)c(F)c(F)c6F)c6nc(c(-c7c(F)c(F)c(F)c(F)c7F)c7ccc4[nH]7)C=C6)C=C5)cc3)c(O)c2)S/C1=C\c1ccc[nH]1
REMARK SMILES IDX 14 1 13 2 12 3 10 4 11 5 9 7 6 8 7 9 84 10 8 11 82 12 5 13
REMARK SMILES IDX 1 14 2 15 3 16 86 17 4 18 85 20 87 21 88 23 89 24 92 25
REMARK SMILES IDX 90 26 91 27 83 29 15 31 16 32 17 33 18 35 19 36 20 37 81 38
REMARK SMILES IDX 21 39 80 40 22 41 23 42 24 43 74 44 25 45 79 46 73 47 75 48
REMARK SMILES IDX 26 49 78 50 72 51 71 52 27 54 59 55 39 56 58 57 40 58 43 59
REMARK SMILES IDX 57 60 76 61 41 62 42 63 56 65 77 66 44 67 28 68 29 69 37 70
REMARK SMILES IDX 30 71 31 72 35 73 38 74 32 75 33 76 36 77 34 78 60 79 61 80
REMARK SMILES IDX 69 81 62 82 63 83 67 84 70 85 64 86 65 87 68 88 66 89 45 90
REMARK SMILES IDX 46 91 54 92 47 93 48 94 52 95 55 96 49 97 50 98 53 99 51 100
REMARK H PARENT 12 6 3 19 5 22 92 28 83 30 16 34 75 53 43 64
REMARK Flexibility Score: inf
ROOT
ATOM      1  C   UNL A   1      36.901  20.359  24.999  1.00  0.00     0.042 C 
ENDROOT
BRANCH   1   2
ATOM      2  C   UNL A   1      35.654  21.024  25.551  1.00  0.00     0.118 C 
BRANCH   2   3
ATOM      3  N   UNL A   1      34.410  20.336  25.240  1.00  0.00    -0.352 N 
ATOM      4  C   UNL A   1      33.213  20.813  24.763  1.00  0.00     0.255 C 
ATOM      5  O   UNL A   1      32.295  20.014  24.587  1.00  0.00    -0.269 OA
ATOM      6  H   UNL A   1      34.428  19.365  25.401  1.00  0.00     0.163 HD
BRANCH   4   7
ATOM      7  C   UNL A   1      32.982  22.256  24.511  1.00  0.00     0.081 A 
ATOM      8  C   UNL A   1      32.297  24.904  23.809  1.00  0.00     0.129 A 
ATOM      9  C   UNL A   1      32.572  23.952  22.823  1.00  0.00     0.053 A 
ATOM     10  C   UNL A   1      32.441  24.531  25.150  1.00  0.00     0.098 A 
ATOM     11  C   UNL A   1      32.912  22.642  23.167  1.00  0.00     0.022 A 
ATOM     12  C   UNL A   1      32.827  23.235  25.495  1.00  0.00     0.132 A 
BRANCH   8  13
ATOM     13  N   UNL A   1      31.813  26.179  23.506  1.00  0.00    -0.234 N 
ATOM     14  O   UNL A   1      27.210  26.329  24.251  1.00  0.00    -0.240 OA
ATOM     15  C   UNL A   1      28.315  26.701  23.876  1.00  0.00     0.346 C 
ATOM     16  N   UNL A   1      29.464  25.950  23.943  1.00  0.00    -0.199 N 
ATOM     17  C   UNL A   1      28.570  28.050  23.295  1.00  0.00     0.111 C 
ATOM     18  C   UNL A   1      30.512  26.581  23.531  1.00  0.00     0.322 C 
ATOM     19  H   UNL A   1      29.485  25.021  24.271  1.00  0.00     0.316 HD
ATOM     20  S   UNL A   1      30.248  28.213  22.964  1.00  0.00     0.006 SA
ATOM     21  C   UNL A   1      27.593  28.949  23.114  1.00  0.00     0.050 C 
ATOM     22  H   UNL A   1      32.479  26.856  23.248  1.00  0.00     0.313 HD
BRANCH  21  23
ATOM     23  C   UNL A   1      27.823  30.205  22.505  1.00  0.00     0.039 A 
ATOM     24  C   UNL A   1      28.032  31.479  22.996  1.00  0.00     0.027 A 
ATOM     25  N   UNL A   1      27.859  30.280  21.134  1.00  0.00    -0.362 N 
ATOM     26  C   UNL A   1      28.157  32.351  21.890  1.00  0.00     0.020 A 
ATOM     27  C   UNL A   1      28.037  31.587  20.753  1.00  0.00     0.083 A 
ATOM     28  H   UNL A   1      27.772  29.515  20.520  1.00  0.00     0.166 HD
ENDBRANCH  21  23
ENDBRANCH   8  13
BRANCH  12  29
ATOM     29  O   UNL A   1      33.059  23.028  26.827  1.00  0.00    -0.507 OA
ATOM     30  H   UNL A   1      32.539  23.474  27.467  1.00  0.00     0.293 HD
ENDBRANCH  12  29
ENDBRANCH   4   7
ENDBRANCH   2   3
ENDBRANCH   1   2
BRANCH   1  31
ATOM     31  C   UNL A   1      38.209  21.067  25.315  1.00  0.00     0.118 C 
BRANCH  31  32
ATOM     32  N   UNL A   1      39.199  20.223  25.974  1.00  0.00    -0.352 N 
ATOM     33  C   UNL A   1      40.312  20.539  26.721  1.00  0.00     0.251 C 
ATOM     34  H   UNL A   1      39.045  19.257  25.866  1.00  0.00     0.163 HD
ATOM     35  O   UNL A   1      41.077  19.646  27.076  1.00  0.00    -0.269 OA
BRANCH  33  36
ATOM     36  C   UNL A   1      40.624  21.945  27.062  1.00  0.00     0.039 A 
ATOM     37  C   UNL A   1      41.535  22.213  28.087  1.00  0.00     0.014 A 
ATOM     38  C   UNL A   1      40.034  23.003  26.373  1.00  0.00     0.014 A 
ATOM     39  C   UNL A   1      41.928  23.529  28.343  1.00  0.00     0.010 A 
ATOM     40  C   UNL A   1      40.524  24.293  26.533  1.00  0.00     0.010 A 
ATOM     41  C   UNL A   1      41.471  24.576  27.526  1.00  0.00    -0.014 A 
BRANCH  41  42
ATOM     42  C   UNL A   1      41.952  25.973  27.696  1.00  0.00     0.031 A 
ATOM     43  C   UNL A   1      43.300  26.375  27.156  1.00  0.00     0.074 A 
ATOM     44  C   UNL A   1      41.219  26.856  28.402  1.00  0.00     0.049 A 
ATOM     45  N   UNL A   1      43.940  27.511  27.284  1.00  0.00    -0.248 NA
ATOM     46  C   UNL A   1      44.044  25.353  26.404  1.00  0.00     0.031 C 
ATOM     47  C   UNL A   1      39.923  26.578  29.023  1.00  0.00     0.029 A 
ATOM     48  N   UNL A   1      41.464  28.168  28.726  1.00  0.00    -0.354 N 
ATOM     49  C   UNL A   1      45.160  27.329  26.646  1.00  0.00     0.074 A 
ATOM     50  C   UNL A   1      45.204  25.955  26.200  1.00  0.00     0.031 C 
ATOM     51  C   UNL A   1      39.470  27.692  29.619  1.00  0.00     0.029 A 
ATOM     52  C   UNL A   1      40.465  28.750  29.470  1.00  0.00     0.049 A 
ATOM     53  H   UNL A   1      42.279  28.647  28.453  1.00  0.00     0.167 HD
ATOM     54  C   UNL A   1      46.142  28.233  26.421  1.00  0.00     0.037 A 
ATOM     55  C   UNL A   1      40.366  29.992  29.981  1.00  0.00     0.037 A 
ATOM     56  C   UNL A   1      46.085  29.607  26.846  1.00  0.00     0.049 A 
ATOM     57  C   UNL A   1      41.485  30.972  29.741  1.00  0.00     0.074 A 
ATOM     58  C   UNL A   1      47.001  30.618  26.623  1.00  0.00     0.029 A 
ATOM     59  N   UNL A   1      45.052  30.159  27.590  1.00  0.00    -0.354 N 
ATOM     60  N   UNL A   1      42.602  30.809  29.074  1.00  0.00    -0.248 NA
ATOM     61  C   UNL A   1      41.325  32.311  30.323  1.00  0.00     0.031 C 
ATOM     62  C   UNL A   1      46.552  31.767  27.282  1.00  0.00     0.029 A 
ATOM     63  C   UNL A   1      45.322  31.491  27.857  1.00  0.00     0.049 A 
ATOM     64  H   UNL A   1      44.246  29.676  27.883  1.00  0.00     0.167 HD
ATOM     65  C   UNL A   1      43.259  32.031  29.125  1.00  0.00     0.074 A 
ATOM     66  C   UNL A   1      42.408  32.930  29.877  1.00  0.00     0.031 C 
ATOM     67  C   UNL A   1      44.458  32.378  28.596  1.00  0.00     0.037 A 
BRANCH  54  68
ATOM     68  C   UNL A   1      47.361  27.764  25.676  1.00  0.00     0.064 A 
ATOM     69  C   UNL A   1      47.424  27.785  24.273  1.00  0.00     0.173 A 
ATOM     70  C   UNL A   1      48.491  27.308  26.372  1.00  0.00     0.173 A 
ATOM     71  F   UNL A   1      46.369  28.200  23.556  1.00  0.00    -0.203 F 
ATOM     72  C   UNL A   1      48.554  27.330  23.597  1.00  0.00     0.198 A 
ATOM     73  C   UNL A   1      49.633  26.890  25.693  1.00  0.00     0.198 A 
ATOM     74  F   UNL A   1      48.492  27.272  27.713  1.00  0.00    -0.203 F 
ATOM     75  F   UNL A   1      48.562  27.300  22.257  1.00  0.00    -0.200 F 
ATOM     76  C   UNL A   1      49.660  26.891  24.308  1.00  0.00     0.200 A 
ATOM     77  F   UNL A   1      50.708  26.481  26.382  1.00  0.00    -0.200 F 
ATOM     78  F   UNL A   1      50.748  26.459  23.655  1.00  0.00    -0.200 F 
ENDBRANCH  54  68
BRANCH  55  79
ATOM     79  C   UNL A   1      39.155  30.392  30.747  1.00  0.00     0.064 A 
ATOM     80  C   UNL A   1      38.069  31.005  30.105  1.00  0.00     0.173 A 
ATOM     81  C   UNL A   1      39.061  30.187  32.131  1.00  0.00     0.173 A 
ATOM     82  F   UNL A   1      38.118  31.242  28.787  1.00  0.00    -0.203 F 
ATOM     83  C   UNL A   1      36.948  31.420  30.821  1.00  0.00     0.198 A 
ATOM     84  C   UNL A   1      37.924  30.572  32.842  1.00  0.00     0.198 A 
ATOM     85  F   UNL A   1      40.068  29.600  32.794  1.00  0.00    -0.203 F 
ATOM     86  F   UNL A   1      35.949  32.052  30.191  1.00  0.00    -0.200 F 
ATOM     87  C   UNL A   1      36.874  31.198  32.188  1.00  0.00     0.200 A 
ATOM     88  F   UNL A   1      37.850  30.339  34.159  1.00  0.00    -0.200 F 
ATOM     89  F   UNL A   1      35.794  31.594  32.877  1.00  0.00    -0.200 F 
ENDBRANCH  55  79
BRANCH  67  90
ATOM     90  C   UNL A   1      44.905  33.802  28.768  1.00  0.00     0.064 A 
ATOM     91  C   UNL A   1      44.546  34.807  27.858  1.00  0.00     0.173 A 
ATOM     92  C   UNL A   1      45.667  34.173  29.887  1.00  0.00     0.173 A 
ATOM     93  F   UNL A   1      43.829  34.504  26.764  1.00  0.00    -0.203 F 
ATOM     94  C   UNL A   1      44.957  36.124  28.047  1.00  0.00     0.198 A 
ATOM     95  C   UNL A   1      46.046  35.496  30.092  1.00  0.00     0.198 A 
ATOM     96  F   UNL A   1      46.030  33.252  30.794  1.00  0.00    -0.203 F 
ATOM     97  F   UNL A   1      44.648  37.056  27.135  1.00  0.00    -0.200 F 
ATOM     98  C   UNL A   1      45.698  36.469  29.167  1.00  0.00     0.200 A 
ATOM     99  F   UNL A   1      46.745  35.830  31.184  1.00  0.00    -0.200 F 
ATOM    100  F   UNL A   1      46.085  37.738  29.351  1.00  0.00    -0.200 F 
ENDBRANCH  67  90
ENDBRANCH  41  42
ENDBRANCH  33  36
ENDBRANCH  31  32
ENDBRANCH   1  31
TORSDOF 13
ENDMDL
MODEL 3
REMARK VINA RESULT:     -13.7      4.957      9.566
REMARK SMILES O=C1[NH+]=C(Nc2ccc(C(=O)NCCCNC(=O)c3ccc(-c4c5nc(c(-c6c(F)c(F)c(F)c(F)c6F)c6ccc([nH]6)c(-c6c(F)c(F)c(F)c(F)c6F)c6nc(c(-c7c(F)c(F)c(F)c(F)c7F)c7ccc4[nH]7)C=C6)C=C5)cc3)c(O)c2)S/C1=C\c1ccc[nH]1
REMARK SMILES IDX 14 1 13 2 12 3 10 4 11 5 9 7 6 8 7 9 84 10 8 11 82 12 5 13
REMARK SMILES IDX 1 14 2 15 3 16 86 17 4 18 85 20 87 21 88 23 89 24 92 25
REMARK SMILES IDX 90 26 91 27 83 29 15 31 16 32 17 33 18 35 19 36 20 37 81 38
REMARK SMILES IDX 21 39 80 40 22 41 23 42 24 43 74 44 25 45 79 46 73 47 75 48
REMARK SMILES IDX 26 49 78 50 72 51 71 52 27 54 59 55 39 56 58 57 40 58 43 59
REMARK SMILES IDX 57 60 76 61 41 62 42 63 56 65 77 66 44 67 28 68 29 69 37 70
REMARK SMILES IDX 30 71 31 72 35 73 38 74 32 75 33 76 36 77 34 78 60 79 61 80
REMARK SMILES IDX 69 81 62 82 63 83 67 84 70 85 64 86 65 87 68 88 66 89 45 90
REMARK SMILES IDX 46 91 54 92 47 93 48 94 52 95 55 96 49 97 50 98 53 99 51 100
REMARK H PARENT 12 6 3 19 5 22 92 28 83 30 16 34 75 53 43 64
REMARK Flexibility Score: inf
ROOT
ATOM      1  C   UNL A   1      31.019  31.600  25.934  1.00  0.00     0.042 C 
ENDROOT
BRANCH   1   2
ATOM      2  C   UNL A   1      31.101  30.356  25.067  1.00  0.00     0.118 C 
BRANCH   2   3
ATOM      3  N   UNL A   1      30.356  30.435  23.819  1.00  0.00    -0.352 N 
ATOM      4  C   UNL A   1      30.059  29.472  22.886  1.00  0.00     0.255 C 
ATOM      5  O   UNL A   1      29.408  29.799  21.896  1.00  0.00    -0.269 OA
ATOM      6  H   UNL A   1      30.006  31.331  23.607  1.00  0.00     0.163 HD
BRANCH   4   7
ATOM      7  C   UNL A   1      30.545  28.076  23.010  1.00  0.00     0.081 A 
ATOM      8  C   UNL A   1      31.161  25.323  23.124  1.00  0.00     0.129 A 
ATOM      9  C   UNL A   1      29.982  25.815  23.692  1.00  0.00     0.053 A 
ATOM     10  C   UNL A   1      32.059  26.237  22.563  1.00  0.00     0.098 A 
ATOM     11  C   UNL A   1      29.675  27.176  23.638  1.00  0.00     0.022 A 
ATOM     12  C   UNL A   1      31.776  27.604  22.551  1.00  0.00     0.132 A 
BRANCH   8  13
ATOM     13  N   UNL A   1      31.433  23.955  23.028  1.00  0.00    -0.234 N 
ATOM     14  O   UNL A   1      32.642  22.296  27.217  1.00  0.00    -0.240 OA
ATOM     15  C   UNL A   1      32.464  22.307  26.005  1.00  0.00     0.346 C 
ATOM     16  N   UNL A   1      32.047  23.398  25.280  1.00  0.00    -0.199 N 
ATOM     17  C   UNL A   1      32.669  21.113  25.137  1.00  0.00     0.111 C 
ATOM     18  C   UNL A   1      31.885  23.145  24.024  1.00  0.00     0.322 C 
ATOM     19  H   UNL A   1      31.890  24.284  25.678  1.00  0.00     0.316 HD
ATOM     20  S   UNL A   1      32.248  21.511  23.520  1.00  0.00     0.006 SA
ATOM     21  C   UNL A   1      33.094  19.938  25.623  1.00  0.00     0.050 C 
ATOM     22  H   UNL A   1      31.284  23.535  22.150  1.00  0.00     0.313 HD
BRANCH  21  23
ATOM     23  C   UNL A   1      33.349  18.823  24.791  1.00  0.00     0.039 A 
ATOM     24  C   UNL A   1      32.555  18.040  23.975  1.00  0.00     0.027 A 
ATOM     25  N   UNL A   1      34.630  18.332  24.713  1.00  0.00    -0.362 N 
ATOM     26  C   UNL A   1      33.373  17.027  23.423  1.00  0.00     0.020 A 
ATOM     27  C   UNL A   1      34.647  17.225  23.903  1.00  0.00     0.083 A 
ATOM     28  H   UNL A   1      35.414  18.717  25.168  1.00  0.00     0.166 HD
ENDBRANCH  21  23
ENDBRANCH   8  13
BRANCH  12  29
ATOM     29  O   UNL A   1      32.785  28.406  22.095  1.00  0.00    -0.507 OA
ATOM     30  H   UNL A   1      33.434  28.726  22.690  1.00  0.00     0.293 HD
ENDBRANCH  12  29
ENDBRANCH   4   7
ENDBRANCH   2   3
ENDBRANCH   1   2
BRANCH   1  31
ATOM     31  C   UNL A   1      32.203  31.822  26.862  1.00  0.00     0.118 C 
BRANCH  31  32
ATOM     32  N   UNL A   1      32.411  33.216  27.237  1.00  0.00    -0.352 N 
ATOM     33  C   UNL A   1      33.408  33.823  27.967  1.00  0.00     0.251 C 
ATOM     34  H   UNL A   1      31.715  33.832  26.912  1.00  0.00     0.163 HD
ATOM     35  O   UNL A   1      33.306  35.011  28.263  1.00  0.00    -0.269 OA
BRANCH  33  36
ATOM     36  C   UNL A   1      34.581  33.053  28.438  1.00  0.00     0.039 A 
ATOM     37  C   UNL A   1      35.850  33.634  28.375  1.00  0.00     0.014 A 
ATOM     38  C   UNL A   1      34.440  31.765  28.951  1.00  0.00     0.014 A 
ATOM     39  C   UNL A   1      36.950  32.967  28.922  1.00  0.00     0.010 A 
ATOM     40  C   UNL A   1      35.502  31.163  29.615  1.00  0.00     0.010 A 
ATOM     41  C   UNL A   1      36.774  31.751  29.603  1.00  0.00    -0.014 A 
BRANCH  41  42
ATOM     42  C   UNL A   1      37.898  31.067  30.294  1.00  0.00     0.031 A 
ATOM     43  C   UNL A   1      38.223  31.410  31.724  1.00  0.00     0.074 A 
ATOM     44  C   UNL A   1      38.677  30.200  29.616  1.00  0.00     0.049 A 
ATOM     45  N   UNL A   1      39.217  31.001  32.472  1.00  0.00    -0.248 NA
ATOM     46  C   UNL A   1      37.332  32.372  32.393  1.00  0.00     0.031 C 
ATOM     47  C   UNL A   1      38.503  29.823  28.213  1.00  0.00     0.029 A 
ATOM     48  N   UNL A   1      39.780  29.485  30.016  1.00  0.00    -0.354 N 
ATOM     49  C   UNL A   1      39.077  31.666  33.683  1.00  0.00     0.074 A 
ATOM     50  C   UNL A   1      37.951  32.562  33.546  1.00  0.00     0.031 C 
ATOM     51  C   UNL A   1      39.439  28.920  27.880  1.00  0.00     0.029 A 
ATOM     52  C   UNL A   1      40.312  28.693  29.027  1.00  0.00     0.049 A 
ATOM     53  H   UNL A   1      40.155  29.537  30.924  1.00  0.00     0.167 HD
ATOM     54  C   UNL A   1      39.799  31.520  34.819  1.00  0.00     0.037 A 
ATOM     55  C   UNL A   1      41.387  27.881  29.041  1.00  0.00     0.037 A 
ATOM     56  C   UNL A   1      40.906  30.610  34.958  1.00  0.00     0.049 A 
ATOM     57  C   UNL A   1      42.192  27.758  30.309  1.00  0.00     0.074 A 
ATOM     58  C   UNL A   1      41.670  30.346  36.080  1.00  0.00     0.029 A 
ATOM     59  N   UNL A   1      41.408  29.818  33.935  1.00  0.00    -0.354 N 
ATOM     60  N   UNL A   1      42.006  28.338  31.470  1.00  0.00    -0.248 NA
ATOM     61  C   UNL A   1      43.354  26.861  30.267  1.00  0.00     0.031 C 
ATOM     62  C   UNL A   1      42.673  29.440  35.722  1.00  0.00     0.029 A 
ATOM     63  C   UNL A   1      42.491  29.086  34.394  1.00  0.00     0.049 A 
ATOM     64  H   UNL A   1      41.048  29.782  33.020  1.00  0.00     0.167 HD
ATOM     65  C   UNL A   1      43.003  27.851  32.305  1.00  0.00     0.074 A 
ATOM     66  C   UNL A   1      43.782  26.916  31.520  1.00  0.00     0.031 C 
ATOM     67  C   UNL A   1      43.250  28.149  33.604  1.00  0.00     0.037 A 
BRANCH  54  68
ATOM     68  C   UNL A   1      39.411  32.362  36.002  1.00  0.00     0.064 A 
ATOM     69  C   UNL A   1      39.996  33.617  36.240  1.00  0.00     0.173 A 
ATOM     70  C   UNL A   1      38.425  31.922  36.898  1.00  0.00     0.173 A 
ATOM     71  F   UNL A   1      40.952  34.082  35.423  1.00  0.00    -0.203 F 
ATOM     72  C   UNL A   1      39.638  34.378  37.351  1.00  0.00     0.198 A 
ATOM     73  C   UNL A   1      38.043  32.704  37.986  1.00  0.00     0.198 A 
ATOM     74  F   UNL A   1      37.826  30.736  36.717  1.00  0.00    -0.203 F 
ATOM     75  F   UNL A   1      40.260  35.541  37.590  1.00  0.00    -0.200 F 
ATOM     76  C   UNL A   1      38.657  33.924  38.217  1.00  0.00     0.200 A 
ATOM     77  F   UNL A   1      37.081  32.271  38.814  1.00  0.00    -0.200 F 
ATOM     78  F   UNL A   1      38.310  34.661  39.283  1.00  0.00    -0.200 F 
ENDBRANCH  54  68
BRANCH  55  79
ATOM     79  C   UNL A   1      41.753  27.102  27.828  1.00  0.00     0.064 A 
ATOM     80  C   UNL A   1      41.261  25.803  27.634  1.00  0.00     0.173 A 
ATOM     81  C   UNL A   1      42.609  27.626  26.849  1.00  0.00     0.173 A 
ATOM     82  F   UNL A   1      40.456  25.248  28.551  1.00  0.00    -0.203 F 
ATOM     83  C   UNL A   1      41.631  25.050  26.521  1.00  0.00     0.198 A 
ATOM     84  C   UNL A   1      42.952  26.885  25.719  1.00  0.00     0.198 A 
ATOM     85  F   UNL A   1      43.103  28.866  26.981  1.00  0.00    -0.203 F 
ATOM     86  F   UNL A   1      41.189  23.793  26.389  1.00  0.00    -0.200 F 
ATOM     87  C   UNL A   1      42.471  25.594  25.561  1.00  0.00     0.200 A 
ATOM     88  F   UNL A   1      43.749  27.422  24.785  1.00  0.00    -0.200 F 
ATOM     89  F   UNL A   1      42.825  24.871  24.489  1.00  0.00    -0.200 F 
ENDBRANCH  55  79
BRANCH  67  90
ATOM     90  C   UNL A   1      44.380  27.424  34.278  1.00  0.00     0.064 A 
ATOM     91  C   UNL A   1      45.673  27.964  34.343  1.00  0.00     0.173 A 
ATOM     92  C   UNL A   1      44.153  26.189  34.906  1.00  0.00     0.173 A 
ATOM     93  F   UNL A   1      45.948  29.135  33.747  1.00  0.00    -0.203 F 
ATOM     94  C   UNL A   1      46.702  27.282  34.987  1.00  0.00     0.198 A 
ATOM     95  C   UNL A   1      45.175  25.528  35.580  1.00  0.00     0.198 A 
ATOM     96  F   UNL A   1      42.933  25.632  34.881  1.00  0.00    -0.203 F 
ATOM     97  F   UNL A   1      47.942  27.792  34.989  1.00  0.00    -0.200 F 
ATOM     98  C   UNL A   1      46.451  26.070  35.612  1.00  0.00     0.200 A 
ATOM     99  F   UNL A   1      44.924  24.367  36.199  1.00  0.00    -0.200 F 
ATOM    100  F   UNL A   1      47.440  25.420  36.240  1.00  0.00    -0.200 F 
ENDBRANCH  67  90
ENDBRANCH  41  42
ENDBRANCH  33  36
ENDBRANCH  31  32
ENDBRANCH   1  31
TORSDOF 13
ENDMDL
