MODEL 1
REMARK VINA RESULT:     -13.5      0.000      0.000
REMARK SMILES COc1cc(S(=O)(=O)Nc2cccc(C(=O)NCCCNC(=O)c3ccc(-c4c5nc(c(-c6c(F)c(F)c(F)c(F)c6F)c6ccc([nH]6)c(-c6c(F)c(F)c(F)c(F)c6F)c6nc(c(-c7c(F)c(F)c(F)c(F)c7F)c7ccc4[nH]7)C=C6)C=C5)cc3)c2)c(OC)cc1C
REMARK SMILES IDX 18 1 17 2 15 3 16 4 14 6 10 7 11 8 87 9 12 10 13 11 9 12
REMARK SMILES IDX 6 14 7 15 8 16 5 17 3 18 4 19 92 20 91 21 93 22 88 23 2 24
REMARK SMILES IDX 1 25 89 26 90 27 19 28 20 29 21 30 22 31 23 33 24 34 25 35
REMARK SMILES IDX 86 36 26 37 85 38 27 39 28 40 29 41 79 42 30 43 84 44 78 45
REMARK SMILES IDX 80 46 31 47 83 48 77 49 76 50 32 52 64 53 44 54 63 55 45 56
REMARK SMILES IDX 48 57 62 58 81 59 46 60 47 61 61 63 82 64 49 65 33 66 34 67
REMARK SMILES IDX 42 68 35 69 36 70 40 71 43 72 37 73 38 74 41 75 39 76 65 77
REMARK SMILES IDX 66 78 74 79 67 80 68 81 72 82 75 83 69 84 70 85 73 86 71 87
REMARK SMILES IDX 50 88 51 89 59 90 52 91 53 92 57 93 60 94 54 95 55 96 58 97
REMARK SMILES IDX 56 98
REMARK H PARENT 17 5 9 13 21 32 80 51 48 62
REMARK Flexibility Score: inf
ROOT
ATOM      1  C   UNL A   1      32.036  30.464  26.317  1.00  0.00     0.118 C 
ENDROOT
BRANCH   1   2
ATOM      2  N   UNL A   1      32.823  29.999  25.187  1.00  0.00    -0.352 N 
ATOM      3  C   UNL A   1      32.647  28.904  24.374  1.00  0.00     0.251 C 
ATOM      4  O   UNL A   1      33.365  28.778  23.386  1.00  0.00    -0.269 OA
ATOM      5  H   UNL A   1      33.606  30.556  24.970  1.00  0.00     0.163 HD
BRANCH   3   6
ATOM      6  C   UNL A   1      31.559  27.923  24.605  1.00  0.00     0.041 A 
ATOM      7  C   UNL A   1      30.834  25.962  25.842  1.00  0.00     0.050 A 
ATOM      8  C   UNL A   1      29.660  25.922  25.091  1.00  0.00     0.027 A 
ATOM      9  C   UNL A   1      31.745  27.005  25.643  1.00  0.00     0.040 A 
ATOM     10  C   UNL A   1      29.440  26.876  24.095  1.00  0.00     0.003 A 
ATOM     11  C   UNL A   1      30.389  27.871  23.848  1.00  0.00     0.014 A 
BRANCH   7  12
ATOM     12  N   UNL A   1      31.207  24.972  26.787  1.00  0.00    -0.279 N 
ATOM     13  H   UNL A   1      31.154  25.215  27.740  1.00  0.00     0.180 HD
BRANCH  12  14
ATOM     14  S   UNL A   1      31.731  23.429  26.422  1.00  0.00     0.265 S 
ATOM     15  O   UNL A   1      30.688  22.778  25.653  1.00  0.00    -0.201 OA
ATOM     16  O   UNL A   1      32.158  22.869  27.690  1.00  0.00    -0.201 OA
BRANCH  14  17
ATOM     17  C   UNL A   1      33.175  23.446  25.384  1.00  0.00     0.133 A 
ATOM     18  C   UNL A   1      35.557  22.975  25.341  1.00  0.00     0.123 A 
ATOM     19  C   UNL A   1      34.372  23.131  26.053  1.00  0.00     0.073 A 
ATOM     20  C   UNL A   1      35.545  22.967  23.948  1.00  0.00    -0.005 A 
ATOM     21  C   UNL A   1      34.372  23.370  23.298  1.00  0.00     0.055 A 
ATOM     22  C   UNL A   1      36.746  22.596  23.130  1.00  0.00     0.048 C 
ATOM     23  C   UNL A   1      33.202  23.686  24.008  1.00  0.00     0.139 A 
BRANCH  18  24
ATOM     24  O   UNL A   1      36.706  22.801  26.062  1.00  0.00    -0.496 OA
ATOM     25  C   UNL A   1      37.434  24.033  26.137  1.00  0.00     0.278 C 
ENDBRANCH  18  24
BRANCH  23  26
ATOM     26  O   UNL A   1      32.126  24.275  23.416  1.00  0.00    -0.495 OA
ATOM     27  C   UNL A   1      32.367  25.137  22.308  1.00  0.00     0.278 C 
ENDBRANCH  23  26
ENDBRANCH  14  17
ENDBRANCH  12  14
ENDBRANCH   7  12
ENDBRANCH   3   6
ENDBRANCH   1   2
BRANCH   1  28
ATOM     28  C   UNL A   1      32.838  31.362  27.251  1.00  0.00     0.042 C 
BRANCH  28  29
ATOM     29  C   UNL A   1      34.128  30.725  27.746  1.00  0.00     0.118 C 
BRANCH  29  30
ATOM     30  N   UNL A   1      34.745  31.488  28.831  1.00  0.00    -0.352 N 
ATOM     31  C   UNL A   1      35.919  31.244  29.527  1.00  0.00     0.251 C 
ATOM     32  H   UNL A   1      34.255  32.296  29.107  1.00  0.00     0.163 HD
ATOM     33  O   UNL A   1      36.344  32.042  30.340  1.00  0.00    -0.269 OA
BRANCH  31  34
ATOM     34  C   UNL A   1      36.713  30.056  29.149  1.00  0.00     0.039 A 
ATOM     35  C   UNL A   1      36.957  29.106  30.145  1.00  0.00     0.014 A 
ATOM     36  C   UNL A   1      37.447  30.068  27.968  1.00  0.00     0.014 A 
ATOM     37  C   UNL A   1      38.126  28.358  30.080  1.00  0.00     0.010 A 
ATOM     38  C   UNL A   1      38.660  29.411  27.958  1.00  0.00     0.010 A 
ATOM     39  C   UNL A   1      39.033  28.625  29.055  1.00  0.00    -0.014 A 
BRANCH  39  40
ATOM     40  C   UNL A   1      40.442  28.254  29.141  1.00  0.00     0.031 A 
ATOM     41  C   UNL A   1      40.906  26.955  28.621  1.00  0.00     0.074 A 
ATOM     42  C   UNL A   1      41.329  29.151  29.628  1.00  0.00     0.049 A 
ATOM     43  N   UNL A   1      41.999  26.371  28.980  1.00  0.00    -0.248 NA
ATOM     44  C   UNL A   1      40.121  26.172  27.678  1.00  0.00     0.031 C 
ATOM     45  C   UNL A   1      42.786  29.094  29.537  1.00  0.00     0.029 A 
ATOM     46  N   UNL A   1      41.077  30.233  30.495  1.00  0.00    -0.354 N 
ATOM     47  C   UNL A   1      42.206  25.303  28.134  1.00  0.00     0.074 A 
ATOM     48  C   UNL A   1      40.966  25.174  27.405  1.00  0.00     0.031 C 
ATOM     49  C   UNL A   1      43.310  29.858  30.508  1.00  0.00     0.029 A 
ATOM     50  C   UNL A   1      42.210  30.309  31.339  1.00  0.00     0.049 A 
ATOM     51  H   UNL A   1      40.281  30.811  30.509  1.00  0.00     0.167 HD
ATOM     52  C   UNL A   1      43.455  24.753  28.060  1.00  0.00     0.037 A 
ATOM     53  C   UNL A   1      42.115  30.105  32.685  1.00  0.00     0.037 A 
ATOM     54  C   UNL A   1      44.338  25.329  29.077  1.00  0.00     0.049 A 
ATOM     55  C   UNL A   1      42.961  28.962  33.195  1.00  0.00     0.074 A 
ATOM     56  C   UNL A   1      45.313  26.312  29.028  1.00  0.00     0.029 A 
ATOM     57  N   UNL A   1      44.068  25.112  30.425  1.00  0.00    -0.354 N 
ATOM     58  N   UNL A   1      43.448  28.026  32.431  1.00  0.00    -0.248 NA
ATOM     59  C   UNL A   1      43.282  28.757  34.606  1.00  0.00     0.031 C 
ATOM     60  C   UNL A   1      45.584  26.732  30.353  1.00  0.00     0.029 A 
ATOM     61  C   UNL A   1      44.791  25.990  31.211  1.00  0.00     0.049 A 
ATOM     62  H   UNL A   1      43.449  24.430  30.770  1.00  0.00     0.167 HD
ATOM     63  C   UNL A   1      44.100  27.101  33.202  1.00  0.00     0.074 A 
ATOM     64  C   UNL A   1      43.988  27.614  34.554  1.00  0.00     0.031 C 
ATOM     65  C   UNL A   1      44.659  25.981  32.660  1.00  0.00     0.037 A 
BRANCH  52  66
ATOM     66  C   UNL A   1      43.968  23.942  26.878  1.00  0.00     0.064 A 
ATOM     67  C   UNL A   1      43.552  22.603  26.690  1.00  0.00     0.173 A 
ATOM     68  C   UNL A   1      44.931  24.377  25.948  1.00  0.00     0.173 A 
ATOM     69  F   UNL A   1      42.545  22.076  27.396  1.00  0.00    -0.203 F 
ATOM     70  C   UNL A   1      44.154  21.746  25.760  1.00  0.00     0.198 A 
ATOM     71  C   UNL A   1      45.568  23.510  25.052  1.00  0.00     0.198 A 
ATOM     72  F   UNL A   1      45.245  25.667  25.813  1.00  0.00    -0.203 F 
ATOM     73  F   UNL A   1      43.726  20.481  25.648  1.00  0.00    -0.200 F 
ATOM     74  C   UNL A   1      45.192  22.188  24.970  1.00  0.00     0.200 A 
ATOM     75  F   UNL A   1      46.548  23.976  24.263  1.00  0.00    -0.200 F 
ATOM     76  F   UNL A   1      45.800  21.360  24.112  1.00  0.00    -0.200 F 
ENDBRANCH  52  66
BRANCH  53  77
ATOM     77  C   UNL A   1      40.805  30.516  33.255  1.00  0.00     0.064 A 
ATOM     78  C   UNL A   1      40.526  31.891  33.358  1.00  0.00     0.173 A 
ATOM     79  C   UNL A   1      39.728  29.627  33.334  1.00  0.00     0.173 A 
ATOM     80  F   UNL A   1      41.523  32.786  33.282  1.00  0.00    -0.203 F 
ATOM     81  C   UNL A   1      39.216  32.362  33.421  1.00  0.00     0.198 A 
ATOM     82  C   UNL A   1      38.417  30.102  33.410  1.00  0.00     0.198 A 
ATOM     83  F   UNL A   1      39.927  28.307  33.217  1.00  0.00    -0.203 F 
ATOM     84  F   UNL A   1      38.979  33.682  33.400  1.00  0.00    -0.200 F 
ATOM     85  C   UNL A   1      38.160  31.466  33.418  1.00  0.00     0.200 A 
ATOM     86  F   UNL A   1      37.392  29.238  33.372  1.00  0.00    -0.200 F 
ATOM     87  F   UNL A   1      36.899  31.916  33.376  1.00  0.00    -0.200 F 
ENDBRANCH  53  77
BRANCH  65  88
ATOM     88  C   UNL A   1      45.205  24.809  33.434  1.00  0.00     0.064 A 
ATOM     89  C   UNL A   1      44.461  23.656  33.731  1.00  0.00     0.173 A 
ATOM     90  C   UNL A   1      46.578  24.758  33.772  1.00  0.00     0.173 A 
ATOM     91  F   UNL A   1      43.177  23.544  33.363  1.00  0.00    -0.203 F 
ATOM     92  C   UNL A   1      45.035  22.552  34.368  1.00  0.00     0.198 A 
ATOM     93  C   UNL A   1      47.160  23.635  34.357  1.00  0.00     0.198 A 
ATOM     94  F   UNL A   1      47.399  25.788  33.520  1.00  0.00    -0.203 F 
ATOM     95  F   UNL A   1      44.275  21.488  34.663  1.00  0.00    -0.200 F 
ATOM     96  C   UNL A   1      46.385  22.536  34.668  1.00  0.00     0.200 A 
ATOM     97  F   UNL A   1      48.479  23.616  34.597  1.00  0.00    -0.200 F 
ATOM     98  F   UNL A   1      46.940  21.457  35.236  1.00  0.00    -0.200 F 
ENDBRANCH  65  88
ENDBRANCH  39  40
ENDBRANCH  31  34
ENDBRANCH  29  30
ENDBRANCH  28  29
ENDBRANCH   1  28
TORSDOF 15
ENDMDL
MODEL 2
REMARK VINA RESULT:     -13.2      1.163      2.172
REMARK SMILES COc1cc(S(=O)(=O)Nc2cccc(C(=O)NCCCNC(=O)c3ccc(-c4c5nc(c(-c6c(F)c(F)c(F)c(F)c6F)c6ccc([nH]6)c(-c6c(F)c(F)c(F)c(F)c6F)c6nc(c(-c7c(F)c(F)c(F)c(F)c7F)c7ccc4[nH]7)C=C6)C=C5)cc3)c2)c(OC)cc1C
REMARK SMILES IDX 18 1 17 2 15 3 16 4 14 6 10 7 11 8 87 9 12 10 13 11 9 12
REMARK SMILES IDX 6 14 7 15 8 16 5 17 3 18 4 19 92 20 91 21 93 22 88 23 2 24
REMARK SMILES IDX 1 25 89 26 90 27 19 28 20 29 21 30 22 31 23 33 24 34 25 35
REMARK SMILES IDX 86 36 26 37 85 38 27 39 28 40 29 41 79 42 30 43 84 44 78 45
REMARK SMILES IDX 80 46 31 47 83 48 77 49 76 50 32 52 64 53 44 54 63 55 45 56
REMARK SMILES IDX 48 57 62 58 81 59 46 60 47 61 61 63 82 64 49 65 33 66 34 67
REMARK SMILES IDX 42 68 35 69 36 70 40 71 43 72 37 73 38 74 41 75 39 76 65 77
REMARK SMILES IDX 66 78 74 79 67 80 68 81 72 82 75 83 69 84 70 85 73 86 71 87
REMARK SMILES IDX 50 88 51 89 59 90 52 91 53 92 57 93 60 94 54 95 55 96 58 97
REMARK SMILES IDX 56 98
REMARK H PARENT 17 5 9 13 21 32 80 51 48 62
REMARK Flexibility Score: inf
ROOT
ATOM      1  C   UNL A   1      31.611  30.460  25.976  1.00  0.00     0.118 C 
ENDROOT
BRANCH   1   2
ATOM      2  N   UNL A   1      32.440  29.956  24.893  1.00  0.00    -0.352 N 
ATOM      3  C   UNL A   1      32.362  28.774  24.193  1.00  0.00     0.251 C 
ATOM      4  O   UNL A   1      33.092  28.614  23.219  1.00  0.00    -0.269 OA
ATOM      5  H   UNL A   1      33.172  30.554  24.619  1.00  0.00     0.163 HD
BRANCH   3   6
ATOM      6  C   UNL A   1      31.362  27.731  24.524  1.00  0.00     0.041 A 
ATOM      7  C   UNL A   1      30.828  25.809  25.911  1.00  0.00     0.050 A 
ATOM      8  C   UNL A   1      29.640  25.629  25.205  1.00  0.00     0.027 A 
ATOM      9  C   UNL A   1      31.648  26.903  25.613  1.00  0.00     0.040 A 
ATOM     10  C   UNL A   1      29.317  26.492  24.156  1.00  0.00     0.003 A 
ATOM     11  C   UNL A   1      30.177  27.538  23.813  1.00  0.00     0.014 A 
BRANCH   7  12
ATOM     12  N   UNL A   1      31.306  24.916  26.905  1.00  0.00    -0.279 N 
ATOM     13  H   UNL A   1      31.493  25.292  27.797  1.00  0.00     0.180 HD
BRANCH  12  14
ATOM     14  S   UNL A   1      31.581  23.283  26.695  1.00  0.00     0.265 S 
ATOM     15  O   UNL A   1      30.364  22.694  26.170  1.00  0.00    -0.201 OA
ATOM     16  O   UNL A   1      32.124  22.828  27.960  1.00  0.00    -0.201 OA
BRANCH  14  17
ATOM     17  C   UNL A   1      32.843  22.973  25.481  1.00  0.00     0.133 A 
ATOM     18  C   UNL A   1      34.203  24.021  23.763  1.00  0.00     0.123 A 
ATOM     19  C   UNL A   1      33.145  24.078  24.664  1.00  0.00     0.073 A 
ATOM     20  C   UNL A   1      35.076  22.936  23.772  1.00  0.00    -0.005 A 
ATOM     21  C   UNL A   1      34.716  21.807  24.520  1.00  0.00     0.055 A 
ATOM     22  C   UNL A   1      36.348  22.912  22.976  1.00  0.00     0.048 C 
ATOM     23  C   UNL A   1      33.561  21.785  25.319  1.00  0.00     0.139 A 
BRANCH  18  24
ATOM     24  O   UNL A   1      34.360  25.077  22.908  1.00  0.00    -0.496 OA
ATOM     25  C   UNL A   1      33.212  25.202  22.060  1.00  0.00     0.278 C 
ENDBRANCH  18  24
BRANCH  23  26
ATOM     26  O   UNL A   1      33.086  20.640  25.883  1.00  0.00    -0.495 OA
ATOM     27  C   UNL A   1      33.288  19.420  25.178  1.00  0.00     0.278 C 
ENDBRANCH  23  26
ENDBRANCH  14  17
ENDBRANCH  12  14
ENDBRANCH   7  12
ENDBRANCH   3   6
ENDBRANCH   1   2
BRANCH   1  28
ATOM     28  C   UNL A   1      32.375  31.398  26.901  1.00  0.00     0.042 C 
BRANCH  28  29
ATOM     29  C   UNL A   1      33.490  30.710  27.676  1.00  0.00     0.118 C 
BRANCH  29  30
ATOM     30  N   UNL A   1      34.231  31.640  28.529  1.00  0.00    -0.352 N 
ATOM     31  C   UNL A   1      35.477  31.496  29.121  1.00  0.00     0.251 C 
ATOM     32  H   UNL A   1      33.777  32.495  28.709  1.00  0.00     0.163 HD
ATOM     33  O   UNL A   1      35.995  32.416  29.723  1.00  0.00    -0.269 OA
BRANCH  31  34
ATOM     34  C   UNL A   1      36.219  30.242  28.874  1.00  0.00     0.039 A 
ATOM     35  C   UNL A   1      36.594  29.490  29.991  1.00  0.00     0.014 A 
ATOM     36  C   UNL A   1      36.791  30.016  27.628  1.00  0.00     0.014 A 
ATOM     37  C   UNL A   1      37.746  28.718  29.918  1.00  0.00     0.010 A 
ATOM     38  C   UNL A   1      37.995  29.343  27.584  1.00  0.00     0.010 A 
ATOM     39  C   UNL A   1      38.511  28.769  28.753  1.00  0.00    -0.014 A 
BRANCH  39  40
ATOM     40  C   UNL A   1      39.920  28.391  28.725  1.00  0.00     0.031 A 
ATOM     41  C   UNL A   1      40.317  27.010  28.394  1.00  0.00     0.074 A 
ATOM     42  C   UNL A   1      40.860  29.342  28.924  1.00  0.00     0.049 A 
ATOM     43  N   UNL A   1      41.449  26.477  28.711  1.00  0.00    -0.248 NA
ATOM     44  C   UNL A   1      39.419  26.086  27.716  1.00  0.00     0.031 C 
ATOM     45  C   UNL A   1      42.294  29.240  28.661  1.00  0.00     0.029 A 
ATOM     46  N   UNL A   1      40.719  30.567  29.605  1.00  0.00    -0.354 N 
ATOM     47  C   UNL A   1      41.549  25.270  28.053  1.00  0.00     0.074 A 
ATOM     48  C   UNL A   1      40.225  25.038  27.524  1.00  0.00     0.031 C 
ATOM     49  C   UNL A   1      42.936  30.155  29.403  1.00  0.00     0.029 A 
ATOM     50  C   UNL A   1      41.951  30.771  30.271  1.00  0.00     0.049 A 
ATOM     51  H   UNL A   1      39.930  31.155  29.616  1.00  0.00     0.167 HD
ATOM     52  C   UNL A   1      42.779  24.691  27.922  1.00  0.00     0.037 A 
ATOM     53  C   UNL A   1      42.030  30.815  31.633  1.00  0.00     0.037 A 
ATOM     54  C   UNL A   1      43.784  25.422  28.697  1.00  0.00     0.049 A 
ATOM     55  C   UNL A   1      42.938  29.766  32.230  1.00  0.00     0.074 A 
ATOM     56  C   UNL A   1      44.742  26.360  28.347  1.00  0.00     0.029 A 
ATOM     57  N   UNL A   1      43.690  25.458  30.085  1.00  0.00    -0.354 N 
ATOM     58  N   UNL A   1      43.326  28.697  31.592  1.00  0.00    -0.248 NA
ATOM     59  C   UNL A   1      43.440  29.812  33.602  1.00  0.00     0.031 C 
ATOM     60  C   UNL A   1      45.180  27.006  29.529  1.00  0.00     0.029 A 
ATOM     61  C   UNL A   1      44.506  26.447  30.601  1.00  0.00     0.049 A 
ATOM     62  H   UNL A   1      43.123  24.861  30.624  1.00  0.00     0.167 HD
ATOM     63  C   UNL A   1      44.074  27.913  32.429  1.00  0.00     0.074 A 
ATOM     64  C   UNL A   1      44.136  28.663  33.669  1.00  0.00     0.031 C 
ATOM     65  C   UNL A   1      44.562  26.702  32.032  1.00  0.00     0.037 A 
BRANCH  52  66
ATOM     66  C   UNL A   1      43.138  23.669  26.851  1.00  0.00     0.064 A 
ATOM     67  C   UNL A   1      42.791  22.308  27.011  1.00  0.00     0.173 A 
ATOM     68  C   UNL A   1      43.894  23.934  25.694  1.00  0.00     0.173 A 
ATOM     69  F   UNL A   1      41.959  21.905  27.980  1.00  0.00    -0.203 F 
ATOM     70  C   UNL A   1      43.283  21.297  26.177  1.00  0.00     0.198 A 
ATOM     71  C   UNL A   1      44.428  22.922  24.887  1.00  0.00     0.198 A 
ATOM     72  F   UNL A   1      44.089  25.178  25.251  1.00  0.00    -0.203 F 
ATOM     73  F   UNL A   1      42.932  20.023  26.398  1.00  0.00    -0.200 F 
ATOM     74  C   UNL A   1      44.137  21.600  25.139  1.00  0.00     0.200 A 
ATOM     75  F   UNL A   1      45.223  23.247  23.856  1.00  0.00    -0.200 F 
ATOM     76  F   UNL A   1      44.646  20.632  24.366  1.00  0.00    -0.200 F 
ENDBRANCH  52  66
BRANCH  53  77
ATOM     77  C   UNL A   1      40.804  31.348  32.280  1.00  0.00     0.064 A 
ATOM     78  C   UNL A   1      39.862  30.431  32.782  1.00  0.00     0.173 A 
ATOM     79  C   UNL A   1      40.729  32.669  32.734  1.00  0.00     0.173 A 
ATOM     80  F   UNL A   1      39.895  29.150  32.382  1.00  0.00    -0.203 F 
ATOM     81  C   UNL A   1      38.961  30.790  33.782  1.00  0.00     0.198 A 
ATOM     82  C   UNL A   1      39.816  33.030  33.728  1.00  0.00     0.198 A 
ATOM     83  F   UNL A   1      41.613  33.583  32.313  1.00  0.00    -0.203 F 
ATOM     84  F   UNL A   1      38.157  29.864  34.322  1.00  0.00    -0.200 F 
ATOM     85  C   UNL A   1      38.958  32.085  34.274  1.00  0.00     0.200 A 
ATOM     86  F   UNL A   1      39.835  34.273  34.231  1.00  0.00    -0.200 F 
ATOM     87  F   UNL A   1      38.164  32.409  35.304  1.00  0.00    -0.200 F 
ENDBRANCH  53  77
BRANCH  65  88
ATOM     88  C   UNL A   1      45.206  25.678  32.930  1.00  0.00     0.064 A 
ATOM     89  C   UNL A   1      46.586  25.420  32.953  1.00  0.00     0.173 A 
ATOM     90  C   UNL A   1      44.442  25.023  33.924  1.00  0.00     0.173 A 
ATOM     91  F   UNL A   1      47.428  26.063  32.132  1.00  0.00    -0.203 F 
ATOM     92  C   UNL A   1      47.154  24.530  33.870  1.00  0.00     0.198 A 
ATOM     93  C   UNL A   1      45.018  24.178  34.871  1.00  0.00     0.198 A 
ATOM     94  F   UNL A   1      43.117  25.203  34.018  1.00  0.00    -0.203 F 
ATOM     95  F   UNL A   1      48.472  24.290  33.831  1.00  0.00    -0.200 F 
ATOM     96  C   UNL A   1      46.374  23.921  34.836  1.00  0.00     0.200 A 
ATOM     97  F   UNL A   1      44.257  23.634  35.830  1.00  0.00    -0.200 F 
ATOM     98  F   UNL A   1      46.930  23.106  35.742  1.00  0.00    -0.200 F 
ENDBRANCH  65  88
ENDBRANCH  39  40
ENDBRANCH  31  34
ENDBRANCH  29  30
ENDBRANCH  28  29
ENDBRANCH   1  28
TORSDOF 15
ENDMDL
MODEL 3
REMARK VINA RESULT:     -13.1      3.680      9.959
REMARK SMILES COc1cc(S(=O)(=O)Nc2cccc(C(=O)NCCCNC(=O)c3ccc(-c4c5nc(c(-c6c(F)c(F)c(F)c(F)c6F)c6ccc([nH]6)c(-c6c(F)c(F)c(F)c(F)c6F)c6nc(c(-c7c(F)c(F)c(F)c(F)c7F)c7ccc4[nH]7)C=C6)C=C5)cc3)c2)c(OC)cc1C
REMARK SMILES IDX 18 1 17 2 15 3 16 4 14 6 10 7 11 8 87 9 12 10 13 11 9 12
REMARK SMILES IDX 6 14 7 15 8 16 5 17 3 18 4 19 92 20 91 21 93 22 88 23 2 24
REMARK SMILES IDX 1 25 89 26 90 27 19 28 20 29 21 30 22 31 23 33 24 34 25 35
REMARK SMILES IDX 86 36 26 37 85 38 27 39 28 40 29 41 79 42 30 43 84 44 78 45
REMARK SMILES IDX 80 46 31 47 83 48 77 49 76 50 32 52 64 53 44 54 63 55 45 56
REMARK SMILES IDX 48 57 62 58 81 59 46 60 47 61 61 63 82 64 49 65 33 66 34 67
REMARK SMILES IDX 42 68 35 69 36 70 40 71 43 72 37 73 38 74 41 75 39 76 65 77
REMARK SMILES IDX 66 78 74 79 67 80 68 81 72 82 75 83 69 84 70 85 73 86 71 87
REMARK SMILES IDX 50 88 51 89 59 90 52 91 53 92 57 93 60 94 54 95 55 96 58 97
REMARK SMILES IDX 56 98
REMARK H PARENT 17 5 9 13 21 32 80 51 48 62
REMARK Flexibility Score: inf
ROOT
ATOM      1  C   UNL A   1      36.582  21.650  24.708  1.00  0.00     0.118 C 
ENDROOT
BRANCH   1   2
ATOM      2  N   UNL A   1      35.845  20.398  24.730  1.00  0.00    -0.352 N 
ATOM      3  C   UNL A   1      34.490  20.167  24.798  1.00  0.00     0.251 C 
ATOM      4  O   UNL A   1      34.078  19.018  24.667  1.00  0.00    -0.269 OA
ATOM      5  H   UNL A   1      36.402  19.588  24.691  1.00  0.00     0.163 HD
BRANCH   3   6
ATOM      6  C   UNL A   1      33.513  21.274  24.931  1.00  0.00     0.041 A 
ATOM      7  C   UNL A   1      32.486  23.204  23.871  1.00  0.00     0.050 A 
ATOM      8  C   UNL A   1      31.794  23.483  25.049  1.00  0.00     0.027 A 
ATOM      9  C   UNL A   1      33.287  22.060  23.797  1.00  0.00     0.040 A 
ATOM     10  C   UNL A   1      31.967  22.665  26.167  1.00  0.00     0.003 A 
ATOM     11  C   UNL A   1      32.827  21.566  26.111  1.00  0.00     0.014 A 
BRANCH   7  12
ATOM     12  N   UNL A   1      32.477  24.041  22.726  1.00  0.00    -0.279 N 
ATOM     13  H   UNL A   1      31.919  23.758  21.965  1.00  0.00     0.180 HD
BRANCH  12  14
ATOM     14  S   UNL A   1      33.331  25.466  22.555  1.00  0.00     0.265 S 
ATOM     15  O   UNL A   1      33.181  25.910  21.183  1.00  0.00    -0.201 OA
ATOM     16  O   UNL A   1      34.648  25.179  23.089  1.00  0.00    -0.201 OA
BRANCH  14  17
ATOM     17  C   UNL A   1      32.664  26.765  23.571  1.00  0.00     0.133 A 
ATOM     18  C   UNL A   1      33.266  28.562  25.090  1.00  0.00     0.123 A 
ATOM     19  C   UNL A   1      33.622  27.438  24.351  1.00  0.00     0.073 A 
ATOM     20  C   UNL A   1      32.003  29.130  24.941  1.00  0.00    -0.005 A 
ATOM     21  C   UNL A   1      31.033  28.404  24.237  1.00  0.00     0.055 A 
ATOM     22  C   UNL A   1      31.633  30.452  25.545  1.00  0.00     0.048 C 
ATOM     23  C   UNL A   1      31.332  27.182  23.611  1.00  0.00     0.139 A 
BRANCH  18  24
ATOM     24  O   UNL A   1      34.210  29.089  25.928  1.00  0.00    -0.496 OA
ATOM     25  C   UNL A   1      34.035  28.576  27.254  1.00  0.00     0.278 C 
ENDBRANCH  18  24
BRANCH  23  26
ATOM     26  O   UNL A   1      30.365  26.367  23.106  1.00  0.00    -0.495 OA
ATOM     27  C   UNL A   1      29.193  26.162  23.888  1.00  0.00     0.278 C 
ENDBRANCH  23  26
ENDBRANCH  14  17
ENDBRANCH  12  14
ENDBRANCH   7  12
ENDBRANCH   3   6
ENDBRANCH   1   2
BRANCH   1  28
ATOM     28  C   UNL A   1      37.934  21.539  25.402  1.00  0.00     0.042 C 
BRANCH  28  29
ATOM     29  C   UNL A   1      38.388  22.836  26.056  1.00  0.00     0.118 C 
BRANCH  29  30
ATOM     30  N   UNL A   1      39.839  22.888  26.240  1.00  0.00    -0.352 N 
ATOM     31  C   UNL A   1      40.632  23.911  26.736  1.00  0.00     0.251 C 
ATOM     32  H   UNL A   1      40.325  22.074  25.972  1.00  0.00     0.163 HD
ATOM     33  O   UNL A   1      41.823  23.751  26.917  1.00  0.00    -0.269 OA
BRANCH  31  34
ATOM     34  C   UNL A   1      39.962  25.154  27.173  1.00  0.00     0.039 A 
ATOM     35  C   UNL A   1      40.212  26.311  26.431  1.00  0.00     0.014 A 
ATOM     36  C   UNL A   1      39.395  25.219  28.440  1.00  0.00     0.014 A 
ATOM     37  C   UNL A   1      40.165  27.541  27.076  1.00  0.00     0.010 A 
ATOM     38  C   UNL A   1      39.457  26.422  29.112  1.00  0.00     0.010 A 
ATOM     39  C   UNL A   1      39.925  27.564  28.450  1.00  0.00    -0.014 A 
BRANCH  39  40
ATOM     40  C   UNL A   1      40.298  28.698  29.289  1.00  0.00     0.031 A 
ATOM     41  C   UNL A   1      39.323  29.764  29.582  1.00  0.00     0.074 A 
ATOM     42  C   UNL A   1      41.522  28.716  29.864  1.00  0.00     0.049 A 
ATOM     43  N   UNL A   1      39.634  30.957  29.961  1.00  0.00    -0.248 NA
ATOM     44  C   UNL A   1      37.890  29.574  29.406  1.00  0.00     0.031 C 
ATOM     45  C   UNL A   1      41.982  29.589  30.942  1.00  0.00     0.029 A 
ATOM     46  N   UNL A   1      42.687  28.048  29.437  1.00  0.00    -0.354 N 
ATOM     47  C   UNL A   1      38.475  31.596  30.347  1.00  0.00     0.074 A 
ATOM     48  C   UNL A   1      37.416  30.723  29.897  1.00  0.00     0.031 C 
ATOM     49  C   UNL A   1      43.322  29.648  30.908  1.00  0.00     0.029 A 
ATOM     50  C   UNL A   1      43.753  28.934  29.721  1.00  0.00     0.049 A 
ATOM     51  H   UNL A   1      42.745  27.155  29.028  1.00  0.00     0.167 HD
ATOM     52  C   UNL A   1      38.566  32.715  31.125  1.00  0.00     0.037 A 
ATOM     53  C   UNL A   1      44.527  29.464  28.730  1.00  0.00     0.037 A 
ATOM     54  C   UNL A   1      39.961  33.140  31.263  1.00  0.00     0.049 A 
ATOM     55  C   UNL A   1      44.508  30.974  28.677  1.00  0.00     0.074 A 
ATOM     56  C   UNL A   1      40.899  32.973  32.269  1.00  0.00     0.029 A 
ATOM     57  N   UNL A   1      40.662  33.577  30.143  1.00  0.00    -0.354 N 
ATOM     58  N   UNL A   1      43.594  31.706  29.247  1.00  0.00    -0.248 NA
ATOM     59  C   UNL A   1      45.486  31.772  27.940  1.00  0.00     0.031 C 
ATOM     60  C   UNL A   1      42.179  33.251  31.730  1.00  0.00     0.029 A 
ATOM     61  C   UNL A   1      42.019  33.610  30.403  1.00  0.00     0.049 A 
ATOM     62  H   UNL A   1      40.248  33.828  29.286  1.00  0.00     0.167 HD
ATOM     63  C   UNL A   1      43.814  33.024  28.950  1.00  0.00     0.074 A 
ATOM     64  C   UNL A   1      45.023  33.017  28.148  1.00  0.00     0.031 C 
ATOM     65  C   UNL A   1      42.969  34.008  29.375  1.00  0.00     0.037 A 
BRANCH  52  66
ATOM     66  C   UNL A   1      37.447  33.236  32.017  1.00  0.00     0.064 A 
ATOM     67  C   UNL A   1      36.359  33.949  31.463  1.00  0.00     0.173 A 
ATOM     68  C   UNL A   1      37.420  33.152  33.421  1.00  0.00     0.173 A 
ATOM     69  F   UNL A   1      36.157  34.005  30.141  1.00  0.00    -0.203 F 
ATOM     70  C   UNL A   1      35.425  34.637  32.248  1.00  0.00     0.198 A 
ATOM     71  C   UNL A   1      36.517  33.877  34.209  1.00  0.00     0.198 A 
ATOM     72  F   UNL A   1      38.212  32.311  34.090  1.00  0.00    -0.203 F 
ATOM     73  F   UNL A   1      34.430  35.313  31.658  1.00  0.00    -0.200 F 
ATOM     74  C   UNL A   1      35.530  34.636  33.622  1.00  0.00     0.200 A 
ATOM     75  F   UNL A   1      36.614  33.825  35.546  1.00  0.00    -0.200 F 
ATOM     76  F   UNL A   1      34.666  35.328  34.374  1.00  0.00    -0.200 F 
ENDBRANCH  52  66
BRANCH  53  77
ATOM     77  C   UNL A   1      44.672  28.572  27.551  1.00  0.00     0.064 A 
ATOM     78  C   UNL A   1      45.503  27.442  27.669  1.00  0.00     0.173 A 
ATOM     79  C   UNL A   1      43.755  28.596  26.495  1.00  0.00     0.173 A 
ATOM     80  F   UNL A   1      46.396  27.367  28.668  1.00  0.00    -0.203 F 
ATOM     81  C   UNL A   1      45.343  26.335  26.838  1.00  0.00     0.198 A 
ATOM     82  C   UNL A   1      43.605  27.489  25.656  1.00  0.00     0.198 A 
ATOM     83  F   UNL A   1      42.919  29.632  26.345  1.00  0.00    -0.203 F 
ATOM     84  F   UNL A   1      46.071  25.229  27.051  1.00  0.00    -0.200 F 
ATOM     85  C   UNL A   1      44.374  26.349  25.850  1.00  0.00     0.200 A 
ATOM     86  F   UNL A   1      42.644  27.486  24.721  1.00  0.00    -0.200 F 
ATOM     87  F   UNL A   1      44.149  25.251  25.116  1.00  0.00    -0.200 F 
ENDBRANCH  53  77
BRANCH  65  88
ATOM     88  C   UNL A   1      43.002  35.446  28.931  1.00  0.00     0.064 A 
ATOM     89  C   UNL A   1      42.437  35.904  27.729  1.00  0.00     0.173 A 
ATOM     90  C   UNL A   1      43.483  36.450  29.804  1.00  0.00     0.173 A 
ATOM     91  F   UNL A   1      41.852  35.059  26.870  1.00  0.00    -0.203 F 
ATOM     92  C   UNL A   1      42.405  37.263  27.400  1.00  0.00     0.198 A 
ATOM     93  C   UNL A   1      43.400  37.807  29.498  1.00  0.00     0.198 A 
ATOM     94  F   UNL A   1      44.027  36.142  30.991  1.00  0.00    -0.203 F 
ATOM     95  F   UNL A   1      41.887  37.648  26.226  1.00  0.00    -0.200 F 
ATOM     96  C   UNL A   1      42.873  38.214  28.289  1.00  0.00     0.200 A 
ATOM     97  F   UNL A   1      43.814  38.718  30.390  1.00  0.00    -0.200 F 
ATOM     98  F   UNL A   1      42.797  39.517  27.990  1.00  0.00    -0.200 F 
ENDBRANCH  65  88
ENDBRANCH  39  40
ENDBRANCH  31  34
ENDBRANCH  29  30
ENDBRANCH  28  29
ENDBRANCH   1  28
TORSDOF 15
ENDMDL
