MODEL 1
REMARK VINA RESULT:     -12.8      0.000      0.000
REMARK SMILES CC[C@H]1CCCC[N@H+]1[C@@H]1CC(=O)N(c2nc(CC(=O)NCCCNC(=O)c3ccc(-c4c5nc(c(-c6c(F)c(F)c(F)c(F)c6F)c6ccc([nH]6)c(-c6c(F)c(F)c(F)c(F)c6F)c6nc(c(-c7c(F)c(F)c(F)c(F)c7F)c7ccc4[nH]7)C=C6)C=C5)cc3)cs2)C1=O
REMARK SMILES IDX 21 1 20 2 18 3 19 4 17 6 16 7 14 8 15 9 91 10 90 11 13 12
REMARK SMILES IDX 9 13 10 14 92 15 11 16 93 17 12 18 8 19 3 20 4 21 5 22 7 23
REMARK SMILES IDX 6 25 2 26 1 27 22 28 23 29 24 30 25 31 26 33 27 34 28 35
REMARK SMILES IDX 89 36 29 37 88 38 30 39 31 40 32 41 82 42 33 43 87 44 81 45
REMARK SMILES IDX 83 46 34 47 86 48 80 49 79 50 35 52 67 53 47 54 66 55 48 56
REMARK SMILES IDX 51 57 65 58 84 59 49 60 50 61 64 63 85 64 52 65 36 66 37 67
REMARK SMILES IDX 45 68 38 69 39 70 43 71 46 72 40 73 41 74 44 75 42 76 68 77
REMARK SMILES IDX 69 78 77 79 70 80 71 81 75 82 78 83 72 84 73 85 76 86 74 87
REMARK SMILES IDX 53 88 54 89 62 90 55 91 56 92 60 93 63 94 57 95 58 96 61 97
REMARK SMILES IDX 59 98
REMARK H PARENT 20 5 8 24 24 32 83 51 51 62
REMARK Flexibility Score: inf
ROOT
ATOM      1  C   UNL A   1      31.259  30.938  26.458  1.00  0.00     0.117 C 
ENDROOT
BRANCH   1   2
ATOM      2  N   UNL A   1      32.500  30.281  26.835  1.00  0.00    -0.356 N 
ATOM      3  C   UNL A   1      33.382  29.582  26.059  1.00  0.00     0.226 C 
ATOM      4  O   UNL A   1      34.350  29.055  26.612  1.00  0.00    -0.275 OA
ATOM      5  H   UNL A   1      32.739  30.348  27.787  1.00  0.00     0.163 HD
BRANCH   3   6
ATOM      6  C   UNL A   1      33.188  29.487  24.559  1.00  0.00     0.157 C 
BRANCH   6   7
ATOM      7  C   UNL A   1      32.257  28.388  24.182  1.00  0.00     0.063 A 
ATOM      8  C   UNL A   1      31.918  26.260  23.628  1.00  0.00     0.199 A 
ATOM      9  N   UNL A   1      32.794  27.125  24.078  1.00  0.00    -0.224 NA
ATOM     10  S   UNL A   1      30.360  26.905  23.353  1.00  0.00    -0.104 S 
ATOM     11  C   UNL A   1      30.907  28.448  23.890  1.00  0.00     0.093 A 
BRANCH   8  12
ATOM     12  N   UNL A   1      32.219  24.939  23.401  1.00  0.00    -0.219 N 
ATOM     13  C   UNL A   1      32.229  22.594  23.411  1.00  0.00     0.285 C 
ATOM     14  C   UNL A   1      32.907  23.114  22.154  1.00  0.00     0.176 C 
ATOM     15  C   UNL A   1      31.902  23.871  24.205  1.00  0.00     0.294 C 
ATOM     16  C   UNL A   1      32.777  24.588  22.205  1.00  0.00     0.242 C 
ATOM     17  O   UNL A   1      31.352  23.879  25.297  1.00  0.00    -0.267 OA
ATOM     18  O   UNL A   1      33.206  25.290  21.296  1.00  0.00    -0.274 OA
BRANCH  13  19
ATOM     19  N   UNL A   1      32.956  21.561  24.188  1.00  0.00    -0.322 N 
ATOM     20  C   UNL A   1      32.390  20.184  24.097  1.00  0.00     0.184 C 
ATOM     21  C   UNL A   1      33.101  19.273  25.119  1.00  0.00     0.065 C 
ATOM     22  C   UNL A   1      34.608  19.252  24.903  1.00  0.00     0.012 C 
ATOM     23  C   UNL A   1      34.419  21.623  24.055  1.00  0.00     0.263 C 
ATOM     24  H   UNL A   1      32.778  21.827  25.157  1.00  0.00     0.349 HD
ATOM     25  C   UNL A   1      35.143  20.671  25.011  1.00  0.00     0.062 C 
BRANCH  20  26
ATOM     26  C   UNL A   1      32.375  19.564  22.674  1.00  0.00     0.061 C 
ATOM     27  C   UNL A   1      32.341  18.044  22.600  1.00  0.00     0.010 C 
ENDBRANCH  20  26
ENDBRANCH  13  19
ENDBRANCH   8  12
ENDBRANCH   6   7
ENDBRANCH   3   6
ENDBRANCH   1   2
BRANCH   1  28
ATOM     28  C   UNL A   1      31.373  32.462  26.492  1.00  0.00     0.042 C 
BRANCH  28  29
ATOM     29  C   UNL A   1      32.586  32.994  27.252  1.00  0.00     0.118 C 
BRANCH  29  30
ATOM     30  N   UNL A   1      32.402  34.356  27.729  1.00  0.00    -0.352 N 
ATOM     31  C   UNL A   1      33.035  35.044  28.732  1.00  0.00     0.251 C 
ATOM     32  H   UNL A   1      31.708  34.867  27.252  1.00  0.00     0.163 HD
ATOM     33  O   UNL A   1      32.596  36.139  29.077  1.00  0.00    -0.269 OA
BRANCH  31  34
ATOM     34  C   UNL A   1      34.221  34.486  29.421  1.00  0.00     0.039 A 
ATOM     35  C   UNL A   1      34.039  33.874  30.666  1.00  0.00     0.014 A 
ATOM     36  C   UNL A   1      35.507  34.596  28.886  1.00  0.00     0.014 A 
ATOM     37  C   UNL A   1      35.130  33.321  31.340  1.00  0.00     0.010 A 
ATOM     38  C   UNL A   1      36.583  33.975  29.522  1.00  0.00     0.010 A 
ATOM     39  C   UNL A   1      36.407  33.334  30.756  1.00  0.00    -0.014 A 
BRANCH  39  40
ATOM     40  C   UNL A   1      37.554  32.658  31.418  1.00  0.00     0.031 A 
ATOM     41  C   UNL A   1      38.234  31.485  30.772  1.00  0.00     0.074 A 
ATOM     42  C   UNL A   1      37.943  33.066  32.642  1.00  0.00     0.049 A 
ATOM     43  N   UNL A   1      39.221  30.748  31.220  1.00  0.00    -0.248 NA
ATOM     44  C   UNL A   1      37.718  31.063  29.462  1.00  0.00     0.031 C 
ATOM     45  C   UNL A   1      37.321  34.148  33.406  1.00  0.00     0.029 A 
ATOM     46  N   UNL A   1      38.941  32.608  33.466  1.00  0.00    -0.354 N 
ATOM     47  C   UNL A   1      39.433  29.771  30.257  1.00  0.00     0.074 A 
ATOM     48  C   UNL A   1      38.436  29.974  29.226  1.00  0.00     0.031 C 
ATOM     49  C   UNL A   1      37.957  34.280  34.580  1.00  0.00     0.029 A 
ATOM     50  C   UNL A   1      39.007  33.269  34.668  1.00  0.00     0.049 A 
ATOM     51  H   UNL A   1      39.552  31.876  33.219  1.00  0.00     0.167 HD
ATOM     52  C   UNL A   1      40.383  28.804  30.223  1.00  0.00     0.037 A 
ATOM     53  C   UNL A   1      39.811  33.075  35.731  1.00  0.00     0.037 A 
ATOM     54  C   UNL A   1      41.379  28.613  31.248  1.00  0.00     0.049 A 
ATOM     55  C   UNL A   1      40.865  32.004  35.670  1.00  0.00     0.074 A 
ATOM     56  C   UNL A   1      42.433  27.716  31.270  1.00  0.00     0.029 A 
ATOM     57  N   UNL A   1      41.433  29.320  32.441  1.00  0.00    -0.354 N 
ATOM     58  N   UNL A   1      41.119  31.148  34.712  1.00  0.00    -0.248 NA
ATOM     59  C   UNL A   1      41.751  31.882  36.835  1.00  0.00     0.031 C 
ATOM     60  C   UNL A   1      43.085  27.836  32.503  1.00  0.00     0.029 A 
ATOM     61  C   UNL A   1      42.481  28.855  33.223  1.00  0.00     0.049 A 
ATOM     62  H   UNL A   1      40.819  30.046  32.695  1.00  0.00     0.167 HD
ATOM     63  C   UNL A   1      42.201  30.395  35.148  1.00  0.00     0.074 A 
ATOM     64  C   UNL A   1      42.570  30.913  36.449  1.00  0.00     0.031 C 
ATOM     65  C   UNL A   1      42.830  29.367  34.525  1.00  0.00     0.037 A 
BRANCH  52  66
ATOM     66  C   UNL A   1      40.378  27.869  29.046  1.00  0.00     0.064 A 
ATOM     67  C   UNL A   1      39.626  26.683  29.043  1.00  0.00     0.173 A 
ATOM     68  C   UNL A   1      41.131  28.166  27.899  1.00  0.00     0.173 A 
ATOM     69  F   UNL A   1      38.894  26.346  30.115  1.00  0.00    -0.203 F 
ATOM     70  C   UNL A   1      39.667  25.809  27.959  1.00  0.00     0.198 A 
ATOM     71  C   UNL A   1      41.139  27.308  26.802  1.00  0.00     0.198 A 
ATOM     72  F   UNL A   1      41.860  29.290  27.840  1.00  0.00    -0.203 F 
ATOM     73  F   UNL A   1      38.994  24.650  28.010  1.00  0.00    -0.200 F 
ATOM     74  C   UNL A   1      40.418  26.124  26.838  1.00  0.00     0.200 A 
ATOM     75  F   UNL A   1      41.853  27.622  25.712  1.00  0.00    -0.200 F 
ATOM     76  F   UNL A   1      40.457  25.282  25.797  1.00  0.00    -0.200 F 
ENDBRANCH  52  66
BRANCH  53  77
ATOM     77  C   UNL A   1      39.649  33.933  36.933  1.00  0.00     0.064 A 
ATOM     78  C   UNL A   1      40.260  35.192  37.013  1.00  0.00     0.173 A 
ATOM     79  C   UNL A   1      38.850  33.525  38.012  1.00  0.00     0.173 A 
ATOM     80  F   UNL A   1      41.049  35.617  36.016  1.00  0.00    -0.203 F 
ATOM     81  C   UNL A   1      40.085  36.006  38.129  1.00  0.00     0.198 A 
ATOM     82  C   UNL A   1      38.652  34.353  39.114  1.00  0.00     0.198 A 
ATOM     83  F   UNL A   1      38.242  32.330  37.981  1.00  0.00    -0.203 F 
ATOM     84  F   UNL A   1      40.708  37.191  38.196  1.00  0.00    -0.200 F 
ATOM     85  C   UNL A   1      39.274  35.590  39.175  1.00  0.00     0.200 A 
ATOM     86  F   UNL A   1      37.855  33.954  40.115  1.00  0.00    -0.200 F 
ATOM     87  F   UNL A   1      39.092  36.381  40.241  1.00  0.00    -0.200 F 
ENDBRANCH  53  77
BRANCH  65  88
ATOM     88  C   UNL A   1      43.996  28.742  35.239  1.00  0.00     0.064 A 
ATOM     89  C   UNL A   1      45.307  29.210  35.062  1.00  0.00     0.173 A 
ATOM     90  C   UNL A   1      43.796  27.678  36.133  1.00  0.00     0.173 A 
ATOM     91  F   UNL A   1      45.556  30.214  34.208  1.00  0.00    -0.203 F 
ATOM     92  C   UNL A   1      46.376  28.617  35.730  1.00  0.00     0.198 A 
ATOM     93  C   UNL A   1      44.863  27.112  36.825  1.00  0.00     0.198 A 
ATOM     94  F   UNL A   1      42.562  27.195  36.345  1.00  0.00    -0.203 F 
ATOM     95  F   UNL A   1      47.625  29.045  35.503  1.00  0.00    -0.200 F 
ATOM     96  C   UNL A   1      46.152  27.574  36.616  1.00  0.00     0.200 A 
ATOM     97  F   UNL A   1      44.642  26.113  37.692  1.00  0.00    -0.200 F 
ATOM     98  F   UNL A   1      47.182  27.010  37.263  1.00  0.00    -0.200 F 
ENDBRANCH  65  88
ENDBRANCH  39  40
ENDBRANCH  31  34
ENDBRANCH  29  30
ENDBRANCH  28  29
ENDBRANCH   1  28
TORSDOF 14
ENDMDL
MODEL 2
REMARK VINA RESULT:     -12.6      5.140     11.273
REMARK SMILES CC[C@H]1CCCC[N@H+]1[C@@H]1CC(=O)N(c2nc(CC(=O)NCCCNC(=O)c3ccc(-c4c5nc(c(-c6c(F)c(F)c(F)c(F)c6F)c6ccc([nH]6)c(-c6c(F)c(F)c(F)c(F)c6F)c6nc(c(-c7c(F)c(F)c(F)c(F)c7F)c7ccc4[nH]7)C=C6)C=C5)cc3)cs2)C1=O
REMARK SMILES IDX 21 1 20 2 18 3 19 4 17 6 16 7 14 8 15 9 91 10 90 11 13 12
REMARK SMILES IDX 9 13 10 14 92 15 11 16 93 17 12 18 8 19 3 20 4 21 5 22 7 23
REMARK SMILES IDX 6 25 2 26 1 27 22 28 23 29 24 30 25 31 26 33 27 34 28 35
REMARK SMILES IDX 89 36 29 37 88 38 30 39 31 40 32 41 82 42 33 43 87 44 81 45
REMARK SMILES IDX 83 46 34 47 86 48 80 49 79 50 35 52 67 53 47 54 66 55 48 56
REMARK SMILES IDX 51 57 65 58 84 59 49 60 50 61 64 63 85 64 52 65 36 66 37 67
REMARK SMILES IDX 45 68 38 69 39 70 43 71 46 72 40 73 41 74 44 75 42 76 68 77
REMARK SMILES IDX 69 78 77 79 70 80 71 81 75 82 78 83 72 84 73 85 76 86 74 87
REMARK SMILES IDX 53 88 54 89 62 90 55 91 56 92 60 93 63 94 57 95 58 96 61 97
REMARK SMILES IDX 59 98
REMARK H PARENT 20 5 8 24 24 32 83 51 51 62
REMARK Flexibility Score: inf
ROOT
ATOM      1  C   UNL A   1      36.883  33.894  30.111  1.00  0.00     0.117 C 
ENDROOT
BRANCH   1   2
ATOM      2  N   UNL A   1      36.509  34.509  31.373  1.00  0.00    -0.356 N 
ATOM      3  C   UNL A   1      37.152  34.476  32.579  1.00  0.00     0.226 C 
ATOM      4  O   UNL A   1      36.613  35.029  33.540  1.00  0.00    -0.275 OA
ATOM      5  H   UNL A   1      35.670  35.023  31.359  1.00  0.00     0.163 HD
BRANCH   3   6
ATOM      6  C   UNL A   1      38.504  33.806  32.717  1.00  0.00     0.157 C 
BRANCH   6   7
ATOM      7  C   UNL A   1      38.383  32.374  33.110  1.00  0.00     0.063 A 
ATOM      8  C   UNL A   1      39.325  30.493  33.835  1.00  0.00     0.199 A 
ATOM      9  N   UNL A   1      39.507  31.776  33.635  1.00  0.00    -0.224 NA
ATOM     10  S   UNL A   1      37.758  29.929  33.453  1.00  0.00    -0.104 S 
ATOM     11  C   UNL A   1      37.296  31.528  33.003  1.00  0.00     0.093 A 
BRANCH   8  12
ATOM     12  N   UNL A   1      40.309  29.665  34.319  1.00  0.00    -0.219 N 
ATOM     13  C   UNL A   1      42.118  28.186  34.511  1.00  0.00     0.285 C 
ATOM     14  C   UNL A   1      41.947  28.972  35.801  1.00  0.00     0.176 C 
ATOM     15  C   UNL A   1      40.935  28.647  33.641  1.00  0.00     0.294 C 
ATOM     16  C   UNL A   1      40.841  29.925  35.549  1.00  0.00     0.242 C 
ATOM     17  O   UNL A   1      40.710  28.233  32.513  1.00  0.00    -0.267 OA
ATOM     18  O   UNL A   1      40.493  30.726  36.409  1.00  0.00    -0.274 OA
BRANCH  13  19
ATOM     19  N   UNL A   1      42.249  26.714  34.635  1.00  0.00    -0.322 N 
ATOM     20  C   UNL A   1      43.603  26.169  34.327  1.00  0.00     0.184 C 
ATOM     21  C   UNL A   1      43.533  24.629  34.276  1.00  0.00     0.065 C 
ATOM     22  C   UNL A   1      43.000  24.046  35.578  1.00  0.00     0.012 C 
ATOM     23  C   UNL A   1      41.632  26.152  35.844  1.00  0.00     0.263 C 
ATOM     24  H   UNL A   1      41.673  26.362  33.869  1.00  0.00     0.349 HD
ATOM     25  C   UNL A   1      41.619  24.621  35.848  1.00  0.00     0.062 C 
BRANCH  20  26
ATOM     26  C   UNL A   1      44.747  26.672  35.249  1.00  0.00     0.061 C 
ATOM     27  C   UNL A   1      45.833  27.505  34.585  1.00  0.00     0.010 C 
ENDBRANCH  20  26
ENDBRANCH  13  19
ENDBRANCH   8  12
ENDBRANCH   6   7
ENDBRANCH   3   6
ENDBRANCH   1   2
BRANCH   1  28
ATOM     28  C   UNL A   1      35.668  33.522  29.261  1.00  0.00     0.042 C 
BRANCH  28  29
ATOM     29  C   UNL A   1      34.792  32.418  29.850  1.00  0.00     0.118 C 
BRANCH  29  30
ATOM     30  N   UNL A   1      34.222  31.547  28.833  1.00  0.00    -0.352 N 
ATOM     31  C   UNL A   1      34.796  30.546  28.090  1.00  0.00     0.251 C 
ATOM     32  H   UNL A   1      33.267  31.701  28.649  1.00  0.00     0.163 HD
ATOM     33  O   UNL A   1      34.163  30.053  27.160  1.00  0.00    -0.269 OA
BRANCH  31  34
ATOM     34  C   UNL A   1      36.168  30.067  28.372  1.00  0.00     0.039 A 
ATOM     35  C   UNL A   1      37.138  30.202  27.372  1.00  0.00     0.014 A 
ATOM     36  C   UNL A   1      36.502  29.448  29.579  1.00  0.00     0.014 A 
ATOM     37  C   UNL A   1      38.448  29.777  27.605  1.00  0.00     0.010 A 
ATOM     38  C   UNL A   1      37.827  29.095  29.840  1.00  0.00     0.010 A 
ATOM     39  C   UNL A   1      38.813  29.253  28.856  1.00  0.00    -0.014 A 
BRANCH  39  40
ATOM     40  C   UNL A   1      40.225  28.893  29.147  1.00  0.00     0.031 A 
ATOM     41  C   UNL A   1      41.133  29.853  29.862  1.00  0.00     0.074 A 
ATOM     42  C   UNL A   1      40.711  27.716  28.706  1.00  0.00     0.049 A 
ATOM     43  N   UNL A   1      42.402  29.726  30.165  1.00  0.00    -0.248 NA
ATOM     44  C   UNL A   1      40.547  31.140  30.264  1.00  0.00     0.031 C 
ATOM     45  C   UNL A   1      39.953  26.727  27.940  1.00  0.00     0.029 A 
ATOM     46  N   UNL A   1      41.961  27.161  28.820  1.00  0.00    -0.354 N 
ATOM     47  C   UNL A   1      42.767  30.918  30.778  1.00  0.00     0.074 A 
ATOM     48  C   UNL A   1      41.601  31.776  30.754  1.00  0.00     0.031 C 
ATOM     49  C   UNL A   1      40.746  25.681  27.664  1.00  0.00     0.029 A 
ATOM     50  C   UNL A   1      42.079  25.942  28.200  1.00  0.00     0.049 A 
ATOM     51  H   UNL A   1      42.703  27.595  29.302  1.00  0.00     0.167 HD
ATOM     52  C   UNL A   1      43.958  31.258  31.328  1.00  0.00     0.037 A 
ATOM     53  C   UNL A   1      43.144  25.128  28.063  1.00  0.00     0.037 A 
ATOM     54  C   UNL A   1      45.113  30.395  31.358  1.00  0.00     0.049 A 
ATOM     55  C   UNL A   1      44.454  25.520  28.688  1.00  0.00     0.074 A 
ATOM     56  C   UNL A   1      46.339  30.615  31.959  1.00  0.00     0.029 A 
ATOM     57  N   UNL A   1      45.188  29.153  30.742  1.00  0.00    -0.354 N 
ATOM     58  N   UNL A   1      44.761  26.608  29.351  1.00  0.00    -0.248 NA
ATOM     59  C   UNL A   1      45.561  24.564  28.557  1.00  0.00     0.031 C 
ATOM     60  C   UNL A   1      47.177  29.535  31.655  1.00  0.00     0.029 A 
ATOM     61  C   UNL A   1      46.452  28.610  30.920  1.00  0.00     0.049 A 
ATOM     62  H   UNL A   1      44.451  28.720  30.252  1.00  0.00     0.167 HD
ATOM     63  C   UNL A   1      46.090  26.464  29.728  1.00  0.00     0.074 A 
ATOM     64  C   UNL A   1      46.522  25.171  29.241  1.00  0.00     0.031 C 
ATOM     65  C   UNL A   1      46.879  27.327  30.416  1.00  0.00     0.037 A 
BRANCH  52  66
ATOM     66  C   UNL A   1      44.076  32.632  31.929  1.00  0.00     0.064 A 
ATOM     67  C   UNL A   1      44.554  33.726  31.190  1.00  0.00     0.173 A 
ATOM     68  C   UNL A   1      43.698  32.860  33.261  1.00  0.00     0.173 A 
ATOM     69  F   UNL A   1      44.936  33.565  29.914  1.00  0.00    -0.203 F 
ATOM     70  C   UNL A   1      44.694  34.983  31.776  1.00  0.00     0.198 A 
ATOM     71  C   UNL A   1      43.805  34.126  33.832  1.00  0.00     0.198 A 
ATOM     72  F   UNL A   1      43.225  31.855  34.012  1.00  0.00    -0.203 F 
ATOM     73  F   UNL A   1      45.218  35.994  31.069  1.00  0.00    -0.200 F 
ATOM     74  C   UNL A   1      44.315  35.183  33.093  1.00  0.00     0.200 A 
ATOM     75  F   UNL A   1      43.422  34.321  35.101  1.00  0.00    -0.200 F 
ATOM     76  F   UNL A   1      44.452  36.391  33.656  1.00  0.00    -0.200 F 
ENDBRANCH  52  66
BRANCH  53  77
ATOM     77  C   UNL A   1      42.997  23.856  27.310  1.00  0.00     0.064 A 
ATOM     78  C   UNL A   1      43.353  23.769  25.958  1.00  0.00     0.173 A 
ATOM     79  C   UNL A   1      42.530  22.692  27.939  1.00  0.00     0.173 A 
ATOM     80  F   UNL A   1      43.786  24.860  25.308  1.00  0.00    -0.203 F 
ATOM     81  C   UNL A   1      43.241  22.569  25.260  1.00  0.00     0.198 A 
ATOM     82  C   UNL A   1      42.446  21.485  27.248  1.00  0.00     0.198 A 
ATOM     83  F   UNL A   1      42.180  22.723  29.233  1.00  0.00    -0.203 F 
ATOM     84  F   UNL A   1      43.556  22.520  23.958  1.00  0.00    -0.200 F 
ATOM     85  C   UNL A   1      42.796  21.425  25.908  1.00  0.00     0.200 A 
ATOM     86  F   UNL A   1      42.031  20.380  27.881  1.00  0.00    -0.200 F 
ATOM     87  F   UNL A   1      42.703  20.267  25.241  1.00  0.00    -0.200 F 
ENDBRANCH  53  77
BRANCH  65  88
ATOM     88  C   UNL A   1      48.290  26.894  30.697  1.00  0.00     0.064 A 
ATOM     89  C   UNL A   1      48.603  26.054  31.777  1.00  0.00     0.173 A 
ATOM     90  C   UNL A   1      49.339  27.300  29.858  1.00  0.00     0.173 A 
ATOM     91  F   UNL A   1      47.640  25.648  32.618  1.00  0.00    -0.203 F 
ATOM     92  C   UNL A   1      49.917  25.663  32.023  1.00  0.00     0.198 A 
ATOM     93  C   UNL A   1      50.646  26.879  30.088  1.00  0.00     0.198 A 
ATOM     94  F   UNL A   1      49.096  28.098  28.808  1.00  0.00    -0.203 F 
ATOM     95  F   UNL A   1      50.199  24.906  33.092  1.00  0.00    -0.200 F 
ATOM     96  C   UNL A   1      50.936  26.070  31.175  1.00  0.00     0.200 A 
ATOM     97  F   UNL A   1      51.627  27.262  29.258  1.00  0.00    -0.200 F 
ATOM     98  F   UNL A   1      52.199  25.687  31.410  1.00  0.00    -0.200 F 
ENDBRANCH  65  88
ENDBRANCH  39  40
ENDBRANCH  31  34
ENDBRANCH  29  30
ENDBRANCH  28  29
ENDBRANCH   1  28
TORSDOF 14
ENDMDL
MODEL 3
REMARK VINA RESULT:     -12.4      4.739     10.769
REMARK SMILES CC[C@H]1CCCC[N@H+]1[C@@H]1CC(=O)N(c2nc(CC(=O)NCCCNC(=O)c3ccc(-c4c5nc(c(-c6c(F)c(F)c(F)c(F)c6F)c6ccc([nH]6)c(-c6c(F)c(F)c(F)c(F)c6F)c6nc(c(-c7c(F)c(F)c(F)c(F)c7F)c7ccc4[nH]7)C=C6)C=C5)cc3)cs2)C1=O
REMARK SMILES IDX 21 1 20 2 18 3 19 4 17 6 16 7 14 8 15 9 91 10 90 11 13 12
REMARK SMILES IDX 9 13 10 14 92 15 11 16 93 17 12 18 8 19 3 20 4 21 5 22 7 23
REMARK SMILES IDX 6 25 2 26 1 27 22 28 23 29 24 30 25 31 26 33 27 34 28 35
REMARK SMILES IDX 89 36 29 37 88 38 30 39 31 40 32 41 82 42 33 43 87 44 81 45
REMARK SMILES IDX 83 46 34 47 86 48 80 49 79 50 35 52 67 53 47 54 66 55 48 56
REMARK SMILES IDX 51 57 65 58 84 59 49 60 50 61 64 63 85 64 52 65 36 66 37 67
REMARK SMILES IDX 45 68 38 69 39 70 43 71 46 72 40 73 41 74 44 75 42 76 68 77
REMARK SMILES IDX 69 78 77 79 70 80 71 81 75 82 78 83 72 84 73 85 76 86 74 87
REMARK SMILES IDX 53 88 54 89 62 90 55 91 56 92 60 93 63 94 57 95 58 96 61 97
REMARK SMILES IDX 59 98
REMARK H PARENT 20 5 8 24 24 32 83 51 51 62
REMARK Flexibility Score: inf
ROOT
ATOM      1  C   UNL A   1      33.594  36.167  29.902  1.00  0.00     0.117 C 
ENDROOT
BRANCH   1   2
ATOM      2  N   UNL A   1      32.398  36.257  30.724  1.00  0.00    -0.356 N 
ATOM      3  C   UNL A   1      32.285  36.456  32.072  1.00  0.00     0.226 C 
ATOM      4  O   UNL A   1      31.156  36.438  32.568  1.00  0.00    -0.275 OA
ATOM      5  H   UNL A   1      31.547  36.160  30.240  1.00  0.00     0.163 HD
BRANCH   3   6
ATOM      6  C   UNL A   1      33.511  36.721  32.921  1.00  0.00     0.157 C 
BRANCH   6   7
ATOM      7  C   UNL A   1      34.370  35.513  33.060  1.00  0.00     0.063 A 
ATOM      8  C   UNL A   1      36.383  34.566  32.988  1.00  0.00     0.199 A 
ATOM      9  N   UNL A   1      35.731  35.704  32.971  1.00  0.00    -0.224 NA
ATOM     10  S   UNL A   1      35.395  33.184  33.172  1.00  0.00    -0.104 S 
ATOM     11  C   UNL A   1      34.001  34.195  33.246  1.00  0.00     0.093 A 
BRANCH   8  12
ATOM     12  N   UNL A   1      37.749  34.485  32.875  1.00  0.00    -0.219 N 
ATOM     13  C   UNL A   1      39.954  34.545  32.077  1.00  0.00     0.285 C 
ATOM     14  C   UNL A   1      39.943  34.671  33.592  1.00  0.00     0.176 C 
ATOM     15  C   UNL A   1      38.473  34.332  31.717  1.00  0.00     0.294 C 
ATOM     16  C   UNL A   1      38.515  34.703  33.985  1.00  0.00     0.242 C 
ATOM     17  O   UNL A   1      38.058  34.177  30.577  1.00  0.00    -0.267 OA
ATOM     18  O   UNL A   1      38.188  34.833  35.159  1.00  0.00    -0.274 OA
BRANCH  13  19
ATOM     19  N   UNL A   1      40.875  33.541  31.493  1.00  0.00    -0.322 N 
ATOM     20  C   UNL A   1      41.275  33.795  30.079  1.00  0.00     0.184 C 
ATOM     21  C   UNL A   1      42.041  32.570  29.539  1.00  0.00     0.065 C 
ATOM     22  C   UNL A   1      43.258  32.245  30.394  1.00  0.00     0.012 C 
ATOM     23  C   UNL A   1      41.986  33.155  32.375  1.00  0.00     0.263 C 
ATOM     24  H   UNL A   1      40.298  32.702  31.429  1.00  0.00     0.349 HD
ATOM     25  C   UNL A   1      42.805  31.986  31.822  1.00  0.00     0.062 C 
BRANCH  20  26
ATOM     26  C   UNL A   1      42.046  35.120  29.833  1.00  0.00     0.061 C 
ATOM     27  C   UNL A   1      42.308  35.490  28.380  1.00  0.00     0.010 C 
ENDBRANCH  20  26
ENDBRANCH  13  19
ENDBRANCH   8  12
ENDBRANCH   6   7
ENDBRANCH   3   6
ENDBRANCH   1   2
BRANCH   1  28
ATOM     28  C   UNL A   1      33.406  35.241  28.700  1.00  0.00     0.042 C 
BRANCH  28  29
ATOM     29  C   UNL A   1      34.016  33.851  28.865  1.00  0.00     0.118 C 
BRANCH  29  30
ATOM     30  N   UNL A   1      33.472  32.880  27.929  1.00  0.00    -0.352 N 
ATOM     31  C   UNL A   1      33.971  31.677  27.498  1.00  0.00     0.251 C 
ATOM     32  H   UNL A   1      32.601  33.128  27.541  1.00  0.00     0.163 HD
ATOM     33  O   UNL A   1      33.418  31.098  26.566  1.00  0.00    -0.269 OA
BRANCH  31  34
ATOM     34  C   UNL A   1      35.173  31.075  28.117  1.00  0.00     0.039 A 
ATOM     35  C   UNL A   1      36.363  31.812  28.114  1.00  0.00     0.014 A 
ATOM     36  C   UNL A   1      35.160  29.786  28.656  1.00  0.00     0.014 A 
ATOM     37  C   UNL A   1      37.515  31.285  28.704  1.00  0.00     0.010 A 
ATOM     38  C   UNL A   1      36.288  29.292  29.313  1.00  0.00     0.010 A 
ATOM     39  C   UNL A   1      37.478  30.034  29.342  1.00  0.00    -0.014 A 
BRANCH  39  40
ATOM     40  C   UNL A   1      38.669  29.511  30.059  1.00  0.00     0.031 A 
ATOM     41  C   UNL A   1      38.988  29.963  31.456  1.00  0.00     0.074 A 
ATOM     42  C   UNL A   1      39.507  28.669  29.422  1.00  0.00     0.049 A 
ATOM     43  N   UNL A   1      40.004  29.645  32.220  1.00  0.00    -0.248 NA
ATOM     44  C   UNL A   1      38.058  30.925  32.065  1.00  0.00     0.031 C 
ATOM     45  C   UNL A   1      39.347  28.208  28.043  1.00  0.00     0.029 A 
ATOM     46  N   UNL A   1      40.666  28.067  29.842  1.00  0.00    -0.354 N 
ATOM     47  C   UNL A   1      39.843  30.376  33.389  1.00  0.00     0.074 A 
ATOM     48  C   UNL A   1      38.663  31.196  33.213  1.00  0.00     0.031 C 
ATOM     49  C   UNL A   1      40.361  27.386  27.734  1.00  0.00     0.029 A 
ATOM     50  C   UNL A   1      41.263  27.292  28.878  1.00  0.00     0.049 A 
ATOM     51  H   UNL A   1      41.036  28.180  30.748  1.00  0.00     0.167 HD
ATOM     52  C   UNL A   1      40.599  30.352  34.515  1.00  0.00     0.037 A 
ATOM     53  C   UNL A   1      42.414  26.594  28.904  1.00  0.00     0.037 A 
ATOM     54  C   UNL A   1      41.768  29.526  34.688  1.00  0.00     0.049 A 
ATOM     55  C   UNL A   1      43.233  26.573  30.166  1.00  0.00     0.074 A 
ATOM     56  C   UNL A   1      42.555  29.370  35.816  1.00  0.00     0.029 A 
ATOM     57  N   UNL A   1      42.328  28.731  33.698  1.00  0.00    -0.354 N 
ATOM     58  N   UNL A   1      43.019  27.192  31.300  1.00  0.00    -0.248 NA
ATOM     59  C   UNL A   1      44.446  25.746  30.152  1.00  0.00     0.031 C 
ATOM     60  C   UNL A   1      43.626  28.531  35.490  1.00  0.00     0.029 A 
ATOM     61  C   UNL A   1      43.472  28.109  34.178  1.00  0.00     0.049 A 
ATOM     62  H   UNL A   1      41.967  28.623  32.789  1.00  0.00     0.167 HD
ATOM     63  C   UNL A   1      44.059  26.820  32.141  1.00  0.00     0.074 A 
ATOM     64  C   UNL A   1      44.891  25.902  31.392  1.00  0.00     0.031 C 
ATOM     65  C   UNL A   1      44.303  27.207  33.419  1.00  0.00     0.037 A 
BRANCH  52  66
ATOM     66  C   UNL A   1      40.191  31.260  35.642  1.00  0.00     0.064 A 
ATOM     67  C   UNL A   1      38.989  31.076  36.345  1.00  0.00     0.173 A 
ATOM     68  C   UNL A   1      41.016  32.326  36.031  1.00  0.00     0.173 A 
ATOM     69  F   UNL A   1      38.157  30.078  36.011  1.00  0.00    -0.203 F 
ATOM     70  C   UNL A   1      38.608  31.952  37.359  1.00  0.00     0.198 A 
ATOM     71  C   UNL A   1      40.649  33.178  37.071  1.00  0.00     0.198 A 
ATOM     72  F   UNL A   1      42.181  32.544  35.403  1.00  0.00    -0.203 F 
ATOM     73  F   UNL A   1      37.424  31.796  37.967  1.00  0.00    -0.200 F 
ATOM     74  C   UNL A   1      39.440  32.998  37.725  1.00  0.00     0.200 A 
ATOM     75  F   UNL A   1      41.464  34.178  37.434  1.00  0.00    -0.200 F 
ATOM     76  F   UNL A   1      39.072  33.840  38.700  1.00  0.00    -0.200 F 
ENDBRANCH  52  66
BRANCH  53  77
ATOM     77  C   UNL A   1      42.843  25.850  27.692  1.00  0.00     0.064 A 
ATOM     78  C   UNL A   1      43.751  26.407  26.782  1.00  0.00     0.173 A 
ATOM     79  C   UNL A   1      42.379  24.549  27.440  1.00  0.00     0.173 A 
ATOM     80  F   UNL A   1      44.206  27.655  26.970  1.00  0.00    -0.203 F 
ATOM     81  C   UNL A   1      44.173  25.697  25.661  1.00  0.00     0.198 A 
ATOM     82  C   UNL A   1      42.825  23.829  26.334  1.00  0.00     0.198 A 
ATOM     83  F   UNL A   1      41.513  23.971  28.283  1.00  0.00    -0.203 F 
ATOM     84  F   UNL A   1      45.015  26.266  24.787  1.00  0.00    -0.200 F 
ATOM     85  C   UNL A   1      43.717  24.405  25.442  1.00  0.00     0.200 A 
ATOM     86  F   UNL A   1      42.395  22.576  26.134  1.00  0.00    -0.200 F 
ATOM     87  F   UNL A   1      44.136  23.716  24.372  1.00  0.00    -0.200 F 
ENDBRANCH  53  77
BRANCH  65  88
ATOM     88  C   UNL A   1      45.511  26.625  34.095  1.00  0.00     0.064 A 
ATOM     89  C   UNL A   1      45.455  25.404  34.785  1.00  0.00     0.173 A 
ATOM     90  C   UNL A   1      46.751  27.281  34.028  1.00  0.00     0.173 A 
ATOM     91  F   UNL A   1      44.292  24.742  34.893  1.00  0.00    -0.203 F 
ATOM     92  C   UNL A   1      46.585  24.879  35.408  1.00  0.00     0.198 A 
ATOM     93  C   UNL A   1      47.885  26.735  34.621  1.00  0.00     0.198 A 
ATOM     94  F   UNL A   1      46.863  28.448  33.375  1.00  0.00    -0.203 F 
ATOM     95  F   UNL A   1      46.493  23.740  36.108  1.00  0.00    -0.200 F 
ATOM     96  C   UNL A   1      47.800  25.541  35.320  1.00  0.00     0.200 A 
ATOM     97  F   UNL A   1      49.062  27.370  34.522  1.00  0.00    -0.200 F 
ATOM     98  F   UNL A   1      48.888  25.031  35.913  1.00  0.00    -0.200 F 
ENDBRANCH  65  88
ENDBRANCH  39  40
ENDBRANCH  31  34
ENDBRANCH  29  30
ENDBRANCH  28  29
ENDBRANCH   1  28
TORSDOF 14
ENDMDL
