MODEL 1
REMARK VINA RESULT:     -11.4      0.000      0.000
REMARK SMILES CC(C)[C@H](NC(=O)[C@H](C)NC(=O)C[NH3+])C(=O)NCCCNC(=O)c1ccc(-c2c3nc(c(-c4c(F)c(F)c(F)c(F)c4F)c4ccc([nH]4)c(-c4c(F)c(F)c(F)c(F)c4F)c4nc(c(-c5c(F)c(F)c(F)c(F)c5F)c5ccc2[nH]5)C=C4)C=C3)cc1
REMARK SMILES IDX 15 1 16 2 17 3 4 5 2 6 1 7 3 8 5 9 6 10 7 12 8 13 9 14 10 15
REMARK SMILES IDX 11 16 12 18 13 19 14 20 18 24 19 25 20 26 21 27 22 28 23 30
REMARK SMILES IDX 24 31 25 32 86 33 26 34 85 35 27 36 28 37 29 38 79 39 30 40
REMARK SMILES IDX 84 41 78 42 80 43 31 44 83 45 77 46 76 47 32 49 64 50 44 51
REMARK SMILES IDX 63 52 45 53 48 54 62 55 81 56 46 57 47 58 61 60 82 61 49 62
REMARK SMILES IDX 33 63 34 64 42 65 35 66 36 67 40 68 43 69 37 70 38 71 41 72
REMARK SMILES IDX 39 73 65 74 66 75 74 76 67 77 68 78 72 79 75 80 69 81 70 82
REMARK SMILES IDX 73 83 71 84 50 85 51 86 59 87 52 88 53 89 57 90 60 91 54 92
REMARK SMILES IDX 55 93 58 94 56 95
REMARK H PARENT 17 4 5 11 10 17 14 21 14 22 14 23 21 29 80 48 48 59
REMARK Flexibility Score: inf
ROOT
ATOM      1  C   UNL A   1      33.391  28.832  26.642  1.00  0.00     0.242 C 
ATOM      2  O   UNL A   1      34.432  28.942  27.291  1.00  0.00    -0.273 OA
ATOM      3  N   UNL A   1      32.337  29.647  27.004  1.00  0.00    -0.354 N 
ATOM      4  H   UNL A   1      31.894  29.512  27.872  1.00  0.00     0.163 HD
ENDROOT
BRANCH   1   5
ATOM      5  C   UNL A   1      33.167  27.677  25.608  1.00  0.00     0.173 C 
BRANCH   5   6
ATOM      6  C   UNL A   1      33.575  26.256  26.088  1.00  0.00     0.015 C 
ATOM      7  C   UNL A   1      32.349  25.385  26.414  1.00  0.00     0.010 C 
ATOM      8  C   UNL A   1      34.400  25.460  25.063  1.00  0.00     0.010 C 
ENDBRANCH   5   6
BRANCH   5   9
ATOM      9  N   UNL A   1      33.454  27.984  24.208  1.00  0.00    -0.342 N 
ATOM     10  C   UNL A   1      32.806  28.391  23.098  1.00  0.00     0.242 C 
ATOM     11  H   UNL A   1      34.412  27.856  24.017  1.00  0.00     0.164 HD
ATOM     12  O   UNL A   1      33.566  28.510  22.122  1.00  0.00    -0.273 OA
BRANCH  10  13
ATOM     13  C   UNL A   1      31.263  28.499  22.899  1.00  0.00     0.168 C 
ATOM     14  C   UNL A   1      30.790  27.131  22.375  1.00  0.00     0.041 C 
BRANCH  13  15
ATOM     15  N   UNL A   1      30.677  29.527  22.040  1.00  0.00    -0.340 N 
ATOM     16  C   UNL A   1      29.417  30.030  21.921  1.00  0.00     0.275 C 
ATOM     17  H   UNL A   1      31.324  29.939  21.423  1.00  0.00     0.164 HD
ATOM     18  O   UNL A   1      29.156  30.639  20.878  1.00  0.00    -0.268 OA
BRANCH  16  19
ATOM     19  C   UNL A   1      28.382  29.977  23.043  1.00  0.00     0.360 C 
BRANCH  19  20
ATOM     20  N   UNL A   1      27.241  29.095  22.751  1.00  0.00    -0.350 N 
ATOM     21  H   UNL A   1      27.585  28.167  22.502  1.00  0.00     0.344 HD
ATOM     22  H   UNL A   1      26.705  29.479  21.973  1.00  0.00     0.344 HD
ATOM     23  H   UNL A   1      26.645  29.027  23.575  1.00  0.00     0.344 HD
ENDBRANCH  19  20
ENDBRANCH  16  19
ENDBRANCH  13  15
ENDBRANCH  10  13
ENDBRANCH   5   9
ENDBRANCH   1   5
BRANCH   3  24
ATOM     24  C   UNL A   1      31.876  30.697  26.119  1.00  0.00     0.117 C 
BRANCH  24  25
ATOM     25  C   UNL A   1      31.403  31.961  26.800  1.00  0.00     0.042 C 
BRANCH  25  26
ATOM     26  C   UNL A   1      32.540  32.803  27.386  1.00  0.00     0.118 C 
BRANCH  26  27
ATOM     27  N   UNL A   1      32.275  34.205  27.706  1.00  0.00    -0.352 N 
ATOM     28  C   UNL A   1      32.914  35.048  28.604  1.00  0.00     0.251 C 
ATOM     29  H   UNL A   1      31.529  34.612  27.210  1.00  0.00     0.163 HD
ATOM     30  O   UNL A   1      32.527  36.199  28.746  1.00  0.00    -0.269 OA
BRANCH  28  31
ATOM     31  C   UNL A   1      34.043  34.546  29.433  1.00  0.00     0.039 A 
ATOM     32  C   UNL A   1      33.794  33.991  30.694  1.00  0.00     0.014 A 
ATOM     33  C   UNL A   1      35.350  34.580  28.956  1.00  0.00     0.014 A 
ATOM     34  C   UNL A   1      34.830  33.355  31.395  1.00  0.00     0.010 A 
ATOM     35  C   UNL A   1      36.332  33.820  29.570  1.00  0.00     0.010 A 
ATOM     36  C   UNL A   1      36.092  33.198  30.801  1.00  0.00    -0.014 A 
BRANCH  36  37
ATOM     37  C   UNL A   1      37.186  32.394  31.412  1.00  0.00     0.031 A 
ATOM     38  C   UNL A   1      37.692  32.740  32.790  1.00  0.00     0.074 A 
ATOM     39  C   UNL A   1      37.822  31.454  30.684  1.00  0.00     0.049 A 
ATOM     40  N   UNL A   1      38.749  32.297  33.426  1.00  0.00    -0.248 NA
ATOM     41  C   UNL A   1      36.943  33.771  33.527  1.00  0.00     0.031 C 
ATOM     42  C   UNL A   1      37.487  31.071  29.311  1.00  0.00     0.029 A 
ATOM     43  N   UNL A   1      38.899  30.660  30.993  1.00  0.00    -0.354 N 
ATOM     44  C   UNL A   1      38.807  33.024  34.609  1.00  0.00     0.074 A 
ATOM     45  C   UNL A   1      37.734  33.992  34.564  1.00  0.00     0.031 C 
ATOM     46  C   UNL A   1      38.310  30.088  28.914  1.00  0.00     0.029 A 
ATOM     47  C   UNL A   1      39.263  29.806  29.981  1.00  0.00     0.049 A 
ATOM     48  H   UNL A   1      39.366  30.701  31.859  1.00  0.00     0.167 HD
ATOM     49  C   UNL A   1      39.653  32.877  35.657  1.00  0.00     0.037 A 
ATOM     50  C   UNL A   1      40.257  28.899  29.921  1.00  0.00     0.037 A 
ATOM     51  C   UNL A   1      40.688  31.880  35.719  1.00  0.00     0.049 A 
ATOM     52  C   UNL A   1      41.173  28.734  31.103  1.00  0.00     0.074 A 
ATOM     53  C   UNL A   1      41.550  31.591  36.761  1.00  0.00     0.029 A 
ATOM     54  N   UNL A   1      40.996  31.001  34.689  1.00  0.00    -0.354 N 
ATOM     55  N   UNL A   1      41.176  29.378  32.244  1.00  0.00    -0.248 NA
ATOM     56  C   UNL A   1      42.222  27.712  30.987  1.00  0.00     0.031 C 
ATOM     57  C   UNL A   1      42.409  30.567  36.346  1.00  0.00     0.029 A 
ATOM     58  C   UNL A   1      42.047  30.180  35.065  1.00  0.00     0.049 A 
ATOM     59  H   UNL A   1      40.536  30.966  33.820  1.00  0.00     0.167 HD
ATOM     60  C   UNL A   1      42.202  28.818  32.996  1.00  0.00     0.074 A 
ATOM     61  C   UNL A   1      42.791  27.775  32.182  1.00  0.00     0.031 C 
ATOM     62  C   UNL A   1      42.615  29.139  34.247  1.00  0.00     0.037 A 
BRANCH  49  63
ATOM     63  C   UNL A   1      39.476  33.812  36.822  1.00  0.00     0.064 A 
ATOM     64  C   UNL A   1      40.088  35.076  36.856  1.00  0.00     0.173 A 
ATOM     65  C   UNL A   1      38.694  33.438  37.926  1.00  0.00     0.173 A 
ATOM     66  F   UNL A   1      40.855  35.483  35.832  1.00  0.00    -0.203 F 
ATOM     67  C   UNL A   1      39.972  35.903  37.971  1.00  0.00     0.198 A 
ATOM     68  C   UNL A   1      38.547  34.284  39.022  1.00  0.00     0.198 A 
ATOM     69  F   UNL A   1      38.077  32.246  37.947  1.00  0.00    -0.203 F 
ATOM     70  F   UNL A   1      40.635  37.066  38.011  1.00  0.00    -0.200 F 
ATOM     71  C   UNL A   1      39.198  35.509  39.051  1.00  0.00     0.200 A 
ATOM     72  F   UNL A   1      37.785  33.909  40.059  1.00  0.00    -0.200 F 
ATOM     73  F   UNL A   1      39.091  36.303  40.125  1.00  0.00    -0.200 F 
ENDBRANCH  49  63
BRANCH  50  74
ATOM     74  C   UNL A   1      40.396  28.031  28.721  1.00  0.00     0.064 A 
ATOM     75  C   UNL A   1      39.744  26.791  28.663  1.00  0.00     0.173 A 
ATOM     76  C   UNL A   1      41.156  28.421  27.609  1.00  0.00     0.173 A 
ATOM     77  F   UNL A   1      39.021  26.366  29.710  1.00  0.00    -0.203 F 
ATOM     78  C   UNL A   1      39.861  25.966  27.546  1.00  0.00     0.198 A 
ATOM     79  C   UNL A   1      41.251  27.607  26.482  1.00  0.00     0.198 A 
ATOM     80  F   UNL A   1      41.796  29.600  27.612  1.00  0.00    -0.203 F 
ATOM     81  F   UNL A   1      39.260  24.768  27.535  1.00  0.00    -0.200 F 
ATOM     82  C   UNL A   1      40.608  26.378  26.453  1.00  0.00     0.200 A 
ATOM     83  F   UNL A   1      41.962  28.013  25.422  1.00  0.00    -0.200 F 
ATOM     84  F   UNL A   1      40.714  25.587  25.376  1.00  0.00    -0.200 F 
ENDBRANCH  50  74
BRANCH  62  85
ATOM     85  C   UNL A   1      43.729  28.321  34.834  1.00  0.00     0.064 A 
ATOM     86  C   UNL A   1      43.485  27.123  35.520  1.00  0.00     0.173 A 
ATOM     87  C   UNL A   1      45.064  28.725  34.669  1.00  0.00     0.173 A 
ATOM     88  F   UNL A   1      42.226  26.701  35.717  1.00  0.00    -0.203 F 
ATOM     89  C   UNL A   1      44.535  26.372  36.043  1.00  0.00     0.198 A 
ATOM     90  C   UNL A   1      46.111  27.955  35.165  1.00  0.00     0.198 A 
ATOM     91  F   UNL A   1      45.351  29.858  34.014  1.00  0.00    -0.203 F 
ATOM     92  F   UNL A   1      44.276  25.255  36.738  1.00  0.00    -0.200 F 
ATOM     93  C   UNL A   1      45.846  26.784  35.859  1.00  0.00     0.200 A 
ATOM     94  F   UNL A   1      47.379  28.346  34.972  1.00  0.00    -0.200 F 
ATOM     95  F   UNL A   1      46.855  26.055  36.355  1.00  0.00    -0.200 F 
ENDBRANCH  62  85
ENDBRANCH  36  37
ENDBRANCH  28  31
ENDBRANCH  26  27
ENDBRANCH  25  26
ENDBRANCH  24  25
ENDBRANCH   3  24
TORSDOF 16
ENDMDL
MODEL 2
REMARK VINA RESULT:     -11.4      4.328      7.471
REMARK SMILES CC(C)[C@H](NC(=O)[C@H](C)NC(=O)C[NH3+])C(=O)NCCCNC(=O)c1ccc(-c2c3nc(c(-c4c(F)c(F)c(F)c(F)c4F)c4ccc([nH]4)c(-c4c(F)c(F)c(F)c(F)c4F)c4nc(c(-c5c(F)c(F)c(F)c(F)c5F)c5ccc2[nH]5)C=C4)C=C3)cc1
REMARK SMILES IDX 15 1 16 2 17 3 4 5 2 6 1 7 3 8 5 9 6 10 7 12 8 13 9 14 10 15
REMARK SMILES IDX 11 16 12 18 13 19 14 20 18 24 19 25 20 26 21 27 22 28 23 30
REMARK SMILES IDX 24 31 25 32 86 33 26 34 85 35 27 36 28 37 29 38 79 39 30 40
REMARK SMILES IDX 84 41 78 42 80 43 31 44 83 45 77 46 76 47 32 49 64 50 44 51
REMARK SMILES IDX 63 52 45 53 48 54 62 55 81 56 46 57 47 58 61 60 82 61 49 62
REMARK SMILES IDX 33 63 34 64 42 65 35 66 36 67 40 68 43 69 37 70 38 71 41 72
REMARK SMILES IDX 39 73 65 74 66 75 74 76 67 77 68 78 72 79 75 80 69 81 70 82
REMARK SMILES IDX 73 83 71 84 50 85 51 86 59 87 52 88 53 89 57 90 60 91 54 92
REMARK SMILES IDX 55 93 58 94 56 95
REMARK H PARENT 17 4 5 11 10 17 14 21 14 22 14 23 21 29 80 48 48 59
REMARK Flexibility Score: inf
ROOT
ATOM      1  C   UNL A   1      38.063  33.992  31.688  1.00  0.00     0.242 C 
ATOM      2  O   UNL A   1      39.031  34.670  32.036  1.00  0.00    -0.273 OA
ATOM      3  N   UNL A   1      37.435  34.352  30.514  1.00  0.00    -0.354 N 
ATOM      4  H   UNL A   1      36.944  35.204  30.467  1.00  0.00     0.163 HD
ENDROOT
BRANCH   1   5
ATOM      5  C   UNL A   1      37.415  32.916  32.624  1.00  0.00     0.173 C 
BRANCH   5   6
ATOM      6  C   UNL A   1      38.242  31.615  32.826  1.00  0.00     0.015 C 
ATOM      7  C   UNL A   1      39.113  31.678  34.092  1.00  0.00     0.010 C 
ATOM      8  C   UNL A   1      37.387  30.343  32.962  1.00  0.00     0.010 C 
ENDBRANCH   5   6
BRANCH   5   9
ATOM      9  N   UNL A   1      35.967  32.742  32.520  1.00  0.00    -0.342 N 
ATOM     10  C   UNL A   1      34.837  33.455  32.703  1.00  0.00     0.242 C 
ATOM     11  H   UNL A   1      35.750  31.827  32.228  1.00  0.00     0.164 HD
ATOM     12  O   UNL A   1      33.814  32.795  32.454  1.00  0.00    -0.273 OA
BRANCH  10  13
ATOM     13  C   UNL A   1      34.713  34.862  33.366  1.00  0.00     0.168 C 
ATOM     14  C   UNL A   1      35.227  34.715  34.810  1.00  0.00     0.041 C 
BRANCH  13  15
ATOM     15  N   UNL A   1      33.431  35.565  33.423  1.00  0.00    -0.340 N 
ATOM     16  C   UNL A   1      32.796  36.406  32.562  1.00  0.00     0.275 C 
ATOM     17  H   UNL A   1      32.927  35.395  34.250  1.00  0.00     0.164 HD
ATOM     18  O   UNL A   1      31.894  37.108  33.033  1.00  0.00    -0.268 OA
BRANCH  16  19
ATOM     19  C   UNL A   1      33.063  36.429  31.058  1.00  0.00     0.360 C 
BRANCH  19  20
ATOM     20  N   UNL A   1      32.728  35.165  30.383  1.00  0.00    -0.350 N 
ATOM     21  H   UNL A   1      32.056  35.345  29.637  1.00  0.00     0.344 HD
ATOM     22  H   UNL A   1      32.322  34.516  31.057  1.00  0.00     0.344 HD
ATOM     23  H   UNL A   1      33.575  34.758  29.986  1.00  0.00     0.344 HD
ENDBRANCH  19  20
ENDBRANCH  16  19
ENDBRANCH  13  15
ENDBRANCH  10  13
ENDBRANCH   5   9
ENDBRANCH   1   5
BRANCH   3  24
ATOM     24  C   UNL A   1      37.487  33.490  29.350  1.00  0.00     0.117 C 
BRANCH  24  25
ATOM     25  C   UNL A   1      36.216  33.416  28.537  1.00  0.00     0.042 C 
BRANCH  25  26
ATOM     26  C   UNL A   1      35.057  32.739  29.273  1.00  0.00     0.118 C 
BRANCH  26  27
ATOM     27  N   UNL A   1      34.190  31.831  28.523  1.00  0.00    -0.352 N 
ATOM     28  C   UNL A   1      34.461  30.577  27.994  1.00  0.00     0.251 C 
ATOM     29  H   UNL A   1      33.276  32.160  28.369  1.00  0.00     0.163 HD
ATOM     30  O   UNL A   1      33.598  29.975  27.372  1.00  0.00    -0.269 OA
BRANCH  28  31
ATOM     31  C   UNL A   1      35.815  29.977  28.138  1.00  0.00     0.039 A 
ATOM     32  C   UNL A   1      36.718  30.020  27.069  1.00  0.00     0.014 A 
ATOM     33  C   UNL A   1      36.219  29.407  29.342  1.00  0.00     0.014 A 
ATOM     34  C   UNL A   1      38.049  29.621  27.262  1.00  0.00     0.010 A 
ATOM     35  C   UNL A   1      37.563  29.162  29.576  1.00  0.00     0.010 A 
ATOM     36  C   UNL A   1      38.500  29.261  28.541  1.00  0.00    -0.014 A 
BRANCH  36  37
ATOM     37  C   UNL A   1      39.930  28.985  28.855  1.00  0.00     0.031 A 
ATOM     38  C   UNL A   1      40.758  30.030  29.561  1.00  0.00     0.074 A 
ATOM     39  C   UNL A   1      40.522  27.869  28.385  1.00  0.00     0.049 A 
ATOM     40  N   UNL A   1      42.052  30.073  29.761  1.00  0.00    -0.248 NA
ATOM     41  C   UNL A   1      40.041  31.217  30.052  1.00  0.00     0.031 C 
ATOM     42  C   UNL A   1      39.858  26.812  27.620  1.00  0.00     0.029 A 
ATOM     43  N   UNL A   1      41.827  27.448  28.465  1.00  0.00    -0.354 N 
ATOM     44  C   UNL A   1      42.299  31.302  30.360  1.00  0.00     0.074 A 
ATOM     45  C   UNL A   1      41.038  32.007  30.412  1.00  0.00     0.031 C 
ATOM     46  C   UNL A   1      40.746  25.845  27.341  1.00  0.00     0.029 A 
ATOM     47  C   UNL A   1      42.052  26.235  27.860  1.00  0.00     0.049 A 
ATOM     48  H   UNL A   1      42.533  27.966  28.913  1.00  0.00     0.167 HD
ATOM     49  C   UNL A   1      43.463  31.788  30.856  1.00  0.00     0.037 A 
ATOM     50  C   UNL A   1      43.187  25.521  27.736  1.00  0.00     0.037 A 
ATOM     51  C   UNL A   1      44.704  31.062  30.847  1.00  0.00     0.049 A 
ATOM     52  C   UNL A   1      44.464  26.066  28.313  1.00  0.00     0.074 A 
ATOM     53  C   UNL A   1      45.923  31.425  31.391  1.00  0.00     0.029 A 
ATOM     54  N   UNL A   1      44.882  29.814  30.264  1.00  0.00    -0.354 N 
ATOM     55  N   UNL A   1      44.674  27.198  28.939  1.00  0.00    -0.248 NA
ATOM     56  C   UNL A   1      45.664  25.230  28.167  1.00  0.00     0.031 C 
ATOM     57  C   UNL A   1      46.849  30.417  31.099  1.00  0.00     0.029 A 
ATOM     58  C   UNL A   1      46.195  29.401  30.420  1.00  0.00     0.049 A 
ATOM     59  H   UNL A   1      44.179  29.299  29.807  1.00  0.00     0.167 HD
ATOM     60  C   UNL A   1      46.017  27.197  29.293  1.00  0.00     0.074 A 
ATOM     61  C   UNL A   1      46.570  25.944  28.819  1.00  0.00     0.031 C 
ATOM     62  C   UNL A   1      46.726  28.146  29.952  1.00  0.00     0.037 A 
BRANCH  49  63
ATOM     63  C   UNL A   1      43.432  33.165  31.462  1.00  0.00     0.064 A 
ATOM     64  C   UNL A   1      43.139  33.368  32.821  1.00  0.00     0.173 A 
ATOM     65  C   UNL A   1      43.685  34.298  30.675  1.00  0.00     0.173 A 
ATOM     66  F   UNL A   1      42.879  32.320  33.620  1.00  0.00    -0.203 F 
ATOM     67  C   UNL A   1      43.046  34.651  33.354  1.00  0.00     0.198 A 
ATOM     68  C   UNL A   1      43.631  35.579  31.221  1.00  0.00     0.198 A 
ATOM     69  F   UNL A   1      43.979  34.167  29.372  1.00  0.00    -0.203 F 
ATOM     70  F   UNL A   1      42.683  34.818  34.633  1.00  0.00    -0.200 F 
ATOM     71  C   UNL A   1      43.296  35.755  32.555  1.00  0.00     0.200 A 
ATOM     72  F   UNL A   1      43.889  36.645  30.452  1.00  0.00    -0.200 F 
ATOM     73  F   UNL A   1      43.201  36.990  33.067  1.00  0.00    -0.200 F 
ENDBRANCH  49  63
BRANCH  50  74
ATOM     74  C   UNL A   1      43.151  24.180  27.092  1.00  0.00     0.064 A 
ATOM     75  C   UNL A   1      42.748  23.053  27.822  1.00  0.00     0.173 A 
ATOM     76  C   UNL A   1      43.495  23.996  25.745  1.00  0.00     0.173 A 
ATOM     77  F   UNL A   1      42.429  23.176  29.119  1.00  0.00    -0.203 F 
ATOM     78  C   UNL A   1      42.706  21.790  27.235  1.00  0.00     0.198 A 
ATOM     79  C   UNL A   1      43.428  22.737  25.152  1.00  0.00     0.198 A 
ATOM     80  F   UNL A   1      43.883  25.043  25.001  1.00  0.00    -0.203 F 
ATOM     81  F   UNL A   1      42.356  20.724  27.968  1.00  0.00    -0.200 F 
ATOM     82  C   UNL A   1      43.039  21.634  25.898  1.00  0.00     0.200 A 
ATOM     83  F   UNL A   1      43.736  22.591  23.856  1.00  0.00    -0.200 F 
ATOM     84  F   UNL A   1      42.991  20.420  25.332  1.00  0.00    -0.200 F 
ENDBRANCH  50  74
BRANCH  62  85
ATOM     85  C   UNL A   1      48.169  27.848  30.243  1.00  0.00     0.064 A 
ATOM     86  C   UNL A   1      48.564  27.175  31.408  1.00  0.00     0.173 A 
ATOM     87  C   UNL A   1      49.165  28.207  29.321  1.00  0.00     0.173 A 
ATOM     88  F   UNL A   1      47.653  26.824  32.328  1.00  0.00    -0.203 F 
ATOM     89  C   UNL A   1      49.907  26.895  31.652  1.00  0.00     0.198 A 
ATOM     90  C   UNL A   1      50.501  27.896  29.552  1.00  0.00     0.198 A 
ATOM     91  F   UNL A   1      48.838  28.845  28.188  1.00  0.00    -0.203 F 
ATOM     92  F   UNL A   1      50.268  26.295  32.795  1.00  0.00    -0.200 F 
ATOM     93  C   UNL A   1      50.872  27.249  30.721  1.00  0.00     0.200 A 
ATOM     94  F   UNL A   1      51.431  28.224  28.644  1.00  0.00    -0.200 F 
ATOM     95  F   UNL A   1      52.163  26.970  30.953  1.00  0.00    -0.200 F 
ENDBRANCH  62  85
ENDBRANCH  36  37
ENDBRANCH  28  31
ENDBRANCH  26  27
ENDBRANCH  25  26
ENDBRANCH  24  25
ENDBRANCH   3  24
TORSDOF 16
ENDMDL
MODEL 3
REMARK VINA RESULT:     -11.3      4.934      8.389
REMARK SMILES CC(C)[C@H](NC(=O)[C@H](C)NC(=O)C[NH3+])C(=O)NCCCNC(=O)c1ccc(-c2c3nc(c(-c4c(F)c(F)c(F)c(F)c4F)c4ccc([nH]4)c(-c4c(F)c(F)c(F)c(F)c4F)c4nc(c(-c5c(F)c(F)c(F)c(F)c5F)c5ccc2[nH]5)C=C4)C=C3)cc1
REMARK SMILES IDX 15 1 16 2 17 3 4 5 2 6 1 7 3 8 5 9 6 10 7 12 8 13 9 14 10 15
REMARK SMILES IDX 11 16 12 18 13 19 14 20 18 24 19 25 20 26 21 27 22 28 23 30
REMARK SMILES IDX 24 31 25 32 86 33 26 34 85 35 27 36 28 37 29 38 79 39 30 40
REMARK SMILES IDX 84 41 78 42 80 43 31 44 83 45 77 46 76 47 32 49 64 50 44 51
REMARK SMILES IDX 63 52 45 53 48 54 62 55 81 56 46 57 47 58 61 60 82 61 49 62
REMARK SMILES IDX 33 63 34 64 42 65 35 66 36 67 40 68 43 69 37 70 38 71 41 72
REMARK SMILES IDX 39 73 65 74 66 75 74 76 67 77 68 78 72 79 75 80 69 81 70 82
REMARK SMILES IDX 73 83 71 84 50 85 51 86 59 87 52 88 53 89 57 90 60 91 54 92
REMARK SMILES IDX 55 93 58 94 56 95
REMARK H PARENT 17 4 5 11 10 17 14 21 14 22 14 23 21 29 80 48 48 59
REMARK Flexibility Score: inf
ROOT
ATOM      1  C   UNL A   1      32.161  24.442  26.576  1.00  0.00     0.242 C 
ATOM      2  O   UNL A   1      31.221  23.967  27.215  1.00  0.00    -0.273 OA
ATOM      3  N   UNL A   1      33.393  23.841  26.732  1.00  0.00    -0.354 N 
ATOM      4  H   UNL A   1      33.858  23.903  27.597  1.00  0.00     0.163 HD
ENDROOT
BRANCH   1   5
ATOM      5  C   UNL A   1      32.045  25.796  25.797  1.00  0.00     0.173 C 
BRANCH   5   6
ATOM      6  C   UNL A   1      32.654  27.036  26.510  1.00  0.00     0.015 C 
ATOM      7  C   UNL A   1      33.434  27.935  25.535  1.00  0.00     0.010 C 
ATOM      8  C   UNL A   1      31.613  27.946  27.185  1.00  0.00     0.010 C 
ENDBRANCH   5   6
BRANCH   5   9
ATOM      9  N   UNL A   1      30.800  26.028  25.065  1.00  0.00    -0.342 N 
ATOM     10  C   UNL A   1      30.390  26.514  23.877  1.00  0.00     0.242 C 
ATOM     11  H   UNL A   1      30.026  25.744  25.604  1.00  0.00     0.164 HD
ATOM     12  O   UNL A   1      29.155  26.476  23.749  1.00  0.00    -0.273 OA
BRANCH  10  13
ATOM     13  C   UNL A   1      31.257  27.266  22.820  1.00  0.00     0.168 C 
ATOM     14  C   UNL A   1      30.489  28.548  22.453  1.00  0.00     0.041 C 
BRANCH  13  15
ATOM     15  N   UNL A   1      31.663  26.621  21.571  1.00  0.00    -0.340 N 
ATOM     16  C   UNL A   1      32.588  25.667  21.278  1.00  0.00     0.275 C 
ATOM     17  H   UNL A   1      31.166  26.942  20.785  1.00  0.00     0.164 HD
ATOM     18  O   UNL A   1      32.941  25.577  20.097  1.00  0.00    -0.268 OA
BRANCH  16  19
ATOM     19  C   UNL A   1      33.102  24.653  22.298  1.00  0.00     0.360 C 
BRANCH  19  20
ATOM     20  N   UNL A   1      32.173  23.537  22.537  1.00  0.00    -0.350 N 
ATOM     21  H   UNL A   1      31.639  23.715  23.388  1.00  0.00     0.344 HD
ATOM     22  H   UNL A   1      32.701  22.671  22.641  1.00  0.00     0.344 HD
ATOM     23  H   UNL A   1      31.534  23.453  21.746  1.00  0.00     0.344 HD
ENDBRANCH  19  20
ENDBRANCH  16  19
ENDBRANCH  13  15
ENDBRANCH  10  13
ENDBRANCH   5   9
ENDBRANCH   1   5
BRANCH   3  24
ATOM     24  C   UNL A   1      34.010  23.120  25.637  1.00  0.00     0.117 C 
BRANCH  24  25
ATOM     25  C   UNL A   1      35.091  22.139  26.030  1.00  0.00     0.042 C 
BRANCH  25  26
ATOM     26  C   UNL A   1      36.451  22.440  25.395  1.00  0.00     0.118 C 
BRANCH  26  27
ATOM     27  N   UNL A   1      37.465  21.386  25.387  1.00  0.00    -0.352 N 
ATOM     28  C   UNL A   1      38.757  21.391  25.892  1.00  0.00     0.251 C 
ATOM     29  H   UNL A   1      37.188  20.546  24.957  1.00  0.00     0.163 HD
ATOM     30  O   UNL A   1      39.467  20.404  25.768  1.00  0.00    -0.269 OA
BRANCH  28  31
ATOM     31  C   UNL A   1      39.304  22.611  26.547  1.00  0.00     0.039 A 
ATOM     32  C   UNL A   1      40.293  22.493  27.531  1.00  0.00     0.014 A 
ATOM     33  C   UNL A   1      38.877  23.879  26.165  1.00  0.00     0.014 A 
ATOM     34  C   UNL A   1      40.936  23.642  28.015  1.00  0.00     0.010 A 
ATOM     35  C   UNL A   1      39.614  24.995  26.524  1.00  0.00     0.010 A 
ATOM     36  C   UNL A   1      40.653  24.899  27.457  1.00  0.00    -0.014 A 
BRANCH  36  37
ATOM     37  C   UNL A   1      41.410  26.134  27.803  1.00  0.00     0.031 A 
ATOM     38  C   UNL A   1      40.720  27.255  28.539  1.00  0.00     0.074 A 
ATOM     39  C   UNL A   1      42.662  26.312  27.336  1.00  0.00     0.049 A 
ATOM     40  N   UNL A   1      41.131  28.478  28.771  1.00  0.00    -0.248 NA
ATOM     41  C   UNL A   1      39.357  26.984  29.025  1.00  0.00     0.031 C 
ATOM     42  C   UNL A   1      43.421  25.342  26.545  1.00  0.00     0.029 A 
ATOM     43  N   UNL A   1      43.512  27.386  27.444  1.00  0.00    -0.354 N 
ATOM     44  C   UNL A   1      40.065  29.121  29.388  1.00  0.00     0.074 A 
ATOM     45  C   UNL A   1      38.965  28.184  29.417  1.00  0.00     0.031 C 
ATOM     46  C   UNL A   1      44.637  25.845  26.278  1.00  0.00     0.029 A 
ATOM     47  C   UNL A   1      44.727  27.191  26.833  1.00  0.00     0.049 A 
ATOM     48  H   UNL A   1      43.273  28.216  27.915  1.00  0.00     0.167 HD
ATOM     49  C   UNL A   1      40.016  30.368  29.917  1.00  0.00     0.037 A 
ATOM     50  C   UNL A   1      45.792  28.008  26.730  1.00  0.00     0.037 A 
ATOM     51  C   UNL A   1      41.129  31.279  29.931  1.00  0.00     0.049 A 
ATOM     52  C   UNL A   1      45.726  29.380  27.343  1.00  0.00     0.074 A 
ATOM     53  C   UNL A   1      41.213  32.533  30.508  1.00  0.00     0.029 A 
ATOM     54  N   UNL A   1      42.360  31.026  29.340  1.00  0.00    -0.354 N 
ATOM     55  N   UNL A   1      44.738  29.954  27.986  1.00  0.00    -0.248 NA
ATOM     56  C   UNL A   1      46.928  30.217  27.219  1.00  0.00     0.031 C 
ATOM     57  C   UNL A   1      42.481  33.057  30.229  1.00  0.00     0.029 A 
ATOM     58  C   UNL A   1      43.205  32.108  29.525  1.00  0.00     0.049 A 
ATOM     59  H   UNL A   1      42.597  30.200  28.861  1.00  0.00     0.167 HD
ATOM     60  C   UNL A   1      45.208  31.203  28.372  1.00  0.00     0.074 A 
ATOM     61  C   UNL A   1      46.574  31.297  27.900  1.00  0.00     0.031 C 
ATOM     62  C   UNL A   1      44.566  32.181  29.058  1.00  0.00     0.037 A 
BRANCH  49  63
ATOM     63  C   UNL A   1      38.715  30.802  30.536  1.00  0.00     0.064 A 
ATOM     64  C   UNL A   1      38.484  30.704  31.918  1.00  0.00     0.173 A 
ATOM     65  C   UNL A   1      37.679  31.313  29.739  1.00  0.00     0.173 A 
ATOM     66  F   UNL A   1      39.436  30.213  32.728  1.00  0.00    -0.203 F 
ATOM     67  C   UNL A   1      37.251  31.045  32.469  1.00  0.00     0.198 A 
ATOM     68  C   UNL A   1      36.461  31.691  30.299  1.00  0.00     0.198 A 
ATOM     69  F   UNL A   1      37.843  31.440  28.413  1.00  0.00    -0.203 F 
ATOM     70  F   UNL A   1      37.032  30.861  33.778  1.00  0.00    -0.200 F 
ATOM     71  C   UNL A   1      36.243  31.542  31.660  1.00  0.00     0.200 A 
ATOM     72  F   UNL A   1      35.492  32.188  29.518  1.00  0.00    -0.200 F 
ATOM     73  F   UNL A   1      35.055  31.865  32.190  1.00  0.00    -0.200 F 
ENDBRANCH  49  63
BRANCH  50  74
ATOM     74  C   UNL A   1      47.035  27.525  26.072  1.00  0.00     0.064 A 
ATOM     75  C   UNL A   1      48.043  26.908  26.827  1.00  0.00     0.173 A 
ATOM     76  C   UNL A   1      47.237  27.647  24.690  1.00  0.00     0.173 A 
ATOM     77  F   UNL A   1      47.904  26.787  28.155  1.00  0.00    -0.203 F 
ATOM     78  C   UNL A   1      49.214  26.447  26.227  1.00  0.00     0.198 A 
ATOM     79  C   UNL A   1      48.397  27.162  24.088  1.00  0.00     0.198 A 
ATOM     80  F   UNL A   1      46.302  28.225  23.922  1.00  0.00    -0.203 F 
ATOM     81  F   UNL A   1      50.177  25.899  26.980  1.00  0.00    -0.200 F 
ATOM     82  C   UNL A   1      49.386  26.568  24.857  1.00  0.00     0.200 A 
ATOM     83  F   UNL A   1      48.555  27.267  22.761  1.00  0.00    -0.200 F 
ATOM     84  F   UNL A   1      50.509  26.117  24.280  1.00  0.00    -0.200 F 
ENDBRANCH  50  74
BRANCH  62  85
ATOM     85  C   UNL A   1      45.348  33.421  29.381  1.00  0.00     0.064 A 
ATOM     86  C   UNL A   1      45.343  34.540  28.535  1.00  0.00     0.173 A 
ATOM     87  C   UNL A   1      46.078  33.505  30.577  1.00  0.00     0.173 A 
ATOM     88  F   UNL A   1      44.673  34.505  27.373  1.00  0.00    -0.203 F 
ATOM     89  C   UNL A   1      46.063  35.687  28.861  1.00  0.00     0.198 A 
ATOM     90  C   UNL A   1      46.769  34.664  30.915  1.00  0.00     0.198 A 
ATOM     91  F   UNL A   1      46.108  32.467  31.424  1.00  0.00    -0.203 F 
ATOM     92  F   UNL A   1      46.085  36.725  28.014  1.00  0.00    -0.200 F 
ATOM     93  C   UNL A   1      46.768  35.750  30.054  1.00  0.00     0.200 A 
ATOM     94  F   UNL A   1      47.437  34.731  32.076  1.00  0.00    -0.200 F 
ATOM     95  F   UNL A   1      47.453  36.859  30.370  1.00  0.00    -0.200 F 
ENDBRANCH  62  85
ENDBRANCH  36  37
ENDBRANCH  28  31
ENDBRANCH  26  27
ENDBRANCH  25  26
ENDBRANCH  24  25
ENDBRANCH   3  24
TORSDOF 16
ENDMDL
