MODEL 1
REMARK VINA RESULT:     -11.3      0.000      0.000
REMARK SMILES Cc1ccc(C(=O)N2CCC(CC(=O)NCCCNC(=O)c3ccc(-c4c5nc(c(-c6c(F)c(F)c(F)c(F)c6F)c6ccc([nH]6)c(-c6c(F)c(F)c(F)c(F)c6F)c6nc(c(-c7c(F)c(F)c(F)c(F)c7F)c7ccc4[nH]7)C=C6)C=C5)cc3)CC2)cn1
REMARK SMILES IDX 17 1 16 2 15 3 13 4 14 5 12 7 11 8 6 9 7 10 8 11 9 12 86 13
REMARK SMILES IDX 10 14 85 15 5 16 1 17 2 18 3 19 88 20 4 21 87 22 18 23 19 24
REMARK SMILES IDX 20 25 21 27 22 28 23 29 84 30 24 31 83 32 25 33 26 34 27 35
REMARK SMILES IDX 77 36 28 37 82 38 76 39 78 40 29 41 81 42 75 43 74 44 30 46
REMARK SMILES IDX 62 47 42 48 61 49 43 50 46 51 60 52 79 53 44 54 45 55 59 57
REMARK SMILES IDX 80 58 47 59 31 60 32 61 40 62 33 63 34 64 38 65 41 66 35 67
REMARK SMILES IDX 36 68 39 69 37 70 63 71 64 72 72 73 65 74 66 75 70 76 73 77
REMARK SMILES IDX 67 78 68 79 71 80 69 81 48 82 49 83 57 84 50 85 51 86 55 87
REMARK SMILES IDX 58 88 52 89 53 90 56 91 54 92
REMARK H PARENT 15 6 19 26 78 45 46 56
REMARK Flexibility Score: inf
ROOT
ATOM      1  C   UNL A   1      33.697  33.872  28.329  1.00  0.00     0.042 C 
ENDROOT
BRANCH   1   2
ATOM      2  C   UNL A   1      33.848  35.077  29.260  1.00  0.00     0.117 C 
BRANCH   2   3
ATOM      3  N   UNL A   1      32.808  35.138  30.278  1.00  0.00    -0.356 N 
ATOM      4  C   UNL A   1      32.883  35.331  31.626  1.00  0.00     0.220 C 
ATOM      5  O   UNL A   1      31.835  35.318  32.275  1.00  0.00    -0.275 OA
ATOM      6  H   UNL A   1      31.893  35.022  29.934  1.00  0.00     0.163 HD
BRANCH   4   7
ATOM      7  C   UNL A   1      34.220  35.521  32.314  1.00  0.00     0.103 C 
BRANCH   7   8
ATOM      8  C   UNL A   1      35.244  34.438  31.933  1.00  0.00     0.002 C 
ATOM      9  C   UNL A   1      37.515  31.901  33.956  1.00  0.00     0.255 C 
ATOM     10  O   UNL A   1      37.031  32.312  35.004  1.00  0.00    -0.269 OA
ATOM     11  N   UNL A   1      37.117  32.353  32.707  1.00  0.00    -0.339 N 
ATOM     12  C   UNL A   1      37.634  33.625  32.243  1.00  0.00     0.120 C 
ATOM     13  C   UNL A   1      35.810  31.973  32.199  1.00  0.00     0.120 C 
ATOM     14  C   UNL A   1      36.636  34.744  32.503  1.00  0.00     0.026 C 
ATOM     15  C   UNL A   1      34.765  33.063  32.435  1.00  0.00     0.026 C 
BRANCH   9  16
ATOM     16  C   UNL A   1      38.596  30.885  33.939  1.00  0.00     0.058 A 
ATOM     17  C   UNL A   1      41.539  27.818  33.759  1.00  0.00     0.066 C 
ATOM     18  C   UNL A   1      40.521  28.916  33.832  1.00  0.00     0.037 A 
ATOM     19  C   UNL A   1      40.814  30.110  34.481  1.00  0.00     0.024 A 
ATOM     20  N   UNL A   1      39.320  28.680  33.249  1.00  0.00    -0.261 NA
ATOM     21  C   UNL A   1      39.840  31.104  34.534  1.00  0.00     0.017 A 
ATOM     22  C   UNL A   1      38.387  29.667  33.311  1.00  0.00     0.125 A 
ENDBRANCH   9  16
ENDBRANCH   7   8
ENDBRANCH   4   7
ENDBRANCH   2   3
ENDBRANCH   1   2
BRANCH   1  23
ATOM     23  C   UNL A   1      34.558  32.672  28.707  1.00  0.00     0.118 C 
BRANCH  23  24
ATOM     24  N   UNL A   1      33.957  31.421  28.277  1.00  0.00    -0.352 N 
ATOM     25  C   UNL A   1      34.540  30.211  27.994  1.00  0.00     0.251 C 
ATOM     26  H   UNL A   1      32.979  31.446  28.172  1.00  0.00     0.163 HD
ATOM     27  O   UNL A   1      33.876  29.353  27.408  1.00  0.00    -0.269 OA
BRANCH  25  28
ATOM     28  C   UNL A   1      35.941  29.905  28.372  1.00  0.00     0.039 A 
ATOM     29  C   UNL A   1      36.945  30.084  27.411  1.00  0.00     0.014 A 
ATOM     30  C   UNL A   1      36.274  29.351  29.612  1.00  0.00     0.014 A 
ATOM     31  C   UNL A   1      38.271  29.739  27.699  1.00  0.00     0.010 A 
ATOM     32  C   UNL A   1      37.608  29.069  29.923  1.00  0.00     0.010 A 
ATOM     33  C   UNL A   1      38.618  29.240  28.963  1.00  0.00    -0.014 A 
BRANCH  33  34
ATOM     34  C   UNL A   1      40.018  28.849  29.280  1.00  0.00     0.031 A 
ATOM     35  C   UNL A   1      40.903  29.777  30.069  1.00  0.00     0.074 A 
ATOM     36  C   UNL A   1      40.516  27.683  28.825  1.00  0.00     0.049 A 
ATOM     37  N   UNL A   1      42.172  29.656  30.374  1.00  0.00    -0.248 NA
ATOM     38  C   UNL A   1      40.287  31.019  30.561  1.00  0.00     0.031 C 
ATOM     39  C   UNL A   1      39.781  26.703  28.025  1.00  0.00     0.029 A 
ATOM     40  N   UNL A   1      41.766  27.129  28.964  1.00  0.00    -0.354 N 
ATOM     41  C   UNL A   1      42.509  30.813  31.066  1.00  0.00     0.074 A 
ATOM     42  C   UNL A   1      41.322  31.640  31.109  1.00  0.00     0.031 C 
ATOM     43  C   UNL A   1      40.588  25.665  27.752  1.00  0.00     0.029 A 
ATOM     44  C   UNL A   1      41.904  25.917  28.332  1.00  0.00     0.049 A 
ATOM     45  H   UNL A   1      42.493  27.560  29.467  1.00  0.00     0.167 HD
ATOM     46  C   UNL A   1      43.695  31.150  31.628  1.00  0.00     0.037 A 
ATOM     47  C   UNL A   1      42.973  25.104  28.224  1.00  0.00     0.037 A 
ATOM     48  C   UNL A   1      44.865  30.312  31.633  1.00  0.00     0.049 A 
ATOM     49  C   UNL A   1      44.270  25.490  28.882  1.00  0.00     0.074 A 
ATOM     50  C   UNL A   1      46.089  30.542  32.237  1.00  0.00     0.029 A 
ATOM     51  N   UNL A   1      44.953  29.077  31.010  1.00  0.00    -0.354 N 
ATOM     52  N   UNL A   1      44.561  26.566  29.570  1.00  0.00    -0.248 NA
ATOM     53  C   UNL A   1      45.388  24.543  28.751  1.00  0.00     0.031 C 
ATOM     54  C   UNL A   1      46.928  29.458  31.956  1.00  0.00     0.029 A 
ATOM     55  C   UNL A   1      46.214  28.539  31.205  1.00  0.00     0.049 A 
ATOM     56  H   UNL A   1      44.227  28.645  30.504  1.00  0.00     0.167 HD
ATOM     57  C   UNL A   1      45.881  26.417  29.972  1.00  0.00     0.074 A 
ATOM     58  C   UNL A   1      46.335  25.141  29.459  1.00  0.00     0.031 C 
ATOM     59  C   UNL A   1      46.649  27.264  30.698  1.00  0.00     0.037 A 
BRANCH  46  60
ATOM     60  C   UNL A   1      43.791  32.489  32.295  1.00  0.00     0.064 A 
ATOM     61  C   UNL A   1      43.966  33.667  31.553  1.00  0.00     0.173 A 
ATOM     62  C   UNL A   1      43.656  32.602  33.686  1.00  0.00     0.173 A 
ATOM     63  F   UNL A   1      44.111  33.608  30.220  1.00  0.00    -0.203 F 
ATOM     64  C   UNL A   1      44.026  34.907  32.183  1.00  0.00     0.198 A 
ATOM     65  C   UNL A   1      43.690  33.846  34.310  1.00  0.00     0.198 A 
ATOM     66  F   UNL A   1      43.478  31.507  34.439  1.00  0.00    -0.203 F 
ATOM     67  F   UNL A   1      44.231  36.015  31.458  1.00  0.00    -0.200 F 
ATOM     68  C   UNL A   1      43.881  34.996  33.559  1.00  0.00     0.200 A 
ATOM     69  F   UNL A   1      43.540  33.932  35.639  1.00  0.00    -0.200 F 
ATOM     70  F   UNL A   1      43.930  36.192  34.163  1.00  0.00    -0.200 F 
ENDBRANCH  46  60
BRANCH  47  71
ATOM     71  C   UNL A   1      42.858  23.828  27.475  1.00  0.00     0.064 A 
ATOM     72  C   UNL A   1      43.217  23.754  26.122  1.00  0.00     0.173 A 
ATOM     73  C   UNL A   1      42.382  22.662  28.091  1.00  0.00     0.173 A 
ATOM     74  F   UNL A   1      43.652  24.851  25.484  1.00  0.00    -0.203 F 
ATOM     75  C   UNL A   1      43.089  22.565  25.409  1.00  0.00     0.198 A 
ATOM     76  C   UNL A   1      42.276  21.468  27.383  1.00  0.00     0.198 A 
ATOM     77  F   UNL A   1      42.025  22.684  29.384  1.00  0.00    -0.203 F 
ATOM     78  F   UNL A   1      43.397  22.532  24.104  1.00  0.00    -0.200 F 
ATOM     79  C   UNL A   1      42.623  21.421  26.040  1.00  0.00     0.200 A 
ATOM     80  F   UNL A   1      41.831  20.363  27.998  1.00  0.00    -0.200 F 
ATOM     81  F   UNL A   1      42.497  20.278  25.353  1.00  0.00    -0.200 F 
ENDBRANCH  47  71
BRANCH  59  82
ATOM     82  C   UNL A   1      48.051  26.831  31.006  1.00  0.00     0.064 A 
ATOM     83  C   UNL A   1      48.332  25.984  32.088  1.00  0.00     0.173 A 
ATOM     84  C   UNL A   1      49.115  27.232  30.186  1.00  0.00     0.173 A 
ATOM     85  F   UNL A   1      47.349  25.587  32.908  1.00  0.00    -0.203 F 
ATOM     86  C   UNL A   1      49.636  25.567  32.347  1.00  0.00     0.198 A 
ATOM     87  C   UNL A   1      50.414  26.796  30.436  1.00  0.00     0.198 A 
ATOM     88  F   UNL A   1      48.894  28.037  29.136  1.00  0.00    -0.203 F 
ATOM     89  F   UNL A   1      49.889  24.786  33.406  1.00  0.00    -0.200 F 
ATOM     90  C   UNL A   1      50.673  25.968  31.518  1.00  0.00     0.200 A 
ATOM     91  F   UNL A   1      51.415  27.177  29.630  1.00  0.00    -0.200 F 
ATOM     92  F   UNL A   1      51.926  25.562  31.766  1.00  0.00    -0.200 F 
ENDBRANCH  59  82
ENDBRANCH  33  34
ENDBRANCH  25  28
ENDBRANCH  23  24
ENDBRANCH   1  23
TORSDOF 12
ENDMDL
MODEL 2
REMARK VINA RESULT:     -11.2      0.097      1.605
REMARK SMILES Cc1ccc(C(=O)N2CCC(CC(=O)NCCCNC(=O)c3ccc(-c4c5nc(c(-c6c(F)c(F)c(F)c(F)c6F)c6ccc([nH]6)c(-c6c(F)c(F)c(F)c(F)c6F)c6nc(c(-c7c(F)c(F)c(F)c(F)c7F)c7ccc4[nH]7)C=C6)C=C5)cc3)CC2)cn1
REMARK SMILES IDX 17 1 16 2 15 3 13 4 14 5 12 7 11 8 6 9 7 10 8 11 9 12 86 13
REMARK SMILES IDX 10 14 85 15 5 16 1 17 2 18 3 19 88 20 4 21 87 22 18 23 19 24
REMARK SMILES IDX 20 25 21 27 22 28 23 29 84 30 24 31 83 32 25 33 26 34 27 35
REMARK SMILES IDX 77 36 28 37 82 38 76 39 78 40 29 41 81 42 75 43 74 44 30 46
REMARK SMILES IDX 62 47 42 48 61 49 43 50 46 51 60 52 79 53 44 54 45 55 59 57
REMARK SMILES IDX 80 58 47 59 31 60 32 61 40 62 33 63 34 64 38 65 41 66 35 67
REMARK SMILES IDX 36 68 39 69 37 70 63 71 64 72 72 73 65 74 66 75 70 76 73 77
REMARK SMILES IDX 67 78 68 79 71 80 69 81 48 82 49 83 57 84 50 85 51 86 55 87
REMARK SMILES IDX 58 88 52 89 53 90 56 91 54 92
REMARK H PARENT 15 6 19 26 78 45 46 56
REMARK Flexibility Score: inf
ROOT
ATOM      1  C   UNL A   1      33.649  33.859  28.382  1.00  0.00     0.042 C 
ENDROOT
BRANCH   1   2
ATOM      2  C   UNL A   1      33.847  35.031  29.346  1.00  0.00     0.117 C 
BRANCH   2   3
ATOM      3  N   UNL A   1      32.792  35.123  30.347  1.00  0.00    -0.356 N 
ATOM      4  C   UNL A   1      32.850  35.328  31.693  1.00  0.00     0.220 C 
ATOM      5  O   UNL A   1      31.793  35.342  32.326  1.00  0.00    -0.275 OA
ATOM      6  H   UNL A   1      31.880  35.020  29.990  1.00  0.00     0.163 HD
BRANCH   4   7
ATOM      7  C   UNL A   1      34.180  35.499  32.400  1.00  0.00     0.103 C 
BRANCH   7   8
ATOM      8  C   UNL A   1      35.215  34.439  31.987  1.00  0.00     0.002 C 
ATOM      9  C   UNL A   1      37.517  31.869  33.933  1.00  0.00     0.255 C 
ATOM     10  O   UNL A   1      37.031  32.245  34.993  1.00  0.00    -0.269 OA
ATOM     11  N   UNL A   1      37.110  32.352  32.698  1.00  0.00    -0.339 N 
ATOM     12  C   UNL A   1      37.613  33.641  32.268  1.00  0.00     0.120 C 
ATOM     13  C   UNL A   1      35.806  31.973  32.182  1.00  0.00     0.120 C 
ATOM     14  C   UNL A   1      36.605  34.742  32.562  1.00  0.00     0.026 C 
ATOM     15  C   UNL A   1      34.751  33.045  32.451  1.00  0.00     0.026 C 
BRANCH   9  16
ATOM     16  C   UNL A   1      38.608  30.864  33.885  1.00  0.00     0.058 A 
ATOM     17  C   UNL A   1      41.577  27.828  33.626  1.00  0.00     0.066 C 
ATOM     18  C   UNL A   1      40.550  28.916  33.725  1.00  0.00     0.037 A 
ATOM     19  C   UNL A   1      40.857  30.125  34.339  1.00  0.00     0.024 A 
ATOM     20  N   UNL A   1      39.326  28.655  33.201  1.00  0.00    -0.261 NA
ATOM     21  C   UNL A   1      39.875  31.109  34.418  1.00  0.00     0.017 A 
ATOM     22  C   UNL A   1      38.385  29.633  33.288  1.00  0.00     0.125 A 
ENDBRANCH   9  16
ENDBRANCH   7   8
ENDBRANCH   4   7
ENDBRANCH   2   3
ENDBRANCH   1   2
BRANCH   1  23
ATOM     23  C   UNL A   1      34.577  32.674  28.632  1.00  0.00     0.118 C 
BRANCH  23  24
ATOM     24  N   UNL A   1      33.968  31.419  28.227  1.00  0.00    -0.352 N 
ATOM     25  C   UNL A   1      34.544  30.201  27.963  1.00  0.00     0.251 C 
ATOM     26  H   UNL A   1      32.989  31.445  28.128  1.00  0.00     0.163 HD
ATOM     27  O   UNL A   1      33.873  29.336  27.396  1.00  0.00    -0.269 OA
BRANCH  25  28
ATOM     28  C   UNL A   1      35.946  29.896  28.338  1.00  0.00     0.039 A 
ATOM     29  C   UNL A   1      36.949  30.083  27.378  1.00  0.00     0.014 A 
ATOM     30  C   UNL A   1      36.281  29.335  29.574  1.00  0.00     0.014 A 
ATOM     31  C   UNL A   1      38.276  29.739  27.663  1.00  0.00     0.010 A 
ATOM     32  C   UNL A   1      37.616  29.055  29.883  1.00  0.00     0.010 A 
ATOM     33  C   UNL A   1      38.625  29.233  28.924  1.00  0.00    -0.014 A 
BRANCH  33  34
ATOM     34  C   UNL A   1      40.025  28.843  29.237  1.00  0.00     0.031 A 
ATOM     35  C   UNL A   1      40.915  29.776  30.016  1.00  0.00     0.074 A 
ATOM     36  C   UNL A   1      40.521  27.673  28.789  1.00  0.00     0.049 A 
ATOM     37  N   UNL A   1      42.186  29.656  30.316  1.00  0.00    -0.248 NA
ATOM     38  C   UNL A   1      40.303  31.022  30.501  1.00  0.00     0.031 C 
ATOM     39  C   UNL A   1      39.781  26.688  27.999  1.00  0.00     0.029 A 
ATOM     40  N   UNL A   1      41.771  27.119  28.926  1.00  0.00    -0.354 N 
ATOM     41  C   UNL A   1      42.526  30.817  30.997  1.00  0.00     0.074 A 
ATOM     42  C   UNL A   1      41.341  31.646  31.040  1.00  0.00     0.031 C 
ATOM     43  C   UNL A   1      40.586  25.647  27.730  1.00  0.00     0.029 A 
ATOM     44  C   UNL A   1      41.905  25.902  28.302  1.00  0.00     0.049 A 
ATOM     45  H   UNL A   1      42.501  27.553  29.423  1.00  0.00     0.167 HD
ATOM     46  C   UNL A   1      43.715  31.157  31.552  1.00  0.00     0.037 A 
ATOM     47  C   UNL A   1      42.973  25.088  28.196  1.00  0.00     0.037 A 
ATOM     48  C   UNL A   1      44.884  30.319  31.558  1.00  0.00     0.049 A 
ATOM     49  C   UNL A   1      44.274  25.477  28.846  1.00  0.00     0.074 A 
ATOM     50  C   UNL A   1      46.111  30.552  32.155  1.00  0.00     0.029 A 
ATOM     51  N   UNL A   1      44.968  29.079  30.944  1.00  0.00    -0.354 N 
ATOM     52  N   UNL A   1      44.568  26.557  29.525  1.00  0.00    -0.248 NA
ATOM     53  C   UNL A   1      45.390  24.528  28.716  1.00  0.00     0.031 C 
ATOM     54  C   UNL A   1      46.948  29.466  31.879  1.00  0.00     0.029 A 
ATOM     55  C   UNL A   1      46.230  28.541  31.137  1.00  0.00     0.049 A 
ATOM     56  H   UNL A   1      44.240  28.644  30.445  1.00  0.00     0.167 HD
ATOM     57  C   UNL A   1      45.890  26.410  29.921  1.00  0.00     0.074 A 
ATOM     58  C   UNL A   1      46.340  25.130  29.416  1.00  0.00     0.031 C 
ATOM     59  C   UNL A   1      46.662  27.262  30.638  1.00  0.00     0.037 A 
BRANCH  46  60
ATOM     60  C   UNL A   1      43.815  32.501  32.208  1.00  0.00     0.064 A 
ATOM     61  C   UNL A   1      43.748  32.643  33.603  1.00  0.00     0.173 A 
ATOM     62  C   UNL A   1      44.030  33.654  31.439  1.00  0.00     0.173 A 
ATOM     63  F   UNL A   1      43.532  31.571  34.380  1.00  0.00    -0.203 F 
ATOM     64  C   UNL A   1      43.870  33.895  34.201  1.00  0.00     0.198 A 
ATOM     65  C   UNL A   1      44.177  34.900  32.043  1.00  0.00     0.198 A 
ATOM     66  F   UNL A   1      44.110  33.570  30.103  1.00  0.00    -0.203 F 
ATOM     67  F   UNL A   1      43.766  34.012  35.531  1.00  0.00    -0.200 F 
ATOM     68  C   UNL A   1      44.092  35.021  33.422  1.00  0.00     0.200 A 
ATOM     69  F   UNL A   1      44.401  35.986  31.289  1.00  0.00    -0.200 F 
ATOM     70  F   UNL A   1      44.218  36.223  34.000  1.00  0.00    -0.200 F 
ENDBRANCH  46  60
BRANCH  47  71
ATOM     71  C   UNL A   1      42.853  23.807  27.456  1.00  0.00     0.064 A 
ATOM     72  C   UNL A   1      43.221  23.719  26.106  1.00  0.00     0.173 A 
ATOM     73  C   UNL A   1      42.366  22.649  28.080  1.00  0.00     0.173 A 
ATOM     74  F   UNL A   1      43.668  24.807  25.463  1.00  0.00    -0.203 F 
ATOM     75  C   UNL A   1      43.089  22.524  25.402  1.00  0.00     0.198 A 
ATOM     76  C   UNL A   1      42.256  21.450  27.380  1.00  0.00     0.198 A 
ATOM     77  F   UNL A   1      42.000  22.684  29.369  1.00  0.00    -0.203 F 
ATOM     78  F   UNL A   1      43.405  22.478  24.101  1.00  0.00    -0.200 F 
ATOM     79  C   UNL A   1      42.611  21.389  26.041  1.00  0.00     0.200 A 
ATOM     80  F   UNL A   1      41.799  20.353  28.002  1.00  0.00    -0.200 F 
ATOM     81  F   UNL A   1      42.481  20.241  25.362  1.00  0.00    -0.200 F 
ENDBRANCH  47  71
BRANCH  59  82
ATOM     82  C   UNL A   1      48.064  26.830  30.943  1.00  0.00     0.064 A 
ATOM     83  C   UNL A   1      49.143  27.233  30.143  1.00  0.00     0.173 A 
ATOM     84  C   UNL A   1      48.336  26.043  32.071  1.00  0.00     0.173 A 
ATOM     85  F   UNL A   1      48.931  27.974  29.046  1.00  0.00    -0.203 F 
ATOM     86  C   UNL A   1      50.445  26.846  30.454  1.00  0.00     0.198 A 
ATOM     87  C   UNL A   1      49.640  25.677  32.390  1.00  0.00     0.198 A 
ATOM     88  F   UNL A   1      47.337  25.637  32.870  1.00  0.00    -0.203 F 
ATOM     89  F   UNL A   1      51.458  27.213  29.657  1.00  0.00    -0.200 F 
ATOM     90  C   UNL A   1      50.693  26.075  31.580  1.00  0.00     0.200 A 
ATOM     91  F   UNL A   1      49.880  24.937  33.483  1.00  0.00    -0.200 F 
ATOM     92  F   UNL A   1      51.946  25.709  31.880  1.00  0.00    -0.200 F 
ENDBRANCH  59  82
ENDBRANCH  33  34
ENDBRANCH  25  28
ENDBRANCH  23  24
ENDBRANCH   1  23
TORSDOF 12
ENDMDL
MODEL 3
REMARK VINA RESULT:     -11.2      3.903     10.976
REMARK SMILES Cc1ccc(C(=O)N2CCC(CC(=O)NCCCNC(=O)c3ccc(-c4c5nc(c(-c6c(F)c(F)c(F)c(F)c6F)c6ccc([nH]6)c(-c6c(F)c(F)c(F)c(F)c6F)c6nc(c(-c7c(F)c(F)c(F)c(F)c7F)c7ccc4[nH]7)C=C6)C=C5)cc3)CC2)cn1
REMARK SMILES IDX 17 1 16 2 15 3 13 4 14 5 12 7 11 8 6 9 7 10 8 11 9 12 86 13
REMARK SMILES IDX 10 14 85 15 5 16 1 17 2 18 3 19 88 20 4 21 87 22 18 23 19 24
REMARK SMILES IDX 20 25 21 27 22 28 23 29 84 30 24 31 83 32 25 33 26 34 27 35
REMARK SMILES IDX 77 36 28 37 82 38 76 39 78 40 29 41 81 42 75 43 74 44 30 46
REMARK SMILES IDX 62 47 42 48 61 49 43 50 46 51 60 52 79 53 44 54 45 55 59 57
REMARK SMILES IDX 80 58 47 59 31 60 32 61 40 62 33 63 34 64 38 65 41 66 35 67
REMARK SMILES IDX 36 68 39 69 37 70 63 71 64 72 72 73 65 74 66 75 70 76 73 77
REMARK SMILES IDX 67 78 68 79 71 80 69 81 48 82 49 83 57 84 50 85 51 86 55 87
REMARK SMILES IDX 58 88 52 89 53 90 56 91 54 92
REMARK H PARENT 15 6 19 26 78 45 46 56
REMARK Flexibility Score: inf
ROOT
ATOM      1  C   UNL A   1      41.213  20.153  26.318  1.00  0.00     0.042 C 
ENDROOT
BRANCH   1   2
ATOM      2  C   UNL A   1      42.685  19.733  26.329  1.00  0.00     0.117 C 
BRANCH   2   3
ATOM      3  N   UNL A   1      43.190  19.409  25.001  1.00  0.00    -0.356 N 
ATOM      4  C   UNL A   1      44.328  19.795  24.357  1.00  0.00     0.220 C 
ATOM      5  O   UNL A   1      44.512  19.389  23.208  1.00  0.00    -0.275 OA
ATOM      6  H   UNL A   1      42.611  18.808  24.480  1.00  0.00     0.163 HD
BRANCH   4   7
ATOM      7  C   UNL A   1      45.323  20.726  25.020  1.00  0.00     0.103 C 
BRANCH   7   8
ATOM      8  C   UNL A   1      44.658  21.973  25.628  1.00  0.00     0.002 C 
ATOM      9  C   UNL A   1      45.301  25.875  25.409  1.00  0.00     0.255 C 
ATOM     10  O   UNL A   1      46.222  25.674  24.626  1.00  0.00    -0.269 OA
ATOM     11  N   UNL A   1      44.507  24.861  25.924  1.00  0.00    -0.339 N 
ATOM     12  C   UNL A   1      45.032  24.070  27.018  1.00  0.00     0.120 C 
ATOM     13  C   UNL A   1      43.558  24.191  25.051  1.00  0.00     0.120 C 
ATOM     14  C   UNL A   1      45.634  22.768  26.507  1.00  0.00     0.026 C 
ATOM     15  C   UNL A   1      44.111  22.876  24.507  1.00  0.00     0.026 C 
BRANCH   9  16
ATOM     16  C   UNL A   1      44.969  27.238  25.892  1.00  0.00     0.058 A 
ATOM     17  C   UNL A   1      43.778  31.111  27.189  1.00  0.00     0.066 C 
ATOM     18  C   UNL A   1      44.220  29.749  26.746  1.00  0.00     0.037 A 
ATOM     19  C   UNL A   1      45.528  29.325  26.961  1.00  0.00     0.024 A 
ATOM     20  N   UNL A   1      43.296  28.973  26.128  1.00  0.00    -0.261 NA
ATOM     21  C   UNL A   1      45.904  28.056  26.529  1.00  0.00     0.017 A 
ATOM     22  C   UNL A   1      43.687  27.736  25.719  1.00  0.00     0.125 A 
ENDBRANCH   9  16
ENDBRANCH   7   8
ENDBRANCH   4   7
ENDBRANCH   2   3
ENDBRANCH   1   2
BRANCH   1  23
ATOM     23  C   UNL A   1      40.989  21.660  26.246  1.00  0.00     0.118 C 
BRANCH  23  24
ATOM     24  N   UNL A   1      39.653  21.983  25.775  1.00  0.00    -0.352 N 
ATOM     25  C   UNL A   1      38.842  23.049  26.077  1.00  0.00     0.251 C 
ATOM     26  H   UNL A   1      39.269  21.336  25.140  1.00  0.00     0.163 HD
ATOM     27  O   UNL A   1      37.652  23.001  25.759  1.00  0.00    -0.269 OA
BRANCH  25  28
ATOM     28  C   UNL A   1      39.354  24.254  26.773  1.00  0.00     0.039 A 
ATOM     29  C   UNL A   1      38.989  24.458  28.111  1.00  0.00     0.014 A 
ATOM     30  C   UNL A   1      40.099  25.236  26.112  1.00  0.00     0.014 A 
ATOM     31  C   UNL A   1      39.388  25.618  28.785  1.00  0.00     0.010 A 
ATOM     32  C   UNL A   1      40.554  26.362  26.805  1.00  0.00     0.010 A 
ATOM     33  C   UNL A   1      40.186  26.576  28.143  1.00  0.00    -0.014 A 
BRANCH  33  34
ATOM     34  C   UNL A   1      40.602  27.824  28.837  1.00  0.00     0.031 A 
ATOM     35  C   UNL A   1      42.009  27.968  29.357  1.00  0.00     0.074 A 
ATOM     36  C   UNL A   1      39.713  28.814  29.046  1.00  0.00     0.049 A 
ATOM     37  N   UNL A   1      42.540  28.939  30.060  1.00  0.00    -0.248 NA
ATOM     38  C   UNL A   1      42.936  26.864  29.068  1.00  0.00     0.031 C 
ATOM     39  C   UNL A   1      38.312  28.795  28.624  1.00  0.00     0.029 A 
ATOM     40  N   UNL A   1      39.854  30.026  29.677  1.00  0.00    -0.354 N 
ATOM     41  C   UNL A   1      43.848  28.548  30.319  1.00  0.00     0.074 A 
ATOM     42  C   UNL A   1      44.024  27.240  29.726  1.00  0.00     0.031 C 
ATOM     43  C   UNL A   1      37.726  29.944  28.998  1.00  0.00     0.029 A 
ATOM     44  C   UNL A   1      38.699  30.768  29.710  1.00  0.00     0.049 A 
ATOM     45  H   UNL A   1      40.703  30.333  30.069  1.00  0.00     0.167 HD
ATOM     46  C   UNL A   1      44.820  29.225  30.976  1.00  0.00     0.037 A 
ATOM     47  C   UNL A   1      38.448  31.972  30.259  1.00  0.00     0.037 A 
ATOM     48  C   UNL A   1      44.668  30.547  31.525  1.00  0.00     0.049 A 
ATOM     49  C   UNL A   1      39.554  32.715  30.959  1.00  0.00     0.074 A 
ATOM     50  C   UNL A   1      45.619  31.338  32.147  1.00  0.00     0.029 A 
ATOM     51  N   UNL A   1      43.490  31.277  31.507  1.00  0.00    -0.354 N 
ATOM     52  N   UNL A   1      40.797  32.353  31.157  1.00  0.00    -0.248 NA
ATOM     53  C   UNL A   1      39.220  34.037  31.510  1.00  0.00     0.031 C 
ATOM     54  C   UNL A   1      45.009  32.537  32.533  1.00  0.00     0.029 A 
ATOM     55  C   UNL A   1      43.687  32.505  32.120  1.00  0.00     0.049 A 
ATOM     56  H   UNL A   1      42.640  30.971  31.118  1.00  0.00     0.167 HD
ATOM     57  C   UNL A   1      41.398  33.407  31.832  1.00  0.00     0.074 A 
ATOM     58  C   UNL A   1      40.387  34.429  32.002  1.00  0.00     0.031 C 
ATOM     59  C   UNL A   1      42.674  33.516  32.273  1.00  0.00     0.037 A 
BRANCH  46  60
ATOM     60  C   UNL A   1      46.147  28.549  31.140  1.00  0.00     0.064 A 
ATOM     61  C   UNL A   1      46.341  27.533  32.088  1.00  0.00     0.173 A 
ATOM     62  C   UNL A   1      47.224  28.884  30.305  1.00  0.00     0.173 A 
ATOM     63  F   UNL A   1      45.344  27.185  32.916  1.00  0.00    -0.203 F 
ATOM     64  C   UNL A   1      47.572  26.894  32.210  1.00  0.00     0.198 A 
ATOM     65  C   UNL A   1      48.445  28.225  30.413  1.00  0.00     0.198 A 
ATOM     66  F   UNL A   1      47.087  29.842  29.377  1.00  0.00    -0.203 F 
ATOM     67  F   UNL A   1      47.746  25.952  33.147  1.00  0.00    -0.200 F 
ATOM     68  C   UNL A   1      48.621  27.234  31.368  1.00  0.00     0.200 A 
ATOM     69  F   UNL A   1      49.454  28.548  29.592  1.00  0.00    -0.200 F 
ATOM     70  F   UNL A   1      49.802  26.612  31.481  1.00  0.00    -0.200 F 
ENDBRANCH  46  60
BRANCH  47  71
ATOM     71  C   UNL A   1      37.092  32.564  30.153  1.00  0.00     0.064 A 
ATOM     72  C   UNL A   1      36.159  32.414  31.188  1.00  0.00     0.173 A 
ATOM     73  C   UNL A   1      36.699  33.285  29.016  1.00  0.00     0.173 A 
ATOM     74  F   UNL A   1      36.482  31.711  32.283  1.00  0.00    -0.203 F 
ATOM     75  C   UNL A   1      34.877  32.949  31.083  1.00  0.00     0.198 A 
ATOM     76  C   UNL A   1      35.424  33.838  28.922  1.00  0.00     0.198 A 
ATOM     77  F   UNL A   1      37.557  33.454  27.999  1.00  0.00    -0.203 F 
ATOM     78  F   UNL A   1      33.989  32.753  32.068  1.00  0.00    -0.200 F 
ATOM     79  C   UNL A   1      34.512  33.665  29.952  1.00  0.00     0.200 A 
ATOM     80  F   UNL A   1      35.077  34.534  27.830  1.00  0.00    -0.200 F 
ATOM     81  F   UNL A   1      33.278  34.176  29.850  1.00  0.00    -0.200 F 
ENDBRANCH  47  71
BRANCH  59  82
ATOM     82  C   UNL A   1      43.060  34.792  32.959  1.00  0.00     0.064 A 
ATOM     83  C   UNL A   1      43.566  35.884  32.239  1.00  0.00     0.173 A 
ATOM     84  C   UNL A   1      42.880  34.938  34.342  1.00  0.00     0.173 A 
ATOM     85  F   UNL A   1      43.769  35.786  30.917  1.00  0.00    -0.203 F 
ATOM     86  C   UNL A   1      43.895  37.073  32.886  1.00  0.00     0.198 A 
ATOM     87  C   UNL A   1      43.190  36.135  34.981  1.00  0.00     0.198 A 
ATOM     88  F   UNL A   1      42.394  33.923  35.072  1.00  0.00    -0.203 F 
ATOM     89  F   UNL A   1      44.409  38.093  32.185  1.00  0.00    -0.200 F 
ATOM     90  C   UNL A   1      43.701  37.200  34.253  1.00  0.00     0.200 A 
ATOM     91  F   UNL A   1      42.995  36.260  36.301  1.00  0.00    -0.200 F 
ATOM     92  F   UNL A   1      44.013  38.347  34.871  1.00  0.00    -0.200 F 
ENDBRANCH  59  82
ENDBRANCH  33  34
ENDBRANCH  25  28
ENDBRANCH  23  24
ENDBRANCH   1  23
TORSDOF 12
ENDMDL
