MODEL 1
REMARK VINA RESULT:     -12.1      0.000      0.000
REMARK SMILES COc1ccc(C(=O)N[C@@H](C(=O)NCCCNC(=O)c2ccc(-c3c4nc(c(-c5c(F)c(F)c(F)c(F)c5F)c5ccc([nH]5)c(-c5c(F)c(F)c(F)c(F)c5F)c5nc(c(-c6c(F)c(F)c(F)c(F)c6F)c6ccc3[nH]6)C=C5)C=C4)cc2)C(C)C)cc1O
REMARK SMILES IDX 14 1 13 2 11 3 12 4 10 6 9 7 7 8 8 9 6 11 3 12 4 13 87 14
REMARK SMILES IDX 5 15 86 16 2 17 1 18 88 19 83 21 84 22 85 23 15 24 16 25
REMARK SMILES IDX 17 26 18 27 19 29 20 30 21 31 82 32 22 33 81 34 23 35 24 36
REMARK SMILES IDX 25 37 75 38 26 39 80 40 74 41 76 42 27 43 79 44 73 45 72 46
REMARK SMILES IDX 28 48 60 49 40 50 59 51 41 52 44 53 58 54 77 55 42 56 43 57
REMARK SMILES IDX 57 59 78 60 45 61 29 62 30 63 38 64 31 65 32 66 36 67 39 68
REMARK SMILES IDX 33 69 34 70 37 71 35 72 61 73 62 74 70 75 63 76 64 77 68 78
REMARK SMILES IDX 71 79 65 80 66 81 69 82 67 83 46 84 47 85 55 86 48 87 49 88
REMARK SMILES IDX 53 89 56 90 50 91 51 92 54 93 52 94
REMARK H PARENT 13 5 9 10 88 20 17 28 76 47 44 58
REMARK Flexibility Score: inf
ROOT
ATOM      1  C   UNL A   1      31.523  30.614  25.793  1.00  0.00     0.117 C 
ENDROOT
BRANCH   1   2
ATOM      2  N   UNL A   1      31.394  29.510  26.725  1.00  0.00    -0.354 N 
ATOM      3  C   UNL A   1      31.668  28.184  26.524  1.00  0.00     0.242 C 
ATOM      4  O   UNL A   1      31.385  27.398  27.429  1.00  0.00    -0.273 OA
ATOM      5  H   UNL A   1      31.067  29.746  27.622  1.00  0.00     0.163 HD
BRANCH   3   6
ATOM      6  C   UNL A   1      32.338  27.746  25.197  1.00  0.00     0.174 C 
BRANCH   6   7
ATOM      7  N   UNL A   1      31.629  26.576  24.669  1.00  0.00    -0.340 N 
ATOM      8  C   UNL A   1      30.507  26.408  23.897  1.00  0.00     0.252 C 
ATOM      9  O   UNL A   1      30.176  25.248  23.643  1.00  0.00    -0.269 OA
ATOM     10  H   UNL A   1      32.051  25.723  24.922  1.00  0.00     0.164 HD
BRANCH   8  11
ATOM     11  C   UNL A   1      29.635  27.521  23.409  1.00  0.00     0.043 A 
ATOM     12  C   UNL A   1      28.145  29.691  22.337  1.00  0.00     0.160 A 
ATOM     13  C   UNL A   1      29.540  29.700  22.310  1.00  0.00     0.051 A 
ATOM     14  C   UNL A   1      27.510  28.617  22.958  1.00  0.00     0.158 A 
ATOM     15  C   UNL A   1      30.277  28.627  22.831  1.00  0.00     0.018 A 
ATOM     16  C   UNL A   1      28.245  27.558  23.504  1.00  0.00     0.064 A 
BRANCH  12  17
ATOM     17  O   UNL A   1      27.560  30.796  21.789  1.00  0.00    -0.493 OA
ATOM     18  C   UNL A   1      28.334  31.583  20.893  1.00  0.00     0.278 C 
ENDBRANCH  12  17
BRANCH  14  19
ATOM     19  O   UNL A   1      26.158  28.530  23.136  1.00  0.00    -0.504 OA
ATOM     20  H   UNL A   1      25.663  29.299  23.341  1.00  0.00     0.293 HD
ENDBRANCH  14  19
ENDBRANCH   8  11
ENDBRANCH   6   7
BRANCH   6  21
ATOM     21  C   UNL A   1      33.847  27.443  25.396  1.00  0.00     0.015 C 
ATOM     22  C   UNL A   1      34.510  28.275  26.502  1.00  0.00     0.010 C 
ATOM     23  C   UNL A   1      34.048  25.955  25.705  1.00  0.00     0.010 C 
ENDBRANCH   6  21
ENDBRANCH   3   6
ENDBRANCH   1   2
BRANCH   1  24
ATOM     24  C   UNL A   1      31.346  31.956  26.495  1.00  0.00     0.042 C 
BRANCH  24  25
ATOM     25  C   UNL A   1      32.648  32.500  27.071  1.00  0.00     0.118 C 
BRANCH  25  26
ATOM     26  N   UNL A   1      32.496  33.845  27.607  1.00  0.00    -0.352 N 
ATOM     27  C   UNL A   1      33.190  34.478  28.601  1.00  0.00     0.251 C 
ATOM     28  H   UNL A   1      31.784  34.382  27.189  1.00  0.00     0.163 HD
ATOM     29  O   UNL A   1      32.796  35.571  29.013  1.00  0.00    -0.269 OA
BRANCH  27  30
ATOM     30  C   UNL A   1      34.391  33.861  29.202  1.00  0.00     0.039 A 
ATOM     31  C   UNL A   1      34.213  32.840  30.139  1.00  0.00     0.014 A 
ATOM     32  C   UNL A   1      35.678  34.304  28.887  1.00  0.00     0.014 A 
ATOM     33  C   UNL A   1      35.324  32.242  30.735  1.00  0.00     0.010 A 
ATOM     34  C   UNL A   1      36.788  33.656  29.424  1.00  0.00     0.010 A 
ATOM     35  C   UNL A   1      36.621  32.632  30.367  1.00  0.00    -0.014 A 
BRANCH  35  36
ATOM     36  C   UNL A   1      37.806  31.986  30.981  1.00  0.00     0.031 A 
ATOM     37  C   UNL A   1      38.239  32.360  32.371  1.00  0.00     0.074 A 
ATOM     38  C   UNL A   1      38.511  31.085  30.271  1.00  0.00     0.049 A 
ATOM     39  N   UNL A   1      39.237  31.896  33.080  1.00  0.00    -0.248 NA
ATOM     40  C   UNL A   1      37.465  33.414  33.046  1.00  0.00     0.031 C 
ATOM     41  C   UNL A   1      38.221  30.684  28.894  1.00  0.00     0.029 A 
ATOM     42  N   UNL A   1      39.613  30.341  30.610  1.00  0.00    -0.354 N 
ATOM     43  C   UNL A   1      39.221  32.612  34.270  1.00  0.00     0.074 A 
ATOM     44  C   UNL A   1      38.149  33.578  34.168  1.00  0.00     0.031 C 
ATOM     45  C   UNL A   1      39.098  29.738  28.519  1.00  0.00     0.029 A 
ATOM     46  C   UNL A   1      40.026  29.488  29.617  1.00  0.00     0.049 A 
ATOM     47  H   UNL A   1      40.064  30.414  31.482  1.00  0.00     0.167 HD
ATOM     48  C   UNL A   1      40.015  32.462  35.357  1.00  0.00     0.037 A 
ATOM     49  C   UNL A   1      41.034  28.596  29.602  1.00  0.00     0.037 A 
ATOM     50  C   UNL A   1      41.055  31.473  35.466  1.00  0.00     0.049 A 
ATOM     51  C   UNL A   1      41.887  28.434  30.831  1.00  0.00     0.074 A 
ATOM     52  C   UNL A   1      41.857  31.179  36.554  1.00  0.00     0.029 A 
ATOM     53  N   UNL A   1      41.437  30.616  34.443  1.00  0.00    -0.354 N 
ATOM     54  N   UNL A   1      41.804  29.051  31.984  1.00  0.00    -0.248 NA
ATOM     55  C   UNL A   1      42.969  27.443  30.757  1.00  0.00     0.031 C 
ATOM     56  C   UNL A   1      42.757  30.177  36.175  1.00  0.00     0.029 A 
ATOM     57  C   UNL A   1      42.482  29.811  34.868  1.00  0.00     0.049 A 
ATOM     58  H   UNL A   1      41.026  30.585  33.549  1.00  0.00     0.167 HD
ATOM     59  C   UNL A   1      42.796  28.501  32.783  1.00  0.00     0.074 A 
ATOM     60  C   UNL A   1      43.464  27.494  31.985  1.00  0.00     0.031 C 
ATOM     61  C   UNL A   1      43.124  28.803  34.063  1.00  0.00     0.037 A 
BRANCH  48  62
ATOM     62  C   UNL A   1      39.789  33.388  36.517  1.00  0.00     0.064 A 
ATOM     63  C   UNL A   1      40.477  34.606  36.635  1.00  0.00     0.173 A 
ATOM     64  C   UNL A   1      38.851  33.067  37.510  1.00  0.00     0.173 A 
ATOM     65  F   UNL A   1      41.393  34.956  35.718  1.00  0.00    -0.203 F 
ATOM     66  C   UNL A   1      40.258  35.451  37.720  1.00  0.00     0.198 A 
ATOM     67  C   UNL A   1      38.612  33.930  38.577  1.00  0.00     0.198 A 
ATOM     68  F   UNL A   1      38.160  31.919  37.442  1.00  0.00    -0.203 F 
ATOM     69  F   UNL A   1      40.965  36.583  37.839  1.00  0.00    -0.200 F 
ATOM     70  C   UNL A   1      39.322  35.115  38.685  1.00  0.00     0.200 A 
ATOM     71  F   UNL A   1      37.698  33.610  39.503  1.00  0.00    -0.200 F 
ATOM     72  F   UNL A   1      39.109  35.932  39.727  1.00  0.00    -0.200 F 
ENDBRANCH  48  62
BRANCH  49  73
ATOM     73  C   UNL A   1      41.253  27.747  28.403  1.00  0.00     0.064 A 
ATOM     74  C   UNL A   1      40.540  26.552  28.233  1.00  0.00     0.173 A 
ATOM     75  C   UNL A   1      42.167  28.111  27.404  1.00  0.00     0.173 A 
ATOM     76  F   UNL A   1      39.669  26.155  29.171  1.00  0.00    -0.203 F 
ATOM     77  C   UNL A   1      40.746  25.745  27.118  1.00  0.00     0.198 A 
ATOM     78  C   UNL A   1      42.353  27.314  26.276  1.00  0.00     0.198 A 
ATOM     79  F   UNL A   1      42.870  29.249  27.518  1.00  0.00    -0.203 F 
ATOM     80  F   UNL A   1      40.081  24.587  27.000  1.00  0.00    -0.200 F 
ATOM     81  C   UNL A   1      41.649  26.128  26.137  1.00  0.00     0.200 A 
ATOM     82  F   UNL A   1      43.217  27.696  25.325  1.00  0.00    -0.200 F 
ATOM     83  F   UNL A   1      41.842  25.353  25.062  1.00  0.00    -0.200 F 
ENDBRANCH  49  73
BRANCH  61  84
ATOM     84  C   UNL A   1      44.227  28.006  34.695  1.00  0.00     0.064 A 
ATOM     85  C   UNL A   1      45.560  28.444  34.672  1.00  0.00     0.173 A 
ATOM     86  C   UNL A   1      43.938  26.809  35.367  1.00  0.00     0.173 A 
ATOM     87  F   UNL A   1      45.887  29.574  34.029  1.00  0.00    -0.203 F 
ATOM     88  C   UNL A   1      46.567  27.698  35.278  1.00  0.00     0.198 A 
ATOM     89  C   UNL A   1      44.944  26.081  35.997  1.00  0.00     0.198 A 
ATOM     90  F   UNL A   1      42.680  26.350  35.424  1.00  0.00    -0.203 F 
ATOM     91  F   UNL A   1      47.840  28.110  35.204  1.00  0.00    -0.200 F 
ATOM     92  C   UNL A   1      46.258  26.522  35.946  1.00  0.00     0.200 A 
ATOM     93  F   UNL A   1      44.642  24.953  36.653  1.00  0.00    -0.200 F 
ATOM     94  F   UNL A   1      47.228  25.809  36.534  1.00  0.00    -0.200 F 
ENDBRANCH  61  84
ENDBRANCH  35  36
ENDBRANCH  27  30
ENDBRANCH  25  26
ENDBRANCH  24  25
ENDBRANCH   1  24
TORSDOF 15
ENDMDL
MODEL 2
REMARK VINA RESULT:     -11.9      1.812      2.507
REMARK SMILES COc1ccc(C(=O)N[C@@H](C(=O)NCCCNC(=O)c2ccc(-c3c4nc(c(-c5c(F)c(F)c(F)c(F)c5F)c5ccc([nH]5)c(-c5c(F)c(F)c(F)c(F)c5F)c5nc(c(-c6c(F)c(F)c(F)c(F)c6F)c6ccc3[nH]6)C=C5)C=C4)cc2)C(C)C)cc1O
REMARK SMILES IDX 14 1 13 2 11 3 12 4 10 6 9 7 7 8 8 9 6 11 3 12 4 13 87 14
REMARK SMILES IDX 5 15 86 16 2 17 1 18 88 19 83 21 84 22 85 23 15 24 16 25
REMARK SMILES IDX 17 26 18 27 19 29 20 30 21 31 82 32 22 33 81 34 23 35 24 36
REMARK SMILES IDX 25 37 75 38 26 39 80 40 74 41 76 42 27 43 79 44 73 45 72 46
REMARK SMILES IDX 28 48 60 49 40 50 59 51 41 52 44 53 58 54 77 55 42 56 43 57
REMARK SMILES IDX 57 59 78 60 45 61 29 62 30 63 38 64 31 65 32 66 36 67 39 68
REMARK SMILES IDX 33 69 34 70 37 71 35 72 61 73 62 74 70 75 63 76 64 77 68 78
REMARK SMILES IDX 71 79 65 80 66 81 69 82 67 83 46 84 47 85 55 86 48 87 49 88
REMARK SMILES IDX 53 89 56 90 50 91 51 92 54 93 52 94
REMARK H PARENT 13 5 9 10 88 20 17 28 76 47 44 58
REMARK Flexibility Score: inf
ROOT
ATOM      1  C   UNL A   1      32.096  28.040  26.542  1.00  0.00     0.117 C 
ENDROOT
BRANCH   1   2
ATOM      2  N   UNL A   1      31.648  26.721  26.945  1.00  0.00    -0.354 N 
ATOM      3  C   UNL A   1      30.928  25.804  26.227  1.00  0.00     0.242 C 
ATOM      4  O   UNL A   1      30.566  24.780  26.806  1.00  0.00    -0.273 OA
ATOM      5  H   UNL A   1      31.896  26.447  27.857  1.00  0.00     0.163 HD
BRANCH   3   6
ATOM      6  C   UNL A   1      30.634  26.083  24.731  1.00  0.00     0.174 C 
BRANCH   6   7
ATOM      7  N   UNL A   1      29.192  25.952  24.497  1.00  0.00    -0.340 N 
ATOM      8  C   UNL A   1      28.252  26.734  23.875  1.00  0.00     0.252 C 
ATOM      9  O   UNL A   1      27.093  26.313  23.873  1.00  0.00    -0.269 OA
ATOM     10  H   UNL A   1      28.815  25.121  24.866  1.00  0.00     0.164 HD
BRANCH   8  11
ATOM     11  C   UNL A   1      28.525  28.074  23.269  1.00  0.00     0.043 A 
ATOM     12  C   UNL A   1      28.880  30.704  22.251  1.00  0.00     0.160 A 
ATOM     13  C   UNL A   1      27.649  30.298  22.769  1.00  0.00     0.051 A 
ATOM     14  C   UNL A   1      29.906  29.763  22.192  1.00  0.00     0.158 A 
ATOM     15  C   UNL A   1      27.474  29.004  23.279  1.00  0.00     0.018 A 
ATOM     16  C   UNL A   1      29.724  28.462  22.676  1.00  0.00     0.064 A 
BRANCH  12  17
ATOM     17  O   UNL A   1      28.907  31.990  21.795  1.00  0.00    -0.493 OA
ATOM     18  C   UNL A   1      28.778  33.036  22.750  1.00  0.00     0.278 C 
ENDBRANCH  12  17
BRANCH  14  19
ATOM     19  O   UNL A   1      31.126  30.001  21.625  1.00  0.00    -0.504 OA
ATOM     20  H   UNL A   1      31.268  30.786  21.133  1.00  0.00     0.293 HD
ENDBRANCH  14  19
ENDBRANCH   8  11
ENDBRANCH   6   7
BRANCH   6  21
ATOM     21  C   UNL A   1      31.439  25.131  23.807  1.00  0.00     0.015 C 
ATOM     22  C   UNL A   1      30.594  24.022  23.166  1.00  0.00     0.010 C 
ATOM     23  C   UNL A   1      32.127  25.935  22.697  1.00  0.00     0.010 C 
ENDBRANCH   6  21
ENDBRANCH   3   6
ENDBRANCH   1   2
BRANCH   1  24
ATOM     24  C   UNL A   1      33.506  27.996  25.965  1.00  0.00     0.042 C 
BRANCH  24  25
ATOM     25  C   UNL A   1      33.896  29.287  25.254  1.00  0.00     0.118 C 
BRANCH  25  26
ATOM     26  N   UNL A   1      33.279  30.459  25.861  1.00  0.00    -0.352 N 
ATOM     27  C   UNL A   1      33.611  31.133  27.004  1.00  0.00     0.251 C 
ATOM     28  H   UNL A   1      32.504  30.821  25.374  1.00  0.00     0.163 HD
ATOM     29  O   UNL A   1      32.858  32.011  27.428  1.00  0.00    -0.269 OA
BRANCH  27  30
ATOM     30  C   UNL A   1      34.847  30.809  27.745  1.00  0.00     0.039 A 
ATOM     31  C   UNL A   1      34.861  29.658  28.540  1.00  0.00     0.014 A 
ATOM     32  C   UNL A   1      35.968  31.642  27.703  1.00  0.00     0.014 A 
ATOM     33  C   UNL A   1      36.008  29.328  29.263  1.00  0.00     0.010 A 
ATOM     34  C   UNL A   1      37.136  31.271  28.364  1.00  0.00     0.010 A 
ATOM     35  C   UNL A   1      37.161  30.121  29.165  1.00  0.00    -0.014 A 
BRANCH  35  36
ATOM     36  C   UNL A   1      38.389  29.763  29.914  1.00  0.00     0.031 A 
ATOM     37  C   UNL A   1      38.621  30.308  31.296  1.00  0.00     0.074 A 
ATOM     38  C   UNL A   1      39.311  28.971  29.335  1.00  0.00     0.049 A 
ATOM     39  N   UNL A   1      39.623  30.098  32.112  1.00  0.00    -0.248 NA
ATOM     40  C   UNL A   1      37.606  31.234  31.823  1.00  0.00     0.031 C 
ATOM     41  C   UNL A   1      39.224  28.428  27.979  1.00  0.00     0.029 A 
ATOM     42  N   UNL A   1      40.500  28.482  29.814  1.00  0.00    -0.354 N 
ATOM     43  C   UNL A   1      39.369  30.876  33.233  1.00  0.00     0.074 A 
ATOM     44  C   UNL A   1      38.146  31.604  32.974  1.00  0.00     0.031 C 
ATOM     45  C   UNL A   1      40.293  27.649  27.749  1.00  0.00     0.029 A 
ATOM     46  C   UNL A   1      41.153  27.661  28.928  1.00  0.00     0.049 A 
ATOM     47  H   UNL A   1      40.852  28.701  30.706  1.00  0.00     0.167 HD
ATOM     48  C   UNL A   1      40.080  30.959  34.383  1.00  0.00     0.037 A 
ATOM     49  C   UNL A   1      42.309  26.985  29.060  1.00  0.00     0.037 A 
ATOM     50  C   UNL A   1      41.275  30.202  34.649  1.00  0.00     0.049 A 
ATOM     51  C   UNL A   1      43.067  27.077  30.356  1.00  0.00     0.074 A 
ATOM     52  C   UNL A   1      42.021  30.146  35.813  1.00  0.00     0.029 A 
ATOM     53  N   UNL A   1      41.900  29.369  33.732  1.00  0.00    -0.354 N 
ATOM     54  N   UNL A   1      42.769  27.742  31.444  1.00  0.00    -0.248 NA
ATOM     55  C   UNL A   1      44.320  26.314  30.443  1.00  0.00     0.031 C 
ATOM     56  C   UNL A   1      43.124  29.316  35.585  1.00  0.00     0.029 A 
ATOM     57  C   UNL A   1      43.037  28.815  34.296  1.00  0.00     0.049 A 
ATOM     58  H   UNL A   1      41.581  29.198  32.816  1.00  0.00     0.167 HD
ATOM     59  C   UNL A   1      43.774  27.454  32.356  1.00  0.00     0.074 A 
ATOM     60  C   UNL A   1      44.688  26.544  31.696  1.00  0.00     0.031 C 
ATOM     61  C   UNL A   1      43.927  27.900  33.627  1.00  0.00     0.037 A 
BRANCH  48  62
ATOM     62  C   UNL A   1      39.582  31.900  35.442  1.00  0.00     0.064 A 
ATOM     63  C   UNL A   1      40.034  33.226  35.524  1.00  0.00     0.173 A 
ATOM     64  C   UNL A   1      38.618  31.478  36.371  1.00  0.00     0.173 A 
ATOM     65  F   UNL A   1      40.963  33.677  34.666  1.00  0.00    -0.203 F 
ATOM     66  C   UNL A   1      39.565  34.084  36.515  1.00  0.00     0.198 A 
ATOM     67  C   UNL A   1      38.129  32.349  37.342  1.00  0.00     0.198 A 
ATOM     68  F   UNL A   1      38.147  30.222  36.334  1.00  0.00    -0.203 F 
ATOM     69  F   UNL A   1      40.051  35.330  36.606  1.00  0.00    -0.200 F 
ATOM     70  C   UNL A   1      38.609  33.646  37.419  1.00  0.00     0.200 A 
ATOM     71  F   UNL A   1      37.196  31.928  38.207  1.00  0.00    -0.200 F 
ATOM     72  F   UNL A   1      38.155  34.475  38.370  1.00  0.00    -0.200 F 
ENDBRANCH  48  62
BRANCH  49  73
ATOM     73  C   UNL A   1      42.789  26.115  27.955  1.00  0.00     0.064 A 
ATOM     74  C   UNL A   1      42.341  24.792  27.841  1.00  0.00     0.173 A 
ATOM     75  C   UNL A   1      43.691  26.586  26.991  1.00  0.00     0.173 A 
ATOM     76  F   UNL A   1      41.492  24.293  28.751  1.00  0.00    -0.203 F 
ATOM     77  C   UNL A   1      42.793  23.966  26.815  1.00  0.00     0.198 A 
ATOM     78  C   UNL A   1      44.122  25.766  25.950  1.00  0.00     0.198 A 
ATOM     79  F   UNL A   1      44.144  27.848  27.053  1.00  0.00    -0.203 F 
ATOM     80  F   UNL A   1      42.381  22.692  26.753  1.00  0.00    -0.200 F 
ATOM     81  C   UNL A   1      43.679  24.455  25.867  1.00  0.00     0.200 A 
ATOM     82  F   UNL A   1      44.968  26.247  25.028  1.00  0.00    -0.200 F 
ATOM     83  F   UNL A   1      44.109  23.661  24.877  1.00  0.00    -0.200 F 
ENDBRANCH  49  73
BRANCH  61  84
ATOM     84  C   UNL A   1      45.102  27.379  34.401  1.00  0.00     0.064 A 
ATOM     85  C   UNL A   1      46.328  28.060  34.425  1.00  0.00     0.173 A 
ATOM     86  C   UNL A   1      44.984  26.205  35.161  1.00  0.00     0.173 A 
ATOM     87  F   UNL A   1      46.494  29.177  33.704  1.00  0.00    -0.203 F 
ATOM     88  C   UNL A   1      47.402  27.568  35.163  1.00  0.00     0.198 A 
ATOM     89  C   UNL A   1      46.051  25.734  35.920  1.00  0.00     0.198 A 
ATOM     90  F   UNL A   1      43.830  25.522  35.177  1.00  0.00    -0.203 F 
ATOM     91  F   UNL A   1      48.579  28.208  35.135  1.00  0.00    -0.200 F 
ATOM     92  C   UNL A   1      47.261  26.411  35.915  1.00  0.00     0.200 A 
ATOM     93  F   UNL A   1      45.908  24.624  36.656  1.00  0.00    -0.200 F 
ATOM     94  F   UNL A   1      48.294  25.945  36.629  1.00  0.00    -0.200 F 
ENDBRANCH  61  84
ENDBRANCH  35  36
ENDBRANCH  27  30
ENDBRANCH  25  26
ENDBRANCH  24  25
ENDBRANCH   1  24
TORSDOF 15
ENDMDL
MODEL 3
REMARK VINA RESULT:     -11.8      5.483     10.901
REMARK SMILES COc1ccc(C(=O)N[C@@H](C(=O)NCCCNC(=O)c2ccc(-c3c4nc(c(-c5c(F)c(F)c(F)c(F)c5F)c5ccc([nH]5)c(-c5c(F)c(F)c(F)c(F)c5F)c5nc(c(-c6c(F)c(F)c(F)c(F)c6F)c6ccc3[nH]6)C=C5)C=C4)cc2)C(C)C)cc1O
REMARK SMILES IDX 14 1 13 2 11 3 12 4 10 6 9 7 7 8 8 9 6 11 3 12 4 13 87 14
REMARK SMILES IDX 5 15 86 16 2 17 1 18 88 19 83 21 84 22 85 23 15 24 16 25
REMARK SMILES IDX 17 26 18 27 19 29 20 30 21 31 82 32 22 33 81 34 23 35 24 36
REMARK SMILES IDX 25 37 75 38 26 39 80 40 74 41 76 42 27 43 79 44 73 45 72 46
REMARK SMILES IDX 28 48 60 49 40 50 59 51 41 52 44 53 58 54 77 55 42 56 43 57
REMARK SMILES IDX 57 59 78 60 45 61 29 62 30 63 38 64 31 65 32 66 36 67 39 68
REMARK SMILES IDX 33 69 34 70 37 71 35 72 61 73 62 74 70 75 63 76 64 77 68 78
REMARK SMILES IDX 71 79 65 80 66 81 69 82 67 83 46 84 47 85 55 86 48 87 49 88
REMARK SMILES IDX 53 89 56 90 50 91 51 92 54 93 52 94
REMARK H PARENT 13 5 9 10 88 20 17 28 76 47 44 58
REMARK Flexibility Score: inf
ROOT
ATOM      1  C   UNL A   1      35.325  23.033  25.622  1.00  0.00     0.117 C 
ENDROOT
BRANCH   1   2
ATOM      2  N   UNL A   1      35.119  23.734  24.370  1.00  0.00    -0.354 N 
ATOM      3  C   UNL A   1      34.070  23.636  23.496  1.00  0.00     0.242 C 
ATOM      4  O   UNL A   1      34.151  24.252  22.433  1.00  0.00    -0.273 OA
ATOM      5  H   UNL A   1      35.829  24.365  24.114  1.00  0.00     0.163 HD
BRANCH   3   6
ATOM      6  C   UNL A   1      32.835  22.788  23.894  1.00  0.00     0.174 C 
BRANCH   6   7
ATOM      7  N   UNL A   1      32.350  22.068  22.712  1.00  0.00    -0.340 N 
ATOM      8  C   UNL A   1      32.153  20.743  22.417  1.00  0.00     0.252 C 
ATOM      9  O   UNL A   1      31.732  20.482  21.289  1.00  0.00    -0.269 OA
ATOM     10  H   UNL A   1      32.112  22.666  21.967  1.00  0.00     0.164 HD
BRANCH   8  11
ATOM     11  C   UNL A   1      32.474  19.609  23.338  1.00  0.00     0.043 A 
ATOM     12  C   UNL A   1      33.195  17.355  24.913  1.00  0.00     0.160 A 
ATOM     13  C   UNL A   1      33.062  17.246  23.528  1.00  0.00     0.051 A 
ATOM     14  C   UNL A   1      32.904  18.584  25.503  1.00  0.00     0.158 A 
ATOM     15  C   UNL A   1      32.715  18.358  22.748  1.00  0.00     0.018 A 
ATOM     16  C   UNL A   1      32.529  19.688  24.728  1.00  0.00     0.064 A 
BRANCH  12  17
ATOM     17  O   UNL A   1      33.543  16.195  25.542  1.00  0.00    -0.493 OA
ATOM     18  C   UNL A   1      32.528  15.221  25.752  1.00  0.00     0.278 C 
ENDBRANCH  12  17
BRANCH  14  19
ATOM     19  O   UNL A   1      32.903  18.800  26.851  1.00  0.00    -0.504 OA
ATOM     20  H   UNL A   1      32.750  19.661  27.187  1.00  0.00     0.293 HD
ENDBRANCH  14  19
ENDBRANCH   8  11
ENDBRANCH   6   7
BRANCH   6  21
ATOM     21  C   UNL A   1      31.716  23.670  24.510  1.00  0.00     0.015 C 
ATOM     22  C   UNL A   1      30.653  24.123  23.501  1.00  0.00     0.010 C 
ATOM     23  C   UNL A   1      31.026  22.919  25.655  1.00  0.00     0.010 C 
ENDBRANCH   6  21
ENDBRANCH   3   6
ENDBRANCH   1   2
BRANCH   1  24
ATOM     24  C   UNL A   1      36.020  21.694  25.402  1.00  0.00     0.042 C 
BRANCH  24  25
ATOM     25  C   UNL A   1      37.503  21.843  25.077  1.00  0.00     0.118 C 
BRANCH  25  26
ATOM     26  N   UNL A   1      38.319  20.845  25.754  1.00  0.00    -0.352 N 
ATOM     27  C   UNL A   1      39.489  20.990  26.447  1.00  0.00     0.251 C 
ATOM     28  H   UNL A   1      37.975  19.923  25.706  1.00  0.00     0.163 HD
ATOM     29  O   UNL A   1      40.106  19.987  26.811  1.00  0.00    -0.269 OA
BRANCH  27  30
ATOM     30  C   UNL A   1      40.034  22.331  26.745  1.00  0.00     0.039 A 
ATOM     31  C   UNL A   1      41.097  22.429  27.647  1.00  0.00     0.014 A 
ATOM     32  C   UNL A   1      39.484  23.487  26.185  1.00  0.00     0.014 A 
ATOM     33  C   UNL A   1      41.629  23.680  27.961  1.00  0.00     0.010 A 
ATOM     34  C   UNL A   1      40.064  24.728  26.440  1.00  0.00     0.010 A 
ATOM     35  C   UNL A   1      41.129  24.838  27.344  1.00  0.00    -0.014 A 
BRANCH  35  36
ATOM     36  C   UNL A   1      41.704  26.168  27.658  1.00  0.00     0.031 A 
ATOM     37  C   UNL A   1      43.080  26.533  27.173  1.00  0.00     0.074 A 
ATOM     38  C   UNL A   1      40.999  27.033  28.411  1.00  0.00     0.049 A 
ATOM     39  N   UNL A   1      43.745  27.649  27.334  1.00  0.00    -0.248 NA
ATOM     40  C   UNL A   1      43.817  25.500  26.429  1.00  0.00     0.031 C 
ATOM     41  C   UNL A   1      39.680  26.769  28.986  1.00  0.00     0.029 A 
ATOM     42  N   UNL A   1      41.291  28.311  28.818  1.00  0.00    -0.354 N 
ATOM     43  C   UNL A   1      44.979  27.445  26.732  1.00  0.00     0.074 A 
ATOM     44  C   UNL A   1      44.993  26.082  26.248  1.00  0.00     0.031 C 
ATOM     45  C   UNL A   1      39.259  27.865  29.638  1.00  0.00     0.029 A 
ATOM     46  C   UNL A   1      40.288  28.896  29.551  1.00  0.00     0.049 A 
ATOM     47  H   UNL A   1      42.139  28.763  28.605  1.00  0.00     0.167 HD
ATOM     48  C   UNL A   1      46.000  28.322  26.578  1.00  0.00     0.037 A 
ATOM     49  C   UNL A   1      40.206  30.130  30.081  1.00  0.00     0.037 A 
ATOM     50  C   UNL A   1      45.964  29.689  27.028  1.00  0.00     0.049 A 
ATOM     51  C   UNL A   1      41.345  31.092  29.876  1.00  0.00     0.074 A 
ATOM     52  C   UNL A   1      46.907  30.684  26.845  1.00  0.00     0.029 A 
ATOM     53  N   UNL A   1      44.925  30.251  27.756  1.00  0.00    -0.354 N 
ATOM     54  N   UNL A   1      42.468  30.918  29.224  1.00  0.00    -0.248 NA
ATOM     55  C   UNL A   1      41.197  32.426  30.474  1.00  0.00     0.031 C 
ATOM     56  C   UNL A   1      46.461  31.835  27.502  1.00  0.00     0.029 A 
ATOM     57  C   UNL A   1      45.216  31.573  28.052  1.00  0.00     0.049 A 
ATOM     58  H   UNL A   1      44.102  29.780  28.022  1.00  0.00     0.167 HD
ATOM     59  C   UNL A   1      43.146  32.127  29.303  1.00  0.00     0.074 A 
ATOM     60  C   UNL A   1      42.302  33.029  30.059  1.00  0.00     0.031 C 
ATOM     61  C   UNL A   1      44.358  32.460  28.794  1.00  0.00     0.037 A 
BRANCH  48  62
ATOM     62  C   UNL A   1      47.241  27.831  25.892  1.00  0.00     0.064 A 
ATOM     63  C   UNL A   1      48.354  27.376  26.616  1.00  0.00     0.173 A 
ATOM     64  C   UNL A   1      47.309  27.787  24.491  1.00  0.00     0.173 A 
ATOM     65  F   UNL A   1      48.346  27.407  27.958  1.00  0.00    -0.203 F 
ATOM     66  C   UNL A   1      49.500  26.928  25.964  1.00  0.00     0.198 A 
ATOM     67  C   UNL A   1      48.445  27.308  23.842  1.00  0.00     0.198 A 
ATOM     68  F   UNL A   1      46.271  28.203  23.750  1.00  0.00    -0.203 F 
ATOM     69  F   UNL A   1      50.570  26.549  26.676  1.00  0.00    -0.200 F 
ATOM     70  C   UNL A   1      49.542  26.888  24.578  1.00  0.00     0.200 A 
ATOM     71  F   UNL A   1      48.479  27.259  22.504  1.00  0.00    -0.200 F 
ATOM     72  F   UNL A   1      50.643  26.452  23.952  1.00  0.00    -0.200 F 
ENDBRANCH  48  62
BRANCH  49  73
ATOM     73  C   UNL A   1      38.978  30.545  30.805  1.00  0.00     0.064 A 
ATOM     74  C   UNL A   1      37.881  31.072  30.109  1.00  0.00     0.173 A 
ATOM     75  C   UNL A   1      38.869  30.418  32.197  1.00  0.00     0.173 A 
ATOM     76  F   UNL A   1      37.947  31.230  28.779  1.00  0.00    -0.203 F 
ATOM     77  C   UNL A   1      36.729  31.473  30.780  1.00  0.00     0.198 A 
ATOM     78  C   UNL A   1      37.706  30.796  32.864  1.00  0.00     0.198 A 
ATOM     79  F   UNL A   1      39.889  29.913  32.908  1.00  0.00    -0.203 F 
ATOM     80  F   UNL A   1      35.711  32.013  30.095  1.00  0.00    -0.200 F 
ATOM     81  C   UNL A   1      36.640  31.330  32.157  1.00  0.00     0.200 A 
ATOM     82  F   UNL A   1      37.619  30.643  34.193  1.00  0.00    -0.200 F 
ATOM     83  F   UNL A   1      35.528  31.712  32.801  1.00  0.00    -0.200 F 
ENDBRANCH  49  73
BRANCH  61  84
ATOM     84  C   UNL A   1      44.825  33.870  29.001  1.00  0.00     0.064 A 
ATOM     85  C   UNL A   1      44.493  34.896  28.103  1.00  0.00     0.173 A 
ATOM     86  C   UNL A   1      45.580  34.206  30.135  1.00  0.00     0.173 A 
ATOM     87  F   UNL A   1      43.786  34.621  26.997  1.00  0.00    -0.203 F 
ATOM     88  C   UNL A   1      44.924  36.202  28.320  1.00  0.00     0.198 A 
ATOM     89  C   UNL A   1      45.983  35.518  30.363  1.00  0.00     0.198 A 
ATOM     90  F   UNL A   1      45.918  33.264  31.027  1.00  0.00    -0.203 F 
ATOM     91  F   UNL A   1      44.636  37.157  27.426  1.00  0.00    -0.200 F 
ATOM     92  C   UNL A   1      45.661  36.513  29.453  1.00  0.00     0.200 A 
ATOM     93  F   UNL A   1      46.684  35.820  31.465  1.00  0.00    -0.200 F 
ATOM     94  F   UNL A   1      46.068  37.772  29.663  1.00  0.00    -0.200 F 
ENDBRANCH  61  84
ENDBRANCH  35  36
ENDBRANCH  27  30
ENDBRANCH  25  26
ENDBRANCH  24  25
ENDBRANCH   1  24
TORSDOF 15
ENDMDL
