MODEL 1
REMARK VINA RESULT:     -14.4      0.000      0.000
REMARK SMILES O=C(NCCCNC(=O)[C@H]1[C@H]2CC[C@H](CC2)[C@H]1C(=O)Nc1ccc(C(=O)N2CCCC2)cc1)c1ccc(-c2c3nc(c(-c4c(F)c(F)c(F)c(F)c4F)c4ccc([nH]4)c(-c4c(F)c(F)c(F)c(F)c4F)c4nc(c(-c5c(F)c(F)c(F)c(F)c5F)c5ccc2[nH]5)C=C4)C=C3)cc1
REMARK SMILES IDX 5 1 4 2 3 3 1 4 2 5 34 7 35 8 96 9 36 10 95 11 37 12 38 13
REMARK SMILES IDX 39 14 89 15 40 16 94 17 88 18 90 19 41 20 93 21 87 22 86 23
REMARK SMILES IDX 42 25 74 26 54 27 73 28 55 29 58 30 72 31 91 32 56 33 57 34
REMARK SMILES IDX 71 36 92 37 59 38 43 39 44 40 52 41 45 42 46 43 50 44 53 45
REMARK SMILES IDX 47 46 48 47 51 48 49 49 75 50 76 51 84 52 77 53 78 54 82 55
REMARK SMILES IDX 85 56 79 57 80 58 83 59 81 60 60 61 61 62 69 63 62 64 63 65
REMARK SMILES IDX 67 66 70 67 64 68 65 69 68 70 66 71 6 72 7 73 8 74 9 76
REMARK SMILES IDX 10 77 11 78 17 79 16 80 12 81 14 82 15 83 13 84 18 85 19 86
REMARK SMILES IDX 20 87 21 89 22 90 33 91 23 92 32 93 24 94 25 95 26 96 27 97
REMARK SMILES IDX 28 98 31 99 29 100 30 101
REMARK H PARENT 3 6 90 24 58 35 7 75 20 88
REMARK Flexibility Score: inf
ROOT
ATOM      1  C   UNL A   1      31.601  28.435  25.847  1.00  0.00     0.042 C 
ENDROOT
BRANCH   1   2
ATOM      2  C   UNL A   1      32.777  29.383  25.613  1.00  0.00     0.118 C 
BRANCH   2   3
ATOM      3  N   UNL A   1      32.530  30.703  26.168  1.00  0.00    -0.352 N 
ATOM      4  O   UNL A   1      32.642  32.413  27.606  1.00  0.00    -0.269 OA
ATOM      5  C   UNL A   1      33.191  31.419  27.135  1.00  0.00     0.251 C 
ATOM      6  H   UNL A   1      31.749  31.165  25.783  1.00  0.00     0.163 HD
BRANCH   5   7
ATOM      7  C   UNL A   1      34.542  31.045  27.626  1.00  0.00     0.039 A 
ATOM      8  C   UNL A   1      35.529  31.996  27.894  1.00  0.00     0.014 A 
ATOM      9  C   UNL A   1      34.771  29.708  27.984  1.00  0.00     0.014 A 
ATOM     10  C   UNL A   1      36.753  31.607  28.447  1.00  0.00     0.010 A 
ATOM     11  C   UNL A   1      35.969  29.328  28.605  1.00  0.00     0.010 A 
ATOM     12  C   UNL A   1      36.972  30.276  28.845  1.00  0.00    -0.014 A 
BRANCH  12  13
ATOM     13  C   UNL A   1      38.192  29.936  29.631  1.00  0.00     0.031 A 
ATOM     14  C   UNL A   1      38.414  30.463  31.021  1.00  0.00     0.074 A 
ATOM     15  C   UNL A   1      39.113  29.125  29.072  1.00  0.00     0.049 A 
ATOM     16  N   UNL A   1      39.399  30.210  31.849  1.00  0.00    -0.248 NA
ATOM     17  C   UNL A   1      37.414  31.400  31.549  1.00  0.00     0.031 C 
ATOM     18  C   UNL A   1      39.046  28.591  27.710  1.00  0.00     0.029 A 
ATOM     19  N   UNL A   1      40.274  28.596  29.578  1.00  0.00    -0.354 N 
ATOM     20  C   UNL A   1      39.138  30.954  32.992  1.00  0.00     0.074 A 
ATOM     21  C   UNL A   1      37.920  31.696  32.740  1.00  0.00     0.031 C 
ATOM     22  C   UNL A   1      40.089  27.774  27.505  1.00  0.00     0.029 A 
ATOM     23  C   UNL A   1      40.922  27.756  28.703  1.00  0.00     0.049 A 
ATOM     24  H   UNL A   1      40.610  28.796  30.480  1.00  0.00     0.167 HD
ATOM     25  C   UNL A   1      39.844  31.002  34.149  1.00  0.00     0.037 A 
ATOM     26  C   UNL A   1      42.059  27.049  28.844  1.00  0.00     0.037 A 
ATOM     27  C   UNL A   1      41.054  30.263  34.406  1.00  0.00     0.049 A 
ATOM     28  C   UNL A   1      42.808  27.112  30.144  1.00  0.00     0.074 A 
ATOM     29  C   UNL A   1      41.820  30.234  35.561  1.00  0.00     0.029 A 
ATOM     30  N   UNL A   1      41.678  29.423  33.496  1.00  0.00    -0.354 N 
ATOM     31  N   UNL A   1      42.520  27.781  31.232  1.00  0.00    -0.248 NA
ATOM     32  C   UNL A   1      44.041  26.317  30.235  1.00  0.00     0.031 C 
ATOM     33  C   UNL A   1      42.923  29.401  35.338  1.00  0.00     0.029 A 
ATOM     34  C   UNL A   1      42.825  28.881  34.058  1.00  0.00     0.049 A 
ATOM     35  H   UNL A   1      41.355  29.240  32.585  1.00  0.00     0.167 HD
ATOM     36  C   UNL A   1      43.529  27.486  32.138  1.00  0.00     0.074 A 
ATOM     37  C   UNL A   1      44.419  26.550  31.484  1.00  0.00     0.031 C 
ATOM     38  C   UNL A   1      43.707  27.958  33.395  1.00  0.00     0.037 A 
BRANCH  25  39
ATOM     39  C   UNL A   1      39.323  31.883  35.247  1.00  0.00     0.064 A 
ATOM     40  C   UNL A   1      38.528  31.365  36.282  1.00  0.00     0.173 A 
ATOM     41  C   UNL A   1      39.685  33.237  35.312  1.00  0.00     0.173 A 
ATOM     42  F   UNL A   1      38.151  30.078  36.262  1.00  0.00    -0.203 F 
ATOM     43  C   UNL A   1      38.106  32.174  37.333  1.00  0.00     0.198 A 
ATOM     44  C   UNL A   1      39.279  34.037  36.377  1.00  0.00     0.198 A 
ATOM     45  F   UNL A   1      40.453  33.778  34.354  1.00  0.00    -0.203 F 
ATOM     46  F   UNL A   1      37.328  31.663  38.298  1.00  0.00    -0.200 F 
ATOM     47  C   UNL A   1      38.489  33.506  37.385  1.00  0.00     0.200 A 
ATOM     48  F   UNL A   1      39.660  35.321  36.434  1.00  0.00    -0.200 F 
ATOM     49  F   UNL A   1      38.093  34.279  38.407  1.00  0.00    -0.200 F 
ENDBRANCH  25  39
BRANCH  26  50
ATOM     50  C   UNL A   1      42.552  26.210  27.723  1.00  0.00     0.064 A 
ATOM     51  C   UNL A   1      42.071  24.908  27.528  1.00  0.00     0.173 A 
ATOM     52  C   UNL A   1      43.517  26.691  26.826  1.00  0.00     0.173 A 
ATOM     53  F   UNL A   1      41.163  24.397  28.373  1.00  0.00    -0.203 F 
ATOM     54  C   UNL A   1      42.551  24.112  26.492  1.00  0.00     0.198 A 
ATOM     55  C   UNL A   1      43.975  25.904  25.772  1.00  0.00     0.198 A 
ATOM     56  F   UNL A   1      44.006  27.932  26.968  1.00  0.00    -0.203 F 
ATOM     57  F   UNL A   1      42.108  22.855  26.355  1.00  0.00    -0.200 F 
ATOM     58  C   UNL A   1      43.498  24.613  25.610  1.00  0.00     0.200 A 
ATOM     59  F   UNL A   1      44.880  26.396  24.915  1.00  0.00    -0.200 F 
ATOM     60  F   UNL A   1      43.957  23.848  24.611  1.00  0.00    -0.200 F 
ENDBRANCH  26  50
BRANCH  38  61
ATOM     61  C   UNL A   1      44.910  27.462  34.141  1.00  0.00     0.064 A 
ATOM     62  C   UNL A   1      44.856  26.296  34.920  1.00  0.00     0.173 A 
ATOM     63  C   UNL A   1      46.129  28.153  34.073  1.00  0.00     0.173 A 
ATOM     64  F   UNL A   1      43.709  25.610  35.029  1.00  0.00    -0.203 F 
ATOM     65  C   UNL A   1      45.972  25.858  35.629  1.00  0.00     0.198 A 
ATOM     66  C   UNL A   1      47.248  27.698  34.764  1.00  0.00     0.198 A 
ATOM     67  F   UNL A   1      46.232  29.271  33.341  1.00  0.00    -0.203 F 
ATOM     68  F   UNL A   1      45.883  24.771  36.408  1.00  0.00    -0.200 F 
ATOM     69  C   UNL A   1      47.167  26.556  35.547  1.00  0.00     0.200 A 
ATOM     70  F   UNL A   1      48.405  28.369  34.680  1.00  0.00    -0.200 F 
ATOM     71  F   UNL A   1      48.237  26.135  36.235  1.00  0.00    -0.200 F 
ENDBRANCH  38  61
ENDBRANCH  12  13
ENDBRANCH   5   7
ENDBRANCH   2   3
ENDBRANCH   1   2
BRANCH   1  72
ATOM     72  C   UNL A   1      31.847  27.324  26.870  1.00  0.00     0.117 C 
BRANCH  72  73
ATOM     73  N   UNL A   1      31.123  26.084  26.625  1.00  0.00    -0.356 N 
ATOM     74  C   UNL A   1      31.556  24.836  26.283  1.00  0.00     0.224 C 
ATOM     75  H   UNL A   1      30.147  26.159  26.725  1.00  0.00     0.163 HD
ATOM     76  O   UNL A   1      30.796  23.897  26.524  1.00  0.00    -0.275 OA
BRANCH  74  77
ATOM     77  C   UNL A   1      32.957  24.612  25.752  1.00  0.00     0.094 C 
ATOM     78  C   UNL A   1      33.822  23.591  26.572  1.00  0.00     0.002 C 
ATOM     79  C   UNL A   1      33.194  24.373  24.251  1.00  0.00     0.094 C 
ATOM     80  C   UNL A   1      33.807  22.167  25.975  1.00  0.00     0.005 C 
ATOM     81  C   UNL A   1      35.285  24.062  26.462  1.00  0.00     0.005 C 
ATOM     82  C   UNL A   1      34.539  23.606  24.073  1.00  0.00     0.002 C 
ATOM     83  C   UNL A   1      34.357  22.163  24.545  1.00  0.00     0.005 C 
ATOM     84  C   UNL A   1      35.634  24.244  24.974  1.00  0.00     0.005 C 
BRANCH  79  85
ATOM     85  C   UNL A   1      32.126  23.927  23.224  1.00  0.00     0.228 C 
ATOM     86  O   UNL A   1      31.937  22.707  23.084  1.00  0.00    -0.274 OA
ATOM     87  N   UNL A   1      31.403  24.721  22.377  1.00  0.00    -0.326 N 
ATOM     88  H   UNL A   1      31.462  24.531  21.413  1.00  0.00     0.169 HD
BRANCH  87  89
ATOM     89  C   UNL A   1      30.582  25.785  22.780  1.00  0.00     0.041 A 
ATOM     90  C   UNL A   1      30.881  27.083  22.374  1.00  0.00     0.027 A 
ATOM     91  C   UNL A   1      29.525  25.578  23.656  1.00  0.00     0.027 A 
ATOM     92  C   UNL A   1      29.965  28.110  22.621  1.00  0.00     0.016 A 
ATOM     93  C   UNL A   1      28.586  26.591  23.876  1.00  0.00     0.016 A 
ATOM     94  C   UNL A   1      28.754  27.841  23.282  1.00  0.00     0.040 A 
BRANCH  94  95
ATOM     95  C   UNL A   1      27.672  28.862  23.123  1.00  0.00     0.253 C 
ATOM     96  O   UNL A   1      26.575  28.641  23.630  1.00  0.00    -0.269 OA
ATOM     97  N   UNL A   1      28.064  30.132  22.732  1.00  0.00    -0.339 N 
ATOM     98  C   UNL A   1      28.434  30.548  21.394  1.00  0.00     0.120 C 
ATOM     99  C   UNL A   1      27.653  31.290  23.509  1.00  0.00     0.120 C 
ATOM    100  C   UNL A   1      29.000  31.938  21.615  1.00  0.00     0.023 C 
ATOM    101  C   UNL A   1      28.081  32.508  22.690  1.00  0.00     0.023 C 
ENDBRANCH  94  95
ENDBRANCH  87  89
ENDBRANCH  79  85
ENDBRANCH  74  77
ENDBRANCH  72  73
ENDBRANCH   1  72
TORSDOF 13
ENDMDL
MODEL 2
REMARK VINA RESULT:     -14.3      2.972      4.152
REMARK SMILES O=C(NCCCNC(=O)[C@H]1[C@H]2CC[C@H](CC2)[C@H]1C(=O)Nc1ccc(C(=O)N2CCCC2)cc1)c1ccc(-c2c3nc(c(-c4c(F)c(F)c(F)c(F)c4F)c4ccc([nH]4)c(-c4c(F)c(F)c(F)c(F)c4F)c4nc(c(-c5c(F)c(F)c(F)c(F)c5F)c5ccc2[nH]5)C=C4)C=C3)cc1
REMARK SMILES IDX 5 1 4 2 3 3 1 4 2 5 34 7 35 8 96 9 36 10 95 11 37 12 38 13
REMARK SMILES IDX 39 14 89 15 40 16 94 17 88 18 90 19 41 20 93 21 87 22 86 23
REMARK SMILES IDX 42 25 74 26 54 27 73 28 55 29 58 30 72 31 91 32 56 33 57 34
REMARK SMILES IDX 71 36 92 37 59 38 43 39 44 40 52 41 45 42 46 43 50 44 53 45
REMARK SMILES IDX 47 46 48 47 51 48 49 49 75 50 76 51 84 52 77 53 78 54 82 55
REMARK SMILES IDX 85 56 79 57 80 58 83 59 81 60 60 61 61 62 69 63 62 64 63 65
REMARK SMILES IDX 67 66 70 67 64 68 65 69 68 70 66 71 6 72 7 73 8 74 9 76
REMARK SMILES IDX 10 77 11 78 17 79 16 80 12 81 14 82 15 83 13 84 18 85 19 86
REMARK SMILES IDX 20 87 21 89 22 90 33 91 23 92 32 93 24 94 25 95 26 96 27 97
REMARK SMILES IDX 28 98 31 99 29 100 30 101
REMARK H PARENT 3 6 90 24 58 35 7 75 20 88
REMARK Flexibility Score: inf
ROOT
ATOM      1  C   UNL A   1      33.748  28.657  25.562  1.00  0.00     0.042 C 
ENDROOT
BRANCH   1   2
ATOM      2  C   UNL A   1      33.508  28.672  27.071  1.00  0.00     0.118 C 
BRANCH   2   3
ATOM      3  N   UNL A   1      33.637  30.008  27.628  1.00  0.00    -0.352 N 
ATOM      4  O   UNL A   1      34.427  31.664  28.909  1.00  0.00    -0.269 OA
ATOM      5  C   UNL A   1      34.655  30.602  28.332  1.00  0.00     0.251 C 
ATOM      6  H   UNL A   1      32.857  30.589  27.475  1.00  0.00     0.163 HD
BRANCH   5   7
ATOM      7  C   UNL A   1      36.020  30.021  28.415  1.00  0.00     0.039 A 
ATOM      8  C   UNL A   1      36.963  30.182  27.399  1.00  0.00     0.014 A 
ATOM      9  C   UNL A   1      36.417  29.432  29.625  1.00  0.00     0.014 A 
ATOM     10  C   UNL A   1      38.266  29.700  27.563  1.00  0.00     0.010 A 
ATOM     11  C   UNL A   1      37.741  29.014  29.818  1.00  0.00     0.010 A 
ATOM     12  C   UNL A   1      38.681  29.146  28.787  1.00  0.00    -0.014 A 
BRANCH  12  13
ATOM     13  C   UNL A   1      40.124  28.848  29.007  1.00  0.00     0.031 A 
ATOM     14  C   UNL A   1      41.030  29.799  29.737  1.00  0.00     0.074 A 
ATOM     15  C   UNL A   1      40.619  27.684  28.540  1.00  0.00     0.049 A 
ATOM     16  N   UNL A   1      42.294  29.653  30.054  1.00  0.00    -0.248 NA
ATOM     17  C   UNL A   1      40.453  31.083  30.157  1.00  0.00     0.031 C 
ATOM     18  C   UNL A   1      39.861  26.699  27.766  1.00  0.00     0.029 A 
ATOM     19  N   UNL A   1      41.867  27.123  28.657  1.00  0.00    -0.354 N 
ATOM     20  C   UNL A   1      42.663  30.820  30.708  1.00  0.00     0.074 A 
ATOM     21  C   UNL A   1      41.499  31.682  30.714  1.00  0.00     0.031 C 
ATOM     22  C   UNL A   1      40.641  25.637  27.520  1.00  0.00     0.029 A 
ATOM     23  C   UNL A   1      41.966  25.879  28.081  1.00  0.00     0.049 A 
ATOM     24  H   UNL A   1      42.618  27.568  29.110  1.00  0.00     0.167 HD
ATOM     25  C   UNL A   1      43.858  31.137  31.264  1.00  0.00     0.037 A 
ATOM     26  C   UNL A   1      43.004  25.025  28.009  1.00  0.00     0.037 A 
ATOM     27  C   UNL A   1      45.018  30.281  31.264  1.00  0.00     0.049 A 
ATOM     28  C   UNL A   1      44.311  25.399  28.650  1.00  0.00     0.074 A 
ATOM     29  C   UNL A   1      46.264  30.513  31.827  1.00  0.00     0.029 A 
ATOM     30  N   UNL A   1      45.079  29.029  30.671  1.00  0.00    -0.354 N 
ATOM     31  N   UNL A   1      44.627  26.486  29.308  1.00  0.00    -0.248 NA
ATOM     32  C   UNL A   1      45.405  24.424  28.537  1.00  0.00     0.031 C 
ATOM     33  C   UNL A   1      47.086  29.415  31.548  1.00  0.00     0.029 A 
ATOM     34  C   UNL A   1      46.342  28.482  30.844  1.00  0.00     0.049 A 
ATOM     35  H   UNL A   1      44.335  28.593  30.197  1.00  0.00     0.167 HD
ATOM     36  C   UNL A   1      45.950  26.325  29.693  1.00  0.00     0.074 A 
ATOM     37  C   UNL A   1      46.368  25.021  29.225  1.00  0.00     0.031 C 
ATOM     38  C   UNL A   1      46.749  27.188  30.365  1.00  0.00     0.037 A 
BRANCH  25  39
ATOM     39  C   UNL A   1      43.983  32.473  31.936  1.00  0.00     0.064 A 
ATOM     40  C   UNL A   1      44.351  33.620  31.216  1.00  0.00     0.173 A 
ATOM     41  C   UNL A   1      43.656  32.625  33.292  1.00  0.00     0.173 A 
ATOM     42  F   UNL A   1      44.678  33.525  29.919  1.00  0.00    -0.203 F 
ATOM     43  C   UNL A   1      44.398  34.867  31.832  1.00  0.00     0.198 A 
ATOM     44  C   UNL A   1      43.683  33.879  33.899  1.00  0.00     0.198 A 
ATOM     45  F   UNL A   1      43.287  31.562  34.023  1.00  0.00    -0.203 F 
ATOM     46  F   UNL A   1      44.775  35.946  31.130  1.00  0.00    -0.200 F 
ATOM     47  C   UNL A   1      44.056  34.997  33.170  1.00  0.00     0.200 A 
ATOM     48  F   UNL A   1      43.339  34.006  35.188  1.00  0.00    -0.200 F 
ATOM     49  F   UNL A   1      44.088  36.203  33.758  1.00  0.00    -0.200 F 
ENDBRANCH  25  39
BRANCH  26  50
ATOM     50  C   UNL A   1      42.846  23.724  27.312  1.00  0.00     0.064 A 
ATOM     51  C   UNL A   1      42.310  22.610  27.973  1.00  0.00     0.173 A 
ATOM     52  C   UNL A   1      43.229  23.566  25.972  1.00  0.00     0.173 A 
ATOM     53  F   UNL A   1      41.949  22.707  29.262  1.00  0.00    -0.203 F 
ATOM     54  C   UNL A   1      42.183  21.383  27.328  1.00  0.00     0.198 A 
ATOM     55  C   UNL A   1      43.075  22.347  25.319  1.00  0.00     0.198 A 
ATOM     56  F   UNL A   1      43.743  24.604  25.295  1.00  0.00    -0.203 F 
ATOM     57  F   UNL A   1      41.711  20.322  27.996  1.00  0.00    -0.200 F 
ATOM     58  C   UNL A   1      42.560  21.254  25.999  1.00  0.00     0.200 A 
ATOM     59  F   UNL A   1      43.427  22.229  24.031  1.00  0.00    -0.200 F 
ATOM     60  F   UNL A   1      42.434  20.074  25.376  1.00  0.00    -0.200 F 
ENDBRANCH  26  50
BRANCH  38  61
ATOM     61  C   UNL A   1      48.155  26.739  30.634  1.00  0.00     0.064 A 
ATOM     62  C   UNL A   1      49.211  27.094  29.780  1.00  0.00     0.173 A 
ATOM     63  C   UNL A   1      48.453  25.953  31.757  1.00  0.00     0.173 A 
ATOM     64  F   UNL A   1      48.974  27.830  28.684  1.00  0.00    -0.203 F 
ATOM     65  C   UNL A   1      50.508  26.651  30.024  1.00  0.00     0.198 A 
ATOM     66  C   UNL A   1      49.755  25.532  32.010  1.00  0.00     0.198 A 
ATOM     67  F   UNL A   1      47.480  25.590  32.604  1.00  0.00    -0.203 F 
ATOM     68  F   UNL A   1      51.491  26.958  29.166  1.00  0.00    -0.200 F 
ATOM     69  C   UNL A   1      50.780  25.875  31.140  1.00  0.00     0.200 A 
ATOM     70  F   UNL A   1      50.019  24.788  33.093  1.00  0.00    -0.200 F 
ATOM     71  F   UNL A   1      52.028  25.445  31.370  1.00  0.00    -0.200 F 
ENDBRANCH  38  61
ENDBRANCH  12  13
ENDBRANCH   5   7
ENDBRANCH   2   3
ENDBRANCH   1   2
BRANCH   1  72
ATOM     72  C   UNL A   1      34.007  27.276  24.953  1.00  0.00     0.117 C 
BRANCH  72  73
ATOM     73  N   UNL A   1      33.161  26.205  25.461  1.00  0.00    -0.356 N 
ATOM     74  C   UNL A   1      33.415  24.884  25.692  1.00  0.00     0.224 C 
ATOM     75  H   UNL A   1      32.242  26.483  25.677  1.00  0.00     0.163 HD
ATOM     76  O   UNL A   1      32.667  24.303  26.480  1.00  0.00    -0.275 OA
BRANCH  74  77
ATOM     77  C   UNL A   1      34.636  24.207  25.103  1.00  0.00     0.094 C 
ATOM     78  C   UNL A   1      35.596  23.543  26.153  1.00  0.00     0.002 C 
ATOM     79  C   UNL A   1      34.501  23.272  23.889  1.00  0.00     0.094 C 
ATOM     80  C   UNL A   1      35.346  22.030  26.331  1.00  0.00     0.005 C 
ATOM     81  C   UNL A   1      37.021  23.655  25.580  1.00  0.00     0.005 C 
ATOM     82  C   UNL A   1      35.712  22.292  23.877  1.00  0.00     0.002 C 
ATOM     83  C   UNL A   1      35.547  21.279  25.010  1.00  0.00     0.005 C 
ATOM     84  C   UNL A   1      37.028  23.074  24.154  1.00  0.00     0.005 C 
BRANCH  79  85
ATOM     85  C   UNL A   1      33.196  22.596  23.407  1.00  0.00     0.228 C 
ATOM     86  O   UNL A   1      32.964  21.443  23.807  1.00  0.00    -0.274 OA
ATOM     87  N   UNL A   1      32.285  23.087  22.514  1.00  0.00    -0.326 N 
ATOM     88  H   UNL A   1      32.087  22.542  21.718  1.00  0.00     0.169 HD
BRANCH  87  89
ATOM     89  C   UNL A   1      31.610  24.310  22.648  1.00  0.00     0.041 A 
ATOM     90  C   UNL A   1      30.469  24.389  23.441  1.00  0.00     0.027 A 
ATOM     91  C   UNL A   1      32.010  25.427  21.927  1.00  0.00     0.027 A 
ATOM     92  C   UNL A   1      29.909  25.639  23.720  1.00  0.00     0.016 A 
ATOM     93  C   UNL A   1      31.479  26.686  22.230  1.00  0.00     0.016 A 
ATOM     94  C   UNL A   1      30.484  26.810  23.199  1.00  0.00     0.040 A 
BRANCH  94  95
ATOM     95  C   UNL A   1      30.109  28.091  23.876  1.00  0.00     0.253 C 
ATOM     96  O   UNL A   1      30.680  28.394  24.920  1.00  0.00    -0.269 OA
ATOM     97  N   UNL A   1      29.415  29.018  23.115  1.00  0.00    -0.339 N 
ATOM     98  C   UNL A   1      28.008  28.973  22.771  1.00  0.00     0.120 C 
ATOM     99  C   UNL A   1      29.899  30.386  23.017  1.00  0.00     0.120 C 
ATOM    100  C   UNL A   1      27.874  30.079  21.741  1.00  0.00     0.023 C 
ATOM    101  C   UNL A   1      28.802  31.159  22.287  1.00  0.00     0.023 C 
ENDBRANCH  94  95
ENDBRANCH  87  89
ENDBRANCH  79  85
ENDBRANCH  74  77
ENDBRANCH  72  73
ENDBRANCH   1  72
TORSDOF 13
ENDMDL
MODEL 3
REMARK VINA RESULT:     -14.0      0.442      7.120
REMARK SMILES O=C(NCCCNC(=O)[C@H]1[C@H]2CC[C@H](CC2)[C@H]1C(=O)Nc1ccc(C(=O)N2CCCC2)cc1)c1ccc(-c2c3nc(c(-c4c(F)c(F)c(F)c(F)c4F)c4ccc([nH]4)c(-c4c(F)c(F)c(F)c(F)c4F)c4nc(c(-c5c(F)c(F)c(F)c(F)c5F)c5ccc2[nH]5)C=C4)C=C3)cc1
REMARK SMILES IDX 5 1 4 2 3 3 1 4 2 5 34 7 35 8 96 9 36 10 95 11 37 12 38 13
REMARK SMILES IDX 39 14 89 15 40 16 94 17 88 18 90 19 41 20 93 21 87 22 86 23
REMARK SMILES IDX 42 25 74 26 54 27 73 28 55 29 58 30 72 31 91 32 56 33 57 34
REMARK SMILES IDX 71 36 92 37 59 38 43 39 44 40 52 41 45 42 46 43 50 44 53 45
REMARK SMILES IDX 47 46 48 47 51 48 49 49 75 50 76 51 84 52 77 53 78 54 82 55
REMARK SMILES IDX 85 56 79 57 80 58 83 59 81 60 60 61 61 62 69 63 62 64 63 65
REMARK SMILES IDX 67 66 70 67 64 68 65 69 68 70 66 71 6 72 7 73 8 74 9 76
REMARK SMILES IDX 10 77 11 78 17 79 16 80 12 81 14 82 15 83 13 84 18 85 19 86
REMARK SMILES IDX 20 87 21 89 22 90 33 91 23 92 32 93 24 94 25 95 26 96 27 97
REMARK SMILES IDX 28 98 31 99 29 100 30 101
REMARK H PARENT 3 6 90 24 58 35 7 75 20 88
REMARK Flexibility Score: inf
ROOT
ATOM      1  C   UNL A   1      31.603  28.508  25.911  1.00  0.00     0.042 C 
ENDROOT
BRANCH   1   2
ATOM      2  C   UNL A   1      32.772  29.439  25.590  1.00  0.00     0.118 C 
BRANCH   2   3
ATOM      3  N   UNL A   1      32.559  30.778  26.112  1.00  0.00    -0.352 N 
ATOM      4  O   UNL A   1      32.700  32.513  27.517  1.00  0.00    -0.269 OA
ATOM      5  C   UNL A   1      33.223  31.490  27.080  1.00  0.00     0.251 C 
ATOM      6  H   UNL A   1      31.805  31.260  25.700  1.00  0.00     0.163 HD
BRANCH   5   7
ATOM      7  C   UNL A   1      34.549  31.080  27.611  1.00  0.00     0.039 A 
ATOM      8  C   UNL A   1      35.548  32.004  27.919  1.00  0.00     0.014 A 
ATOM      9  C   UNL A   1      34.734  29.734  27.963  1.00  0.00     0.014 A 
ATOM     10  C   UNL A   1      36.744  31.580  28.508  1.00  0.00     0.010 A 
ATOM     11  C   UNL A   1      35.902  29.320  28.618  1.00  0.00     0.010 A 
ATOM     12  C   UNL A   1      36.919  30.241  28.900  1.00  0.00    -0.014 A 
BRANCH  12  13
ATOM     13  C   UNL A   1      38.104  29.865  29.721  1.00  0.00     0.031 A 
ATOM     14  C   UNL A   1      39.167  28.938  29.204  1.00  0.00     0.074 A 
ATOM     15  C   UNL A   1      38.219  30.384  30.961  1.00  0.00     0.049 A 
ATOM     16  N   UNL A   1      40.284  28.563  29.781  1.00  0.00    -0.248 NA
ATOM     17  C   UNL A   1      38.952  28.345  27.877  1.00  0.00     0.031 C 
ATOM     18  C   UNL A   1      37.229  31.251  31.603  1.00  0.00     0.029 A 
ATOM     19  N   UNL A   1      39.219  30.274  31.895  1.00  0.00    -0.354 N 
ATOM     20  C   UNL A   1      40.902  27.694  28.892  1.00  0.00     0.074 A 
ATOM     21  C   UNL A   1      40.021  27.569  27.749  1.00  0.00     0.031 C 
ATOM     22  C   UNL A   1      37.690  31.633  32.803  1.00  0.00     0.029 A 
ATOM     23  C   UNL A   1      38.988  31.008  33.034  1.00  0.00     0.049 A 
ATOM     24  H   UNL A   1      40.023  29.724  31.762  1.00  0.00     0.167 HD
ATOM     25  C   UNL A   1      42.099  27.070  29.013  1.00  0.00     0.037 A 
ATOM     26  C   UNL A   1      39.735  31.163  34.144  1.00  0.00     0.037 A 
ATOM     27  C   UNL A   1      42.981  27.194  30.146  1.00  0.00     0.049 A 
ATOM     28  C   UNL A   1      41.064  30.471  34.240  1.00  0.00     0.074 A 
ATOM     29  C   UNL A   1      44.226  26.616  30.340  1.00  0.00     0.029 A 
ATOM     30  N   UNL A   1      42.713  27.947  31.279  1.00  0.00    -0.354 N 
ATOM     31  N   UNL A   1      41.656  29.693  33.368  1.00  0.00    -0.248 NA
ATOM     32  C   UNL A   1      41.831  30.681  35.476  1.00  0.00     0.031 C 
ATOM     33  C   UNL A   1      44.696  26.994  31.603  1.00  0.00     0.029 A 
ATOM     34  C   UNL A   1      43.762  27.838  32.181  1.00  0.00     0.049 A 
ATOM     35  H   UNL A   1      41.898  28.479  31.423  1.00  0.00     0.167 HD
ATOM     36  C   UNL A   1      42.863  29.326  33.944  1.00  0.00     0.074 A 
ATOM     37  C   UNL A   1      42.936  29.993  35.227  1.00  0.00     0.031 C 
ATOM     38  C   UNL A   1      43.820  28.499  33.457  1.00  0.00     0.037 A 
BRANCH  25  39
ATOM     39  C   UNL A   1      42.546  26.191  27.881  1.00  0.00     0.064 A 
ATOM     40  C   UNL A   1      42.060  24.881  27.740  1.00  0.00     0.173 A 
ATOM     41  C   UNL A   1      43.402  26.685  26.885  1.00  0.00     0.173 A 
ATOM     42  F   UNL A   1      41.244  24.362  28.669  1.00  0.00    -0.203 F 
ATOM     43  C   UNL A   1      42.426  24.096  26.650  1.00  0.00     0.198 A 
ATOM     44  C   UNL A   1      43.747  25.903  25.785  1.00  0.00     0.198 A 
ATOM     45  F   UNL A   1      43.884  27.934  26.967  1.00  0.00    -0.203 F 
ATOM     46  F   UNL A   1      41.969  22.840  26.549  1.00  0.00    -0.200 F 
ATOM     47  C   UNL A   1      43.261  24.610  25.670  1.00  0.00     0.200 A 
ATOM     48  F   UNL A   1      44.544  26.405  24.831  1.00  0.00    -0.200 F 
ATOM     49  F   UNL A   1      43.600  23.857  24.613  1.00  0.00    -0.200 F 
ENDBRANCH  25  39
BRANCH  26  50
ATOM     50  C   UNL A   1      39.244  32.021  35.252  1.00  0.00     0.064 A 
ATOM     51  C   UNL A   1      39.520  33.396  35.278  1.00  0.00     0.173 A 
ATOM     52  C   UNL A   1      38.493  31.486  36.308  1.00  0.00     0.173 A 
ATOM     53  F   UNL A   1      40.253  33.949  34.300  1.00  0.00    -0.203 F 
ATOM     54  C   UNL A   1      39.081  34.197  36.328  1.00  0.00     0.198 A 
ATOM     55  C   UNL A   1      38.029  32.294  37.343  1.00  0.00     0.198 A 
ATOM     56  F   UNL A   1      38.199  30.177  36.327  1.00  0.00    -0.203 F 
ATOM     57  F   UNL A   1      39.398  35.499  36.353  1.00  0.00    -0.200 F 
ATOM     58  C   UNL A   1      38.331  33.647  37.357  1.00  0.00     0.200 A 
ATOM     59  F   UNL A   1      37.294  31.761  38.328  1.00  0.00    -0.200 F 
ATOM     60  F   UNL A   1      37.905  34.419  38.366  1.00  0.00    -0.200 F 
ENDBRANCH  26  50
BRANCH  38  61
ATOM     61  C   UNL A   1      45.027  28.279  34.320  1.00  0.00     0.064 A 
ATOM     62  C   UNL A   1      46.150  29.116  34.231  1.00  0.00     0.173 A 
ATOM     63  C   UNL A   1      45.061  27.228  35.248  1.00  0.00     0.173 A 
ATOM     64  F   UNL A   1      46.172  30.124  33.347  1.00  0.00    -0.203 F 
ATOM     65  C   UNL A   1      47.276  28.887  35.017  1.00  0.00     0.198 A 
ATOM     66  C   UNL A   1      46.180  27.018  36.050  1.00  0.00     0.198 A 
ATOM     67  F   UNL A   1      44.012  26.403  35.373  1.00  0.00    -0.203 F 
ATOM     68  F   UNL A   1      48.358  29.667  34.878  1.00  0.00    -0.200 F 
ATOM     69  C   UNL A   1      47.288  27.843  35.929  1.00  0.00     0.200 A 
ATOM     70  F   UNL A   1      46.188  26.013  36.936  1.00  0.00    -0.200 F 
ATOM     71  F   UNL A   1      48.375  27.621  36.681  1.00  0.00    -0.200 F 
ENDBRANCH  38  61
ENDBRANCH  12  13
ENDBRANCH   5   7
ENDBRANCH   2   3
ENDBRANCH   1   2
BRANCH   1  72
ATOM     72  C   UNL A   1      31.935  27.333  26.834  1.00  0.00     0.117 C 
BRANCH  72  73
ATOM     73  N   UNL A   1      31.197  26.106  26.567  1.00  0.00    -0.356 N 
ATOM     74  C   UNL A   1      31.615  24.861  26.196  1.00  0.00     0.224 C 
ATOM     75  H   UNL A   1      30.222  26.189  26.672  1.00  0.00     0.163 HD
ATOM     76  O   UNL A   1      30.846  23.925  26.421  1.00  0.00    -0.275 OA
BRANCH  74  77
ATOM     77  C   UNL A   1      33.012  24.634  25.654  1.00  0.00     0.094 C 
ATOM     78  C   UNL A   1      33.880  23.610  26.468  1.00  0.00     0.002 C 
ATOM     79  C   UNL A   1      33.236  24.395  24.151  1.00  0.00     0.094 C 
ATOM     80  C   UNL A   1      33.857  22.187  25.871  1.00  0.00     0.005 C 
ATOM     81  C   UNL A   1      35.343  24.078  26.347  1.00  0.00     0.005 C 
ATOM     82  C   UNL A   1      34.577  23.624  23.963  1.00  0.00     0.002 C 
ATOM     83  C   UNL A   1      34.396  22.182  24.436  1.00  0.00     0.005 C 
ATOM     84  C   UNL A   1      35.682  24.259  24.856  1.00  0.00     0.005 C 
BRANCH  79  85
ATOM     85  C   UNL A   1      32.160  23.952  23.133  1.00  0.00     0.228 C 
ATOM     86  O   UNL A   1      31.976  22.732  22.984  1.00  0.00    -0.274 OA
ATOM     87  N   UNL A   1      31.421  24.749  22.302  1.00  0.00    -0.326 N 
ATOM     88  H   UNL A   1      31.471  24.568  21.335  1.00  0.00     0.169 HD
BRANCH  87  89
ATOM     89  C   UNL A   1      30.599  25.804  22.725  1.00  0.00     0.041 A 
ATOM     90  C   UNL A   1      30.893  27.109  22.339  1.00  0.00     0.027 A 
ATOM     91  C   UNL A   1      29.544  25.579  23.598  1.00  0.00     0.027 A 
ATOM     92  C   UNL A   1      29.975  28.129  22.605  1.00  0.00     0.016 A 
ATOM     93  C   UNL A   1      28.603  26.586  23.837  1.00  0.00     0.016 A 
ATOM     94  C   UNL A   1      28.766  27.846  23.264  1.00  0.00     0.040 A 
BRANCH  94  95
ATOM     95  C   UNL A   1      27.681  28.867  23.124  1.00  0.00     0.253 C 
ATOM     96  O   UNL A   1      26.582  28.628  23.619  1.00  0.00    -0.269 OA
ATOM     97  N   UNL A   1      28.071  30.148  22.769  1.00  0.00    -0.339 N 
ATOM     98  C   UNL A   1      28.448  30.600  21.445  1.00  0.00     0.120 C 
ATOM     99  C   UNL A   1      27.650  31.284  23.573  1.00  0.00     0.120 C 
ATOM    100  C   UNL A   1      29.007  31.986  21.705  1.00  0.00     0.023 C 
ATOM    101  C   UNL A   1      28.079  32.524  22.789  1.00  0.00     0.023 C 
ENDBRANCH  94  95
ENDBRANCH  87  89
ENDBRANCH  79  85
ENDBRANCH  74  77
ENDBRANCH  72  73
ENDBRANCH   1  72
TORSDOF 13
ENDMDL
