MODEL 1
REMARK VINA RESULT:     -13.5      0.000      0.000
REMARK SMILES O=C(NCCCNC(=O)c1c(-c2ccc(Cl)cc2)noc1CO[C@@H]1CCCCO1)c1ccc(-c2c3nc(c(-c4c(F)c(F)c(F)c(F)c4F)c4ccc([nH]4)c(-c4c(F)c(F)c(F)c(F)c4F)c4nc(c(-c5c(F)c(F)c(F)c(F)c5F)c5ccc2[nH]5)C=C4)C=C3)cc1
REMARK SMILES IDX 5 1 4 2 3 3 1 4 2 5 30 7 31 8 92 9 32 10 91 11 33 12 34 13
REMARK SMILES IDX 35 14 85 15 36 16 90 17 84 18 86 19 37 20 89 21 83 22 82 23
REMARK SMILES IDX 38 25 70 26 50 27 69 28 51 29 54 30 68 31 87 32 52 33 53 34
REMARK SMILES IDX 67 36 88 37 55 38 39 39 40 40 48 41 41 42 42 43 46 44 49 45
REMARK SMILES IDX 43 46 44 47 47 48 45 49 71 50 72 51 80 52 73 53 74 54 78 55
REMARK SMILES IDX 81 56 75 57 76 58 79 59 77 60 56 61 57 62 65 63 58 64 59 65
REMARK SMILES IDX 63 66 66 67 60 68 61 69 64 70 62 71 6 72 7 73 8 74 9 76
REMARK SMILES IDX 10 77 11 78 21 79 19 80 20 81 12 82 13 83 18 84 14 85 17 86
REMARK SMILES IDX 15 87 16 88 22 89 23 90 24 91 25 92 29 93 26 94 28 95 27 96
REMARK H PARENT 3 6 86 24 54 35 7 75
REMARK Flexibility Score: inf
ROOT
ATOM      1  C   UNL A   1      31.958  28.475  26.453  1.00  0.00     0.042 C 
ENDROOT
BRANCH   1   2
ATOM      2  C   UNL A   1      32.796  29.596  25.839  1.00  0.00     0.118 C 
BRANCH   2   3
ATOM      3  N   UNL A   1      32.449  30.922  26.334  1.00  0.00    -0.352 N 
ATOM      4  O   UNL A   1      32.607  32.795  27.575  1.00  0.00    -0.269 OA
ATOM      5  C   UNL A   1      33.123  31.743  27.209  1.00  0.00     0.251 C 
ATOM      6  H   UNL A   1      31.601  31.286  25.990  1.00  0.00     0.163 HD
BRANCH   5   7
ATOM      7  C   UNL A   1      34.447  31.356  27.744  1.00  0.00     0.039 A 
ATOM      8  C   UNL A   1      34.719  30.041  28.132  1.00  0.00     0.014 A 
ATOM      9  C   UNL A   1      35.447  32.336  27.834  1.00  0.00     0.014 A 
ATOM     10  C   UNL A   1      35.943  29.738  28.725  1.00  0.00     0.010 A 
ATOM     11  C   UNL A   1      36.690  32.022  28.392  1.00  0.00     0.010 A 
ATOM     12  C   UNL A   1      36.929  30.728  28.878  1.00  0.00    -0.014 A 
BRANCH  12  13
ATOM     13  C   UNL A   1      38.189  30.387  29.580  1.00  0.00     0.031 A 
ATOM     14  C   UNL A   1      38.393  30.793  31.013  1.00  0.00     0.074 A 
ATOM     15  C   UNL A   1      39.109  29.626  28.960  1.00  0.00     0.049 A 
ATOM     16  N   UNL A   1      39.379  30.495  31.821  1.00  0.00    -0.248 NA
ATOM     17  C   UNL A   1      37.356  31.643  31.617  1.00  0.00     0.031 C 
ATOM     18  C   UNL A   1      39.028  29.169  27.573  1.00  0.00     0.029 A 
ATOM     19  N   UNL A   1      40.262  29.056  29.437  1.00  0.00    -0.354 N 
ATOM     20  C   UNL A   1      39.103  31.146  33.013  1.00  0.00     0.074 A 
ATOM     21  C   UNL A   1      37.845  31.841  32.835  1.00  0.00     0.031 C 
ATOM     22  C   UNL A   1      40.046  28.326  27.334  1.00  0.00     0.029 A 
ATOM     23  C   UNL A   1      40.845  28.190  28.548  1.00  0.00     0.049 A 
ATOM     24  H   UNL A   1      40.633  29.251  30.328  1.00  0.00     0.167 HD
ATOM     25  C   UNL A   1      39.838  31.172  34.150  1.00  0.00     0.037 A 
ATOM     26  C   UNL A   1      41.879  27.345  28.712  1.00  0.00     0.037 A 
ATOM     27  C   UNL A   1      41.078  30.472  34.340  1.00  0.00     0.049 A 
ATOM     28  C   UNL A   1      42.590  27.275  30.029  1.00  0.00     0.074 A 
ATOM     29  C   UNL A   1      41.961  30.532  35.405  1.00  0.00     0.029 A 
ATOM     30  N   UNL A   1      41.596  29.550  33.445  1.00  0.00    -0.354 N 
ATOM     31  N   UNL A   1      42.365  27.959  31.121  1.00  0.00    -0.248 NA
ATOM     32  C   UNL A   1      43.693  26.308  30.137  1.00  0.00     0.031 C 
ATOM     33  C   UNL A   1      43.001  29.623  35.166  1.00  0.00     0.029 A 
ATOM     34  C   UNL A   1      42.761  29.001  33.953  1.00  0.00     0.049 A 
ATOM     35  H   UNL A   1      41.194  29.319  32.576  1.00  0.00     0.167 HD
ATOM     36  C   UNL A   1      43.307  27.524  32.041  1.00  0.00     0.074 A 
ATOM     37  C   UNL A   1      44.089  26.493  31.391  1.00  0.00     0.031 C 
ATOM     38  C   UNL A   1      43.515  27.963  33.305  1.00  0.00     0.037 A 
BRANCH  25  39
ATOM     39  C   UNL A   1      39.323  32.013  35.273  1.00  0.00     0.064 A 
ATOM     40  C   UNL A   1      38.512  31.461  36.275  1.00  0.00     0.173 A 
ATOM     41  C   UNL A   1      39.660  33.374  35.355  1.00  0.00     0.173 A 
ATOM     42  F   UNL A   1      38.151  30.169  36.221  1.00  0.00    -0.203 F 
ATOM     43  C   UNL A   1      38.052  32.249  37.326  1.00  0.00     0.198 A 
ATOM     44  C   UNL A   1      39.203  34.157  36.411  1.00  0.00     0.198 A 
ATOM     45  F   UNL A   1      40.426  33.941  34.410  1.00  0.00    -0.203 F 
ATOM     46  F   UNL A   1      37.263  31.710  38.268  1.00  0.00    -0.200 F 
ATOM     47  C   UNL A   1      38.399  33.594  37.395  1.00  0.00     0.200 A 
ATOM     48  F   UNL A   1      39.533  35.456  36.472  1.00  0.00    -0.200 F 
ATOM     49  F   UNL A   1      37.951  34.352  38.405  1.00  0.00    -0.200 F 
ENDBRANCH  25  39
BRANCH  26  50
ATOM     50  C   UNL A   1      42.242  26.431  27.606  1.00  0.00     0.064 A 
ATOM     51  C   UNL A   1      43.274  26.774  26.720  1.00  0.00     0.173 A 
ATOM     52  C   UNL A   1      41.596  25.200  27.437  1.00  0.00     0.173 A 
ATOM     53  F   UNL A   1      43.908  27.951  26.848  1.00  0.00    -0.203 F 
ATOM     54  C   UNL A   1      43.651  25.908  25.698  1.00  0.00     0.198 A 
ATOM     55  C   UNL A   1      41.976  24.334  26.415  1.00  0.00     0.198 A 
ATOM     56  F   UNL A   1      40.602  24.842  28.264  1.00  0.00    -0.203 F 
ATOM     57  F   UNL A   1      44.637  26.256  24.860  1.00  0.00    -0.200 F 
ATOM     58  C   UNL A   1      43.002  24.688  25.549  1.00  0.00     0.200 A 
ATOM     59  F   UNL A   1      41.349  23.157  26.269  1.00  0.00    -0.200 F 
ATOM     60  F   UNL A   1      43.366  23.853  24.564  1.00  0.00    -0.200 F 
ENDBRANCH  26  50
BRANCH  38  61
ATOM     61  C   UNL A   1      44.637  27.335  34.066  1.00  0.00     0.064 A 
ATOM     62  C   UNL A   1      44.416  26.207  34.868  1.00  0.00     0.173 A 
ATOM     63  C   UNL A   1      45.942  27.840  33.968  1.00  0.00     0.173 A 
ATOM     64  F   UNL A   1      43.180  25.700  34.996  1.00  0.00    -0.203 F 
ATOM     65  C   UNL A   1      45.466  25.604  35.554  1.00  0.00     0.198 A 
ATOM     66  C   UNL A   1      46.991  27.233  34.654  1.00  0.00     0.198 A 
ATOM     67  F   UNL A   1      46.193  28.924  33.218  1.00  0.00    -0.203 F 
ATOM     68  F   UNL A   1      45.233  24.532  36.324  1.00  0.00    -0.200 F 
ATOM     69  C   UNL A   1      46.752  26.116  35.445  1.00  0.00     0.200 A 
ATOM     70  F   UNL A   1      48.231  27.732  34.556  1.00  0.00    -0.200 F 
ATOM     71  F   UNL A   1      47.762  25.537  36.109  1.00  0.00    -0.200 F 
ENDBRANCH  38  61
ENDBRANCH  12  13
ENDBRANCH   5   7
ENDBRANCH   2   3
ENDBRANCH   1   2
BRANCH   1  72
ATOM     72  C   UNL A   1      32.690  27.153  26.674  1.00  0.00     0.118 C 
BRANCH  72  73
ATOM     73  N   UNL A   1      31.846  25.991  26.453  1.00  0.00    -0.352 N 
ATOM     74  C   UNL A   1      31.398  25.409  25.294  1.00  0.00     0.257 C 
ATOM     75  H   UNL A   1      31.541  25.545  27.276  1.00  0.00     0.163 HD
ATOM     76  O   UNL A   1      30.539  24.532  25.388  1.00  0.00    -0.269 OA
BRANCH  74  77
ATOM     77  C   UNL A   1      31.918  25.829  24.018  1.00  0.00     0.113 A 
ATOM     78  C   UNL A   1      33.167  25.482  23.410  1.00  0.00     0.127 A 
ATOM     79  C   UNL A   1      31.413  26.815  23.191  1.00  0.00     0.175 A 
ATOM     80  N   UNL A   1      33.306  26.113  22.232  1.00  0.00    -0.079 NA
ATOM     81  O   UNL A   1      32.213  26.939  22.101  1.00  0.00    -0.357 OA
BRANCH  78  82
ATOM     82  C   UNL A   1      34.231  24.608  23.910  1.00  0.00     0.005 A 
ATOM     83  C   UNL A   1      34.912  24.894  25.103  1.00  0.00     0.012 A 
ATOM     84  C   UNL A   1      34.594  23.463  23.175  1.00  0.00     0.012 A 
ATOM     85  C   UNL A   1      35.946  24.054  25.541  1.00  0.00     0.021 A 
ATOM     86  C   UNL A   1      35.629  22.627  23.611  1.00  0.00     0.021 A 
ATOM     87  C   UNL A   1      36.302  22.929  24.793  1.00  0.00     0.041 A 
ATOM     88  Cl  UNL A   1      37.581  21.906  25.329  1.00  0.00    -0.084 Cl
ENDBRANCH  78  82
BRANCH  79  89
ATOM     89  C   UNL A   1      30.264  27.751  23.260  1.00  0.00     0.242 C 
BRANCH  89  90
ATOM     90  O   UNL A   1      30.136  28.394  21.998  1.00  0.00    -0.345 OA
BRANCH  90  91
ATOM     91  C   UNL A   1      29.883  29.796  22.052  1.00  0.00     0.250 C 
ATOM     92  C   UNL A   1      29.543  30.277  23.473  1.00  0.00     0.062 C 
ATOM     93  O   UNL A   1      28.904  30.180  21.082  1.00  0.00    -0.353 OA
ATOM     94  C   UNL A   1      28.105  30.769  23.577  1.00  0.00     0.008 C 
ATOM     95  C   UNL A   1      28.556  31.556  21.205  1.00  0.00     0.163 C 
ATOM     96  C   UNL A   1      27.796  31.808  22.503  1.00  0.00     0.029 C 
ENDBRANCH  90  91
ENDBRANCH  89  90
ENDBRANCH  79  89
ENDBRANCH  74  77
ENDBRANCH  72  73
ENDBRANCH   1  72
TORSDOF 14
ENDMDL
MODEL 2
REMARK VINA RESULT:     -13.3      1.842      4.464
REMARK SMILES O=C(NCCCNC(=O)c1c(-c2ccc(Cl)cc2)noc1CO[C@@H]1CCCCO1)c1ccc(-c2c3nc(c(-c4c(F)c(F)c(F)c(F)c4F)c4ccc([nH]4)c(-c4c(F)c(F)c(F)c(F)c4F)c4nc(c(-c5c(F)c(F)c(F)c(F)c5F)c5ccc2[nH]5)C=C4)C=C3)cc1
REMARK SMILES IDX 5 1 4 2 3 3 1 4 2 5 30 7 31 8 92 9 32 10 91 11 33 12 34 13
REMARK SMILES IDX 35 14 85 15 36 16 90 17 84 18 86 19 37 20 89 21 83 22 82 23
REMARK SMILES IDX 38 25 70 26 50 27 69 28 51 29 54 30 68 31 87 32 52 33 53 34
REMARK SMILES IDX 67 36 88 37 55 38 39 39 40 40 48 41 41 42 42 43 46 44 49 45
REMARK SMILES IDX 43 46 44 47 47 48 45 49 71 50 72 51 80 52 73 53 74 54 78 55
REMARK SMILES IDX 81 56 75 57 76 58 79 59 77 60 56 61 57 62 65 63 58 64 59 65
REMARK SMILES IDX 63 66 66 67 60 68 61 69 64 70 62 71 6 72 7 73 8 74 9 76
REMARK SMILES IDX 10 77 11 78 21 79 19 80 20 81 12 82 13 83 18 84 14 85 17 86
REMARK SMILES IDX 15 87 16 88 22 89 23 90 24 91 25 92 29 93 26 94 28 95 27 96
REMARK H PARENT 3 6 86 24 54 35 7 75
REMARK Flexibility Score: inf
ROOT
ATOM      1  C   UNL A   1      31.932  28.827  26.871  1.00  0.00     0.042 C 
ENDROOT
BRANCH   1   2
ATOM      2  C   UNL A   1      32.840  29.830  26.160  1.00  0.00     0.118 C 
BRANCH   2   3
ATOM      3  N   UNL A   1      32.596  31.213  26.548  1.00  0.00    -0.352 N 
ATOM      4  O   UNL A   1      32.904  33.164  27.631  1.00  0.00    -0.269 OA
ATOM      5  C   UNL A   1      33.337  32.051  27.349  1.00  0.00     0.251 C 
ATOM      6  H   UNL A   1      31.772  31.610  26.180  1.00  0.00     0.163 HD
BRANCH   5   7
ATOM      7  C   UNL A   1      34.637  31.612  27.905  1.00  0.00     0.039 A 
ATOM      8  C   UNL A   1      34.845  30.291  28.311  1.00  0.00     0.014 A 
ATOM      9  C   UNL A   1      35.677  32.549  27.999  1.00  0.00     0.014 A 
ATOM     10  C   UNL A   1      36.048  29.941  28.923  1.00  0.00     0.010 A 
ATOM     11  C   UNL A   1      36.898  32.186  28.577  1.00  0.00     0.010 A 
ATOM     12  C   UNL A   1      37.074  30.889  29.079  1.00  0.00    -0.014 A 
BRANCH  12  13
ATOM     13  C   UNL A   1      38.309  30.501  29.802  1.00  0.00     0.031 A 
ATOM     14  C   UNL A   1      38.484  30.859  31.251  1.00  0.00     0.074 A 
ATOM     15  C   UNL A   1      39.229  29.740  29.182  1.00  0.00     0.049 A 
ATOM     16  N   UNL A   1      39.443  30.516  32.074  1.00  0.00    -0.248 NA
ATOM     17  C   UNL A   1      37.449  31.711  31.855  1.00  0.00     0.031 C 
ATOM     18  C   UNL A   1      39.174  29.328  27.779  1.00  0.00     0.029 A 
ATOM     19  N   UNL A   1      40.358  29.133  29.669  1.00  0.00    -0.354 N 
ATOM     20  C   UNL A   1      39.149  31.136  33.278  1.00  0.00     0.074 A 
ATOM     21  C   UNL A   1      37.910  31.862  33.090  1.00  0.00     0.031 C 
ATOM     22  C   UNL A   1      40.181  28.472  27.540  1.00  0.00     0.029 A 
ATOM     23  C   UNL A   1      40.946  28.282  28.769  1.00  0.00     0.049 A 
ATOM     24  H   UNL A   1      40.710  29.293  30.575  1.00  0.00     0.167 HD
ATOM     25  C   UNL A   1      39.855  31.112  34.433  1.00  0.00     0.037 A 
ATOM     26  C   UNL A   1      41.958  27.411  28.932  1.00  0.00     0.037 A 
ATOM     27  C   UNL A   1      41.076  30.382  34.632  1.00  0.00     0.049 A 
ATOM     28  C   UNL A   1      42.634  27.287  30.264  1.00  0.00     0.074 A 
ATOM     29  C   UNL A   1      41.932  30.391  35.721  1.00  0.00     0.029 A 
ATOM     30  N   UNL A   1      41.598  29.477  33.722  1.00  0.00    -0.354 N 
ATOM     31  N   UNL A   1      42.395  27.942  31.371  1.00  0.00    -0.248 NA
ATOM     32  C   UNL A   1      43.715  26.295  30.370  1.00  0.00     0.031 C 
ATOM     33  C   UNL A   1      42.960  29.469  35.480  1.00  0.00     0.029 A 
ATOM     34  C   UNL A   1      42.739  28.889  34.242  1.00  0.00     0.049 A 
ATOM     35  H   UNL A   1      41.214  29.281  32.837  1.00  0.00     0.167 HD
ATOM     36  C   UNL A   1      43.304  27.460  32.300  1.00  0.00     0.074 A 
ATOM     37  C   UNL A   1      44.082  26.433  31.638  1.00  0.00     0.031 C 
ATOM     38  C   UNL A   1      43.489  27.856  33.582  1.00  0.00     0.037 A 
BRANCH  25  39
ATOM     39  C   UNL A   1      39.328  31.930  35.568  1.00  0.00     0.064 A 
ATOM     40  C   UNL A   1      39.695  33.275  35.720  1.00  0.00     0.173 A 
ATOM     41  C   UNL A   1      38.436  31.368  36.496  1.00  0.00     0.173 A 
ATOM     42  F   UNL A   1      40.561  33.843  34.865  1.00  0.00    -0.203 F 
ATOM     43  C   UNL A   1      39.185  34.033  36.770  1.00  0.00     0.198 A 
ATOM     44  C   UNL A   1      37.924  32.131  37.541  1.00  0.00     0.198 A 
ATOM     45  F   UNL A   1      38.068  30.082  36.390  1.00  0.00    -0.203 F 
ATOM     46  F   UNL A   1      39.559  35.314  36.911  1.00  0.00    -0.200 F 
ATOM     47  C   UNL A   1      38.300  33.462  37.677  1.00  0.00     0.200 A 
ATOM     48  F   UNL A   1      37.075  31.577  38.420  1.00  0.00    -0.200 F 
ATOM     49  F   UNL A   1      37.814  34.192  38.691  1.00  0.00    -0.200 F 
ENDBRANCH  25  39
BRANCH  26  50
ATOM     50  C   UNL A   1      42.332  26.525  27.808  1.00  0.00     0.064 A 
ATOM     51  C   UNL A   1      41.632  25.328  27.593  1.00  0.00     0.173 A 
ATOM     52  C   UNL A   1      43.359  26.869  26.920  1.00  0.00     0.173 A 
ATOM     53  F   UNL A   1      40.648  24.964  28.430  1.00  0.00    -0.203 F 
ATOM     54  C   UNL A   1      41.949  24.503  26.518  1.00  0.00     0.198 A 
ATOM     55  C   UNL A   1      43.672  26.044  25.843  1.00  0.00     0.198 A 
ATOM     56  F   UNL A   1      44.051  28.004  27.098  1.00  0.00    -0.203 F 
ATOM     57  F   UNL A   1      41.270  23.362  26.331  1.00  0.00    -0.200 F 
ATOM     58  C   UNL A   1      42.967  24.864  25.643  1.00  0.00     0.200 A 
ATOM     59  F   UNL A   1      44.657  26.390  25.001  1.00  0.00    -0.200 F 
ATOM     60  F   UNL A   1      43.271  24.069  24.607  1.00  0.00    -0.200 F 
ENDBRANCH  26  50
BRANCH  38  61
ATOM     61  C   UNL A   1      44.579  27.182  34.350  1.00  0.00     0.064 A 
ATOM     62  C   UNL A   1      45.875  27.715  34.371  1.00  0.00     0.173 A 
ATOM     63  C   UNL A   1      44.320  26.021  35.093  1.00  0.00     0.173 A 
ATOM     64  F   UNL A   1      46.164  28.819  33.664  1.00  0.00    -0.203 F 
ATOM     65  C   UNL A   1      46.884  27.105  35.111  1.00  0.00     0.198 A 
ATOM     66  C   UNL A   1      45.332  25.414  35.834  1.00  0.00     0.198 A 
ATOM     67  F   UNL A   1      43.095  25.475  35.092  1.00  0.00    -0.203 F 
ATOM     68  F   UNL A   1      48.120  27.623  35.111  1.00  0.00    -0.200 F 
ATOM     69  C   UNL A   1      46.611  25.956  35.842  1.00  0.00     0.200 A 
ATOM     70  F   UNL A   1      45.071  24.301  36.534  1.00  0.00    -0.200 F 
ATOM     71  F   UNL A   1      47.584  25.367  36.551  1.00  0.00    -0.200 F 
ENDBRANCH  38  61
ENDBRANCH  12  13
ENDBRANCH   5   7
ENDBRANCH   2   3
ENDBRANCH   1   2
BRANCH   1  72
ATOM     72  C   UNL A   1      32.261  27.355  26.626  1.00  0.00     0.118 C 
BRANCH  72  73
ATOM     73  N   UNL A   1      31.134  26.472  26.875  1.00  0.00    -0.352 N 
ATOM     74  C   UNL A   1      30.400  25.685  26.024  1.00  0.00     0.257 C 
ATOM     75  H   UNL A   1      30.847  26.432  27.816  1.00  0.00     0.163 HD
ATOM     76  O   UNL A   1      29.373  25.167  26.464  1.00  0.00    -0.269 OA
BRANCH  74  77
ATOM     77  C   UNL A   1      30.824  25.489  24.661  1.00  0.00     0.113 A 
ATOM     78  C   UNL A   1      30.572  26.322  23.524  1.00  0.00     0.127 A 
ATOM     79  C   UNL A   1      31.396  24.354  24.116  1.00  0.00     0.175 A 
ATOM     80  N   UNL A   1      31.099  25.775  22.416  1.00  0.00    -0.079 NA
ATOM     81  O   UNL A   1      31.610  24.553  22.791  1.00  0.00    -0.357 OA
BRANCH  78  82
ATOM     82  C   UNL A   1      29.838  27.587  23.445  1.00  0.00     0.005 A 
ATOM     83  C   UNL A   1      28.447  27.615  23.261  1.00  0.00     0.012 A 
ATOM     84  C   UNL A   1      30.537  28.806  23.539  1.00  0.00     0.012 A 
ATOM     85  C   UNL A   1      27.775  28.841  23.161  1.00  0.00     0.021 A 
ATOM     86  C   UNL A   1      29.867  30.030  23.434  1.00  0.00     0.021 A 
ATOM     87  C   UNL A   1      28.487  30.041  23.243  1.00  0.00     0.041 A 
ATOM     88  Cl  UNL A   1      27.658  31.546  23.107  1.00  0.00    -0.084 Cl
ENDBRANCH  78  82
BRANCH  79  89
ATOM     89  C   UNL A   1      31.765  23.016  24.638  1.00  0.00     0.242 C 
BRANCH  89  90
ATOM     90  O   UNL A   1      32.890  22.546  23.904  1.00  0.00    -0.345 OA
BRANCH  90  91
ATOM     91  C   UNL A   1      34.144  22.661  24.572  1.00  0.00     0.250 C 
ATOM     92  C   UNL A   1      35.092  23.651  23.874  1.00  0.00     0.062 C 
ATOM     93  O   UNL A   1      34.734  21.376  24.784  1.00  0.00    -0.353 OA
ATOM     94  C   UNL A   1      36.313  22.952  23.290  1.00  0.00     0.008 C 
ATOM     95  C   UNL A   1      36.040  21.485  25.344  1.00  0.00     0.163 C 
ATOM     96  C   UNL A   1      37.012  22.090  24.336  1.00  0.00     0.029 C 
ENDBRANCH  90  91
ENDBRANCH  89  90
ENDBRANCH  79  89
ENDBRANCH  74  77
ENDBRANCH  72  73
ENDBRANCH   1  72
TORSDOF 14
ENDMDL
MODEL 3
REMARK VINA RESULT:     -13.3      0.710      1.835
REMARK SMILES O=C(NCCCNC(=O)c1c(-c2ccc(Cl)cc2)noc1CO[C@@H]1CCCCO1)c1ccc(-c2c3nc(c(-c4c(F)c(F)c(F)c(F)c4F)c4ccc([nH]4)c(-c4c(F)c(F)c(F)c(F)c4F)c4nc(c(-c5c(F)c(F)c(F)c(F)c5F)c5ccc2[nH]5)C=C4)C=C3)cc1
REMARK SMILES IDX 5 1 4 2 3 3 1 4 2 5 30 7 31 8 92 9 32 10 91 11 33 12 34 13
REMARK SMILES IDX 35 14 85 15 36 16 90 17 84 18 86 19 37 20 89 21 83 22 82 23
REMARK SMILES IDX 38 25 70 26 50 27 69 28 51 29 54 30 68 31 87 32 52 33 53 34
REMARK SMILES IDX 67 36 88 37 55 38 39 39 40 40 48 41 41 42 42 43 46 44 49 45
REMARK SMILES IDX 43 46 44 47 47 48 45 49 71 50 72 51 80 52 73 53 74 54 78 55
REMARK SMILES IDX 81 56 75 57 76 58 79 59 77 60 56 61 57 62 65 63 58 64 59 65
REMARK SMILES IDX 63 66 66 67 60 68 61 69 64 70 62 71 6 72 7 73 8 74 9 76
REMARK SMILES IDX 10 77 11 78 21 79 19 80 20 81 12 82 13 83 18 84 14 85 17 86
REMARK SMILES IDX 15 87 16 88 22 89 23 90 24 91 25 92 29 93 26 94 28 95 27 96
REMARK H PARENT 3 6 86 24 54 35 7 75
REMARK Flexibility Score: inf
ROOT
ATOM      1  C   UNL A   1      31.931  28.507  26.445  1.00  0.00     0.042 C 
ENDROOT
BRANCH   1   2
ATOM      2  C   UNL A   1      32.872  29.593  25.921  1.00  0.00     0.118 C 
BRANCH   2   3
ATOM      3  N   UNL A   1      32.545  30.928  26.403  1.00  0.00    -0.352 N 
ATOM      4  O   UNL A   1      32.732  32.812  27.624  1.00  0.00    -0.269 OA
ATOM      5  C   UNL A   1      33.231  31.748  27.269  1.00  0.00     0.251 C 
ATOM      6  H   UNL A   1      31.702  31.302  26.055  1.00  0.00     0.163 HD
BRANCH   5   7
ATOM      7  C   UNL A   1      34.550  31.347  27.808  1.00  0.00     0.039 A 
ATOM      8  C   UNL A   1      34.811  30.026  28.181  1.00  0.00     0.014 A 
ATOM      9  C   UNL A   1      35.554  32.321  27.918  1.00  0.00     0.014 A 
ATOM     10  C   UNL A   1      36.030  29.707  28.778  1.00  0.00     0.010 A 
ATOM     11  C   UNL A   1      36.792  31.992  28.481  1.00  0.00     0.010 A 
ATOM     12  C   UNL A   1      37.020  30.691  28.951  1.00  0.00    -0.014 A 
BRANCH  12  13
ATOM     13  C   UNL A   1      38.274  30.333  29.657  1.00  0.00     0.031 A 
ATOM     14  C   UNL A   1      38.474  30.728  31.093  1.00  0.00     0.074 A 
ATOM     15  C   UNL A   1      39.189  29.567  29.037  1.00  0.00     0.049 A 
ATOM     16  N   UNL A   1      39.453  30.415  31.905  1.00  0.00    -0.248 NA
ATOM     17  C   UNL A   1      37.442  31.584  31.698  1.00  0.00     0.031 C 
ATOM     18  C   UNL A   1      39.111  29.121  27.646  1.00  0.00     0.029 A 
ATOM     19  N   UNL A   1      40.335  28.984  29.516  1.00  0.00    -0.354 N 
ATOM     20  C   UNL A   1      39.177  31.061  33.100  1.00  0.00     0.074 A 
ATOM     21  C   UNL A   1      37.926  31.770  32.919  1.00  0.00     0.031 C 
ATOM     22  C   UNL A   1      40.122  28.269  27.407  1.00  0.00     0.029 A 
ATOM     23  C   UNL A   1      40.914  28.118  28.624  1.00  0.00     0.049 A 
ATOM     24  H   UNL A   1      40.703  29.169  30.410  1.00  0.00     0.167 HD
ATOM     25  C   UNL A   1      39.906  31.073  34.240  1.00  0.00     0.037 A 
ATOM     26  C   UNL A   1      41.939  27.262  28.788  1.00  0.00     0.037 A 
ATOM     27  C   UNL A   1      41.139  30.361  34.432  1.00  0.00     0.049 A 
ATOM     28  C   UNL A   1      42.642  27.177  30.108  1.00  0.00     0.074 A 
ATOM     29  C   UNL A   1      42.017  30.405  35.502  1.00  0.00     0.029 A 
ATOM     30  N   UNL A   1      41.652  29.439  33.533  1.00  0.00    -0.354 N 
ATOM     31  N   UNL A   1      42.419  27.856  31.204  1.00  0.00    -0.248 NA
ATOM     32  C   UNL A   1      43.736  26.199  30.216  1.00  0.00     0.031 C 
ATOM     33  C   UNL A   1      43.049  29.489  35.262  1.00  0.00     0.029 A 
ATOM     34  C   UNL A   1      42.809  28.876  34.044  1.00  0.00     0.049 A 
ATOM     35  H   UNL A   1      41.253  29.218  32.661  1.00  0.00     0.167 HD
ATOM     36  C   UNL A   1      43.351  27.407  32.125  1.00  0.00     0.074 A 
ATOM     37  C   UNL A   1      44.127  26.372  31.473  1.00  0.00     0.031 C 
ATOM     38  C   UNL A   1      43.558  27.835  33.394  1.00  0.00     0.037 A 
BRANCH  25  39
ATOM     39  C   UNL A   1      39.393  31.912  35.366  1.00  0.00     0.064 A 
ATOM     40  C   UNL A   1      39.756  33.262  35.483  1.00  0.00     0.173 A 
ATOM     41  C   UNL A   1      38.518  31.367  36.319  1.00  0.00     0.173 A 
ATOM     42  F   UNL A   1      40.605  33.816  34.603  1.00  0.00    -0.203 F 
ATOM     43  C   UNL A   1      39.259  34.040  36.525  1.00  0.00     0.198 A 
ATOM     44  C   UNL A   1      38.019  32.149  37.356  1.00  0.00     0.198 A 
ATOM     45  F   UNL A   1      38.155  30.077  36.246  1.00  0.00    -0.203 F 
ATOM     46  F   UNL A   1      39.629  35.325  36.633  1.00  0.00    -0.200 F 
ATOM     47  C   UNL A   1      38.390  33.484  37.458  1.00  0.00     0.200 A 
ATOM     48  F   UNL A   1      37.186  31.611  38.260  1.00  0.00    -0.200 F 
ATOM     49  F   UNL A   1      37.917  34.234  38.463  1.00  0.00    -0.200 F 
ENDBRANCH  25  39
BRANCH  26  50
ATOM     50  C   UNL A   1      42.299  26.352  27.678  1.00  0.00     0.064 A 
ATOM     51  C   UNL A   1      43.322  26.703  26.785  1.00  0.00     0.173 A 
ATOM     52  C   UNL A   1      41.659  25.117  27.512  1.00  0.00     0.173 A 
ATOM     53  F   UNL A   1      43.950  27.883  26.910  1.00  0.00    -0.203 F 
ATOM     54  C   UNL A   1      43.696  25.840  25.759  1.00  0.00     0.198 A 
ATOM     55  C   UNL A   1      42.037  24.255  26.487  1.00  0.00     0.198 A 
ATOM     56  F   UNL A   1      40.674  24.752  28.346  1.00  0.00    -0.203 F 
ATOM     57  F   UNL A   1      44.674  26.195  24.914  1.00  0.00    -0.200 F 
ATOM     58  C   UNL A   1      43.054  24.617  25.613  1.00  0.00     0.200 A 
ATOM     59  F   UNL A   1      41.415  23.075  26.343  1.00  0.00    -0.200 F 
ATOM     60  F   UNL A   1      43.416  23.785  24.624  1.00  0.00    -0.200 F 
ENDBRANCH  26  50
BRANCH  38  61
ATOM     61  C   UNL A   1      44.670  27.192  34.156  1.00  0.00     0.064 A 
ATOM     62  C   UNL A   1      45.972  27.709  34.096  1.00  0.00     0.173 A 
ATOM     63  C   UNL A   1      44.429  26.078  34.972  1.00  0.00     0.173 A 
ATOM     64  F   UNL A   1      46.243  28.768  33.317  1.00  0.00    -0.203 F 
ATOM     65  C   UNL A   1      47.002  27.128  34.829  1.00  0.00     0.198 A 
ATOM     66  C   UNL A   1      45.463  25.501  35.706  1.00  0.00     0.198 A 
ATOM     67  F   UNL A   1      43.199  25.548  35.049  1.00  0.00    -0.203 F 
ATOM     68  F   UNL A   1      48.243  27.630  34.751  1.00  0.00    -0.200 F 
ATOM     69  C   UNL A   1      46.747  26.026  35.634  1.00  0.00     0.200 A 
ATOM     70  F   UNL A   1      45.219  24.431  36.477  1.00  0.00    -0.200 F 
ATOM     71  F   UNL A   1      47.741  25.465  36.336  1.00  0.00    -0.200 F 
ENDBRANCH  38  61
ENDBRANCH  12  13
ENDBRANCH   5   7
ENDBRANCH   2   3
ENDBRANCH   1   2
BRANCH   1  72
ATOM     72  C   UNL A   1      32.353  27.071  26.143  1.00  0.00     0.118 C 
BRANCH  72  73
ATOM     73  N   UNL A   1      31.275  26.264  25.595  1.00  0.00    -0.352 N 
ATOM     74  C   UNL A   1      30.970  25.926  24.301  1.00  0.00     0.257 C 
ATOM     75  H   UNL A   1      30.657  25.898  26.268  1.00  0.00     0.163 HD
ATOM     76  O   UNL A   1      29.888  25.375  24.092  1.00  0.00    -0.269 OA
BRANCH  74  77
ATOM     77  C   UNL A   1      31.890  26.221  23.232  1.00  0.00     0.113 A 
ATOM     78  C   UNL A   1      33.021  25.458  22.799  1.00  0.00     0.127 A 
ATOM     79  C   UNL A   1      31.999  27.403  22.523  1.00  0.00     0.175 A 
ATOM     80  N   UNL A   1      33.656  26.090  21.798  1.00  0.00    -0.079 NA
ATOM     81  O   UNL A   1      33.016  27.297  21.630  1.00  0.00    -0.357 OA
BRANCH  78  82
ATOM     82  C   UNL A   1      33.532  24.183  23.309  1.00  0.00     0.005 A 
ATOM     83  C   UNL A   1      32.773  23.006  23.226  1.00  0.00     0.012 A 
ATOM     84  C   UNL A   1      34.803  24.134  23.912  1.00  0.00     0.012 A 
ATOM     85  C   UNL A   1      33.277  21.806  23.749  1.00  0.00     0.021 A 
ATOM     86  C   UNL A   1      35.304  22.937  24.437  1.00  0.00     0.021 A 
ATOM     87  C   UNL A   1      34.535  21.778  24.355  1.00  0.00     0.041 A 
ATOM     88  Cl  UNL A   1      35.145  20.304  25.007  1.00  0.00    -0.084 Cl
ENDBRANCH  78  82
BRANCH  79  89
ATOM     89  C   UNL A   1      31.304  28.712  22.560  1.00  0.00     0.242 C 
BRANCH  89  90
ATOM     90  O   UNL A   1      29.956  28.513  22.152  1.00  0.00    -0.345 OA
BRANCH  90  91
ATOM     91  C   UNL A   1      29.020  29.464  22.656  1.00  0.00     0.250 C 
ATOM     92  C   UNL A   1      28.151  30.078  21.546  1.00  0.00     0.062 C 
ATOM     93  O   UNL A   1      29.672  30.447  23.465  1.00  0.00    -0.353 OA
ATOM     94  C   UNL A   1      28.430  31.564  21.363  1.00  0.00     0.008 C 
ATOM     95  C   UNL A   1      28.768  31.468  23.878  1.00  0.00     0.163 C 
ATOM     96  C   UNL A   1      28.328  32.315  22.688  1.00  0.00     0.029 C 
ENDBRANCH  90  91
ENDBRANCH  89  90
ENDBRANCH  79  89
ENDBRANCH  74  77
ENDBRANCH  72  73
ENDBRANCH   1  72
TORSDOF 14
ENDMDL
