MODEL 1
REMARK VINA RESULT:      -9.2      0.000      0.000
REMARK SMILES CCN(CC)c1ccc(NC(=O)[C@@H]2CC=CC[C@@H]2C(=O)NCCCNC(=O)c2ccc(-c3c4nc(c(-c5c(F)c(F)c(F)c(F)c5F)c5ccc([nH]5)c(-c5c(F)c(F)c(F)c(F)c5F)c5nc(c(-c6c(F)c(F)c(F)c(F)c6F)c6ccc3[nH]6)C=C5)C=C4)cc2)cc1
REMARK SMILES IDX 22 1 21 2 19 3 20 4 18 6 13 7 14 8 15 9 17 10 16 11 11 12
REMARK SMILES IDX 10 13 12 15 9 16 6 17 7 18 92 19 8 20 91 21 3 22 2 23 1 24
REMARK SMILES IDX 4 25 5 26 23 27 24 28 25 29 26 30 27 32 28 33 29 34 90 35
REMARK SMILES IDX 30 36 89 37 31 38 32 39 33 40 83 41 34 42 88 43 82 44 84 45
REMARK SMILES IDX 35 46 87 47 81 48 80 49 36 51 68 52 48 53 67 54 49 55 52 56
REMARK SMILES IDX 66 57 85 58 50 59 51 60 65 62 86 63 53 64 37 65 38 66 46 67
REMARK SMILES IDX 39 68 40 69 44 70 47 71 41 72 42 73 45 74 43 75 69 76 70 77
REMARK SMILES IDX 78 78 71 79 72 80 76 81 79 82 73 83 74 84 77 85 75 86 54 87
REMARK SMILES IDX 55 88 63 89 56 90 57 91 61 92 64 93 58 94 59 95 62 96 60 97
REMARK H PARENT 21 5 10 14 25 31 84 50 52 61
REMARK Flexibility Score: inf
ROOT
ATOM      1  C   UNL A   1      34.765  32.957  30.847  1.00  0.00     0.117 C 
ENDROOT
BRANCH   1   2
ATOM      2  N   UNL A   1      35.324  33.981  31.712  1.00  0.00    -0.356 N 
ATOM      3  C   UNL A   1      36.592  34.201  32.153  1.00  0.00     0.224 C 
ATOM      4  O   UNL A   1      36.775  35.176  32.883  1.00  0.00    -0.275 OA
ATOM      5  H   UNL A   1      34.664  34.635  32.040  1.00  0.00     0.163 HD
BRANCH   3   6
ATOM      6  C   UNL A   1      37.726  33.289  31.708  1.00  0.00     0.095 C 
ATOM      7  C   UNL A   1      38.373  32.491  32.850  1.00  0.00     0.095 C 
ATOM      8  C   UNL A   1      39.070  33.404  33.869  1.00  0.00     0.041 C 
ATOM      9  C   UNL A   1      40.013  34.350  33.190  1.00  0.00    -0.030 C 
ATOM     10  C   UNL A   1      38.822  34.123  30.992  1.00  0.00     0.041 C 
ATOM     11  C   UNL A   1      39.912  34.654  31.887  1.00  0.00    -0.030 C 
BRANCH   7  12
ATOM     12  C   UNL A   1      37.477  31.519  33.591  1.00  0.00     0.228 C 
ATOM     13  N   UNL A   1      37.914  30.267  33.942  1.00  0.00    -0.326 N 
ATOM     14  H   UNL A   1      37.195  29.676  34.261  1.00  0.00     0.169 HD
ATOM     15  O   UNL A   1      36.323  31.825  33.901  1.00  0.00    -0.274 OA
BRANCH  13  16
ATOM     16  C   UNL A   1      39.184  29.657  33.938  1.00  0.00     0.041 A 
ATOM     17  C   UNL A   1      41.801  28.505  34.045  1.00  0.00     0.037 A 
ATOM     18  C   UNL A   1      40.897  28.205  33.032  1.00  0.00     0.028 A 
ATOM     19  C   UNL A   1      41.354  29.398  35.024  1.00  0.00     0.028 A 
ATOM     20  C   UNL A   1      39.640  28.797  32.953  1.00  0.00     0.028 A 
ATOM     21  C   UNL A   1      40.068  29.972  34.973  1.00  0.00     0.028 A 
BRANCH  17  22
ATOM     22  N   UNL A   1      43.074  27.970  34.025  1.00  0.00    -0.372 N 
BRANCH  22  23
ATOM     23  C   UNL A   1      44.005  28.156  35.138  1.00  0.00     0.113 C 
ATOM     24  C   UNL A   1      45.279  28.875  34.722  1.00  0.00     0.027 C 
ENDBRANCH  22  23
BRANCH  22  25
ATOM     25  C   UNL A   1      43.531  27.214  32.849  1.00  0.00     0.113 C 
ATOM     26  C   UNL A   1      44.022  25.809  33.184  1.00  0.00     0.027 C 
ENDBRANCH  22  25
ENDBRANCH  17  22
ENDBRANCH  13  16
ENDBRANCH   7  12
ENDBRANCH   3   6
ENDBRANCH   1   2
BRANCH   1  27
ATOM     27  C   UNL A   1      34.383  33.473  29.463  1.00  0.00     0.042 C 
BRANCH  27  28
ATOM     28  C   UNL A   1      34.940  32.659  28.306  1.00  0.00     0.118 C 
BRANCH  28  29
ATOM     29  N   UNL A   1      34.204  31.420  28.102  1.00  0.00    -0.352 N 
ATOM     30  C   UNL A   1      34.679  30.140  27.952  1.00  0.00     0.251 C 
ATOM     31  H   UNL A   1      33.225  31.513  28.066  1.00  0.00     0.163 HD
ATOM     32  O   UNL A   1      33.931  29.248  27.570  1.00  0.00    -0.269 OA
BRANCH  30  33
ATOM     33  C   UNL A   1      36.101  29.839  28.232  1.00  0.00     0.039 A 
ATOM     34  C   UNL A   1      36.447  29.328  29.486  1.00  0.00     0.014 A 
ATOM     35  C   UNL A   1      37.091  30.077  27.275  1.00  0.00     0.014 A 
ATOM     36  C   UNL A   1      37.778  29.006  29.760  1.00  0.00     0.010 A 
ATOM     37  C   UNL A   1      38.404  29.683  27.522  1.00  0.00     0.010 A 
ATOM     38  C   UNL A   1      38.763  29.154  28.769  1.00  0.00    -0.014 A 
BRANCH  38  39
ATOM     39  C   UNL A   1      40.177  28.781  29.030  1.00  0.00     0.031 A 
ATOM     40  C   UNL A   1      41.089  29.739  29.745  1.00  0.00     0.074 A 
ATOM     41  C   UNL A   1      40.654  27.605  28.578  1.00  0.00     0.049 A 
ATOM     42  N   UNL A   1      42.366  29.627  30.010  1.00  0.00    -0.248 NA
ATOM     43  C   UNL A   1      40.491  31.005  30.202  1.00  0.00     0.031 C 
ATOM     44  C   UNL A   1      39.883  26.608  27.835  1.00  0.00     0.029 A 
ATOM     45  N   UNL A   1      41.907  27.053  28.672  1.00  0.00    -0.354 N 
ATOM     46  C   UNL A   1      42.724  30.807  30.650  1.00  0.00     0.074 A 
ATOM     47  C   UNL A   1      41.545  31.644  30.685  1.00  0.00     0.031 C 
ATOM     48  C   UNL A   1      40.671  25.557  27.561  1.00  0.00     0.029 A 
ATOM     49  C   UNL A   1      42.011  25.820  28.077  1.00  0.00     0.049 A 
ATOM     50  H   UNL A   1      42.660  27.498  29.124  1.00  0.00     0.167 HD
ATOM     51  C   UNL A   1      43.919  31.150  31.185  1.00  0.00     0.037 A 
ATOM     52  C   UNL A   1      43.071  24.996  27.959  1.00  0.00     0.037 A 
ATOM     53  C   UNL A   1      45.086  30.307  31.173  1.00  0.00     0.049 A 
ATOM     54  C   UNL A   1      44.391  25.406  28.556  1.00  0.00     0.074 A 
ATOM     55  C   UNL A   1      46.331  30.547  31.725  1.00  0.00     0.029 A 
ATOM     56  N   UNL A   1      45.146  29.056  30.577  1.00  0.00    -0.354 N 
ATOM     57  N   UNL A   1      44.700  26.498  29.210  1.00  0.00    -0.248 NA
ATOM     58  C   UNL A   1      45.506  24.462  28.404  1.00  0.00     0.031 C 
ATOM     59  C   UNL A   1      47.157  29.455  31.434  1.00  0.00     0.029 A 
ATOM     60  C   UNL A   1      46.413  28.517  30.737  1.00  0.00     0.049 A 
ATOM     61  H   UNL A   1      44.400  28.616  30.108  1.00  0.00     0.167 HD
ATOM     62  C   UNL A   1      46.033  26.361  29.571  1.00  0.00     0.074 A 
ATOM     63  C   UNL A   1      46.470  25.073  29.077  1.00  0.00     0.031 C 
ATOM     64  C   UNL A   1      46.825  27.226  30.252  1.00  0.00     0.037 A 
BRANCH  51  65
ATOM     65  C   UNL A   1      44.022  32.495  31.843  1.00  0.00     0.064 A 
ATOM     66  C   UNL A   1      44.423  33.633  31.125  1.00  0.00     0.173 A 
ATOM     67  C   UNL A   1      43.686  32.657  33.195  1.00  0.00     0.173 A 
ATOM     68  F   UNL A   1      44.767  33.528  29.833  1.00  0.00    -0.203 F 
ATOM     69  C   UNL A   1      44.510  34.877  31.744  1.00  0.00     0.198 A 
ATOM     70  C   UNL A   1      43.746  33.909  33.803  1.00  0.00     0.198 A 
ATOM     71  F   UNL A   1      43.291  31.604  33.926  1.00  0.00    -0.203 F 
ATOM     72  F   UNL A   1      44.940  35.939  31.049  1.00  0.00    -0.200 F 
ATOM     73  C   UNL A   1      44.165  35.016  33.079  1.00  0.00     0.200 A 
ATOM     74  F   UNL A   1      43.400  34.045  35.091  1.00  0.00    -0.200 F 
ATOM     75  F   UNL A   1      44.241  36.216  33.671  1.00  0.00    -0.200 F 
ENDBRANCH  51  65
BRANCH  52  76
ATOM     76  C   UNL A   1      42.924  23.688  27.271  1.00  0.00     0.064 A 
ATOM     77  C   UNL A   1      42.376  22.584  27.939  1.00  0.00     0.173 A 
ATOM     78  C   UNL A   1      43.340  23.507  25.945  1.00  0.00     0.173 A 
ATOM     79  F   UNL A   1      41.984  22.702  29.217  1.00  0.00    -0.203 F 
ATOM     80  C   UNL A   1      42.272  21.342  27.314  1.00  0.00     0.198 A 
ATOM     81  C   UNL A   1      43.210  22.273  25.311  1.00  0.00     0.198 A 
ATOM     82  F   UNL A   1      43.867  24.534  25.260  1.00  0.00    -0.203 F 
ATOM     83  F   UNL A   1      41.790  20.292  27.992  1.00  0.00    -0.200 F 
ATOM     84  C   UNL A   1      42.684  21.190  25.999  1.00  0.00     0.200 A 
ATOM     85  F   UNL A   1      43.598  22.132  24.037  1.00  0.00    -0.200 F 
ATOM     86  F   UNL A   1      42.584  19.996  25.399  1.00  0.00    -0.200 F 
ENDBRANCH  52  76
BRANCH  64  87
ATOM     87  C   UNL A   1      48.231  26.788  30.538  1.00  0.00     0.064 A 
ATOM     88  C   UNL A   1      49.299  27.151  29.703  1.00  0.00     0.173 A 
ATOM     89  C   UNL A   1      48.518  26.027  31.681  1.00  0.00     0.173 A 
ATOM     90  F   UNL A   1      49.073  27.864  28.590  1.00  0.00    -0.203 F 
ATOM     91  C   UNL A   1      50.599  26.743  29.989  1.00  0.00     0.198 A 
ATOM     92  C   UNL A   1      49.824  25.646  31.978  1.00  0.00     0.198 A 
ATOM     93  F   UNL A   1      47.533  25.660  32.513  1.00  0.00    -0.203 F 
ATOM     94  F   UNL A   1      51.598  27.061  29.153  1.00  0.00    -0.200 F 
ATOM     95  C   UNL A   1      50.861  25.998  31.129  1.00  0.00     0.200 A 
ATOM     96  F   UNL A   1      50.076  24.935  33.086  1.00  0.00    -0.200 F 
ATOM     97  F   UNL A   1      52.115  25.612  31.405  1.00  0.00    -0.200 F 
ENDBRANCH  64  87
ENDBRANCH  38  39
ENDBRANCH  30  33
ENDBRANCH  28  29
ENDBRANCH  27  28
ENDBRANCH   1  27
TORSDOF 15
ENDMDL
MODEL 2
REMARK VINA RESULT:      -9.1      3.705     10.097
REMARK SMILES CCN(CC)c1ccc(NC(=O)[C@@H]2CC=CC[C@@H]2C(=O)NCCCNC(=O)c2ccc(-c3c4nc(c(-c5c(F)c(F)c(F)c(F)c5F)c5ccc([nH]5)c(-c5c(F)c(F)c(F)c(F)c5F)c5nc(c(-c6c(F)c(F)c(F)c(F)c6F)c6ccc3[nH]6)C=C5)C=C4)cc2)cc1
REMARK SMILES IDX 22 1 21 2 19 3 20 4 18 6 13 7 14 8 15 9 17 10 16 11 11 12
REMARK SMILES IDX 10 13 12 15 9 16 6 17 7 18 92 19 8 20 91 21 3 22 2 23 1 24
REMARK SMILES IDX 4 25 5 26 23 27 24 28 25 29 26 30 27 32 28 33 29 34 90 35
REMARK SMILES IDX 30 36 89 37 31 38 32 39 33 40 83 41 34 42 88 43 82 44 84 45
REMARK SMILES IDX 35 46 87 47 81 48 80 49 36 51 68 52 48 53 67 54 49 55 52 56
REMARK SMILES IDX 66 57 85 58 50 59 51 60 65 62 86 63 53 64 37 65 38 66 46 67
REMARK SMILES IDX 39 68 40 69 44 70 47 71 41 72 42 73 45 74 43 75 69 76 70 77
REMARK SMILES IDX 78 78 71 79 72 80 76 81 79 82 73 83 74 84 77 85 75 86 54 87
REMARK SMILES IDX 55 88 63 89 56 90 57 91 61 92 64 93 58 94 59 95 62 96 60 97
REMARK H PARENT 21 5 10 14 25 31 84 50 52 61
REMARK Flexibility Score: inf
ROOT
ATOM      1  C   UNL A   1      42.906  22.402  27.029  1.00  0.00     0.117 C 
ENDROOT
BRANCH   1   2
ATOM      2  N   UNL A   1      44.259  22.256  26.521  1.00  0.00    -0.356 N 
ATOM      3  C   UNL A   1      45.363  23.041  26.647  1.00  0.00     0.224 C 
ATOM      4  O   UNL A   1      46.398  22.650  26.106  1.00  0.00    -0.275 OA
ATOM      5  H   UNL A   1      44.403  21.441  25.989  1.00  0.00     0.163 HD
BRANCH   3   6
ATOM      6  C   UNL A   1      45.302  24.323  27.465  1.00  0.00     0.095 C 
ATOM      7  C   UNL A   1      45.354  25.606  26.623  1.00  0.00     0.095 C 
ATOM      8  C   UNL A   1      46.690  25.757  25.882  1.00  0.00     0.041 C 
ATOM      9  C   UNL A   1      47.848  25.609  26.822  1.00  0.00    -0.030 C 
ATOM     10  C   UNL A   1      46.464  24.347  28.492  1.00  0.00     0.041 C 
ATOM     11  C   UNL A   1      47.737  24.993  28.008  1.00  0.00    -0.030 C 
BRANCH   7  12
ATOM     12  C   UNL A   1      44.219  25.822  25.641  1.00  0.00     0.228 C 
ATOM     13  N   UNL A   1      43.613  27.044  25.504  1.00  0.00    -0.326 N 
ATOM     14  H   UNL A   1      42.787  27.014  24.969  1.00  0.00     0.169 HD
ATOM     15  O   UNL A   1      43.805  24.900  24.934  1.00  0.00    -0.274 OA
BRANCH  13  16
ATOM     16  C   UNL A   1      43.931  28.333  25.975  1.00  0.00     0.041 A 
ATOM     17  C   UNL A   1      44.433  30.980  26.937  1.00  0.00     0.037 A 
ATOM     18  C   UNL A   1      45.453  30.142  26.500  1.00  0.00     0.028 A 
ATOM     19  C   UNL A   1      43.140  30.450  26.893  1.00  0.00     0.028 A 
ATOM     20  C   UNL A   1      45.208  28.870  25.989  1.00  0.00     0.028 A 
ATOM     21  C   UNL A   1      42.887  29.149  26.415  1.00  0.00     0.028 A 
BRANCH  17  22
ATOM     22  N   UNL A   1      44.716  32.270  27.340  1.00  0.00    -0.372 N 
BRANCH  22  23
ATOM     23  C   UNL A   1      44.709  32.655  28.751  1.00  0.00     0.113 C 
ATOM     24  C   UNL A   1      46.109  32.868  29.308  1.00  0.00     0.027 C 
ENDBRANCH  22  23
BRANCH  22  25
ATOM     25  C   UNL A   1      45.005  33.304  26.334  1.00  0.00     0.113 C 
ATOM     26  C   UNL A   1      43.814  33.631  25.439  1.00  0.00     0.027 C 
ENDBRANCH  22  25
ENDBRANCH  17  22
ENDBRANCH  13  16
ENDBRANCH   7  12
ENDBRANCH   3   6
ENDBRANCH   1   2
BRANCH   1  27
ATOM     27  C   UNL A   1      41.852  21.738  26.149  1.00  0.00     0.042 C 
BRANCH  27  28
ATOM     28  C   UNL A   1      40.499  21.540  26.816  1.00  0.00     0.118 C 
BRANCH  28  29
ATOM     29  N   UNL A   1      39.400  21.964  25.963  1.00  0.00    -0.352 N 
ATOM     30  C   UNL A   1      38.710  23.151  25.959  1.00  0.00     0.251 C 
ATOM     31  H   UNL A   1      39.108  21.306  25.293  1.00  0.00     0.163 HD
ATOM     32  O   UNL A   1      37.669  23.256  25.319  1.00  0.00    -0.269 OA
BRANCH  30  33
ATOM     33  C   UNL A   1      39.209  24.303  26.744  1.00  0.00     0.039 A 
ATOM     34  C   UNL A   1      40.028  25.244  26.113  1.00  0.00     0.014 A 
ATOM     35  C   UNL A   1      38.893  24.445  28.098  1.00  0.00     0.014 A 
ATOM     36  C   UNL A   1      40.483  26.355  26.826  1.00  0.00     0.010 A 
ATOM     37  C   UNL A   1      39.283  25.592  28.785  1.00  0.00     0.010 A 
ATOM     38  C   UNL A   1      40.090  26.553  28.161  1.00  0.00    -0.014 A 
BRANCH  38  39
ATOM     39  C   UNL A   1      40.533  27.748  28.923  1.00  0.00     0.031 A 
ATOM     40  C   UNL A   1      41.936  27.821  29.458  1.00  0.00     0.074 A 
ATOM     41  C   UNL A   1      39.660  28.741  29.179  1.00  0.00     0.049 A 
ATOM     42  N   UNL A   1      42.494  28.747  30.199  1.00  0.00    -0.248 NA
ATOM     43  C   UNL A   1      42.826  26.693  29.138  1.00  0.00     0.031 C 
ATOM     44  C   UNL A   1      38.261  28.770  28.752  1.00  0.00     0.029 A 
ATOM     45  N   UNL A   1      39.821  29.917  29.868  1.00  0.00    -0.354 N 
ATOM     46  C   UNL A   1      43.788  28.305  30.442  1.00  0.00     0.074 A 
ATOM     47  C   UNL A   1      43.918  27.006  29.818  1.00  0.00     0.031 C 
ATOM     48  C   UNL A   1      37.697  29.915  29.167  1.00  0.00     0.029 A 
ATOM     49  C   UNL A   1      38.683  30.685  29.919  1.00  0.00     0.049 A 
ATOM     50  H   UNL A   1      40.671  30.186  30.286  1.00  0.00     0.167 HD
ATOM     51  C   UNL A   1      44.787  28.938  31.102  1.00  0.00     0.037 A 
ATOM     52  C   UNL A   1      38.461  31.875  30.510  1.00  0.00     0.037 A 
ATOM     53  C   UNL A   1      44.666  30.240  31.701  1.00  0.00     0.049 A 
ATOM     54  C   UNL A   1      39.587  32.552  31.245  1.00  0.00     0.074 A 
ATOM     55  C   UNL A   1      45.632  30.984  32.356  1.00  0.00     0.029 A 
ATOM     56  N   UNL A   1      43.503  30.995  31.715  1.00  0.00    -0.354 N 
ATOM     57  N   UNL A   1      40.823  32.152  31.417  1.00  0.00    -0.248 NA
ATOM     58  C   UNL A   1      39.287  33.853  31.860  1.00  0.00     0.031 C 
ATOM     59  C   UNL A   1      45.045  32.175  32.796  1.00  0.00     0.029 A 
ATOM     60  C   UNL A   1      43.723  32.191  32.379  1.00  0.00     0.049 A 
ATOM     61  H   UNL A   1      42.646  30.721  31.315  1.00  0.00     0.167 HD
ATOM     62  C   UNL A   1      41.454  33.160  32.133  1.00  0.00     0.074 A 
ATOM     63  C   UNL A   1      40.469  34.198  32.349  1.00  0.00     0.031 C 
ATOM     64  C   UNL A   1      42.735  33.221  32.572  1.00  0.00     0.037 A 
BRANCH  51  65
ATOM     65  C   UNL A   1      46.108  28.231  31.199  1.00  0.00     0.064 A 
ATOM     66  C   UNL A   1      46.382  27.331  32.241  1.00  0.00     0.173 A 
ATOM     67  C   UNL A   1      47.098  28.428  30.226  1.00  0.00     0.173 A 
ATOM     68  F   UNL A   1      45.473  27.117  33.204  1.00  0.00    -0.203 F 
ATOM     69  C   UNL A   1      47.608  26.676  32.319  1.00  0.00     0.198 A 
ATOM     70  C   UNL A   1      48.312  27.749  30.291  1.00  0.00     0.198 A 
ATOM     71  F   UNL A   1      46.886  29.273  29.205  1.00  0.00    -0.203 F 
ATOM     72  F   UNL A   1      47.863  25.857  33.349  1.00  0.00    -0.200 F 
ATOM     73  C   UNL A   1      48.569  26.880  31.341  1.00  0.00     0.200 A 
ATOM     74  F   UNL A   1      49.236  27.937  29.338  1.00  0.00    -0.200 F 
ATOM     75  F   UNL A   1      49.746  26.243  31.413  1.00  0.00    -0.200 F 
ENDBRANCH  51  65
BRANCH  52  76
ATOM     76  C   UNL A   1      37.126  32.519  30.411  1.00  0.00     0.064 A 
ATOM     77  C   UNL A   1      36.173  32.352  31.425  1.00  0.00     0.173 A 
ATOM     78  C   UNL A   1      36.769  33.298  29.301  1.00  0.00     0.173 A 
ATOM     79  F   UNL A   1      36.460  31.598  32.496  1.00  0.00    -0.203 F 
ATOM     80  C   UNL A   1      34.904  32.919  31.321  1.00  0.00     0.198 A 
ATOM     81  C   UNL A   1      35.510  33.888  29.211  1.00  0.00     0.198 A 
ATOM     82  F   UNL A   1      37.648  33.492  28.306  1.00  0.00    -0.203 F 
ATOM     83  F   UNL A   1      33.996  32.703  32.282  1.00  0.00    -0.200 F 
ATOM     84  C   UNL A   1      34.576  33.691  30.217  1.00  0.00     0.200 A 
ATOM     85  F   UNL A   1      35.201  34.643  28.149  1.00  0.00    -0.200 F 
ATOM     86  F   UNL A   1      33.357  34.237  30.118  1.00  0.00    -0.200 F 
ENDBRANCH  52  76
BRANCH  64  87
ATOM     87  C   UNL A   1      43.155  34.467  33.293  1.00  0.00     0.064 A 
ATOM     88  C   UNL A   1      43.081  34.569  34.690  1.00  0.00     0.173 A 
ATOM     89  C   UNL A   1      43.671  35.559  32.579  1.00  0.00     0.173 A 
ATOM     90  F   UNL A   1      42.580  33.557  35.415  1.00  0.00    -0.203 F 
ATOM     91  C   UNL A   1      43.485  35.730  35.343  1.00  0.00     0.198 A 
ATOM     92  C   UNL A   1      44.100  36.708  33.239  1.00  0.00     0.198 A 
ATOM     93  F   UNL A   1      43.767  35.508  31.242  1.00  0.00    -0.203 F 
ATOM     94  F   UNL A   1      43.362  35.824  36.675  1.00  0.00    -0.200 F 
ATOM     95  C   UNL A   1      44.000  36.795  34.619  1.00  0.00     0.200 A 
ATOM     96  F   UNL A   1      44.607  37.731  32.537  1.00  0.00    -0.200 F 
ATOM     97  F   UNL A   1      44.392  37.910  35.251  1.00  0.00    -0.200 F 
ENDBRANCH  64  87
ENDBRANCH  38  39
ENDBRANCH  30  33
ENDBRANCH  28  29
ENDBRANCH  27  28
ENDBRANCH   1  27
TORSDOF 15
ENDMDL
MODEL 3
REMARK VINA RESULT:      -9.0      4.686     10.840
REMARK SMILES CCN(CC)c1ccc(NC(=O)[C@@H]2CC=CC[C@@H]2C(=O)NCCCNC(=O)c2ccc(-c3c4nc(c(-c5c(F)c(F)c(F)c(F)c5F)c5ccc([nH]5)c(-c5c(F)c(F)c(F)c(F)c5F)c5nc(c(-c6c(F)c(F)c(F)c(F)c6F)c6ccc3[nH]6)C=C5)C=C4)cc2)cc1
REMARK SMILES IDX 22 1 21 2 19 3 20 4 18 6 13 7 14 8 15 9 17 10 16 11 11 12
REMARK SMILES IDX 10 13 12 15 9 16 6 17 7 18 92 19 8 20 91 21 3 22 2 23 1 24
REMARK SMILES IDX 4 25 5 26 23 27 24 28 25 29 26 30 27 32 28 33 29 34 90 35
REMARK SMILES IDX 30 36 89 37 31 38 32 39 33 40 83 41 34 42 88 43 82 44 84 45
REMARK SMILES IDX 35 46 87 47 81 48 80 49 36 51 68 52 48 53 67 54 49 55 52 56
REMARK SMILES IDX 66 57 85 58 50 59 51 60 65 62 86 63 53 64 37 65 38 66 46 67
REMARK SMILES IDX 39 68 40 69 44 70 47 71 41 72 42 73 45 74 43 75 69 76 70 77
REMARK SMILES IDX 78 78 71 79 72 80 76 81 79 82 73 83 74 84 77 85 75 86 54 87
REMARK SMILES IDX 55 88 63 89 56 90 57 91 61 92 64 93 58 94 59 95 62 96 60 97
REMARK H PARENT 21 5 10 14 25 31 84 50 52 61
REMARK Flexibility Score: inf
ROOT
ATOM      1  C   UNL A   1      31.544  30.321  26.165  1.00  0.00     0.117 C 
ENDROOT
BRANCH   1   2
ATOM      2  N   UNL A   1      32.415  30.081  25.027  1.00  0.00    -0.356 N 
ATOM      3  C   UNL A   1      32.541  29.013  24.193  1.00  0.00     0.224 C 
ATOM      4  O   UNL A   1      33.373  29.098  23.290  1.00  0.00    -0.275 OA
ATOM      5  H   UNL A   1      33.025  30.826  24.823  1.00  0.00     0.163 HD
BRANCH   3   6
ATOM      6  C   UNL A   1      31.645  27.795  24.367  1.00  0.00     0.095 C 
ATOM      7  C   UNL A   1      32.407  26.465  24.453  1.00  0.00     0.095 C 
ATOM      8  C   UNL A   1      33.149  26.139  23.149  1.00  0.00     0.041 C 
ATOM      9  C   UNL A   1      32.230  26.229  21.968  1.00  0.00    -0.030 C 
ATOM     10  C   UNL A   1      30.628  27.719  23.198  1.00  0.00     0.041 C 
ATOM     11  C   UNL A   1      31.083  26.923  22.001  1.00  0.00    -0.030 C 
BRANCH   7  12
ATOM     12  C   UNL A   1      33.364  26.303  25.618  1.00  0.00     0.228 C 
ATOM     13  N   UNL A   1      33.691  25.066  26.110  1.00  0.00    -0.326 N 
ATOM     14  H   UNL A   1      34.178  25.100  26.965  1.00  0.00     0.169 HD
ATOM     15  O   UNL A   1      33.877  27.284  26.161  1.00  0.00    -0.274 OA
BRANCH  13  16
ATOM     16  C   UNL A   1      33.471  23.756  25.640  1.00  0.00     0.041 A 
ATOM     17  C   UNL A   1      33.151  21.108  24.606  1.00  0.00     0.037 A 
ATOM     18  C   UNL A   1      32.174  21.728  25.377  1.00  0.00     0.028 A 
ATOM     19  C   UNL A   1      34.312  21.850  24.371  1.00  0.00     0.028 A 
ATOM     20  C   UNL A   1      32.308  23.033  25.844  1.00  0.00     0.028 A 
ATOM     21  C   UNL A   1      34.473  23.156  24.874  1.00  0.00     0.028 A 
BRANCH  17  22
ATOM     22  N   UNL A   1      32.929  19.851  24.079  1.00  0.00    -0.372 N 
BRANCH  22  23
ATOM     23  C   UNL A   1      32.238  19.660  22.804  1.00  0.00     0.113 C 
ATOM     24  C   UNL A   1      32.254  18.212  22.339  1.00  0.00     0.027 C 
ENDBRANCH  22  23
BRANCH  22  25
ATOM     25  C   UNL A   1      33.368  18.659  24.822  1.00  0.00     0.113 C 
ATOM     26  C   UNL A   1      34.832  18.302  24.587  1.00  0.00     0.027 C 
ENDBRANCH  22  25
ENDBRANCH  17  22
ENDBRANCH  13  16
ENDBRANCH   7  12
ENDBRANCH   3   6
ENDBRANCH   1   2
BRANCH   1  27
ATOM     27  C   UNL A   1      31.392  31.798  26.512  1.00  0.00     0.042 C 
BRANCH  27  28
ATOM     28  C   UNL A   1      32.666  32.469  27.004  1.00  0.00     0.118 C 
BRANCH  28  29
ATOM     29  N   UNL A   1      32.441  33.852  27.397  1.00  0.00    -0.352 N 
ATOM     30  C   UNL A   1      33.017  34.572  28.414  1.00  0.00     0.251 C 
ATOM     31  H   UNL A   1      31.780  34.342  26.856  1.00  0.00     0.163 HD
ATOM     32  O   UNL A   1      32.551  35.658  28.740  1.00  0.00    -0.269 OA
BRANCH  30  33
ATOM     33  C   UNL A   1      34.193  34.031  29.133  1.00  0.00     0.039 A 
ATOM     34  C   UNL A   1      33.989  33.084  30.139  1.00  0.00     0.014 A 
ATOM     35  C   UNL A   1      35.486  34.470  28.834  1.00  0.00     0.014 A 
ATOM     36  C   UNL A   1      35.087  32.537  30.808  1.00  0.00     0.010 A 
ATOM     37  C   UNL A   1      36.582  33.867  29.446  1.00  0.00     0.010 A 
ATOM     38  C   UNL A   1      36.395  32.903  30.446  1.00  0.00    -0.014 A 
BRANCH  38  39
ATOM     39  C   UNL A   1      37.574  32.304  31.119  1.00  0.00     0.031 A 
ATOM     40  C   UNL A   1      38.351  31.208  30.443  1.00  0.00     0.074 A 
ATOM     41  C   UNL A   1      37.916  32.707  32.358  1.00  0.00     0.049 A 
ATOM     42  N   UNL A   1      39.369  30.515  30.890  1.00  0.00    -0.248 NA
ATOM     43  C   UNL A   1      37.910  30.821  29.092  1.00  0.00     0.031 C 
ATOM     44  C   UNL A   1      37.219  33.731  33.137  1.00  0.00     0.029 A 
ATOM     45  N   UNL A   1      38.934  32.298  33.183  1.00  0.00    -0.354 N 
ATOM     46  C   UNL A   1      39.678  29.607  29.885  1.00  0.00     0.074 A 
ATOM     47  C   UNL A   1      38.709  29.798  28.828  1.00  0.00     0.031 C 
ATOM     48  C   UNL A   1      37.841  33.887  34.316  1.00  0.00     0.029 A 
ATOM     49  C   UNL A   1      38.960  32.952  34.391  1.00  0.00     0.049 A 
ATOM     50  H   UNL A   1      39.584  31.603  32.933  1.00  0.00     0.167 HD
ATOM     51  C   UNL A   1      40.694  28.714  29.836  1.00  0.00     0.037 A 
ATOM     52  C   UNL A   1      39.790  32.808  35.441  1.00  0.00     0.037 A 
ATOM     53  C   UNL A   1      41.674  28.541  30.876  1.00  0.00     0.049 A 
ATOM     54  C   UNL A   1      40.907  31.801  35.363  1.00  0.00     0.074 A 
ATOM     55  C   UNL A   1      42.766  27.693  30.902  1.00  0.00     0.029 A 
ATOM     56  N   UNL A   1      41.677  29.235  32.076  1.00  0.00    -0.354 N 
ATOM     57  N   UNL A   1      41.225  30.991  34.384  1.00  0.00    -0.248 NA
ATOM     58  C   UNL A   1      41.787  31.698  36.535  1.00  0.00     0.031 C 
ATOM     59  C   UNL A   1      43.412  27.849  32.133  1.00  0.00     0.029 A 
ATOM     60  C   UNL A   1      42.746  28.825  32.856  1.00  0.00     0.049 A 
ATOM     61  H   UNL A   1      41.017  29.918  32.337  1.00  0.00     0.167 HD
ATOM     62  C   UNL A   1      42.354  30.304  34.808  1.00  0.00     0.074 A 
ATOM     63  C   UNL A   1      42.675  30.804  36.128  1.00  0.00     0.031 C 
ATOM     64  C   UNL A   1      43.061  29.344  34.162  1.00  0.00     0.037 A 
BRANCH  51  65
ATOM     65  C   UNL A   1      40.807  27.862  28.605  1.00  0.00     0.064 A 
ATOM     66  C   UNL A   1      40.103  26.654  28.485  1.00  0.00     0.173 A 
ATOM     67  C   UNL A   1      41.600  28.270  27.522  1.00  0.00     0.173 A 
ATOM     68  F   UNL A   1      39.341  26.213  29.497  1.00  0.00    -0.203 F 
ATOM     69  C   UNL A   1      40.210  25.873  27.337  1.00  0.00     0.198 A 
ATOM     70  C   UNL A   1      41.680  27.502  26.364  1.00  0.00     0.198 A 
ATOM     71  F   UNL A   1      42.289  29.420  27.583  1.00  0.00    -0.203 F 
ATOM     72  F   UNL A   1      39.565  24.700  27.264  1.00  0.00    -0.200 F 
ATOM     73  C   UNL A   1      40.992  26.300  26.275  1.00  0.00     0.200 A 
ATOM     74  F   UNL A   1      42.427  27.921  25.333  1.00  0.00    -0.200 F 
ATOM     75  F   UNL A   1      41.088  25.552  25.168  1.00  0.00    -0.200 F 
ENDBRANCH  51  65
BRANCH  52  76
ATOM     76  C   UNL A   1      39.618  33.655  36.649  1.00  0.00     0.064 A 
ATOM     77  C   UNL A   1      38.831  33.218  37.725  1.00  0.00     0.173 A 
ATOM     78  C   UNL A   1      40.217  34.918  36.750  1.00  0.00     0.173 A 
ATOM     79  F   UNL A   1      38.220  32.026  37.666  1.00  0.00    -0.203 F 
ATOM     80  C   UNL A   1      38.631  34.023  38.845  1.00  0.00     0.198 A 
ATOM     81  C   UNL A   1      40.039  35.711  37.882  1.00  0.00     0.198 A 
ATOM     82  F   UNL A   1      40.983  35.380  35.750  1.00  0.00    -0.203 F 
ATOM     83  F   UNL A   1      37.835  33.601  39.836  1.00  0.00    -0.200 F 
ATOM     84  C   UNL A   1      39.240  35.266  38.925  1.00  0.00     0.200 A 
ATOM     85  F   UNL A   1      40.639  36.906  37.962  1.00  0.00    -0.200 F 
ATOM     86  F   UNL A   1      39.048  36.039  40.001  1.00  0.00    -0.200 F 
ENDBRANCH  52  76
BRANCH  64  87
ATOM     87  C   UNL A   1      44.275  28.803  34.857  1.00  0.00     0.064 A 
ATOM     88  C   UNL A   1      45.535  29.401  34.709  1.00  0.00     0.173 A 
ATOM     89  C   UNL A   1      44.168  27.693  35.708  1.00  0.00     0.173 A 
ATOM     90  F   UNL A   1      45.691  30.454  33.893  1.00  0.00    -0.203 F 
ATOM     91  C   UNL A   1      46.649  28.890  35.368  1.00  0.00     0.198 A 
ATOM     92  C   UNL A   1      45.280  27.203  36.388  1.00  0.00     0.198 A 
ATOM     93  F   UNL A   1      42.984  27.090  35.888  1.00  0.00    -0.203 F 
ATOM     94  F   UNL A   1      47.853  29.449  35.176  1.00  0.00    -0.200 F 
ATOM     95  C   UNL A   1      46.520  27.798  36.213  1.00  0.00     0.200 A 
ATOM     96  F   UNL A   1      45.150  26.154  37.212  1.00  0.00    -0.200 F 
ATOM     97  F   UNL A   1      47.594  27.311  36.851  1.00  0.00    -0.200 F 
ENDBRANCH  64  87
ENDBRANCH  38  39
ENDBRANCH  30  33
ENDBRANCH  28  29
ENDBRANCH  27  28
ENDBRANCH   1  27
TORSDOF 15
ENDMDL
