MODEL 1
REMARK VINA RESULT:     -12.3      0.000      0.000
REMARK SMILES CC(C)(C)c1cc(-n2cnc(C(=O)NCCCNC(=O)c3ccc(-c4c5nc(c(-c6c(F)c(F)c(F)c(F)c6F)c6ccc([nH]6)c(-c6c(F)c(F)c(F)c(F)c6F)c6nc(c(-c7c(F)c(F)c(F)c(F)c7F)c7ccc4[nH]7)C=C6)C=C5)cc3)c2)nc(Cl)n1
REMARK SMILES IDX 16 1 15 2 14 3 12 4 13 5 11 7 8 8 9 9 84 10 10 11 7 12 5 13
REMARK SMILES IDX 6 14 88 15 86 16 85 17 87 18 2 19 1 20 3 21 4 22 17 23 18 24
REMARK SMILES IDX 19 25 20 27 21 28 22 29 83 30 23 31 82 32 24 33 25 34 26 35
REMARK SMILES IDX 76 36 27 37 81 38 75 39 77 40 28 41 80 42 74 43 73 44 29 46
REMARK SMILES IDX 61 47 41 48 60 49 42 50 45 51 59 52 78 53 43 54 44 55 58 57
REMARK SMILES IDX 79 58 46 59 30 60 31 61 39 62 32 63 33 64 37 65 40 66 34 67
REMARK SMILES IDX 35 68 38 69 36 70 62 71 63 72 71 73 64 74 65 75 69 76 72 77
REMARK SMILES IDX 66 78 67 79 70 80 68 81 47 82 48 83 56 84 49 85 50 86 54 87
REMARK SMILES IDX 57 88 51 89 52 90 55 91 53 92
REMARK H PARENT 14 6 18 26 77 45 45 56
REMARK Flexibility Score: inf
ROOT
ATOM      1  C   UNL A   1      42.675  20.323  26.908  1.00  0.00     0.042 C 
ENDROOT
BRANCH   1   2
ATOM      2  C   UNL A   1      42.527  19.325  25.751  1.00  0.00     0.118 C 
BRANCH   2   3
ATOM      3  N   UNL A   1      43.784  18.693  25.389  1.00  0.00    -0.351 N 
ATOM      4  C   UNL A   1      44.993  19.193  24.948  1.00  0.00     0.271 C 
ATOM      5  O   UNL A   1      45.898  18.369  24.804  1.00  0.00    -0.267 OA
ATOM      6  H   UNL A   1      43.772  17.712  25.474  1.00  0.00     0.163 HD
BRANCH   4   7
ATOM      7  C   UNL A   1      45.188  20.625  24.674  1.00  0.00     0.146 A 
ATOM      8  N   UNL A   1      45.851  22.736  24.670  1.00  0.00    -0.290 N 
ATOM      9  C   UNL A   1      44.902  22.556  23.706  1.00  0.00     0.206 A 
ATOM     10  C   UNL A   1      45.962  21.545  25.345  1.00  0.00     0.128 A 
ATOM     11  N   UNL A   1      44.529  21.292  23.642  1.00  0.00    -0.231 NA
BRANCH   8  12
ATOM     12  C   UNL A   1      46.591  23.895  24.977  1.00  0.00     0.143 A 
ATOM     13  C   UNL A   1      47.020  25.650  26.502  1.00  0.00     0.053 A 
ATOM     14  C   UNL A   1      46.389  24.453  26.231  1.00  0.00     0.072 A 
ATOM     15  N   UNL A   1      47.735  26.274  25.545  1.00  0.00    -0.222 NA
ATOM     16  C   UNL A   1      47.869  25.635  24.369  1.00  0.00     0.224 A 
ATOM     17  N   UNL A   1      47.370  24.439  24.033  1.00  0.00    -0.200 NA
ATOM     18  Cl  UNL A   1      48.654  26.503  23.126  1.00  0.00    -0.041 Cl
BRANCH  13  19
ATOM     19  C   UNL A   1      46.912  26.290  27.892  1.00  0.00     0.004 C 
ATOM     20  C   UNL A   1      45.479  26.187  28.449  1.00  0.00     0.017 C 
ATOM     21  C   UNL A   1      47.282  27.788  27.816  1.00  0.00     0.017 C 
ATOM     22  C   UNL A   1      47.866  25.582  28.874  1.00  0.00     0.017 C 
ENDBRANCH  13  19
ENDBRANCH   8  12
ENDBRANCH   4   7
ENDBRANCH   2   3
ENDBRANCH   1   2
BRANCH   1  23
ATOM     23  C   UNL A   1      42.251  21.727  26.499  1.00  0.00     0.118 C 
BRANCH  23  24
ATOM     24  N   UNL A   1      40.832  21.784  26.139  1.00  0.00    -0.352 N 
ATOM     25  C   UNL A   1      39.876  22.720  26.478  1.00  0.00     0.251 C 
ATOM     26  H   UNL A   1      40.515  21.047  25.571  1.00  0.00     0.163 HD
ATOM     27  O   UNL A   1      38.691  22.449  26.382  1.00  0.00    -0.269 OA
BRANCH  25  28
ATOM     28  C   UNL A   1      40.298  24.044  26.971  1.00  0.00     0.039 A 
ATOM     29  C   UNL A   1      39.841  25.206  26.343  1.00  0.00     0.014 A 
ATOM     30  C   UNL A   1      41.153  24.122  28.068  1.00  0.00     0.014 A 
ATOM     31  C   UNL A   1      40.177  26.442  26.888  1.00  0.00     0.010 A 
ATOM     32  C   UNL A   1      41.377  25.331  28.683  1.00  0.00     0.010 A 
ATOM     33  C   UNL A   1      40.918  26.497  28.080  1.00  0.00    -0.014 A 
BRANCH  33  34
ATOM     34  C   UNL A   1      41.064  27.764  28.791  1.00  0.00     0.031 A 
ATOM     35  C   UNL A   1      42.223  28.573  28.320  1.00  0.00     0.074 A 
ATOM     36  C   UNL A   1      40.139  28.265  29.638  1.00  0.00     0.049 A 
ATOM     37  N   UNL A   1      43.297  28.859  28.977  1.00  0.00    -0.248 NA
ATOM     38  C   UNL A   1      42.271  28.975  26.904  1.00  0.00     0.031 C 
ATOM     39  C   UNL A   1      38.808  27.726  29.940  1.00  0.00     0.029 A 
ATOM     40  N   UNL A   1      40.152  29.432  30.345  1.00  0.00    -0.354 N 
ATOM     41  C   UNL A   1      44.068  29.652  28.131  1.00  0.00     0.074 A 
ATOM     42  C   UNL A   1      43.482  29.530  26.823  1.00  0.00     0.031 C 
ATOM     43  C   UNL A   1      38.069  28.666  30.569  1.00  0.00     0.029 A 
ATOM     44  C   UNL A   1      38.914  29.807  30.864  1.00  0.00     0.049 A 
ATOM     45  H   UNL A   1      40.969  29.966  30.477  1.00  0.00     0.167 HD
ATOM     46  C   UNL A   1      44.956  30.547  28.647  1.00  0.00     0.037 A 
ATOM     47  C   UNL A   1      38.606  30.981  31.472  1.00  0.00     0.037 A 
ATOM     48  C   UNL A   1      45.215  30.254  30.035  1.00  0.00     0.049 A 
ATOM     49  C   UNL A   1      39.882  31.591  31.909  1.00  0.00     0.074 A 
ATOM     50  C   UNL A   1      45.764  29.198  30.734  1.00  0.00     0.029 A 
ATOM     51  N   UNL A   1      44.513  30.998  30.949  1.00  0.00    -0.354 N 
ATOM     52  N   UNL A   1      40.632  31.111  32.859  1.00  0.00    -0.248 NA
ATOM     53  C   UNL A   1      40.535  32.526  31.008  1.00  0.00     0.031 C 
ATOM     54  C   UNL A   1      45.022  29.128  31.950  1.00  0.00     0.029 A 
ATOM     55  C   UNL A   1      44.109  30.184  31.970  1.00  0.00     0.049 A 
ATOM     56  H   UNL A   1      44.331  31.962  30.880  1.00  0.00     0.167 HD
ATOM     57  C   UNL A   1      41.926  31.307  32.408  1.00  0.00     0.074 A 
ATOM     58  C   UNL A   1      41.807  32.298  31.342  1.00  0.00     0.031 C 
ATOM     59  C   UNL A   1      42.912  30.425  32.744  1.00  0.00     0.037 A 
BRANCH  46  60
ATOM     60  C   UNL A   1      45.237  31.920  28.068  1.00  0.00     0.064 A 
ATOM     61  C   UNL A   1      44.162  32.823  27.916  1.00  0.00     0.173 A 
ATOM     62  C   UNL A   1      46.413  32.263  27.366  1.00  0.00     0.173 A 
ATOM     63  F   UNL A   1      42.987  32.597  28.522  1.00  0.00    -0.203 F 
ATOM     64  C   UNL A   1      44.230  33.921  27.053  1.00  0.00     0.198 A 
ATOM     65  C   UNL A   1      46.494  33.389  26.547  1.00  0.00     0.198 A 
ATOM     66  F   UNL A   1      47.492  31.476  27.344  1.00  0.00    -0.203 F 
ATOM     67  F   UNL A   1      43.137  34.665  26.836  1.00  0.00    -0.200 F 
ATOM     68  C   UNL A   1      45.395  34.198  26.363  1.00  0.00     0.200 A 
ATOM     69  F   UNL A   1      47.626  33.630  25.871  1.00  0.00    -0.200 F 
ATOM     70  F   UNL A   1      45.443  35.209  25.486  1.00  0.00    -0.200 F 
ENDBRANCH  46  60
BRANCH  47  71
ATOM     71  C   UNL A   1      37.335  31.746  31.491  1.00  0.00     0.064 A 
ATOM     72  C   UNL A   1      36.669  32.009  32.703  1.00  0.00     0.173 A 
ATOM     73  C   UNL A   1      36.912  32.491  30.375  1.00  0.00     0.173 A 
ATOM     74  F   UNL A   1      37.032  31.371  33.825  1.00  0.00    -0.203 F 
ATOM     75  C   UNL A   1      35.677  32.990  32.802  1.00  0.00     0.198 A 
ATOM     76  C   UNL A   1      35.917  33.467  30.473  1.00  0.00     0.198 A 
ATOM     77  F   UNL A   1      37.527  32.362  29.191  1.00  0.00    -0.203 F 
ATOM     78  F   UNL A   1      35.123  33.264  33.991  1.00  0.00    -0.200 F 
ATOM     79  C   UNL A   1      35.312  33.729  31.690  1.00  0.00     0.200 A 
ATOM     80  F   UNL A   1      35.597  34.201  29.398  1.00  0.00    -0.200 F 
ATOM     81  F   UNL A   1      34.415  34.719  31.797  1.00  0.00    -0.200 F 
ENDBRANCH  47  71
BRANCH  59  82
ATOM     82  C   UNL A   1      42.652  29.495  33.898  1.00  0.00     0.064 A 
ATOM     83  C   UNL A   1      41.979  28.264  33.805  1.00  0.00     0.173 A 
ATOM     84  C   UNL A   1      43.225  29.825  35.135  1.00  0.00     0.173 A 
ATOM     85  F   UNL A   1      41.483  27.831  32.640  1.00  0.00    -0.203 F 
ATOM     86  C   UNL A   1      41.852  27.428  34.913  1.00  0.00     0.198 A 
ATOM     87  C   UNL A   1      43.133  28.969  36.227  1.00  0.00     0.198 A 
ATOM     88  F   UNL A   1      43.917  30.967  35.271  1.00  0.00    -0.203 F 
ATOM     89  F   UNL A   1      41.189  26.267  34.808  1.00  0.00    -0.200 F 
ATOM     90  C   UNL A   1      42.437  27.777  36.120  1.00  0.00     0.200 A 
ATOM     91  F   UNL A   1      43.742  29.290  37.376  1.00  0.00    -0.200 F 
ATOM     92  F   UNL A   1      42.351  26.954  37.174  1.00  0.00    -0.200 F 
ENDBRANCH  59  82
ENDBRANCH  33  34
ENDBRANCH  25  28
ENDBRANCH  23  24
ENDBRANCH   1  23
TORSDOF 12
ENDMDL
MODEL 2
REMARK VINA RESULT:     -12.2      4.212     11.670
REMARK SMILES CC(C)(C)c1cc(-n2cnc(C(=O)NCCCNC(=O)c3ccc(-c4c5nc(c(-c6c(F)c(F)c(F)c(F)c6F)c6ccc([nH]6)c(-c6c(F)c(F)c(F)c(F)c6F)c6nc(c(-c7c(F)c(F)c(F)c(F)c7F)c7ccc4[nH]7)C=C6)C=C5)cc3)c2)nc(Cl)n1
REMARK SMILES IDX 16 1 15 2 14 3 12 4 13 5 11 7 8 8 9 9 84 10 10 11 7 12 5 13
REMARK SMILES IDX 6 14 88 15 86 16 85 17 87 18 2 19 1 20 3 21 4 22 17 23 18 24
REMARK SMILES IDX 19 25 20 27 21 28 22 29 83 30 23 31 82 32 24 33 25 34 26 35
REMARK SMILES IDX 76 36 27 37 81 38 75 39 77 40 28 41 80 42 74 43 73 44 29 46
REMARK SMILES IDX 61 47 41 48 60 49 42 50 45 51 59 52 78 53 43 54 44 55 58 57
REMARK SMILES IDX 79 58 46 59 30 60 31 61 39 62 32 63 33 64 37 65 40 66 34 67
REMARK SMILES IDX 35 68 38 69 36 70 62 71 63 72 71 73 64 74 65 75 69 76 72 77
REMARK SMILES IDX 66 78 67 79 70 80 68 81 47 82 48 83 56 84 49 85 50 86 54 87
REMARK SMILES IDX 57 88 51 89 52 90 55 91 53 92
REMARK H PARENT 14 6 18 26 77 45 45 56
REMARK Flexibility Score: inf
ROOT
ATOM      1  C   UNL A   1      34.262  35.771  28.590  1.00  0.00     0.042 C 
ENDROOT
BRANCH   1   2
ATOM      2  C   UNL A   1      32.847  35.557  29.145  1.00  0.00     0.118 C 
BRANCH   2   3
ATOM      3  N   UNL A   1      32.551  36.420  30.275  1.00  0.00    -0.351 N 
ATOM      4  C   UNL A   1      32.947  36.402  31.597  1.00  0.00     0.271 C 
ATOM      5  O   UNL A   1      32.564  37.349  32.288  1.00  0.00    -0.267 OA
ATOM      6  H   UNL A   1      31.946  37.164  30.055  1.00  0.00     0.163 HD
BRANCH   4   7
ATOM      7  C   UNL A   1      33.781  35.322  32.146  1.00  0.00     0.146 A 
ATOM      8  N   UNL A   1      35.448  34.030  32.814  1.00  0.00    -0.290 N 
ATOM      9  C   UNL A   1      34.260  33.423  33.100  1.00  0.00     0.206 A 
ATOM     10  C   UNL A   1      35.150  35.180  32.125  1.00  0.00     0.128 A 
ATOM     11  N   UNL A   1      33.244  34.197  32.768  1.00  0.00    -0.231 NA
BRANCH   8  12
ATOM     12  C   UNL A   1      36.756  33.602  33.117  1.00  0.00     0.143 A 
ATOM     13  C   UNL A   1      38.274  32.809  34.747  1.00  0.00     0.053 A 
ATOM     14  C   UNL A   1      36.976  33.124  34.401  1.00  0.00     0.072 A 
ATOM     15  N   UNL A   1      39.283  33.039  33.884  1.00  0.00    -0.222 NA
ATOM     16  C   UNL A   1      38.950  33.498  32.664  1.00  0.00     0.224 A 
ATOM     17  N   UNL A   1      37.721  33.757  32.201  1.00  0.00    -0.200 NA
ATOM     18  Cl  UNL A   1      40.248  33.918  31.638  1.00  0.00    -0.041 Cl
BRANCH  13  19
ATOM     19  C   UNL A   1      38.588  32.199  36.119  1.00  0.00     0.004 C 
ATOM     20  C   UNL A   1      40.067  32.402  36.501  1.00  0.00     0.017 C 
ATOM     21  C   UNL A   1      38.310  30.680  36.100  1.00  0.00     0.017 C 
ATOM     22  C   UNL A   1      37.713  32.860  37.203  1.00  0.00     0.017 C 
ENDBRANCH  13  19
ENDBRANCH   8  12
ENDBRANCH   4   7
ENDBRANCH   2   3
ENDBRANCH   1   2
BRANCH   1  23
ATOM     23  C   UNL A   1      35.039  34.463  28.507  1.00  0.00     0.118 C 
BRANCH  23  24
ATOM     24  N   UNL A   1      34.148  33.303  28.445  1.00  0.00    -0.352 N 
ATOM     25  C   UNL A   1      34.443  31.981  28.184  1.00  0.00     0.251 C 
ATOM     26  H   UNL A   1      33.198  33.495  28.616  1.00  0.00     0.163 HD
ATOM     27  O   UNL A   1      33.561  31.211  27.841  1.00  0.00    -0.269 OA
BRANCH  25  28
ATOM     28  C   UNL A   1      35.834  31.508  28.307  1.00  0.00     0.039 A 
ATOM     29  C   UNL A   1      36.767  32.252  29.033  1.00  0.00     0.014 A 
ATOM     30  C   UNL A   1      36.205  30.313  27.693  1.00  0.00     0.014 A 
ATOM     31  C   UNL A   1      38.047  31.736  29.214  1.00  0.00     0.010 A 
ATOM     32  C   UNL A   1      37.422  29.741  27.979  1.00  0.00     0.010 A 
ATOM     33  C   UNL A   1      38.358  30.461  28.711  1.00  0.00    -0.014 A 
BRANCH  33  34
ATOM     34  C   UNL A   1      39.604  29.807  29.103  1.00  0.00     0.031 A 
ATOM     35  C   UNL A   1      39.824  29.794  30.576  1.00  0.00     0.074 A 
ATOM     36  C   UNL A   1      40.382  29.097  28.256  1.00  0.00     0.049 A 
ATOM     37  N   UNL A   1      40.738  30.422  31.237  1.00  0.00    -0.248 NA
ATOM     38  C   UNL A   1      38.819  29.142  31.432  1.00  0.00     0.031 C 
ATOM     39  C   UNL A   1      40.113  28.759  26.855  1.00  0.00     0.029 A 
ATOM     40  N   UNL A   1      41.549  28.434  28.502  1.00  0.00    -0.354 N 
ATOM     41  C   UNL A   1      40.552  30.080  32.574  1.00  0.00     0.074 A 
ATOM     42  C   UNL A   1      39.260  29.455  32.651  1.00  0.00     0.031 C 
ATOM     43  C   UNL A   1      40.953  27.779  26.454  1.00  0.00     0.029 A 
ATOM     44  C   UNL A   1      41.923  27.535  27.505  1.00  0.00     0.049 A 
ATOM     45  H   UNL A   1      42.082  28.578  29.318  1.00  0.00     0.167 HD
ATOM     46  C   UNL A   1      41.601  30.105  33.442  1.00  0.00     0.037 A 
ATOM     47  C   UNL A   1      42.945  26.643  27.552  1.00  0.00     0.037 A 
ATOM     48  C   UNL A   1      42.697  30.859  32.885  1.00  0.00     0.049 A 
ATOM     49  C   UNL A   1      43.868  27.095  28.617  1.00  0.00     0.074 A 
ATOM     50  C   UNL A   1      42.897  32.168  32.495  1.00  0.00     0.029 A 
ATOM     51  N   UNL A   1      43.694  30.125  32.294  1.00  0.00    -0.354 N 
ATOM     52  N   UNL A   1      44.598  28.171  28.541  1.00  0.00    -0.248 NA
ATOM     53  C   UNL A   1      43.679  26.562  29.956  1.00  0.00     0.031 C 
ATOM     54  C   UNL A   1      43.752  32.093  31.356  1.00  0.00     0.029 A 
ATOM     55  C   UNL A   1      44.093  30.755  31.149  1.00  0.00     0.049 A 
ATOM     56  H   UNL A   1      44.062  29.281  32.640  1.00  0.00     0.167 HD
ATOM     57  C   UNL A   1      44.568  28.700  29.820  1.00  0.00     0.074 A 
ATOM     58  C   UNL A   1      44.110  27.604  30.670  1.00  0.00     0.031 C 
ATOM     59  C   UNL A   1      44.629  30.051  30.006  1.00  0.00     0.037 A 
BRANCH  46  60
ATOM     60  C   UNL A   1      41.823  29.105  34.561  1.00  0.00     0.064 A 
ATOM     61  C   UNL A   1      42.591  29.500  35.679  1.00  0.00     0.173 A 
ATOM     62  C   UNL A   1      41.608  27.716  34.440  1.00  0.00     0.173 A 
ATOM     63  F   UNL A   1      42.874  30.794  35.892  1.00  0.00    -0.203 F 
ATOM     64  C   UNL A   1      43.176  28.571  36.543  1.00  0.00     0.198 A 
ATOM     65  C   UNL A   1      42.151  26.794  35.336  1.00  0.00     0.198 A 
ATOM     66  F   UNL A   1      40.968  27.174  33.400  1.00  0.00    -0.203 F 
ATOM     67  F   UNL A   1      44.011  28.990  37.503  1.00  0.00    -0.200 F 
ATOM     68  C   UNL A   1      42.962  27.217  36.366  1.00  0.00     0.200 A 
ATOM     69  F   UNL A   1      41.948  25.485  35.136  1.00  0.00    -0.200 F 
ATOM     70  F   UNL A   1      43.575  26.321  37.151  1.00  0.00    -0.200 F 
ENDBRANCH  46  60
BRANCH  47  71
ATOM     71  C   UNL A   1      43.074  25.300  26.935  1.00  0.00     0.064 A 
ATOM     72  C   UNL A   1      43.924  25.090  25.834  1.00  0.00     0.173 A 
ATOM     73  C   UNL A   1      42.613  24.144  27.594  1.00  0.00     0.173 A 
ATOM     74  F   UNL A   1      44.440  26.135  25.170  1.00  0.00    -0.203 F 
ATOM     75  C   UNL A   1      44.327  23.807  25.446  1.00  0.00     0.198 A 
ATOM     76  C   UNL A   1      43.010  22.863  27.202  1.00  0.00     0.198 A 
ATOM     77  F   UNL A   1      41.852  24.239  28.693  1.00  0.00    -0.203 F 
ATOM     78  F   UNL A   1      45.199  23.656  24.441  1.00  0.00    -0.200 F 
ATOM     79  C   UNL A   1      43.881  22.696  26.140  1.00  0.00     0.200 A 
ATOM     80  F   UNL A   1      42.601  21.797  27.903  1.00  0.00    -0.200 F 
ATOM     81  F   UNL A   1      44.322  21.472  25.816  1.00  0.00    -0.200 F 
ENDBRANCH  47  71
BRANCH  59  82
ATOM     82  C   UNL A   1      45.114  30.892  28.857  1.00  0.00     0.064 A 
ATOM     83  C   UNL A   1      44.311  31.349  27.798  1.00  0.00     0.173 A 
ATOM     84  C   UNL A   1      46.438  31.351  28.907  1.00  0.00     0.173 A 
ATOM     85  F   UNL A   1      43.012  31.033  27.724  1.00  0.00    -0.203 F 
ATOM     86  C   UNL A   1      44.828  32.192  26.814  1.00  0.00     0.198 A 
ATOM     87  C   UNL A   1      46.939  32.225  27.949  1.00  0.00     0.198 A 
ATOM     88  F   UNL A   1      47.238  30.984  29.920  1.00  0.00    -0.203 F 
ATOM     89  F   UNL A   1      44.050  32.600  25.801  1.00  0.00    -0.200 F 
ATOM     90  C   UNL A   1      46.138  32.636  26.896  1.00  0.00     0.200 A 
ATOM     91  F   UNL A   1      48.190  32.690  28.062  1.00  0.00    -0.200 F 
ATOM     92  F   UNL A   1      46.623  33.480  25.974  1.00  0.00    -0.200 F 
ENDBRANCH  59  82
ENDBRANCH  33  34
ENDBRANCH  25  28
ENDBRANCH  23  24
ENDBRANCH   1  23
TORSDOF 12
ENDMDL
MODEL 3
REMARK VINA RESULT:     -12.2      1.310      2.560
REMARK SMILES CC(C)(C)c1cc(-n2cnc(C(=O)NCCCNC(=O)c3ccc(-c4c5nc(c(-c6c(F)c(F)c(F)c(F)c6F)c6ccc([nH]6)c(-c6c(F)c(F)c(F)c(F)c6F)c6nc(c(-c7c(F)c(F)c(F)c(F)c7F)c7ccc4[nH]7)C=C6)C=C5)cc3)c2)nc(Cl)n1
REMARK SMILES IDX 16 1 15 2 14 3 12 4 13 5 11 7 8 8 9 9 84 10 10 11 7 12 5 13
REMARK SMILES IDX 6 14 88 15 86 16 85 17 87 18 2 19 1 20 3 21 4 22 17 23 18 24
REMARK SMILES IDX 19 25 20 27 21 28 22 29 83 30 23 31 82 32 24 33 25 34 26 35
REMARK SMILES IDX 76 36 27 37 81 38 75 39 77 40 28 41 80 42 74 43 73 44 29 46
REMARK SMILES IDX 61 47 41 48 60 49 42 50 45 51 59 52 78 53 43 54 44 55 58 57
REMARK SMILES IDX 79 58 46 59 30 60 31 61 39 62 32 63 33 64 37 65 40 66 34 67
REMARK SMILES IDX 35 68 38 69 36 70 62 71 63 72 71 73 64 74 65 75 69 76 72 77
REMARK SMILES IDX 66 78 67 79 70 80 68 81 47 82 48 83 56 84 49 85 50 86 54 87
REMARK SMILES IDX 57 88 51 89 52 90 55 91 53 92
REMARK H PARENT 14 6 18 26 77 45 45 56
REMARK Flexibility Score: inf
ROOT
ATOM      1  C   UNL A   1      42.082  19.441  27.391  1.00  0.00     0.042 C 
ENDROOT
BRANCH   1   2
ATOM      2  C   UNL A   1      42.051  18.990  25.924  1.00  0.00     0.118 C 
BRANCH   2   3
ATOM      3  N   UNL A   1      43.310  18.411  25.488  1.00  0.00    -0.351 N 
ATOM      4  C   UNL A   1      44.503  18.965  25.071  1.00  0.00     0.271 C 
ATOM      5  O   UNL A   1      45.417  18.170  24.841  1.00  0.00    -0.267 OA
ATOM      6  H   UNL A   1      43.311  17.426  25.488  1.00  0.00     0.163 HD
BRANCH   4   7
ATOM      7  C   UNL A   1      44.675  20.418  24.920  1.00  0.00     0.146 A 
ATOM      8  N   UNL A   1      45.020  22.580  25.236  1.00  0.00    -0.290 N 
ATOM      9  C   UNL A   1      44.781  22.347  23.913  1.00  0.00     0.206 A 
ATOM     10  C   UNL A   1      44.857  21.382  25.885  1.00  0.00     0.128 A 
ATOM     11  N   UNL A   1      44.631  21.057  23.681  1.00  0.00    -0.231 NA
BRANCH   8  12
ATOM     12  C   UNL A   1      45.351  23.792  25.875  1.00  0.00     0.143 A 
ATOM     13  C   UNL A   1      46.609  25.793  25.841  1.00  0.00     0.053 A 
ATOM     14  C   UNL A   1      46.185  24.657  25.182  1.00  0.00     0.072 A 
ATOM     15  N   UNL A   1      46.278  25.994  27.132  1.00  0.00    -0.222 NA
ATOM     16  C   UNL A   1      45.458  25.092  27.699  1.00  0.00     0.224 A 
ATOM     17  N   UNL A   1      44.926  24.005  27.127  1.00  0.00    -0.200 NA
ATOM     18  Cl  UNL A   1      45.166  25.286  29.370  1.00  0.00    -0.041 Cl
BRANCH  13  19
ATOM     19  C   UNL A   1      47.467  26.839  25.117  1.00  0.00     0.004 C 
ATOM     20  C   UNL A   1      48.274  26.206  23.967  1.00  0.00     0.017 C 
ATOM     21  C   UNL A   1      48.471  27.475  26.103  1.00  0.00     0.017 C 
ATOM     22  C   UNL A   1      46.567  27.943  24.528  1.00  0.00     0.017 C 
ENDBRANCH  13  19
ENDBRANCH   8  12
ENDBRANCH   4   7
ENDBRANCH   2   3
ENDBRANCH   1   2
BRANCH   1  23
ATOM     23  C   UNL A   1      41.525  20.848  27.561  1.00  0.00     0.118 C 
BRANCH  23  24
ATOM     24  N   UNL A   1      40.579  21.192  26.497  1.00  0.00    -0.352 N 
ATOM     25  C   UNL A   1      39.760  22.295  26.372  1.00  0.00     0.251 C 
ATOM     26  H   UNL A   1      40.520  20.540  25.763  1.00  0.00     0.163 HD
ATOM     27  O   UNL A   1      38.804  22.267  25.614  1.00  0.00    -0.269 OA
BRANCH  25  28
ATOM     28  C   UNL A   1      40.039  23.502  27.172  1.00  0.00     0.039 A 
ATOM     29  C   UNL A   1      41.303  23.697  27.733  1.00  0.00     0.014 A 
ATOM     30  C   UNL A   1      39.028  24.444  27.359  1.00  0.00     0.014 A 
ATOM     31  C   UNL A   1      41.567  24.889  28.402  1.00  0.00     0.010 A 
ATOM     32  C   UNL A   1      39.324  25.672  27.902  1.00  0.00     0.010 A 
ATOM     33  C   UNL A   1      40.581  25.888  28.453  1.00  0.00    -0.014 A 
BRANCH  33  34
ATOM     34  C   UNL A   1      40.923  27.227  28.929  1.00  0.00     0.031 A 
ATOM     35  C   UNL A   1      42.107  27.811  28.239  1.00  0.00     0.074 A 
ATOM     36  C   UNL A   1      40.140  27.958  29.751  1.00  0.00     0.049 A 
ATOM     37  N   UNL A   1      43.263  28.070  28.753  1.00  0.00    -0.248 NA
ATOM     38  C   UNL A   1      42.059  27.977  26.777  1.00  0.00     0.031 C 
ATOM     39  C   UNL A   1      38.797  27.632  30.243  1.00  0.00     0.029 A 
ATOM     40  N   UNL A   1      40.340  29.213  30.250  1.00  0.00    -0.354 N 
ATOM     41  C   UNL A   1      44.025  28.625  27.727  1.00  0.00     0.074 A 
ATOM     42  C   UNL A   1      43.306  28.368  26.509  1.00  0.00     0.031 C 
ATOM     43  C   UNL A   1      38.221  28.738  30.762  1.00  0.00     0.029 A 
ATOM     44  C   UNL A   1      39.203  29.806  30.794  1.00  0.00     0.049 A 
ATOM     45  H   UNL A   1      41.216  29.662  30.225  1.00  0.00     0.167 HD
ATOM     46  C   UNL A   1      45.045  29.481  28.015  1.00  0.00     0.037 A 
ATOM     47  C   UNL A   1      39.076  31.088  31.220  1.00  0.00     0.037 A 
ATOM     48  C   UNL A   1      45.406  29.383  29.407  1.00  0.00     0.049 A 
ATOM     49  C   UNL A   1      40.443  31.608  31.446  1.00  0.00     0.074 A 
ATOM     50  C   UNL A   1      45.911  28.394  30.227  1.00  0.00     0.029 A 
ATOM     51  N   UNL A   1      44.876  30.337  30.236  1.00  0.00    -0.354 N 
ATOM     52  N   UNL A   1      41.229  31.199  32.401  1.00  0.00    -0.248 NA
ATOM     53  C   UNL A   1      41.098  32.306  30.353  1.00  0.00     0.031 C 
ATOM     54  C   UNL A   1      45.286  28.603  31.493  1.00  0.00     0.029 A 
ATOM     55  C   UNL A   1      44.492  29.748  31.408  1.00  0.00     0.049 A 
ATOM     56  H   UNL A   1      44.786  31.293  30.022  1.00  0.00     0.167 HD
ATOM     57  C   UNL A   1      42.487  31.171  31.823  1.00  0.00     0.074 A 
ATOM     58  C   UNL A   1      42.366  31.988  30.619  1.00  0.00     0.031 C 
ATOM     59  C   UNL A   1      43.406  30.244  32.223  1.00  0.00     0.037 A 
BRANCH  46  60
ATOM     60  C   UNL A   1      45.406  30.704  27.194  1.00  0.00     0.064 A 
ATOM     61  C   UNL A   1      46.770  31.032  27.032  1.00  0.00     0.173 A 
ATOM     62  C   UNL A   1      44.498  31.727  26.846  1.00  0.00     0.173 A 
ATOM     63  F   UNL A   1      47.728  30.145  27.343  1.00  0.00    -0.203 F 
ATOM     64  C   UNL A   1      47.188  32.311  26.653  1.00  0.00     0.198 A 
ATOM     65  C   UNL A   1      44.918  32.986  26.417  1.00  0.00     0.198 A 
ATOM     66  F   UNL A   1      43.178  31.604  27.012  1.00  0.00    -0.203 F 
ATOM     67  F   UNL A   1      48.493  32.611  26.653  1.00  0.00    -0.200 F 
ATOM     68  C   UNL A   1      46.260  33.290  26.354  1.00  0.00     0.200 A 
ATOM     69  F   UNL A   1      44.003  33.928  26.150  1.00  0.00    -0.200 F 
ATOM     70  F   UNL A   1      46.654  34.534  26.055  1.00  0.00    -0.200 F 
ENDBRANCH  46  60
BRANCH  47  71
ATOM     71  C   UNL A   1      37.896  31.989  31.211  1.00  0.00     0.064 A 
ATOM     72  C   UNL A   1      37.429  32.554  30.011  1.00  0.00     0.173 A 
ATOM     73  C   UNL A   1      37.027  32.067  32.315  1.00  0.00     0.173 A 
ATOM     74  F   UNL A   1      38.176  32.492  28.899  1.00  0.00    -0.203 F 
ATOM     75  C   UNL A   1      36.152  33.118  29.909  1.00  0.00     0.198 A 
ATOM     76  C   UNL A   1      35.755  32.636  32.214  1.00  0.00     0.198 A 
ATOM     77  F   UNL A   1      37.352  31.500  33.486  1.00  0.00    -0.203 F 
ATOM     78  F   UNL A   1      35.716  33.575  28.727  1.00  0.00    -0.200 F 
ATOM     79  C   UNL A   1      35.311  33.145  31.007  1.00  0.00     0.200 A 
ATOM     80  F   UNL A   1      34.935  32.624  33.275  1.00  0.00    -0.200 F 
ATOM     81  F   UNL A   1      34.062  33.619  30.893  1.00  0.00    -0.200 F 
ENDBRANCH  47  71
BRANCH  59  82
ATOM     82  C   UNL A   1      43.166  29.544  33.533  1.00  0.00     0.064 A 
ATOM     83  C   UNL A   1      43.487  30.069  34.797  1.00  0.00     0.173 A 
ATOM     84  C   UNL A   1      42.464  28.331  33.498  1.00  0.00     0.173 A 
ATOM     85  F   UNL A   1      44.076  31.264  34.924  1.00  0.00    -0.203 F 
ATOM     86  C   UNL A   1      43.156  29.383  35.966  1.00  0.00     0.198 A 
ATOM     87  C   UNL A   1      42.097  27.672  34.665  1.00  0.00     0.198 A 
ATOM     88  F   UNL A   1      42.091  27.805  32.320  1.00  0.00    -0.203 F 
ATOM     89  F   UNL A   1      43.490  29.892  37.161  1.00  0.00    -0.200 F 
ATOM     90  C   UNL A   1      42.454  28.191  35.899  1.00  0.00     0.200 A 
ATOM     91  F   UNL A   1      41.376  26.545  34.594  1.00  0.00    -0.200 F 
ATOM     92  F   UNL A   1      42.098  27.553  37.023  1.00  0.00    -0.200 F 
ENDBRANCH  59  82
ENDBRANCH  33  34
ENDBRANCH  25  28
ENDBRANCH  23  24
ENDBRANCH   1  23
TORSDOF 12
ENDMDL
