MODEL 1
REMARK VINA RESULT:     -13.7      0.000      0.000
REMARK SMILES CCn1nc(C(=O)NCCCNC(=O)c2ccc(-c3c4nc(c(-c5c(F)c(F)c(F)c(F)c5F)c5ccc([nH]5)c(-c5c(F)c(F)c(F)c(F)c5F)c5nc(c(-c6c(F)c(F)c(F)c(F)c6F)c6ccc3[nH]6)C=C5)C=C4)cc2)c2c1CC[C@H]([NH2+]Cc1nn(CC)c3ccccc13)C2
REMARK SMILES IDX 9 1 8 2 6 3 7 4 5 6 3 7 4 8 79 9 78 10 80 11 96 12 81 13
REMARK SMILES IDX 82 14 2 15 1 16 83 17 84 20 85 21 86 22 95 23 87 24 90 25
REMARK SMILES IDX 94 26 91 27 93 28 92 29 88 30 89 31 10 32 11 33 12 34 13 35
REMARK SMILES IDX 14 37 15 38 16 39 77 40 17 41 76 42 18 43 19 44 20 45 70 46
REMARK SMILES IDX 21 47 75 48 69 49 71 50 22 51 74 52 68 53 67 54 23 56 55 57
REMARK SMILES IDX 35 58 54 59 36 60 39 61 53 62 72 63 37 64 38 65 52 67 73 68
REMARK SMILES IDX 40 69 24 70 25 71 33 72 26 73 27 74 31 75 34 76 28 77 29 78
REMARK SMILES IDX 32 79 30 80 56 81 57 82 65 83 58 84 59 85 63 86 66 87 60 88
REMARK SMILES IDX 61 89 64 90 62 91 41 92 42 93 50 94 43 95 44 96 48 97 51 98
REMARK SMILES IDX 45 99 46 100 49 101 47 102
REMARK H PARENT 8 5 83 18 83 19 12 36 71 55 39 66
REMARK Flexibility Score: inf
ROOT
ATOM      1  C   UNL A   1      35.806  22.692  26.777  1.00  0.00     0.118 C 
ENDROOT
BRANCH   1   2
ATOM      2  N   UNL A   1      34.614  22.801  27.568  1.00  0.00    -0.351 N 
ATOM      3  C   UNL A   1      33.398  22.128  27.311  1.00  0.00     0.272 C 
ATOM      4  O   UNL A   1      32.569  22.174  28.229  1.00  0.00    -0.267 OA
ATOM      5  H   UNL A   1      34.646  23.393  28.354  1.00  0.00     0.163 HD
BRANCH   3   6
ATOM      6  C   UNL A   1      33.085  21.443  25.997  1.00  0.00     0.153 A 
ATOM      7  N   UNL A   1      32.764  19.773  24.647  1.00  0.00    -0.269 N 
ATOM      8  N   UNL A   1      33.177  20.092  25.899  1.00  0.00    -0.167 NA
ATOM      9  C   UNL A   1      32.442  20.871  23.907  1.00  0.00     0.043 A 
ATOM     10  C   UNL A   1      32.665  21.944  24.725  1.00  0.00     0.012 A 
ATOM     11  C   UNL A   1      31.890  21.015  22.535  1.00  0.00     0.062 C 
ATOM     12  C   UNL A   1      32.410  23.304  24.240  1.00  0.00     0.105 C 
ATOM     13  C   UNL A   1      32.432  22.325  21.865  1.00  0.00     0.072 C 
ATOM     14  C   UNL A   1      32.508  23.608  22.760  1.00  0.00     0.187 C 
BRANCH   7  15
ATOM     15  C   UNL A   1      32.577  18.371  24.316  1.00  0.00     0.141 C 
ATOM     16  C   UNL A   1      32.670  17.431  25.506  1.00  0.00     0.029 C 
ENDBRANCH   7  15
BRANCH  14  17
ATOM     17  N   UNL A   1      33.632  24.558  22.467  1.00  0.00    -0.338 N 
ATOM     18  H   UNL A   1      34.235  24.124  21.769  1.00  0.00     0.346 HD
ATOM     19  H   UNL A   1      34.092  24.728  23.361  1.00  0.00     0.346 HD
BRANCH  17  20
ATOM     20  C   UNL A   1      33.220  25.914  21.948  1.00  0.00     0.320 C 
BRANCH  20  21
ATOM     21  C   UNL A   1      32.437  26.790  22.945  1.00  0.00     0.124 A 
ATOM     22  N   UNL A   1      31.372  27.524  22.553  1.00  0.00    -0.171 NA
ATOM     23  C   UNL A   1      32.766  27.110  24.317  1.00  0.00     0.029 A 
ATOM     24  N   UNL A   1      30.990  28.196  23.653  1.00  0.00    -0.265 N 
ATOM     25  C   UNL A   1      31.674  27.836  24.785  1.00  0.00     0.069 A 
ATOM     26  C   UNL A   1      33.835  26.923  25.219  1.00  0.00     0.012 A 
ATOM     27  C   UNL A   1      31.496  28.229  26.117  1.00  0.00     0.028 A 
ATOM     28  C   UNL A   1      33.788  27.575  26.473  1.00  0.00     0.001 A 
ATOM     29  C   UNL A   1      32.623  28.186  26.926  1.00  0.00     0.002 A 
BRANCH  24  30
ATOM     30  C   UNL A   1      30.173  29.400  23.556  1.00  0.00     0.141 C 
ATOM     31  C   UNL A   1      29.097  29.320  22.465  1.00  0.00     0.029 C 
ENDBRANCH  24  30
ENDBRANCH  20  21
ENDBRANCH  17  20
ENDBRANCH  14  17
ENDBRANCH   3   6
ENDBRANCH   1   2
BRANCH   1  32
ATOM     32  C   UNL A   1      36.398  23.751  25.856  1.00  0.00     0.042 C 
BRANCH  32  33
ATOM     33  C   UNL A   1      37.924  23.853  25.895  1.00  0.00     0.118 C 
BRANCH  33  34
ATOM     34  N   UNL A   1      38.646  22.823  26.674  1.00  0.00    -0.352 N 
ATOM     35  C   UNL A   1      39.953  22.886  27.177  1.00  0.00     0.251 C 
ATOM     36  H   UNL A   1      38.149  21.995  26.861  1.00  0.00     0.163 HD
ATOM     37  O   UNL A   1      40.543  21.902  27.557  1.00  0.00    -0.269 OA
BRANCH  35  38
ATOM     38  C   UNL A   1      40.598  24.218  27.234  1.00  0.00     0.039 A 
ATOM     39  C   UNL A   1      40.213  25.280  26.413  1.00  0.00     0.014 A 
ATOM     40  C   UNL A   1      41.532  24.403  28.241  1.00  0.00     0.014 A 
ATOM     41  C   UNL A   1      40.609  26.569  26.773  1.00  0.00     0.010 A 
ATOM     42  C   UNL A   1      41.828  25.664  28.668  1.00  0.00     0.010 A 
ATOM     43  C   UNL A   1      41.340  26.755  27.960  1.00  0.00    -0.014 A 
BRANCH  43  44
ATOM     44  C   UNL A   1      41.322  28.035  28.659  1.00  0.00     0.031 A 
ATOM     45  C   UNL A   1      42.402  28.981  28.243  1.00  0.00     0.074 A 
ATOM     46  C   UNL A   1      40.250  28.512  29.323  1.00  0.00     0.049 A 
ATOM     47  N   UNL A   1      43.372  29.437  28.962  1.00  0.00    -0.248 NA
ATOM     48  C   UNL A   1      42.474  29.385  26.828  1.00  0.00     0.031 C 
ATOM     49  C   UNL A   1      38.932  27.899  29.516  1.00  0.00     0.029 A 
ATOM     50  N   UNL A   1      40.092  29.748  29.863  1.00  0.00    -0.354 N 
ATOM     51  C   UNL A   1      44.098  30.303  28.147  1.00  0.00     0.074 A 
ATOM     52  C   UNL A   1      43.598  30.107  26.810  1.00  0.00     0.031 C 
ATOM     53  C   UNL A   1      38.057  28.839  29.938  1.00  0.00     0.029 A 
ATOM     54  C   UNL A   1      38.789  30.063  30.211  1.00  0.00     0.049 A 
ATOM     55  H   UNL A   1      40.843  30.370  29.996  1.00  0.00     0.167 HD
ATOM     56  C   UNL A   1      44.921  31.254  28.673  1.00  0.00     0.037 A 
ATOM     57  C   UNL A   1      38.350  31.256  30.677  1.00  0.00     0.037 A 
ATOM     58  C   UNL A   1      45.127  31.036  30.084  1.00  0.00     0.049 A 
ATOM     59  C   UNL A   1      39.535  31.981  31.205  1.00  0.00     0.074 A 
ATOM     60  C   UNL A   1      45.661  30.006  30.834  1.00  0.00     0.029 A 
ATOM     61  N   UNL A   1      44.380  31.785  30.962  1.00  0.00    -0.354 N 
ATOM     62  N   UNL A   1      40.206  31.599  32.258  1.00  0.00    -0.248 NA
ATOM     63  C   UNL A   1      40.250  32.871  30.303  1.00  0.00     0.031 C 
ATOM     64  C   UNL A   1      44.801  29.899  31.970  1.00  0.00     0.029 A 
ATOM     65  C   UNL A   1      43.845  30.912  31.877  1.00  0.00     0.049 A 
ATOM     66  H   UNL A   1      44.253  32.760  30.940  1.00  0.00     0.167 HD
ATOM     67  C   UNL A   1      41.535  31.835  31.935  1.00  0.00     0.074 A 
ATOM     68  C   UNL A   1      41.493  32.715  30.771  1.00  0.00     0.031 C 
ATOM     69  C   UNL A   1      42.534  31.067  32.464  1.00  0.00     0.037 A 
BRANCH  56  70
ATOM     70  C   UNL A   1      45.291  32.562  28.019  1.00  0.00     0.064 A 
ATOM     71  C   UNL A   1      44.288  33.531  27.800  1.00  0.00     0.173 A 
ATOM     72  C   UNL A   1      46.510  32.789  27.351  1.00  0.00     0.173 A 
ATOM     73  F   UNL A   1      43.082  33.409  28.374  1.00  0.00    -0.203 F 
ATOM     74  C   UNL A   1      44.473  34.601  26.919  1.00  0.00     0.198 A 
ATOM     75  C   UNL A   1      46.710  33.889  26.516  1.00  0.00     0.198 A 
ATOM     76  F   UNL A   1      47.512  31.902  27.384  1.00  0.00    -0.203 F 
ATOM     77  F   UNL A   1      43.451  35.424  26.647  1.00  0.00    -0.200 F 
ATOM     78  C   UNL A   1      45.683  34.776  26.274  1.00  0.00     0.200 A 
ATOM     79  F   UNL A   1      47.885  34.032  25.888  1.00  0.00    -0.200 F 
ATOM     80  F   UNL A   1      45.845  35.765  25.385  1.00  0.00    -0.200 F 
ENDBRANCH  56  70
BRANCH  57  81
ATOM     81  C   UNL A   1      37.021  31.882  30.525  1.00  0.00     0.064 A 
ATOM     82  C   UNL A   1      36.097  31.887  31.581  1.00  0.00     0.173 A 
ATOM     83  C   UNL A   1      36.729  32.717  29.428  1.00  0.00     0.173 A 
ATOM     84  F   UNL A   1      36.319  31.146  32.675  1.00  0.00    -0.203 F 
ATOM     85  C   UNL A   1      34.962  32.705  31.555  1.00  0.00     0.198 A 
ATOM     86  C   UNL A   1      35.593  33.526  29.401  1.00  0.00     0.198 A 
ATOM     87  F   UNL A   1      37.589  32.831  28.405  1.00  0.00    -0.203 F 
ATOM     88  F   UNL A   1      34.134  32.730  32.609  1.00  0.00    -0.200 F 
ATOM     89  C   UNL A   1      34.718  33.531  30.472  1.00  0.00     0.200 A 
ATOM     90  F   UNL A   1      35.386  34.346  28.361  1.00  0.00    -0.200 F 
ATOM     91  F   UNL A   1      33.665  34.361  30.476  1.00  0.00    -0.200 F 
ENDBRANCH  57  81
BRANCH  69  92
ATOM     92  C   UNL A   1      42.178  30.132  33.588  1.00  0.00     0.064 A 
ATOM     93  C   UNL A   1      41.767  28.799  33.405  1.00  0.00     0.173 A 
ATOM     94  C   UNL A   1      42.399  30.555  34.904  1.00  0.00     0.173 A 
ATOM     95  F   UNL A   1      41.638  28.278  32.181  1.00  0.00    -0.203 F 
ATOM     96  C   UNL A   1      41.537  27.952  34.486  1.00  0.00     0.198 A 
ATOM     97  C   UNL A   1      42.205  29.696  35.983  1.00  0.00     0.198 A 
ATOM     98  F   UNL A   1      42.851  31.796  35.143  1.00  0.00    -0.203 F 
ATOM     99  F   UNL A   1      41.131  26.690  34.277  1.00  0.00    -0.200 F 
ATOM    100  C   UNL A   1      41.763  28.400  35.775  1.00  0.00     0.200 A 
ATOM    101  F   UNL A   1      42.474  30.118  37.226  1.00  0.00    -0.200 F 
ATOM    102  F   UNL A   1      41.580  27.574  36.815  1.00  0.00    -0.200 F 
ENDBRANCH  69  92
ENDBRANCH  43  44
ENDBRANCH  35  38
ENDBRANCH  33  34
ENDBRANCH  32  33
ENDBRANCH   1  32
TORSDOF 15
ENDMDL
MODEL 2
REMARK VINA RESULT:     -13.6      2.238      7.142
REMARK SMILES CCn1nc(C(=O)NCCCNC(=O)c2ccc(-c3c4nc(c(-c5c(F)c(F)c(F)c(F)c5F)c5ccc([nH]5)c(-c5c(F)c(F)c(F)c(F)c5F)c5nc(c(-c6c(F)c(F)c(F)c(F)c6F)c6ccc3[nH]6)C=C5)C=C4)cc2)c2c1CC[C@H]([NH2+]Cc1nn(CC)c3ccccc13)C2
REMARK SMILES IDX 9 1 8 2 6 3 7 4 5 6 3 7 4 8 79 9 78 10 80 11 96 12 81 13
REMARK SMILES IDX 82 14 2 15 1 16 83 17 84 20 85 21 86 22 95 23 87 24 90 25
REMARK SMILES IDX 94 26 91 27 93 28 92 29 88 30 89 31 10 32 11 33 12 34 13 35
REMARK SMILES IDX 14 37 15 38 16 39 77 40 17 41 76 42 18 43 19 44 20 45 70 46
REMARK SMILES IDX 21 47 75 48 69 49 71 50 22 51 74 52 68 53 67 54 23 56 55 57
REMARK SMILES IDX 35 58 54 59 36 60 39 61 53 62 72 63 37 64 38 65 52 67 73 68
REMARK SMILES IDX 40 69 24 70 25 71 33 72 26 73 27 74 31 75 34 76 28 77 29 78
REMARK SMILES IDX 32 79 30 80 56 81 57 82 65 83 58 84 59 85 63 86 66 87 60 88
REMARK SMILES IDX 61 89 64 90 62 91 41 92 42 93 50 94 43 95 44 96 48 97 51 98
REMARK SMILES IDX 45 99 46 100 49 101 47 102
REMARK H PARENT 8 5 83 18 83 19 12 36 71 55 39 66
REMARK Flexibility Score: inf
ROOT
ATOM      1  C   UNL A   1      36.531  22.118  25.536  1.00  0.00     0.118 C 
ENDROOT
BRANCH   1   2
ATOM      2  N   UNL A   1      35.728  21.986  26.720  1.00  0.00    -0.351 N 
ATOM      3  C   UNL A   1      34.327  21.801  26.740  1.00  0.00     0.272 C 
ATOM      4  O   UNL A   1      33.857  21.482  27.840  1.00  0.00    -0.267 OA
ATOM      5  H   UNL A   1      36.192  22.028  27.587  1.00  0.00     0.163 HD
BRANCH   3   6
ATOM      6  C   UNL A   1      33.438  22.025  25.535  1.00  0.00     0.153 A 
ATOM      7  N   UNL A   1      32.469  21.537  23.654  1.00  0.00    -0.269 N 
ATOM      8  N   UNL A   1      33.400  21.103  24.540  1.00  0.00    -0.167 NA
ATOM      9  C   UNL A   1      31.922  22.732  24.015  1.00  0.00     0.043 A 
ATOM     10  C   UNL A   1      32.539  23.081  25.184  1.00  0.00     0.012 A 
ATOM     11  C   UNL A   1      30.841  23.551  23.408  1.00  0.00     0.062 C 
ATOM     12  C   UNL A   1      32.179  24.331  25.861  1.00  0.00     0.105 C 
ATOM     13  C   UNL A   1      31.115  25.077  23.644  1.00  0.00     0.072 C 
ATOM     14  C   UNL A   1      31.645  25.498  25.057  1.00  0.00     0.187 C 
BRANCH   7  15
ATOM     15  C   UNL A   1      32.075  20.651  22.573  1.00  0.00     0.141 C 
ATOM     16  C   UNL A   1      32.312  19.177  22.857  1.00  0.00     0.029 C 
ENDBRANCH   7  15
BRANCH  14  17
ATOM     17  N   UNL A   1      32.585  26.666  25.094  1.00  0.00    -0.338 N 
ATOM     18  H   UNL A   1      32.093  27.477  24.717  1.00  0.00     0.346 HD
ATOM     19  H   UNL A   1      33.398  26.386  24.546  1.00  0.00     0.346 HD
BRANCH  17  20
ATOM     20  C   UNL A   1      33.112  27.035  26.460  1.00  0.00     0.320 C 
BRANCH  20  21
ATOM     21  C   UNL A   1      33.096  28.541  26.787  1.00  0.00     0.124 A 
ATOM     22  N   UNL A   1      32.000  29.299  26.565  1.00  0.00    -0.171 NA
ATOM     23  C   UNL A   1      34.199  29.390  27.182  1.00  0.00     0.029 A 
ATOM     24  N   UNL A   1      32.367  30.548  26.902  1.00  0.00    -0.265 N 
ATOM     25  C   UNL A   1      33.616  30.623  27.460  1.00  0.00     0.069 A 
ATOM     26  C   UNL A   1      35.602  29.309  27.314  1.00  0.00     0.012 A 
ATOM     27  C   UNL A   1      34.296  31.711  28.022  1.00  0.00     0.028 A 
ATOM     28  C   UNL A   1      36.328  30.489  27.592  1.00  0.00     0.001 A 
ATOM     29  C   UNL A   1      35.682  31.661  27.976  1.00  0.00     0.002 A 
BRANCH  24  30
ATOM     30  C   UNL A   1      31.636  31.708  26.409  1.00  0.00     0.141 C 
ATOM     31  C   UNL A   1      30.563  31.356  25.370  1.00  0.00     0.029 C 
ENDBRANCH  24  30
ENDBRANCH  20  21
ENDBRANCH  17  20
ENDBRANCH  14  17
ENDBRANCH   3   6
ENDBRANCH   1   2
BRANCH   1  32
ATOM     32  C   UNL A   1      37.448  23.279  25.173  1.00  0.00     0.042 C 
BRANCH  32  33
ATOM     33  C   UNL A   1      38.201  23.895  26.354  1.00  0.00     0.118 C 
BRANCH  33  34
ATOM     34  N   UNL A   1      39.673  23.981  26.238  1.00  0.00    -0.352 N 
ATOM     35  C   UNL A   1      40.499  25.062  26.576  1.00  0.00     0.251 C 
ATOM     36  H   UNL A   1      40.127  23.185  25.881  1.00  0.00     0.163 HD
ATOM     37  O   UNL A   1      41.643  25.141  26.195  1.00  0.00    -0.269 OA
BRANCH  35  38
ATOM     38  C   UNL A   1      39.919  26.121  27.434  1.00  0.00     0.039 A 
ATOM     39  C   UNL A   1      39.429  25.870  28.717  1.00  0.00     0.014 A 
ATOM     40  C   UNL A   1      40.000  27.416  26.948  1.00  0.00     0.014 A 
ATOM     41  C   UNL A   1      39.242  26.955  29.576  1.00  0.00     0.010 A 
ATOM     42  C   UNL A   1      39.933  28.470  27.810  1.00  0.00     0.010 A 
ATOM     43  C   UNL A   1      39.590  28.244  29.137  1.00  0.00    -0.014 A 
BRANCH  43  44
ATOM     44  C   UNL A   1      39.929  29.295  30.090  1.00  0.00     0.031 A 
ATOM     45  C   UNL A   1      38.783  30.175  30.472  1.00  0.00     0.074 A 
ATOM     46  C   UNL A   1      41.031  29.277  30.866  1.00  0.00     0.049 A 
ATOM     47  N   UNL A   1      38.649  31.439  30.248  1.00  0.00    -0.248 NA
ATOM     48  C   UNL A   1      37.595  29.554  31.083  1.00  0.00     0.031 C 
ATOM     49  C   UNL A   1      42.104  28.278  30.929  1.00  0.00     0.029 A 
ATOM     50  N   UNL A   1      41.344  30.122  31.882  1.00  0.00    -0.354 N 
ATOM     51  C   UNL A   1      37.434  31.817  30.815  1.00  0.00     0.074 A 
ATOM     52  C   UNL A   1      36.760  30.594  31.169  1.00  0.00     0.031 C 
ATOM     53  C   UNL A   1      42.823  28.463  32.057  1.00  0.00     0.029 A 
ATOM     54  C   UNL A   1      42.376  29.687  32.696  1.00  0.00     0.049 A 
ATOM     55  H   UNL A   1      40.875  30.975  32.028  1.00  0.00     0.167 HD
ATOM     56  C   UNL A   1      37.166  33.118  31.123  1.00  0.00     0.037 A 
ATOM     57  C   UNL A   1      42.816  30.293  33.825  1.00  0.00     0.037 A 
ATOM     58  C   UNL A   1      38.147  34.000  30.541  1.00  0.00     0.049 A 
ATOM     59  C   UNL A   1      42.359  31.706  33.768  1.00  0.00     0.074 A 
ATOM     60  C   UNL A   1      38.549  34.278  29.248  1.00  0.00     0.029 A 
ATOM     61  N   UNL A   1      39.165  34.447  31.349  1.00  0.00    -0.354 N 
ATOM     62  N   UNL A   1      42.801  32.575  32.900  1.00  0.00    -0.248 NA
ATOM     63  C   UNL A   1      41.080  32.036  34.380  1.00  0.00     0.031 C 
ATOM     64  C   UNL A   1      39.970  34.390  29.325  1.00  0.00     0.029 A 
ATOM     65  C   UNL A   1      40.337  34.246  30.664  1.00  0.00     0.049 A 
ATOM     66  H   UNL A   1      39.072  34.839  32.247  1.00  0.00     0.167 HD
ATOM     67  C   UNL A   1      41.684  33.313  32.538  1.00  0.00     0.074 A 
ATOM     68  C   UNL A   1      40.682  33.011  33.556  1.00  0.00     0.031 C 
ATOM     69  C   UNL A   1      41.583  33.872  31.295  1.00  0.00     0.037 A 
BRANCH  56  70
ATOM     70  C   UNL A   1      36.226  33.594  32.204  1.00  0.00     0.064 A 
ATOM     71  C   UNL A   1      35.199  34.503  31.874  1.00  0.00     0.173 A 
ATOM     72  C   UNL A   1      36.462  33.418  33.582  1.00  0.00     0.173 A 
ATOM     73  F   UNL A   1      34.899  34.760  30.592  1.00  0.00    -0.203 F 
ATOM     74  C   UNL A   1      34.517  35.235  32.851  1.00  0.00     0.198 A 
ATOM     75  C   UNL A   1      35.740  34.108  34.556  1.00  0.00     0.198 A 
ATOM     76  F   UNL A   1      37.471  32.666  34.039  1.00  0.00    -0.203 F 
ATOM     77  F   UNL A   1      33.638  36.178  32.483  1.00  0.00    -0.200 F 
ATOM     78  C   UNL A   1      34.791  35.040  34.191  1.00  0.00     0.200 A 
ATOM     79  F   UNL A   1      36.032  33.916  35.850  1.00  0.00    -0.200 F 
ATOM     80  F   UNL A   1      34.182  35.780  35.127  1.00  0.00    -0.200 F 
ENDBRANCH  56  70
BRANCH  57  81
ATOM     81  C   UNL A   1      43.434  29.690  35.023  1.00  0.00     0.064 A 
ATOM     82  C   UNL A   1      42.774  28.691  35.755  1.00  0.00     0.173 A 
ATOM     83  C   UNL A   1      44.795  29.896  35.324  1.00  0.00     0.173 A 
ATOM     84  F   UNL A   1      41.487  28.410  35.504  1.00  0.00    -0.203 F 
ATOM     85  C   UNL A   1      43.445  27.921  36.710  1.00  0.00     0.198 A 
ATOM     86  C   UNL A   1      45.460  29.132  36.283  1.00  0.00     0.198 A 
ATOM     87  F   UNL A   1      45.525  30.780  34.629  1.00  0.00    -0.203 F 
ATOM     88  F   UNL A   1      42.797  26.933  37.344  1.00  0.00    -0.200 F 
ATOM     89  C   UNL A   1      44.789  28.133  36.965  1.00  0.00     0.200 A 
ATOM     90  F   UNL A   1      46.770  29.326  36.496  1.00  0.00    -0.200 F 
ATOM     91  F   UNL A   1      45.446  27.353  37.834  1.00  0.00    -0.200 F 
ENDBRANCH  57  81
BRANCH  69  92
ATOM     92  C   UNL A   1      42.812  33.877  30.427  1.00  0.00     0.064 A 
ATOM     93  C   UNL A   1      43.135  32.860  29.512  1.00  0.00     0.173 A 
ATOM     94  C   UNL A   1      43.618  35.022  30.418  1.00  0.00     0.173 A 
ATOM     95  F   UNL A   1      42.358  31.781  29.375  1.00  0.00    -0.203 F 
ATOM     96  C   UNL A   1      44.239  32.960  28.669  1.00  0.00     0.198 A 
ATOM     97  C   UNL A   1      44.701  35.137  29.549  1.00  0.00     0.198 A 
ATOM     98  F   UNL A   1      43.326  36.055  31.224  1.00  0.00    -0.203 F 
ATOM     99  F   UNL A   1      44.528  31.965  27.818  1.00  0.00    -0.200 F 
ATOM    100  C   UNL A   1      45.018  34.103  28.684  1.00  0.00     0.200 A 
ATOM    101  F   UNL A   1      45.421  36.267  29.531  1.00  0.00    -0.200 F 
ATOM    102  F   UNL A   1      46.058  34.219  27.847  1.00  0.00    -0.200 F 
ENDBRANCH  69  92
ENDBRANCH  43  44
ENDBRANCH  35  38
ENDBRANCH  33  34
ENDBRANCH  32  33
ENDBRANCH   1  32
TORSDOF 15
ENDMDL
MODEL 3
REMARK VINA RESULT:     -13.3      3.402      8.910
REMARK SMILES CCn1nc(C(=O)NCCCNC(=O)c2ccc(-c3c4nc(c(-c5c(F)c(F)c(F)c(F)c5F)c5ccc([nH]5)c(-c5c(F)c(F)c(F)c(F)c5F)c5nc(c(-c6c(F)c(F)c(F)c(F)c6F)c6ccc3[nH]6)C=C5)C=C4)cc2)c2c1CC[C@H]([NH2+]Cc1nn(CC)c3ccccc13)C2
REMARK SMILES IDX 9 1 8 2 6 3 7 4 5 6 3 7 4 8 79 9 78 10 80 11 96 12 81 13
REMARK SMILES IDX 82 14 2 15 1 16 83 17 84 20 85 21 86 22 95 23 87 24 90 25
REMARK SMILES IDX 94 26 91 27 93 28 92 29 88 30 89 31 10 32 11 33 12 34 13 35
REMARK SMILES IDX 14 37 15 38 16 39 77 40 17 41 76 42 18 43 19 44 20 45 70 46
REMARK SMILES IDX 21 47 75 48 69 49 71 50 22 51 74 52 68 53 67 54 23 56 55 57
REMARK SMILES IDX 35 58 54 59 36 60 39 61 53 62 72 63 37 64 38 65 52 67 73 68
REMARK SMILES IDX 40 69 24 70 25 71 33 72 26 73 27 74 31 75 34 76 28 77 29 78
REMARK SMILES IDX 32 79 30 80 56 81 57 82 65 83 58 84 59 85 63 86 66 87 60 88
REMARK SMILES IDX 61 89 64 90 62 91 41 92 42 93 50 94 43 95 44 96 48 97 51 98
REMARK SMILES IDX 45 99 46 100 49 101 47 102
REMARK H PARENT 8 5 83 18 83 19 12 36 71 55 39 66
REMARK Flexibility Score: inf
ROOT
ATOM      1  C   UNL A   1      33.992  29.250  25.049  1.00  0.00     0.118 C 
ENDROOT
BRANCH   1   2
ATOM      2  N   UNL A   1      34.347  28.734  23.757  1.00  0.00    -0.351 N 
ATOM      3  C   UNL A   1      33.432  28.374  22.742  1.00  0.00     0.272 C 
ATOM      4  O   UNL A   1      33.937  28.170  21.631  1.00  0.00    -0.267 OA
ATOM      5  H   UNL A   1      35.306  28.622  23.564  1.00  0.00     0.163 HD
BRANCH   3   6
ATOM      6  C   UNL A   1      31.949  28.189  22.982  1.00  0.00     0.153 A 
ATOM      7  N   UNL A   1      29.836  28.678  22.875  1.00  0.00    -0.269 N 
ATOM      8  N   UNL A   1      31.076  29.159  22.608  1.00  0.00    -0.167 NA
ATOM      9  C   UNL A   1      29.867  27.441  23.446  1.00  0.00     0.043 A 
ATOM     10  C   UNL A   1      31.191  27.120  23.556  1.00  0.00     0.012 A 
ATOM     11  C   UNL A   1      28.783  26.506  23.845  1.00  0.00     0.062 C 
ATOM     12  C   UNL A   1      31.590  25.833  24.133  1.00  0.00     0.105 C 
ATOM     13  C   UNL A   1      29.216  25.676  25.103  1.00  0.00     0.072 C 
ATOM     14  C   UNL A   1      30.689  25.144  25.137  1.00  0.00     0.187 C 
BRANCH   7  15
ATOM     15  C   UNL A   1      28.686  29.428  22.401  1.00  0.00     0.141 C 
ATOM     16  C   UNL A   1      29.032  30.584  21.478  1.00  0.00     0.029 C 
ENDBRANCH   7  15
BRANCH  14  17
ATOM     17  N   UNL A   1      31.335  25.060  26.488  1.00  0.00    -0.338 N 
ATOM     18  H   UNL A   1      30.694  25.469  27.168  1.00  0.00     0.346 HD
ATOM     19  H   UNL A   1      32.220  25.558  26.405  1.00  0.00     0.346 HD
BRANCH  17  20
ATOM     20  C   UNL A   1      31.685  23.668  26.957  1.00  0.00     0.320 C 
BRANCH  20  21
ATOM     21  C   UNL A   1      32.635  22.882  26.034  1.00  0.00     0.124 A 
ATOM     22  N   UNL A   1      32.361  21.615  25.654  1.00  0.00    -0.171 NA
ATOM     23  C   UNL A   1      33.964  23.244  25.589  1.00  0.00     0.029 A 
ATOM     24  N   UNL A   1      33.422  21.235  24.920  1.00  0.00    -0.265 N 
ATOM     25  C   UNL A   1      34.323  22.243  24.690  1.00  0.00     0.069 A 
ATOM     26  C   UNL A   1      34.926  24.247  25.836  1.00  0.00     0.012 A 
ATOM     27  C   UNL A   1      35.478  22.265  23.900  1.00  0.00     0.028 A 
ATOM     28  C   UNL A   1      36.212  24.110  25.265  1.00  0.00     0.001 A 
ATOM     29  C   UNL A   1      36.470  23.156  24.285  1.00  0.00     0.002 A 
BRANCH  24  30
ATOM     30  C   UNL A   1      33.718  19.826  24.693  1.00  0.00     0.141 C 
ATOM     31  C   UNL A   1      32.799  18.877  25.475  1.00  0.00     0.029 C 
ENDBRANCH  24  30
ENDBRANCH  20  21
ENDBRANCH  17  20
ENDBRANCH  14  17
ENDBRANCH   3   6
ENDBRANCH   1   2
BRANCH   1  32
ATOM     32  C   UNL A   1      34.061  28.517  26.382  1.00  0.00     0.042 C 
BRANCH  32  33
ATOM     33  C   UNL A   1      34.672  29.326  27.528  1.00  0.00     0.118 C 
BRANCH  33  34
ATOM     34  N   UNL A   1      35.009  30.738  27.245  1.00  0.00    -0.352 N 
ATOM     35  C   UNL A   1      35.879  31.574  27.961  1.00  0.00     0.251 C 
ATOM     36  H   UNL A   1      34.571  31.140  26.462  1.00  0.00     0.163 HD
ATOM     37  O   UNL A   1      35.878  32.773  27.820  1.00  0.00    -0.269 OA
BRANCH  35  38
ATOM     38  C   UNL A   1      36.817  30.929  28.909  1.00  0.00     0.039 A 
ATOM     39  C   UNL A   1      36.594  29.660  29.448  1.00  0.00     0.014 A 
ATOM     40  C   UNL A   1      38.007  31.599  29.144  1.00  0.00     0.014 A 
ATOM     41  C   UNL A   1      37.673  28.990  30.027  1.00  0.00     0.010 A 
ATOM     42  C   UNL A   1      39.093  30.912  29.601  1.00  0.00     0.010 A 
ATOM     43  C   UNL A   1      38.942  29.594  30.011  1.00  0.00    -0.014 A 
BRANCH  43  44
ATOM     44  C   UNL A   1      40.157  28.790  30.091  1.00  0.00     0.031 A 
ATOM     45  C   UNL A   1      40.613  28.497  31.484  1.00  0.00     0.074 A 
ATOM     46  C   UNL A   1      40.629  28.041  29.074  1.00  0.00     0.049 A 
ATOM     47  N   UNL A   1      41.708  28.878  32.051  1.00  0.00    -0.248 NA
ATOM     48  C   UNL A   1      39.694  27.788  32.390  1.00  0.00     0.031 C 
ATOM     49  C   UNL A   1      40.092  27.875  27.719  1.00  0.00     0.029 A 
ATOM     50  N   UNL A   1      41.650  27.147  29.107  1.00  0.00    -0.354 N 
ATOM     51  C   UNL A   1      41.699  28.338  33.336  1.00  0.00     0.074 A 
ATOM     52  C   UNL A   1      40.371  27.817  33.541  1.00  0.00     0.031 C 
ATOM     53  C   UNL A   1      40.661  26.795  27.141  1.00  0.00     0.029 A 
ATOM     54  C   UNL A   1      41.717  26.307  28.008  1.00  0.00     0.049 A 
ATOM     55  H   UNL A   1      42.293  27.101  29.852  1.00  0.00     0.167 HD
ATOM     56  C   UNL A   1      42.849  28.191  34.055  1.00  0.00     0.037 A 
ATOM     57  C   UNL A   1      42.576  25.274  27.840  1.00  0.00     0.037 A 
ATOM     58  C   UNL A   1      43.940  28.902  33.436  1.00  0.00     0.049 A 
ATOM     59  C   UNL A   1      43.716  25.500  28.768  1.00  0.00     0.074 A 
ATOM     60  C   UNL A   1      44.177  30.227  33.126  1.00  0.00     0.029 A 
ATOM     61  N   UNL A   1      44.817  28.179  32.663  1.00  0.00    -0.354 N 
ATOM     62  N   UNL A   1      44.568  26.481  28.640  1.00  0.00    -0.248 NA
ATOM     63  C   UNL A   1      43.646  24.908  30.095  1.00  0.00     0.031 C 
ATOM     64  C   UNL A   1      44.794  30.196  31.839  1.00  0.00     0.029 A 
ATOM     65  C   UNL A   1      44.960  28.858  31.479  1.00  0.00     0.049 A 
ATOM     66  H   UNL A   1      45.261  27.336  32.912  1.00  0.00     0.167 HD
ATOM     67  C   UNL A   1      44.810  26.910  29.937  1.00  0.00     0.074 A 
ATOM     68  C   UNL A   1      44.304  25.840  30.793  1.00  0.00     0.031 C 
ATOM     69  C   UNL A   1      45.135  28.211  30.198  1.00  0.00     0.037 A 
BRANCH  56  70
ATOM     70  C   UNL A   1      43.092  27.160  35.129  1.00  0.00     0.064 A 
ATOM     71  C   UNL A   1      43.456  27.585  36.424  1.00  0.00     0.173 A 
ATOM     72  C   UNL A   1      43.259  25.784  34.873  1.00  0.00     0.173 A 
ATOM     73  F   UNL A   1      43.354  28.876  36.774  1.00  0.00    -0.203 F 
ATOM     74  C   UNL A   1      44.014  26.711  37.361  1.00  0.00     0.198 A 
ATOM     75  C   UNL A   1      43.763  24.903  35.830  1.00  0.00     0.198 A 
ATOM     76  F   UNL A   1      43.051  25.259  33.660  1.00  0.00    -0.203 F 
ATOM     77  F   UNL A   1      44.460  27.185  38.533  1.00  0.00    -0.200 F 
ATOM     78  C   UNL A   1      44.172  25.371  37.061  1.00  0.00     0.200 A 
ATOM     79  F   UNL A   1      43.923  23.611  35.514  1.00  0.00    -0.200 F 
ATOM     80  F   UNL A   1      44.760  24.541  37.933  1.00  0.00    -0.200 F 
ENDBRANCH  56  70
BRANCH  57  81
ATOM     81  C   UNL A   1      42.389  24.022  27.080  1.00  0.00     0.064 A 
ATOM     82  C   UNL A   1      43.323  23.612  26.117  1.00  0.00     0.173 A 
ATOM     83  C   UNL A   1      41.424  23.071  27.468  1.00  0.00     0.173 A 
ATOM     84  F   UNL A   1      44.294  24.447  25.720  1.00  0.00    -0.203 F 
ATOM     85  C   UNL A   1      43.313  22.314  25.595  1.00  0.00     0.198 A 
ATOM     86  C   UNL A   1      41.412  21.779  26.940  1.00  0.00     0.198 A 
ATOM     87  F   UNL A   1      40.535  23.349  28.432  1.00  0.00    -0.203 F 
ATOM     88  F   UNL A   1      44.260  21.939  24.723  1.00  0.00    -0.200 F 
ATOM     89  C   UNL A   1      42.366  21.397  26.015  1.00  0.00     0.200 A 
ATOM     90  F   UNL A   1      40.509  20.891  27.380  1.00  0.00    -0.200 F 
ATOM     91  F   UNL A   1      42.396  20.136  25.562  1.00  0.00    -0.200 F 
ENDBRANCH  57  81
BRANCH  69  92
ATOM     92  C   UNL A   1      45.467  29.098  29.029  1.00  0.00     0.064 A 
ATOM     93  C   UNL A   1      46.729  29.150  28.412  1.00  0.00     0.173 A 
ATOM     94  C   UNL A   1      44.430  29.818  28.422  1.00  0.00     0.173 A 
ATOM     95  F   UNL A   1      47.748  28.410  28.859  1.00  0.00    -0.203 F 
ATOM     96  C   UNL A   1      46.955  29.924  27.276  1.00  0.00     0.198 A 
ATOM     97  C   UNL A   1      44.648  30.561  27.264  1.00  0.00     0.198 A 
ATOM     98  F   UNL A   1      43.188  29.760  28.926  1.00  0.00    -0.203 F 
ATOM     99  F   UNL A   1      48.175  29.963  26.720  1.00  0.00    -0.200 F 
ATOM    100  C   UNL A   1      45.911  30.625  26.699  1.00  0.00     0.200 A 
ATOM    101  F   UNL A   1      43.623  31.197  26.680  1.00  0.00    -0.200 F 
ATOM    102  F   UNL A   1      46.116  31.339  25.583  1.00  0.00    -0.200 F 
ENDBRANCH  69  92
ENDBRANCH  43  44
ENDBRANCH  35  38
ENDBRANCH  33  34
ENDBRANCH  32  33
ENDBRANCH   1  32
TORSDOF 15
ENDMDL
