MODEL 1
REMARK VINA RESULT:     -10.7      0.000      0.000
REMARK SMILES CC[N@@H+]1CCC[C@@H]1C[N@@H+](C)C[C@H]([NH3+])C(=O)NCCCNC(=O)c1ccc(-c2c3nc(c(-c4c(F)c(F)c(F)c(F)c4F)c4ccc([nH]4)c(-c4c(F)c(F)c(F)c(F)c4F)c4nc(c(-c5c(F)c(F)c(F)c(F)c5F)c5ccc2[nH]5)C=C4)C=C3)cc1
REMARK SMILES IDX 14 1 15 2 16 3 12 5 11 6 9 7 10 8 8 10 7 11 3 12 4 13 5 15
REMARK SMILES IDX 6 16 2 17 1 18 13 19 17 23 18 24 19 25 20 26 21 27 22 29
REMARK SMILES IDX 23 30 24 31 85 32 25 33 84 34 26 35 27 36 28 37 78 38 29 39
REMARK SMILES IDX 83 40 77 41 79 42 30 43 82 44 76 45 75 46 31 48 63 49 43 50
REMARK SMILES IDX 62 51 44 52 47 53 61 54 80 55 45 56 46 57 60 59 81 60 48 61
REMARK SMILES IDX 32 62 33 63 41 64 34 65 35 66 39 67 42 68 36 69 37 70 40 71
REMARK SMILES IDX 38 72 64 73 65 74 73 75 66 76 67 77 71 78 74 79 68 80 69 81
REMARK SMILES IDX 72 82 70 83 49 84 50 85 58 86 51 87 52 88 56 89 59 90 53 91
REMARK SMILES IDX 54 92 57 93 55 94
REMARK H PARENT 16 4 9 9 3 14 13 20 13 21 13 22 20 28 79 47 47 58
REMARK Flexibility Score: inf
ROOT
ATOM      1  C   UNL A   1      31.702  24.885  26.461  1.00  0.00     0.284 C 
ATOM      2  O   UNL A   1      31.606  23.938  27.251  1.00  0.00    -0.268 OA
ATOM      3  N   UNL A   1      30.966  26.005  26.758  1.00  0.00    -0.351 N 
ATOM      4  H   UNL A   1      30.304  25.916  27.481  1.00  0.00     0.163 HD
ENDROOT
BRANCH   1   5
ATOM      5  C   UNL A   1      32.607  24.752  25.197  1.00  0.00     0.326 C 
BRANCH   5   6
ATOM      6  C   UNL A   1      32.750  23.363  24.483  1.00  0.00     0.338 C 
BRANCH   6   7
ATOM      7  N   UNL A   1      33.424  22.150  25.006  1.00  0.00    -0.327 N 
ATOM      8  C   UNL A   1      32.404  21.145  25.333  1.00  0.00     0.333 C 
ATOM      9  H   UNL A   1      34.024  21.849  24.238  1.00  0.00     0.348 HD
BRANCH   7  10
ATOM     10  C   UNL A   1      34.431  22.297  26.069  1.00  0.00     0.327 C 
BRANCH  10  11
ATOM     11  C   UNL A   1      35.749  21.468  26.110  1.00  0.00     0.239 C 
ATOM     12  N   UNL A   1      37.024  22.231  26.268  1.00  0.00    -0.328 N 
ATOM     13  C   UNL A   1      38.082  21.450  25.626  1.00  0.00     0.262 C 
ATOM     14  H   UNL A   1      37.144  22.321  27.277  1.00  0.00     0.348 HD
ATOM     15  C   UNL A   1      37.398  20.784  24.452  1.00  0.00     0.068 C 
ATOM     16  C   UNL A   1      36.002  20.484  24.964  1.00  0.00     0.077 C 
BRANCH  12  17
ATOM     17  C   UNL A   1      37.086  23.666  25.972  1.00  0.00     0.259 C 
ATOM     18  C   UNL A   1      38.289  24.460  26.481  1.00  0.00     0.071 C 
ENDBRANCH  12  17
ENDBRANCH  10  11
ENDBRANCH   7  10
ENDBRANCH   6   7
ENDBRANCH   5   6
BRANCH   5  19
ATOM     19  N   UNL A   1      33.855  25.542  25.317  1.00  0.00    -0.343 N 
ATOM     20  H   UNL A   1      33.738  26.436  24.840  1.00  0.00     0.345 HD
ATOM     21  H   UNL A   1      34.626  25.028  24.890  1.00  0.00     0.345 HD
ATOM     22  H   UNL A   1      34.060  25.706  26.303  1.00  0.00     0.345 HD
ENDBRANCH   5  19
ENDBRANCH   1   5
BRANCH   3  23
ATOM     23  C   UNL A   1      31.057  27.295  26.127  1.00  0.00     0.118 C 
BRANCH  23  24
ATOM     24  C   UNL A   1      31.780  28.409  26.861  1.00  0.00     0.042 C 
BRANCH  24  25
ATOM     25  C   UNL A   1      32.527  29.361  25.945  1.00  0.00     0.118 C 
BRANCH  25  26
ATOM     26  N   UNL A   1      32.406  30.766  26.324  1.00  0.00    -0.352 N 
ATOM     27  C   UNL A   1      33.160  31.643  27.075  1.00  0.00     0.251 C 
ATOM     28  H   UNL A   1      31.594  31.187  25.957  1.00  0.00     0.163 HD
ATOM     29  O   UNL A   1      32.718  32.775  27.238  1.00  0.00    -0.269 OA
BRANCH  27  30
ATOM     30  C   UNL A   1      34.445  31.279  27.735  1.00  0.00     0.039 A 
ATOM     31  C   UNL A   1      35.393  32.292  27.958  1.00  0.00     0.014 A 
ATOM     32  C   UNL A   1      34.779  29.982  28.103  1.00  0.00     0.014 A 
ATOM     33  C   UNL A   1      36.606  32.011  28.602  1.00  0.00     0.010 A 
ATOM     34  C   UNL A   1      35.917  29.725  28.863  1.00  0.00     0.010 A 
ATOM     35  C   UNL A   1      36.858  30.730  29.114  1.00  0.00    -0.014 A 
BRANCH  35  36
ATOM     36  C   UNL A   1      38.085  30.400  29.894  1.00  0.00     0.031 A 
ATOM     37  C   UNL A   1      39.112  29.446  29.334  1.00  0.00     0.074 A 
ATOM     38  C   UNL A   1      38.225  30.859  31.154  1.00  0.00     0.049 A 
ATOM     39  N   UNL A   1      40.155  28.906  29.917  1.00  0.00    -0.248 NA
ATOM     40  C   UNL A   1      38.912  29.001  27.946  1.00  0.00     0.031 C 
ATOM     41  C   UNL A   1      37.276  31.730  31.846  1.00  0.00     0.029 A 
ATOM     42  N   UNL A   1      39.210  30.637  32.085  1.00  0.00    -0.354 N 
ATOM     43  C   UNL A   1      40.705  28.037  28.983  1.00  0.00     0.074 A 
ATOM     44  C   UNL A   1      39.840  28.066  27.824  1.00  0.00     0.031 C 
ATOM     45  C   UNL A   1      37.732  31.986  33.082  1.00  0.00     0.029 A 
ATOM     46  C   UNL A   1      38.978  31.255  33.289  1.00  0.00     0.049 A 
ATOM     47  H   UNL A   1      40.007  30.086  31.907  1.00  0.00     0.167 HD
ATOM     48  C   UNL A   1      41.844  27.306  29.065  1.00  0.00     0.037 A 
ATOM     49  C   UNL A   1      39.677  31.226  34.440  1.00  0.00     0.037 A 
ATOM     50  C   UNL A   1      42.724  27.311  30.205  1.00  0.00     0.049 A 
ATOM     51  C   UNL A   1      40.947  30.423  34.510  1.00  0.00     0.074 A 
ATOM     52  C   UNL A   1      43.941  26.673  30.360  1.00  0.00     0.029 A 
ATOM     53  N   UNL A   1      42.475  27.990  31.390  1.00  0.00    -0.354 N 
ATOM     54  N   UNL A   1      41.497  29.666  33.592  1.00  0.00    -0.248 NA
ATOM     55  C   UNL A   1      41.697  30.478  35.772  1.00  0.00     0.031 C 
ATOM     56  C   UNL A   1      44.403  26.921  31.657  1.00  0.00     0.029 A 
ATOM     57  C   UNL A   1      43.504  27.762  32.291  1.00  0.00     0.049 A 
ATOM     58  H   UNL A   1      41.685  28.550  31.565  1.00  0.00     0.167 HD
ATOM     59  C   UNL A   1      42.663  29.166  34.157  1.00  0.00     0.074 A 
ATOM     60  C   UNL A   1      42.752  29.725  35.490  1.00  0.00     0.031 C 
ATOM     61  C   UNL A   1      43.575  28.318  33.619  1.00  0.00     0.037 A 
BRANCH  48  62
ATOM     62  C   UNL A   1      42.201  26.444  27.883  1.00  0.00     0.064 A 
ATOM     63  C   UNL A   1      43.082  26.887  26.882  1.00  0.00     0.173 A 
ATOM     64  C   UNL A   1      41.659  25.156  27.749  1.00  0.00     0.173 A 
ATOM     65  F   UNL A   1      43.626  28.112  26.955  1.00  0.00    -0.203 F 
ATOM     66  C   UNL A   1      43.359  26.100  25.768  1.00  0.00     0.198 A 
ATOM     67  C   UNL A   1      41.971  24.356  26.652  1.00  0.00     0.198 A 
ATOM     68  F   UNL A   1      40.822  24.674  28.679  1.00  0.00    -0.203 F 
ATOM     69  F   UNL A   1      44.139  26.580  24.789  1.00  0.00    -0.200 F 
ATOM     70  C   UNL A   1      42.808  24.833  25.655  1.00  0.00     0.200 A 
ATOM     71  F   UNL A   1      41.451  23.125  26.553  1.00  0.00    -0.200 F 
ATOM     72  F   UNL A   1      43.073  24.078  24.581  1.00  0.00    -0.200 F 
ENDBRANCH  48  62
BRANCH  49  73
ATOM     73  C   UNL A   1      39.188  31.998  35.613  1.00  0.00     0.064 A 
ATOM     74  C   UNL A   1      38.337  31.412  36.559  1.00  0.00     0.173 A 
ATOM     75  C   UNL A   1      39.592  33.324  35.831  1.00  0.00     0.173 A 
ATOM     76  F   UNL A   1      37.908  30.154  36.385  1.00  0.00    -0.203 F 
ATOM     77  C   UNL A   1      37.899  32.125  37.674  1.00  0.00     0.198 A 
ATOM     78  C   UNL A   1      39.177  34.026  36.961  1.00  0.00     0.198 A 
ATOM     79  F   UNL A   1      40.413  33.930  34.960  1.00  0.00    -0.203 F 
ATOM     80  F   UNL A   1      37.058  31.552  38.545  1.00  0.00    -0.200 F 
ATOM     81  C   UNL A   1      38.328  33.429  37.879  1.00  0.00     0.200 A 
ATOM     82  F   UNL A   1      39.610  35.278  37.166  1.00  0.00    -0.200 F 
ATOM     83  F   UNL A   1      37.921  34.107  38.960  1.00  0.00    -0.200 F 
ENDBRANCH  49  73
BRANCH  61  84
ATOM     84  C   UNL A   1      44.760  27.954  34.468  1.00  0.00     0.064 A 
ATOM     85  C   UNL A   1      44.769  26.795  35.258  1.00  0.00     0.173 A 
ATOM     86  C   UNL A   1      45.916  28.749  34.453  1.00  0.00     0.173 A 
ATOM     87  F   UNL A   1      43.684  26.009  35.318  1.00  0.00    -0.203 F 
ATOM     88  C   UNL A   1      45.885  26.460  36.022  1.00  0.00     0.198 A 
ATOM     89  C   UNL A   1      47.041  28.393  35.193  1.00  0.00     0.198 A 
ATOM     90  F   UNL A   1      45.961  29.864  33.710  1.00  0.00    -0.203 F 
ATOM     91  F   UNL A   1      45.854  25.374  36.807  1.00  0.00    -0.200 F 
ATOM     92  C   UNL A   1      47.022  27.253  35.983  1.00  0.00     0.200 A 
ATOM     93  F   UNL A   1      48.143  29.153  35.141  1.00  0.00    -0.200 F 
ATOM     94  F   UNL A   1      48.097  26.922  36.710  1.00  0.00    -0.200 F 
ENDBRANCH  61  84
ENDBRANCH  35  36
ENDBRANCH  27  30
ENDBRANCH  25  26
ENDBRANCH  24  25
ENDBRANCH  23  24
ENDBRANCH   3  23
TORSDOF 16
ENDMDL
MODEL 2
REMARK VINA RESULT:     -10.5      0.915      2.163
REMARK SMILES CC[N@@H+]1CCC[C@@H]1C[N@@H+](C)C[C@H]([NH3+])C(=O)NCCCNC(=O)c1ccc(-c2c3nc(c(-c4c(F)c(F)c(F)c(F)c4F)c4ccc([nH]4)c(-c4c(F)c(F)c(F)c(F)c4F)c4nc(c(-c5c(F)c(F)c(F)c(F)c5F)c5ccc2[nH]5)C=C4)C=C3)cc1
REMARK SMILES IDX 14 1 15 2 16 3 12 5 11 6 9 7 10 8 8 10 7 11 3 12 4 13 5 15
REMARK SMILES IDX 6 16 2 17 1 18 13 19 17 23 18 24 19 25 20 26 21 27 22 29
REMARK SMILES IDX 23 30 24 31 85 32 25 33 84 34 26 35 27 36 28 37 78 38 29 39
REMARK SMILES IDX 83 40 77 41 79 42 30 43 82 44 76 45 75 46 31 48 63 49 43 50
REMARK SMILES IDX 62 51 44 52 47 53 61 54 80 55 45 56 46 57 60 59 81 60 48 61
REMARK SMILES IDX 32 62 33 63 41 64 34 65 35 66 39 67 42 68 36 69 37 70 40 71
REMARK SMILES IDX 38 72 64 73 65 74 73 75 66 76 67 77 71 78 74 79 68 80 69 81
REMARK SMILES IDX 72 82 70 83 49 84 50 85 58 86 51 87 52 88 56 89 59 90 53 91
REMARK SMILES IDX 54 92 57 93 55 94
REMARK H PARENT 16 4 9 9 3 14 13 20 13 21 13 22 20 28 79 47 47 58
REMARK Flexibility Score: inf
ROOT
ATOM      1  C   UNL A   1      30.492  25.695  25.410  1.00  0.00     0.284 C 
ATOM      2  O   UNL A   1      29.915  25.509  26.489  1.00  0.00    -0.268 OA
ATOM      3  N   UNL A   1      30.569  26.994  24.976  1.00  0.00    -0.351 N 
ATOM      4  H   UNL A   1      30.031  27.655  25.468  1.00  0.00     0.163 HD
ENDROOT
BRANCH   1   5
ATOM      5  C   UNL A   1      31.060  24.479  24.616  1.00  0.00     0.326 C 
BRANCH   5   6
ATOM      6  C   UNL A   1      32.611  24.284  24.490  1.00  0.00     0.338 C 
BRANCH   6   7
ATOM      7  N   UNL A   1      33.645  24.648  25.488  1.00  0.00    -0.327 N 
ATOM      8  C   UNL A   1      34.326  25.871  25.041  1.00  0.00     0.333 C 
ATOM      9  H   UNL A   1      33.118  24.798  26.349  1.00  0.00     0.348 HD
BRANCH   7  10
ATOM     10  C   UNL A   1      34.587  23.615  25.948  1.00  0.00     0.327 C 
BRANCH  10  11
ATOM     11  C   UNL A   1      35.864  23.215  25.152  1.00  0.00     0.239 C 
ATOM     12  N   UNL A   1      35.973  21.788  24.721  1.00  0.00    -0.328 N 
ATOM     13  C   UNL A   1      37.398  21.466  24.639  1.00  0.00     0.262 C 
ATOM     14  H   UNL A   1      35.499  21.758  23.818  1.00  0.00     0.348 HD
ATOM     15  C   UNL A   1      38.032  22.276  25.748  1.00  0.00     0.068 C 
ATOM     16  C   UNL A   1      37.221  23.558  25.774  1.00  0.00     0.077 C 
BRANCH  12  17
ATOM     17  C   UNL A   1      35.166  20.743  25.359  1.00  0.00     0.259 C 
ATOM     18  C   UNL A   1      33.930  20.231  24.620  1.00  0.00     0.071 C 
ENDBRANCH  12  17
ENDBRANCH  10  11
ENDBRANCH   7  10
ENDBRANCH   6   7
ENDBRANCH   5   6
BRANCH   5  19
ATOM     19  N   UNL A   1      30.278  24.198  23.388  1.00  0.00    -0.343 N 
ATOM     20  H   UNL A   1      30.075  25.074  22.907  1.00  0.00     0.345 HD
ATOM     21  H   UNL A   1      29.403  23.738  23.640  1.00  0.00     0.345 HD
ATOM     22  H   UNL A   1      30.818  23.590  22.773  1.00  0.00     0.345 HD
ENDBRANCH   5  19
ENDBRANCH   1   5
BRANCH   3  23
ATOM     23  C   UNL A   1      31.352  27.496  23.877  1.00  0.00     0.118 C 
BRANCH  23  24
ATOM     24  C   UNL A   1      31.868  28.921  23.950  1.00  0.00     0.042 C 
BRANCH  24  25
ATOM     25  C   UNL A   1      32.705  29.206  25.184  1.00  0.00     0.118 C 
BRANCH  25  26
ATOM     26  N   UNL A   1      32.345  30.445  25.871  1.00  0.00    -0.352 N 
ATOM     27  C   UNL A   1      32.918  31.212  26.863  1.00  0.00     0.251 C 
ATOM     28  H   UNL A   1      31.493  30.819  25.550  1.00  0.00     0.163 HD
ATOM     29  O   UNL A   1      32.295  32.193  27.251  1.00  0.00    -0.269 OA
BRANCH  27  30
ATOM     30  C   UNL A   1      34.216  30.888  27.519  1.00  0.00     0.039 A 
ATOM     31  C   UNL A   1      35.150  31.921  27.700  1.00  0.00     0.014 A 
ATOM     32  C   UNL A   1      34.575  29.607  27.921  1.00  0.00     0.014 A 
ATOM     33  C   UNL A   1      36.375  31.679  28.339  1.00  0.00     0.010 A 
ATOM     34  C   UNL A   1      35.726  29.392  28.676  1.00  0.00     0.010 A 
ATOM     35  C   UNL A   1      36.653  30.418  28.886  1.00  0.00    -0.014 A 
BRANCH  35  36
ATOM     36  C   UNL A   1      37.893  30.131  29.661  1.00  0.00     0.031 A 
ATOM     37  C   UNL A   1      38.922  29.166  29.124  1.00  0.00     0.074 A 
ATOM     38  C   UNL A   1      38.046  30.641  30.900  1.00  0.00     0.049 A 
ATOM     39  N   UNL A   1      39.979  28.660  29.714  1.00  0.00    -0.248 NA
ATOM     40  C   UNL A   1      38.708  28.665  27.758  1.00  0.00     0.031 C 
ATOM     41  C   UNL A   1      37.097  31.529  31.571  1.00  0.00     0.029 A 
ATOM     42  N   UNL A   1      39.045  30.464  31.825  1.00  0.00    -0.354 N 
ATOM     43  C   UNL A   1      40.525  27.760  28.806  1.00  0.00     0.074 A 
ATOM     44  C   UNL A   1      39.644  27.734  27.660  1.00  0.00     0.031 C 
ATOM     45  C   UNL A   1      37.567  31.837  32.789  1.00  0.00     0.029 A 
ATOM     46  C   UNL A   1      38.823  31.128  33.007  1.00  0.00     0.049 A 
ATOM     47  H   UNL A   1      39.845  29.915  31.658  1.00  0.00     0.167 HD
ATOM     48  C   UNL A   1      41.673  27.044  28.901  1.00  0.00     0.037 A 
ATOM     49  C   UNL A   1      39.538  31.150  34.149  1.00  0.00     0.037 A 
ATOM     50  C   UNL A   1      42.567  27.102  30.028  1.00  0.00     0.049 A 
ATOM     51  C   UNL A   1      40.817  30.363  34.232  1.00  0.00     0.074 A 
ATOM     52  C   UNL A   1      43.793  26.482  30.191  1.00  0.00     0.029 A 
ATOM     53  N   UNL A   1      42.328  27.825  31.189  1.00  0.00    -0.354 N 
ATOM     54  N   UNL A   1      41.362  29.576  33.337  1.00  0.00    -0.248 NA
ATOM     55  C   UNL A   1      41.583  30.474  35.480  1.00  0.00     0.031 C 
ATOM     56  C   UNL A   1      44.271  26.785  31.471  1.00  0.00     0.029 A 
ATOM     57  C   UNL A   1      43.371  27.642  32.084  1.00  0.00     0.049 A 
ATOM     58  H   UNL A   1      41.535  28.384  31.352  1.00  0.00     0.167 HD
ATOM     59  C   UNL A   1      42.540  29.110  33.905  1.00  0.00     0.074 A 
ATOM     60  C   UNL A   1      42.642  29.721  35.214  1.00  0.00     0.031 C 
ATOM     61  C   UNL A   1      43.454  28.251  33.388  1.00  0.00     0.037 A 
BRANCH  48  62
ATOM     62  C   UNL A   1      42.023  26.139  27.749  1.00  0.00     0.064 A 
ATOM     63  C   UNL A   1      41.411  24.886  27.581  1.00  0.00     0.173 A 
ATOM     64  C   UNL A   1      42.980  26.528  26.800  1.00  0.00     0.173 A 
ATOM     65  F   UNL A   1      40.493  24.458  28.461  1.00  0.00    -0.203 F 
ATOM     66  C   UNL A   1      41.785  24.036  26.543  1.00  0.00     0.198 A 
ATOM     67  C   UNL A   1      43.322  25.693  25.740  1.00  0.00     0.198 A 
ATOM     68  F   UNL A   1      43.589  27.719  26.902  1.00  0.00    -0.203 F 
ATOM     69  F   UNL A   1      41.242  22.814  26.452  1.00  0.00    -0.200 F 
ATOM     70  C   UNL A   1      42.736  24.442  25.620  1.00  0.00     0.200 A 
ATOM     71  F   UNL A   1      44.229  26.093  24.838  1.00  0.00    -0.200 F 
ATOM     72  F   UNL A   1      43.097  23.622  24.623  1.00  0.00    -0.200 F 
ENDBRANCH  48  62
BRANCH  49  73
ATOM     73  C   UNL A   1      39.057  31.963  35.297  1.00  0.00     0.064 A 
ATOM     74  C   UNL A   1      38.324  31.378  36.338  1.00  0.00     0.173 A 
ATOM     75  C   UNL A   1      39.353  33.331  35.395  1.00  0.00     0.173 A 
ATOM     76  F   UNL A   1      38.001  30.078  36.281  1.00  0.00    -0.203 F 
ATOM     77  C   UNL A   1      37.895  32.132  37.429  1.00  0.00     0.198 A 
ATOM     78  C   UNL A   1      38.949  34.077  36.501  1.00  0.00     0.198 A 
ATOM     79  F   UNL A   1      40.058  33.938  34.429  1.00  0.00    -0.203 F 
ATOM     80  F   UNL A   1      37.167  31.556  38.395  1.00  0.00    -0.200 F 
ATOM     81  C   UNL A   1      38.217  33.479  37.515  1.00  0.00     0.200 A 
ATOM     82  F   UNL A   1      39.279  35.374  36.588  1.00  0.00    -0.200 F 
ATOM     83  F   UNL A   1      37.820  34.199  38.572  1.00  0.00    -0.200 F 
ENDBRANCH  49  73
BRANCH  61  84
ATOM     84  C   UNL A   1      44.654  27.931  34.233  1.00  0.00     0.064 A 
ATOM     85  C   UNL A   1      45.809  28.726  34.200  1.00  0.00     0.173 A 
ATOM     86  C   UNL A   1      44.630  26.844  35.120  1.00  0.00     0.173 A 
ATOM     87  F   UNL A   1      45.888  29.768  33.359  1.00  0.00    -0.203 F 
ATOM     88  C   UNL A   1      46.905  28.429  35.007  1.00  0.00     0.198 A 
ATOM     89  C   UNL A   1      45.715  26.569  35.949  1.00  0.00     0.198 A 
ATOM     90  F   UNL A   1      43.547  26.056  35.196  1.00  0.00    -0.203 F 
ATOM     91  F   UNL A   1      48.016  29.174  34.924  1.00  0.00    -0.200 F 
ATOM     92  C   UNL A   1      46.855  27.357  35.886  1.00  0.00     0.200 A 
ATOM     93  F   UNL A   1      45.658  25.543  36.808  1.00  0.00    -0.200 F 
ATOM     94  F   UNL A   1      47.906  27.081  36.669  1.00  0.00    -0.200 F 
ENDBRANCH  61  84
ENDBRANCH  35  36
ENDBRANCH  27  30
ENDBRANCH  25  26
ENDBRANCH  24  25
ENDBRANCH  23  24
ENDBRANCH   3  23
TORSDOF 16
ENDMDL
MODEL 3
REMARK VINA RESULT:     -10.5      3.372      8.113
REMARK SMILES CC[N@@H+]1CCC[C@@H]1C[N@@H+](C)C[C@H]([NH3+])C(=O)NCCCNC(=O)c1ccc(-c2c3nc(c(-c4c(F)c(F)c(F)c(F)c4F)c4ccc([nH]4)c(-c4c(F)c(F)c(F)c(F)c4F)c4nc(c(-c5c(F)c(F)c(F)c(F)c5F)c5ccc2[nH]5)C=C4)C=C3)cc1
REMARK SMILES IDX 14 1 15 2 16 3 12 5 11 6 9 7 10 8 8 10 7 11 3 12 4 13 5 15
REMARK SMILES IDX 6 16 2 17 1 18 13 19 17 23 18 24 19 25 20 26 21 27 22 29
REMARK SMILES IDX 23 30 24 31 85 32 25 33 84 34 26 35 27 36 28 37 78 38 29 39
REMARK SMILES IDX 83 40 77 41 79 42 30 43 82 44 76 45 75 46 31 48 63 49 43 50
REMARK SMILES IDX 62 51 44 52 47 53 61 54 80 55 45 56 46 57 60 59 81 60 48 61
REMARK SMILES IDX 32 62 33 63 41 64 34 65 35 66 39 67 42 68 36 69 37 70 40 71
REMARK SMILES IDX 38 72 64 73 65 74 73 75 66 76 67 77 71 78 74 79 68 80 69 81
REMARK SMILES IDX 72 82 70 83 49 84 50 85 58 86 51 87 52 88 56 89 59 90 53 91
REMARK SMILES IDX 54 92 57 93 55 94
REMARK H PARENT 16 4 9 9 3 14 13 20 13 21 13 22 20 28 79 47 47 58
REMARK Flexibility Score: inf
ROOT
ATOM      1  C   UNL A   1      33.549  27.962  22.696  1.00  0.00     0.284 C 
ATOM      2  O   UNL A   1      34.120  28.083  21.605  1.00  0.00    -0.268 OA
ATOM      3  N   UNL A   1      34.015  28.748  23.719  1.00  0.00    -0.351 N 
ATOM      4  H   UNL A   1      34.859  29.228  23.556  1.00  0.00     0.163 HD
ENDROOT
BRANCH   1   5
ATOM      5  C   UNL A   1      32.383  26.937  22.850  1.00  0.00     0.326 C 
BRANCH   5   6
ATOM      6  C   UNL A   1      32.638  25.567  23.569  1.00  0.00     0.338 C 
BRANCH   6   7
ATOM      7  N   UNL A   1      31.979  25.061  24.797  1.00  0.00    -0.327 N 
ATOM      8  C   UNL A   1      30.914  25.996  25.183  1.00  0.00     0.333 C 
ATOM      9  H   UNL A   1      31.608  24.151  24.523  1.00  0.00     0.348 HD
BRANCH   7  10
ATOM     10  C   UNL A   1      32.815  24.657  25.939  1.00  0.00     0.327 C 
BRANCH  10  11
ATOM     11  C   UNL A   1      33.309  23.196  26.156  1.00  0.00     0.239 C 
ATOM     12  N   UNL A   1      34.785  22.966  26.104  1.00  0.00    -0.328 N 
ATOM     13  C   UNL A   1      34.995  21.591  25.650  1.00  0.00     0.262 C 
ATOM     14  H   UNL A   1      35.102  23.129  27.060  1.00  0.00     0.348 HD
ATOM     15  C   UNL A   1      33.861  21.336  24.683  1.00  0.00     0.068 C 
ATOM     16  C   UNL A   1      32.695  22.105  25.275  1.00  0.00     0.077 C 
BRANCH  12  17
ATOM     17  C   UNL A   1      35.678  23.942  25.472  1.00  0.00     0.259 C 
ATOM     18  C   UNL A   1      37.184  23.789  25.684  1.00  0.00     0.071 C 
ENDBRANCH  12  17
ENDBRANCH  10  11
ENDBRANCH   7  10
ENDBRANCH   6   7
ENDBRANCH   5   6
BRANCH   5  19
ATOM     19  N   UNL A   1      31.528  26.876  21.641  1.00  0.00    -0.343 N 
ATOM     20  H   UNL A   1      31.414  25.904  21.354  1.00  0.00     0.345 HD
ATOM     21  H   UNL A   1      31.968  27.403  20.886  1.00  0.00     0.345 HD
ATOM     22  H   UNL A   1      30.615  27.280  21.850  1.00  0.00     0.345 HD
ENDBRANCH   5  19
ENDBRANCH   1   5
BRANCH   3  23
ATOM     23  C   UNL A   1      33.404  28.947  25.007  1.00  0.00     0.118 C 
BRANCH  23  24
ATOM     24  C   UNL A   1      33.910  28.129  26.181  1.00  0.00     0.042 C 
BRANCH  24  25
ATOM     25  C   UNL A   1      33.337  28.560  27.519  1.00  0.00     0.118 C 
BRANCH  25  26
ATOM     26  N   UNL A   1      33.552  29.972  27.828  1.00  0.00    -0.352 N 
ATOM     27  C   UNL A   1      34.619  30.722  28.275  1.00  0.00     0.251 C 
ATOM     28  H   UNL A   1      32.744  30.516  27.684  1.00  0.00     0.163 HD
ATOM     29  O   UNL A   1      34.425  31.914  28.487  1.00  0.00    -0.269 OA
BRANCH  27  30
ATOM     30  C   UNL A   1      35.969  30.159  28.560  1.00  0.00     0.039 A 
ATOM     31  C   UNL A   1      36.933  30.183  27.539  1.00  0.00     0.014 A 
ATOM     32  C   UNL A   1      36.315  29.567  29.768  1.00  0.00     0.014 A 
ATOM     33  C   UNL A   1      38.229  29.694  27.761  1.00  0.00     0.010 A 
ATOM     34  C   UNL A   1      37.634  29.208  30.037  1.00  0.00     0.010 A 
ATOM     35  C   UNL A   1      38.610  29.252  29.036  1.00  0.00    -0.014 A 
BRANCH  35  36
ATOM     36  C   UNL A   1      39.999  28.815  29.356  1.00  0.00     0.031 A 
ATOM     37  C   UNL A   1      40.946  29.744  30.075  1.00  0.00     0.074 A 
ATOM     38  C   UNL A   1      40.454  27.630  28.898  1.00  0.00     0.049 A 
ATOM     39  N   UNL A   1      42.232  29.618  30.297  1.00  0.00    -0.248 NA
ATOM     40  C   UNL A   1      40.380  31.009  30.568  1.00  0.00     0.031 C 
ATOM     41  C   UNL A   1      39.671  26.665  28.127  1.00  0.00     0.029 A 
ATOM     42  N   UNL A   1      41.695  27.049  28.993  1.00  0.00    -0.354 N 
ATOM     43  C   UNL A   1      42.627  30.797  30.918  1.00  0.00     0.074 A 
ATOM     44  C   UNL A   1      41.464  31.654  30.969  1.00  0.00     0.031 C 
ATOM     45  C   UNL A   1      40.439  25.604  27.839  1.00  0.00     0.029 A 
ATOM     46  C   UNL A   1      41.784  25.836  28.357  1.00  0.00     0.049 A 
ATOM     47  H   UNL A   1      42.449  27.462  29.473  1.00  0.00     0.167 HD
ATOM     48  C   UNL A   1      43.839  31.125  31.430  1.00  0.00     0.037 A 
ATOM     49  C   UNL A   1      42.833  25.008  28.188  1.00  0.00     0.037 A 
ATOM     50  C   UNL A   1      44.985  30.253  31.412  1.00  0.00     0.049 A 
ATOM     51  C   UNL A   1      44.166  25.380  28.776  1.00  0.00     0.074 A 
ATOM     52  C   UNL A   1      46.233  30.455  31.972  1.00  0.00     0.029 A 
ATOM     53  N   UNL A   1      45.020  29.009  30.796  1.00  0.00    -0.354 N 
ATOM     54  N   UNL A   1      44.507  26.464  29.427  1.00  0.00    -0.248 NA
ATOM     55  C   UNL A   1      45.257  24.409  28.611  1.00  0.00     0.031 C 
ATOM     56  C   UNL A   1      47.040  29.358  31.650  1.00  0.00     0.029 A 
ATOM     57  C   UNL A   1      46.278  28.446  30.939  1.00  0.00     0.049 A 
ATOM     58  H   UNL A   1      44.263  28.591  30.326  1.00  0.00     0.167 HD
ATOM     59  C   UNL A   1      45.845  26.302  29.765  1.00  0.00     0.074 A 
ATOM     60  C   UNL A   1      46.246  25.004  29.264  1.00  0.00     0.031 C 
ATOM     61  C   UNL A   1      46.666  27.155  30.427  1.00  0.00     0.037 A 
BRANCH  48  62
ATOM     62  C   UNL A   1      43.981  32.488  32.055  1.00  0.00     0.064 A 
ATOM     63  C   UNL A   1      44.410  33.602  31.313  1.00  0.00     0.173 A 
ATOM     64  C   UNL A   1      43.684  32.686  33.412  1.00  0.00     0.173 A 
ATOM     65  F   UNL A   1      44.715  33.471  30.012  1.00  0.00    -0.203 F 
ATOM     66  C   UNL A   1      44.590  34.843  31.918  1.00  0.00     0.198 A 
ATOM     67  C   UNL A   1      43.827  33.939  34.004  1.00  0.00     0.198 A 
ATOM     68  F   UNL A   1      43.260  31.663  34.168  1.00  0.00    -0.203 F 
ATOM     69  F   UNL A   1      45.076  35.869  31.205  1.00  0.00    -0.200 F 
ATOM     70  C   UNL A   1      44.294  35.012  33.261  1.00  0.00     0.200 A 
ATOM     71  F   UNL A   1      43.523  34.106  35.298  1.00  0.00    -0.200 F 
ATOM     72  F   UNL A   1      44.470  36.207  33.843  1.00  0.00    -0.200 F 
ENDBRANCH  48  62
BRANCH  49  73
ATOM     73  C   UNL A   1      42.648  23.737  27.438  1.00  0.00     0.064 A 
ATOM     74  C   UNL A   1      43.019  23.633  26.091  1.00  0.00     0.173 A 
ATOM     75  C   UNL A   1      42.133  22.591  28.064  1.00  0.00     0.173 A 
ATOM     76  F   UNL A   1      43.498  24.705  25.445  1.00  0.00    -0.203 F 
ATOM     77  C   UNL A   1      42.873  22.435  25.394  1.00  0.00     0.198 A 
ATOM     78  C   UNL A   1      42.015  21.386  27.374  1.00  0.00     0.198 A 
ATOM     79  F   UNL A   1      41.770  22.634  29.354  1.00  0.00    -0.203 F 
ATOM     80  F   UNL A   1      43.204  22.372  24.097  1.00  0.00    -0.200 F 
ATOM     81  C   UNL A   1      42.380  21.309  26.039  1.00  0.00     0.200 A 
ATOM     82  F   UNL A   1      41.557  20.296  28.006  1.00  0.00    -0.200 F 
ATOM     83  F   UNL A   1      42.257  20.154  25.373  1.00  0.00    -0.200 F 
ENDBRANCH  49  73
BRANCH  61  84
ATOM     84  C   UNL A   1      48.080  26.705  30.664  1.00  0.00     0.064 A 
ATOM     85  C   UNL A   1      48.416  25.878  31.746  1.00  0.00     0.173 A 
ATOM     86  C   UNL A   1      49.100  27.067  29.771  1.00  0.00     0.173 A 
ATOM     87  F   UNL A   1      47.480  25.517  32.636  1.00  0.00    -0.203 F 
ATOM     88  C   UNL A   1      49.728  25.451  31.939  1.00  0.00     0.198 A 
ATOM     89  C   UNL A   1      50.404  26.612  29.949  1.00  0.00     0.198 A 
ATOM     90  F   UNL A   1      48.831  27.850  28.716  1.00  0.00    -0.203 F 
ATOM     91  F   UNL A   1      50.036  24.702  33.006  1.00  0.00    -0.200 F 
ATOM     92  C   UNL A   1      50.719  25.811  31.037  1.00  0.00     0.200 A 
ATOM     93  F   UNL A   1      51.356  26.947  29.068  1.00  0.00    -0.200 F 
ATOM     94  F   UNL A   1      51.977  25.390  31.219  1.00  0.00    -0.200 F 
ENDBRANCH  61  84
ENDBRANCH  35  36
ENDBRANCH  27  30
ENDBRANCH  25  26
ENDBRANCH  24  25
ENDBRANCH  23  24
ENDBRANCH   3  23
TORSDOF 16
ENDMDL
