MODEL 1
REMARK VINA RESULT:     -12.7      0.000      0.000
REMARK SMILES C[C@H](Sc1ccccn1)C(=O)N[C@H](C(=O)NCCCNC(=O)c1ccc(-c2c3nc(c(-c4c(F)c(F)c(F)c(F)c4F)c4ccc([nH]4)c(-c4c(F)c(F)c(F)c(F)c4F)c4nc(c(-c5c(F)c(F)c(F)c(F)c5F)c5ccc2[nH]5)C=C4)C=C3)cc1)c1ccc(F)cc1
REMARK SMILES IDX 17 1 16 2 14 3 15 4 13 6 12 7 10 8 11 9 2 11 1 12 3 13 4 14
REMARK SMILES IDX 5 15 9 16 6 17 8 18 7 19 86 20 87 21 92 22 88 23 91 24 89 25
REMARK SMILES IDX 90 26 18 27 19 28 20 29 21 30 22 32 23 33 24 34 85 35 25 36
REMARK SMILES IDX 84 37 26 38 27 39 28 40 78 41 29 42 83 43 77 44 79 45 30 46
REMARK SMILES IDX 82 47 76 48 75 49 31 51 63 52 43 53 62 54 44 55 47 56 61 57
REMARK SMILES IDX 80 58 45 59 46 60 60 62 81 63 48 64 32 65 33 66 41 67 34 68
REMARK SMILES IDX 35 69 39 70 42 71 36 72 37 73 40 74 38 75 64 76 65 77 73 78
REMARK SMILES IDX 66 79 67 80 71 81 74 82 68 83 69 84 72 85 70 86 49 87 50 88
REMARK SMILES IDX 58 89 51 90 52 91 56 92 59 93 53 94 54 95 57 96 55 97
REMARK H PARENT 16 5 12 10 20 31 79 50 47 61
REMARK Flexibility Score: inf
ROOT
ATOM      1  C   UNL A   1      33.522  28.545  24.688  1.00  0.00     0.117 C 
ENDROOT
BRANCH   1   2
ATOM      2  N   UNL A   1      33.455  28.154  23.286  1.00  0.00    -0.354 N 
ATOM      3  C   UNL A   1      33.526  26.892  22.735  1.00  0.00     0.247 C 
ATOM      4  O   UNL A   1      34.026  26.793  21.611  1.00  0.00    -0.272 OA
ATOM      5  H   UNL A   1      33.344  28.892  22.643  1.00  0.00     0.163 HD
BRANCH   3   6
ATOM      6  C   UNL A   1      33.188  25.650  23.594  1.00  0.00     0.202 C 
BRANCH   6   7
ATOM      7  N   UNL A   1      31.935  24.962  23.295  1.00  0.00    -0.340 N 
ATOM      8  C   UNL A   1      30.816  24.575  23.923  1.00  0.00     0.234 C 
ATOM      9  O   UNL A   1      30.068  23.930  23.165  1.00  0.00    -0.274 OA
ATOM     10  H   UNL A   1      31.904  24.702  22.347  1.00  0.00     0.164 HD
BRANCH   8  11
ATOM     11  C   UNL A   1      30.325  24.822  25.348  1.00  0.00     0.139 C 
ATOM     12  C   UNL A   1      30.382  26.272  25.801  1.00  0.00     0.030 C 
BRANCH  11  13
ATOM     13  S   UNL A   1      30.332  23.498  26.578  1.00  0.00    -0.093 SA
BRANCH  13  14
ATOM     14  C   UNL A   1      31.854  22.609  26.612  1.00  0.00     0.097 A 
ATOM     15  C   UNL A   1      32.370  21.782  25.630  1.00  0.00     0.035 A 
ATOM     16  N   UNL A   1      32.555  22.872  27.745  1.00  0.00    -0.250 NA
ATOM     17  C   UNL A   1      33.613  21.174  25.829  1.00  0.00     0.004 A 
ATOM     18  C   UNL A   1      33.751  22.269  27.920  1.00  0.00     0.112 A 
ATOM     19  C   UNL A   1      34.318  21.417  26.996  1.00  0.00     0.020 A 
ENDBRANCH  13  14
ENDBRANCH  11  13
ENDBRANCH   8  11
ENDBRANCH   6   7
BRANCH   6  20
ATOM     20  C   UNL A   1      34.324  24.715  24.001  1.00  0.00    -0.016 A 
ATOM     21  C   UNL A   1      35.023  24.862  25.210  1.00  0.00     0.009 A 
ATOM     22  C   UNL A   1      34.788  23.738  23.097  1.00  0.00     0.009 A 
ATOM     23  C   UNL A   1      36.131  24.069  25.515  1.00  0.00     0.039 A 
ATOM     24  C   UNL A   1      35.915  22.961  23.387  1.00  0.00     0.039 A 
ATOM     25  C   UNL A   1      36.575  23.132  24.595  1.00  0.00     0.123 A 
ATOM     26  F   UNL A   1      37.665  22.404  24.869  1.00  0.00    -0.207 F 
ENDBRANCH   6  20
ENDBRANCH   3   6
ENDBRANCH   1   2
BRANCH   1  27
ATOM     27  C   UNL A   1      32.419  29.501  25.127  1.00  0.00     0.042 C 
BRANCH  27  28
ATOM     28  C   UNL A   1      32.359  29.810  26.620  1.00  0.00     0.118 C 
BRANCH  28  29
ATOM     29  N   UNL A   1      32.295  31.229  26.965  1.00  0.00    -0.352 N 
ATOM     30  C   UNL A   1      33.268  32.075  27.453  1.00  0.00     0.251 C 
ATOM     31  H   UNL A   1      31.414  31.648  26.827  1.00  0.00     0.163 HD
ATOM     32  O   UNL A   1      33.013  33.256  27.675  1.00  0.00    -0.269 OA
BRANCH  30  33
ATOM     33  C   UNL A   1      34.608  31.555  27.802  1.00  0.00     0.039 A 
ATOM     34  C   UNL A   1      35.652  32.473  27.958  1.00  0.00     0.014 A 
ATOM     35  C   UNL A   1      34.831  30.199  28.038  1.00  0.00     0.014 A 
ATOM     36  C   UNL A   1      36.869  32.053  28.495  1.00  0.00     0.010 A 
ATOM     37  C   UNL A   1      36.012  29.796  28.660  1.00  0.00     0.010 A 
ATOM     38  C   UNL A   1      37.028  30.727  28.930  1.00  0.00    -0.014 A 
BRANCH  38  39
ATOM     39  C   UNL A   1      38.208  30.321  29.739  1.00  0.00     0.031 A 
ATOM     40  C   UNL A   1      39.204  29.334  29.205  1.00  0.00     0.074 A 
ATOM     41  C   UNL A   1      38.328  30.778  31.003  1.00  0.00     0.049 A 
ATOM     42  N   UNL A   1      40.239  28.797  29.801  1.00  0.00    -0.248 NA
ATOM     43  C   UNL A   1      38.992  28.860  27.829  1.00  0.00     0.031 C 
ATOM     44  C   UNL A   1      37.391  31.688  31.667  1.00  0.00     0.029 A 
ATOM     45  N   UNL A   1      39.280  30.530  31.962  1.00  0.00    -0.354 N 
ATOM     46  C   UNL A   1      40.787  27.910  28.884  1.00  0.00     0.074 A 
ATOM     47  C   UNL A   1      39.942  27.945  27.709  1.00  0.00     0.031 C 
ATOM     48  C   UNL A   1      37.829  31.945  32.909  1.00  0.00     0.029 A 
ATOM     49  C   UNL A   1      39.054  31.187  33.147  1.00  0.00     0.049 A 
ATOM     50  H   UNL A   1      40.051  29.936  31.815  1.00  0.00     0.167 HD
ATOM     51  C   UNL A   1      41.904  27.154  29.003  1.00  0.00     0.037 A 
ATOM     52  C   UNL A   1      39.749  31.178  34.301  1.00  0.00     0.037 A 
ATOM     53  C   UNL A   1      42.760  27.144  30.161  1.00  0.00     0.049 A 
ATOM     54  C   UNL A   1      40.998  30.345  34.398  1.00  0.00     0.074 A 
ATOM     55  C   UNL A   1      43.950  26.462  30.348  1.00  0.00     0.029 A 
ATOM     56  N   UNL A   1      42.517  27.852  31.328  1.00  0.00    -0.354 N 
ATOM     57  N   UNL A   1      41.544  29.567  33.498  1.00  0.00    -0.248 NA
ATOM     58  C   UNL A   1      41.729  30.394  35.673  1.00  0.00     0.031 C 
ATOM     59  C   UNL A   1      44.408  26.728  31.643  1.00  0.00     0.029 A 
ATOM     60  C   UNL A   1      43.527  27.610  32.247  1.00  0.00     0.049 A 
ATOM     61  H   UNL A   1      41.742  28.440  31.482  1.00  0.00     0.167 HD
ATOM     62  C   UNL A   1      42.693  29.054  34.082  1.00  0.00     0.074 A 
ATOM     63  C   UNL A   1      42.774  29.621  35.413  1.00  0.00     0.031 C 
ATOM     64  C   UNL A   1      43.599  28.189  33.564  1.00  0.00     0.037 A 
BRANCH  51  65
ATOM     65  C   UNL A   1      42.268  26.274  27.842  1.00  0.00     0.064 A 
ATOM     66  C   UNL A   1      41.673  25.017  27.660  1.00  0.00     0.173 A 
ATOM     67  C   UNL A   1      43.201  26.703  26.887  1.00  0.00     0.173 A 
ATOM     68  F   UNL A   1      40.782  24.556  28.551  1.00  0.00    -0.203 F 
ATOM     69  C   UNL A   1      42.023  24.208  26.582  1.00  0.00     0.198 A 
ATOM     70  C   UNL A   1      43.526  25.905  25.793  1.00  0.00     0.198 A 
ATOM     71  F   UNL A   1      43.793  27.901  27.009  1.00  0.00    -0.203 F 
ATOM     72  F   UNL A   1      41.480  22.989  26.457  1.00  0.00    -0.200 F 
ATOM     73  C   UNL A   1      42.944  24.654  25.647  1.00  0.00     0.200 A 
ATOM     74  F   UNL A   1      44.408  26.342  24.883  1.00  0.00    -0.200 F 
ATOM     75  F   UNL A   1      43.277  23.876  24.608  1.00  0.00    -0.200 F 
ENDBRANCH  51  65
BRANCH  52  76
ATOM     76  C   UNL A   1      39.299  32.010  35.447  1.00  0.00     0.064 A 
ATOM     77  C   UNL A   1      38.481  31.468  36.448  1.00  0.00     0.173 A 
ATOM     78  C   UNL A   1      39.672  33.356  35.567  1.00  0.00     0.173 A 
ATOM     79  F   UNL A   1      38.081  30.190  36.365  1.00  0.00    -0.203 F 
ATOM     80  C   UNL A   1      38.038  32.245  37.515  1.00  0.00     0.198 A 
ATOM     81  C   UNL A   1      39.249  34.126  36.649  1.00  0.00     0.198 A 
ATOM     82  F   UNL A   1      40.458  33.921  34.638  1.00  0.00    -0.203 F 
ATOM     83  F   UNL A   1      37.222  31.713  38.436  1.00  0.00    -0.200 F 
ATOM     84  C   UNL A   1      38.427  33.572  37.618  1.00  0.00     0.200 A 
ATOM     85  F   UNL A   1      39.639  35.404  36.752  1.00  0.00    -0.200 F 
ATOM     86  F   UNL A   1      38.004  34.319  38.647  1.00  0.00    -0.200 F 
ENDBRANCH  52  76
BRANCH  64  87
ATOM     87  C   UNL A   1      44.774  27.830  34.423  1.00  0.00     0.064 A 
ATOM     88  C   UNL A   1      45.946  28.599  34.426  1.00  0.00     0.173 A 
ATOM     89  C   UNL A   1      44.711  26.723  35.284  1.00  0.00     0.173 A 
ATOM     90  F   UNL A   1      46.061  29.657  33.607  1.00  0.00    -0.203 F 
ATOM     91  C   UNL A   1      47.021  28.264  35.245  1.00  0.00     0.198 A 
ATOM     92  C   UNL A   1      45.776  26.406  36.121  1.00  0.00     0.198 A 
ATOM     93  F   UNL A   1      43.610  25.957  35.322  1.00  0.00    -0.203 F 
ATOM     94  F   UNL A   1      48.147  28.988  35.201  1.00  0.00    -0.200 F 
ATOM     95  C   UNL A   1      46.932  27.172  36.097  1.00  0.00     0.200 A 
ATOM     96  F   UNL A   1      45.685  25.357  36.951  1.00  0.00    -0.200 F 
ATOM     97  F   UNL A   1      47.965  26.854  36.890  1.00  0.00    -0.200 F 
ENDBRANCH  64  87
ENDBRANCH  38  39
ENDBRANCH  30  33
ENDBRANCH  28  29
ENDBRANCH  27  28
ENDBRANCH   1  27
TORSDOF 15
ENDMDL
MODEL 2
REMARK VINA RESULT:     -12.5      3.789      7.167
REMARK SMILES C[C@H](Sc1ccccn1)C(=O)N[C@H](C(=O)NCCCNC(=O)c1ccc(-c2c3nc(c(-c4c(F)c(F)c(F)c(F)c4F)c4ccc([nH]4)c(-c4c(F)c(F)c(F)c(F)c4F)c4nc(c(-c5c(F)c(F)c(F)c(F)c5F)c5ccc2[nH]5)C=C4)C=C3)cc1)c1ccc(F)cc1
REMARK SMILES IDX 17 1 16 2 14 3 15 4 13 6 12 7 10 8 11 9 2 11 1 12 3 13 4 14
REMARK SMILES IDX 5 15 9 16 6 17 8 18 7 19 86 20 87 21 92 22 88 23 91 24 89 25
REMARK SMILES IDX 90 26 18 27 19 28 20 29 21 30 22 32 23 33 24 34 85 35 25 36
REMARK SMILES IDX 84 37 26 38 27 39 28 40 78 41 29 42 83 43 77 44 79 45 30 46
REMARK SMILES IDX 82 47 76 48 75 49 31 51 63 52 43 53 62 54 44 55 47 56 61 57
REMARK SMILES IDX 80 58 45 59 46 60 60 62 81 63 48 64 32 65 33 66 41 67 34 68
REMARK SMILES IDX 35 69 39 70 42 71 36 72 37 73 40 74 38 75 64 76 65 77 73 78
REMARK SMILES IDX 66 79 67 80 71 81 74 82 68 83 69 84 72 85 70 86 49 87 50 88
REMARK SMILES IDX 58 89 51 90 52 91 56 92 59 93 53 94 54 95 57 96 55 97
REMARK H PARENT 16 5 12 10 20 31 79 50 47 61
REMARK Flexibility Score: inf
ROOT
ATOM      1  C   UNL A   1      34.754  23.973  25.520  1.00  0.00     0.117 C 
ENDROOT
BRANCH   1   2
ATOM      2  N   UNL A   1      33.514  23.527  26.144  1.00  0.00    -0.354 N 
ATOM      3  C   UNL A   1      32.377  24.254  26.425  1.00  0.00     0.247 C 
ATOM      4  O   UNL A   1      31.721  23.915  27.415  1.00  0.00    -0.272 OA
ATOM      5  H   UNL A   1      33.485  22.576  26.400  1.00  0.00     0.163 HD
BRANCH   3   6
ATOM      6  C   UNL A   1      32.079  25.559  25.652  1.00  0.00     0.202 C 
BRANCH   6   7
ATOM      7  N   UNL A   1      30.820  25.617  24.914  1.00  0.00    -0.340 N 
ATOM      8  C   UNL A   1      30.328  26.152  23.788  1.00  0.00     0.234 C 
ATOM      9  O   UNL A   1      29.108  25.932  23.673  1.00  0.00    -0.274 OA
ATOM     10  H   UNL A   1      30.121  25.110  25.386  1.00  0.00     0.164 HD
BRANCH   8  11
ATOM     11  C   UNL A   1      31.009  26.926  22.661  1.00  0.00     0.139 C 
ATOM     12  C   UNL A   1      31.810  26.071  21.692  1.00  0.00     0.030 C 
BRANCH  11  13
ATOM     13  S   UNL A   1      31.399  28.681  22.838  1.00  0.00    -0.093 SA
BRANCH  13  14
ATOM     14  C   UNL A   1      29.965  29.706  22.780  1.00  0.00     0.097 A 
ATOM     15  C   UNL A   1      29.474  30.527  23.780  1.00  0.00     0.035 A 
ATOM     16  N   UNL A   1      29.374  29.660  21.559  1.00  0.00    -0.250 NA
ATOM     17  C   UNL A   1      28.326  31.287  23.541  1.00  0.00     0.004 A 
ATOM     18  C   UNL A   1      28.262  30.398  21.350  1.00  0.00     0.112 A 
ATOM     19  C   UNL A   1      27.703  31.221  22.304  1.00  0.00     0.020 A 
ENDBRANCH  13  14
ENDBRANCH  11  13
ENDBRANCH   8  11
ENDBRANCH   6   7
BRANCH   6  20
ATOM     20  C   UNL A   1      32.486  26.889  26.281  1.00  0.00    -0.016 A 
ATOM     21  C   UNL A   1      31.565  27.727  26.931  1.00  0.00     0.009 A 
ATOM     22  C   UNL A   1      33.798  27.375  26.111  1.00  0.00     0.009 A 
ATOM     23  C   UNL A   1      31.931  28.990  27.401  1.00  0.00     0.039 A 
ATOM     24  C   UNL A   1      34.161  28.651  26.555  1.00  0.00     0.039 A 
ATOM     25  C   UNL A   1      33.224  29.447  27.198  1.00  0.00     0.123 A 
ATOM     26  F   UNL A   1      33.561  30.675  27.609  1.00  0.00    -0.207 F 
ENDBRANCH   6  20
ENDBRANCH   3   6
ENDBRANCH   1   2
BRANCH   1  27
ATOM     27  C   UNL A   1      36.001  23.252  26.017  1.00  0.00     0.042 C 
BRANCH  27  28
ATOM     28  C   UNL A   1      37.236  23.367  25.128  1.00  0.00     0.118 C 
BRANCH  28  29
ATOM     29  N   UNL A   1      38.412  22.632  25.590  1.00  0.00    -0.352 N 
ATOM     30  C   UNL A   1      39.426  23.013  26.443  1.00  0.00     0.251 C 
ATOM     31  H   UNL A   1      38.494  21.718  25.233  1.00  0.00     0.163 HD
ATOM     32  O   UNL A   1      40.336  22.234  26.717  1.00  0.00    -0.269 OA
BRANCH  30  33
ATOM     33  C   UNL A   1      39.483  24.393  26.971  1.00  0.00     0.039 A 
ATOM     34  C   UNL A   1      38.941  24.638  28.238  1.00  0.00     0.014 A 
ATOM     35  C   UNL A   1      40.113  25.422  26.272  1.00  0.00     0.014 A 
ATOM     36  C   UNL A   1      39.165  25.866  28.862  1.00  0.00     0.010 A 
ATOM     37  C   UNL A   1      40.416  26.613  26.930  1.00  0.00     0.010 A 
ATOM     38  C   UNL A   1      39.978  26.831  28.246  1.00  0.00    -0.014 A 
BRANCH  38  39
ATOM     39  C   UNL A   1      40.445  28.029  28.993  1.00  0.00     0.031 A 
ATOM     40  C   UNL A   1      41.844  28.103  29.533  1.00  0.00     0.074 A 
ATOM     41  C   UNL A   1      39.568  29.017  29.267  1.00  0.00     0.049 A 
ATOM     42  N   UNL A   1      42.395  29.025  30.282  1.00  0.00    -0.248 NA
ATOM     43  C   UNL A   1      42.733  26.976  29.216  1.00  0.00     0.031 C 
ATOM     44  C   UNL A   1      38.160  29.037  28.860  1.00  0.00     0.029 A 
ATOM     45  N   UNL A   1      39.724  30.191  29.964  1.00  0.00    -0.354 N 
ATOM     46  C   UNL A   1      43.683  28.580  30.543  1.00  0.00     0.074 A 
ATOM     47  C   UNL A   1      43.818  27.284  29.912  1.00  0.00     0.031 C 
ATOM     48  C   UNL A   1      37.593  30.176  29.286  1.00  0.00     0.029 A 
ATOM     49  C   UNL A   1      38.580  30.949  30.033  1.00  0.00     0.049 A 
ATOM     50  H   UNL A   1      40.576  30.464  30.376  1.00  0.00     0.167 HD
ATOM     51  C   UNL A   1      44.671  29.206  31.227  1.00  0.00     0.037 A 
ATOM     52  C   UNL A   1      38.348  32.133  30.633  1.00  0.00     0.037 A 
ATOM     53  C   UNL A   1      44.546  30.508  31.827  1.00  0.00     0.049 A 
ATOM     54  C   UNL A   1      39.469  32.815  31.368  1.00  0.00     0.074 A 
ATOM     55  C   UNL A   1      45.512  31.253  32.483  1.00  0.00     0.029 A 
ATOM     56  N   UNL A   1      43.382  31.261  31.843  1.00  0.00    -0.354 N 
ATOM     57  N   UNL A   1      40.704  32.417  31.545  1.00  0.00    -0.248 NA
ATOM     58  C   UNL A   1      39.163  34.115  31.982  1.00  0.00     0.031 C 
ATOM     59  C   UNL A   1      44.921  32.440  32.928  1.00  0.00     0.029 A 
ATOM     60  C   UNL A   1      43.600  32.456  32.513  1.00  0.00     0.049 A 
ATOM     61  H   UNL A   1      42.526  30.988  31.440  1.00  0.00     0.167 HD
ATOM     62  C   UNL A   1      41.330  33.423  32.266  1.00  0.00     0.074 A 
ATOM     63  C   UNL A   1      40.342  34.460  32.482  1.00  0.00     0.031 C 
ATOM     64  C   UNL A   1      42.609  33.482  32.711  1.00  0.00     0.037 A 
BRANCH  51  65
ATOM     65  C   UNL A   1      45.982  28.486  31.357  1.00  0.00     0.064 A 
ATOM     66  C   UNL A   1      46.241  27.623  32.432  1.00  0.00     0.173 A 
ATOM     67  C   UNL A   1      46.980  28.639  30.384  1.00  0.00     0.173 A 
ATOM     68  F   UNL A   1      45.323  27.449  33.396  1.00  0.00    -0.203 F 
ATOM     69  C   UNL A   1      47.463  26.965  32.545  1.00  0.00     0.198 A 
ATOM     70  C   UNL A   1      48.190  27.956  30.483  1.00  0.00     0.198 A 
ATOM     71  F   UNL A   1      46.781  29.446  29.331  1.00  0.00    -0.203 F 
ATOM     72  F   UNL A   1      47.707  26.186  33.608  1.00  0.00    -0.200 F 
ATOM     73  C   UNL A   1      48.434  27.127  31.569  1.00  0.00     0.200 A 
ATOM     74  F   UNL A   1      49.123  28.104  29.533  1.00  0.00    -0.200 F 
ATOM     75  F   UNL A   1      49.608  26.490  31.677  1.00  0.00    -0.200 F 
ENDBRANCH  51  65
BRANCH  52  76
ATOM     76  C   UNL A   1      37.006  32.764  30.537  1.00  0.00     0.064 A 
ATOM     77  C   UNL A   1      36.662  33.551  29.430  1.00  0.00     0.173 A 
ATOM     78  C   UNL A   1      36.044  32.597  31.543  1.00  0.00     0.173 A 
ATOM     79  F   UNL A   1      37.557  33.756  28.452  1.00  0.00    -0.203 F 
ATOM     80  C   UNL A   1      35.415  34.163  29.341  1.00  0.00     0.198 A 
ATOM     81  C   UNL A   1      34.787  33.188  31.441  1.00  0.00     0.198 A 
ATOM     82  F   UNL A   1      36.322  31.849  32.622  1.00  0.00    -0.203 F 
ATOM     83  F   UNL A   1      35.127  34.945  28.291  1.00  0.00    -0.200 F 
ATOM     84  C   UNL A   1      34.475  33.976  30.344  1.00  0.00     0.200 A 
ATOM     85  F   UNL A   1      33.877  32.995  32.406  1.00  0.00    -0.200 F 
ATOM     86  F   UNL A   1      33.273  34.562  30.256  1.00  0.00    -0.200 F 
ENDBRANCH  52  76
BRANCH  64  87
ATOM     87  C   UNL A   1      43.023  34.722  33.446  1.00  0.00     0.064 A 
ATOM     88  C   UNL A   1      43.419  35.882  32.765  1.00  0.00     0.173 A 
ATOM     89  C   UNL A   1      42.985  34.762  34.848  1.00  0.00     0.173 A 
ATOM     90  F   UNL A   1      43.489  35.888  31.424  1.00  0.00    -0.203 F 
ATOM     91  C   UNL A   1      43.782  37.032  33.462  1.00  0.00     0.198 A 
ATOM     92  C   UNL A   1      43.322  35.921  35.540  1.00  0.00     0.198 A 
ATOM     93  F   UNL A   1      42.609  33.679  35.545  1.00  0.00    -0.203 F 
ATOM     94  F   UNL A   1      44.198  38.116  32.793  1.00  0.00    -0.200 F 
ATOM     95  C   UNL A   1      43.726  37.053  34.848  1.00  0.00     0.200 A 
ATOM     96  F   UNL A   1      43.257  35.943  36.879  1.00  0.00    -0.200 F 
ATOM     97  F   UNL A   1      44.068  38.163  35.517  1.00  0.00    -0.200 F 
ENDBRANCH  64  87
ENDBRANCH  38  39
ENDBRANCH  30  33
ENDBRANCH  28  29
ENDBRANCH  27  28
ENDBRANCH   1  27
TORSDOF 15
ENDMDL
MODEL 3
REMARK VINA RESULT:     -12.4      4.421      9.587
REMARK SMILES C[C@H](Sc1ccccn1)C(=O)N[C@H](C(=O)NCCCNC(=O)c1ccc(-c2c3nc(c(-c4c(F)c(F)c(F)c(F)c4F)c4ccc([nH]4)c(-c4c(F)c(F)c(F)c(F)c4F)c4nc(c(-c5c(F)c(F)c(F)c(F)c5F)c5ccc2[nH]5)C=C4)C=C3)cc1)c1ccc(F)cc1
REMARK SMILES IDX 17 1 16 2 14 3 15 4 13 6 12 7 10 8 11 9 2 11 1 12 3 13 4 14
REMARK SMILES IDX 5 15 9 16 6 17 8 18 7 19 86 20 87 21 92 22 88 23 91 24 89 25
REMARK SMILES IDX 90 26 18 27 19 28 20 29 21 30 22 32 23 33 24 34 85 35 25 36
REMARK SMILES IDX 84 37 26 38 27 39 28 40 78 41 29 42 83 43 77 44 79 45 30 46
REMARK SMILES IDX 82 47 76 48 75 49 31 51 63 52 43 53 62 54 44 55 47 56 61 57
REMARK SMILES IDX 80 58 45 59 46 60 60 62 81 63 48 64 32 65 33 66 41 67 34 68
REMARK SMILES IDX 35 69 39 70 42 71 36 72 37 73 40 74 38 75 64 76 65 77 73 78
REMARK SMILES IDX 66 79 67 80 71 81 74 82 68 83 69 84 72 85 70 86 49 87 50 88
REMARK SMILES IDX 58 89 51 90 52 91 56 92 59 93 53 94 54 95 57 96 55 97
REMARK H PARENT 16 5 12 10 20 31 79 50 47 61
REMARK Flexibility Score: inf
ROOT
ATOM      1  C   UNL A   1      34.919  23.113  25.914  1.00  0.00     0.117 C 
ENDROOT
BRANCH   1   2
ATOM      2  N   UNL A   1      33.626  22.863  26.537  1.00  0.00    -0.354 N 
ATOM      3  C   UNL A   1      32.523  23.688  26.603  1.00  0.00     0.247 C 
ATOM      4  O   UNL A   1      31.800  23.586  27.598  1.00  0.00    -0.272 OA
ATOM      5  H   UNL A   1      33.525  21.984  26.971  1.00  0.00     0.163 HD
BRANCH   3   6
ATOM      6  C   UNL A   1      32.344  24.828  25.574  1.00  0.00     0.202 C 
BRANCH   6   7
ATOM      7  N   UNL A   1      31.284  24.664  24.583  1.00  0.00    -0.340 N 
ATOM      8  C   UNL A   1      30.933  25.148  23.384  1.00  0.00     0.234 C 
ATOM      9  O   UNL A   1      29.840  24.684  23.007  1.00  0.00    -0.274 OA
ATOM     10  H   UNL A   1      30.629  23.997  24.889  1.00  0.00     0.164 HD
BRANCH   8  11
ATOM     11  C   UNL A   1      31.649  26.109  22.437  1.00  0.00     0.139 C 
ATOM     12  C   UNL A   1      32.759  25.481  21.608  1.00  0.00     0.030 C 
BRANCH  11  13
ATOM     13  S   UNL A   1      31.664  27.888  22.752  1.00  0.00    -0.093 SA
BRANCH  13  14
ATOM     14  C   UNL A   1      30.075  28.627  22.558  1.00  0.00     0.097 A 
ATOM     15  C   UNL A   1      28.883  28.229  23.139  1.00  0.00     0.035 A 
ATOM     16  N   UNL A   1      30.138  29.736  21.778  1.00  0.00    -0.250 NA
ATOM     17  C   UNL A   1      27.719  28.958  22.882  1.00  0.00     0.004 A 
ATOM     18  C   UNL A   1      28.999  30.422  21.537  1.00  0.00     0.112 A 
ATOM     19  C   UNL A   1      27.773  30.074  22.063  1.00  0.00     0.020 A 
ENDBRANCH  13  14
ENDBRANCH  11  13
ENDBRANCH   8  11
ENDBRANCH   6   7
BRANCH   6  20
ATOM     20  C   UNL A   1      32.533  26.270  26.041  1.00  0.00    -0.016 A 
ATOM     21  C   UNL A   1      33.770  26.929  25.967  1.00  0.00     0.009 A 
ATOM     22  C   UNL A   1      31.476  26.942  26.687  1.00  0.00     0.009 A 
ATOM     23  C   UNL A   1      33.952  28.206  26.503  1.00  0.00     0.039 A 
ATOM     24  C   UNL A   1      31.661  28.210  27.249  1.00  0.00     0.039 A 
ATOM     25  C   UNL A   1      32.898  28.831  27.150  1.00  0.00     0.123 A 
ATOM     26  F   UNL A   1      33.086  30.036  27.703  1.00  0.00    -0.207 F 
ENDBRANCH   6  20
ENDBRANCH   3   6
ENDBRANCH   1   2
BRANCH   1  27
ATOM     27  C   UNL A   1      35.831  21.893  25.848  1.00  0.00     0.042 C 
BRANCH  27  28
ATOM     28  C   UNL A   1      37.088  22.045  24.997  1.00  0.00     0.118 C 
BRANCH  28  29
ATOM     29  N   UNL A   1      38.142  21.066  25.254  1.00  0.00    -0.352 N 
ATOM     30  C   UNL A   1      39.278  21.159  26.031  1.00  0.00     0.251 C 
ATOM     31  H   UNL A   1      38.022  20.200  24.800  1.00  0.00     0.163 HD
ATOM     32  O   UNL A   1      40.047  20.207  26.126  1.00  0.00    -0.269 OA
BRANCH  30  33
ATOM     33  C   UNL A   1      39.635  22.435  26.687  1.00  0.00     0.039 A 
ATOM     34  C   UNL A   1      40.655  22.422  27.644  1.00  0.00     0.014 A 
ATOM     35  C   UNL A   1      39.029  23.640  26.330  1.00  0.00     0.014 A 
ATOM     36  C   UNL A   1      41.169  23.626  28.126  1.00  0.00     0.010 A 
ATOM     37  C   UNL A   1      39.602  24.843  26.739  1.00  0.00     0.010 A 
ATOM     38  C   UNL A   1      40.703  24.847  27.611  1.00  0.00    -0.014 A 
BRANCH  38  39
ATOM     39  C   UNL A   1      41.407  26.123  27.908  1.00  0.00     0.031 A 
ATOM     40  C   UNL A   1      40.706  27.241  28.622  1.00  0.00     0.074 A 
ATOM     41  C   UNL A   1      42.661  26.307  27.444  1.00  0.00     0.049 A 
ATOM     42  N   UNL A   1      41.131  28.452  28.885  1.00  0.00    -0.248 NA
ATOM     43  C   UNL A   1      39.332  26.977  29.073  1.00  0.00     0.031 C 
ATOM     44  C   UNL A   1      43.431  25.325  26.675  1.00  0.00     0.029 A 
ATOM     45  N   UNL A   1      43.506  27.386  27.538  1.00  0.00    -0.354 N 
ATOM     46  C   UNL A   1      40.073  29.097  29.511  1.00  0.00     0.074 A 
ATOM     47  C   UNL A   1      38.970  28.160  29.546  1.00  0.00     0.031 C 
ATOM     48  C   UNL A   1      44.641  25.834  26.395  1.00  0.00     0.029 A 
ATOM     49  C   UNL A   1      44.721  27.191  26.926  1.00  0.00     0.049 A 
ATOM     50  H   UNL A   1      43.264  28.221  28.000  1.00  0.00     0.167 HD
ATOM     51  C   UNL A   1      40.033  30.348  30.028  1.00  0.00     0.037 A 
ATOM     52  C   UNL A   1      45.780  28.014  26.799  1.00  0.00     0.037 A 
ATOM     53  C   UNL A   1      41.140  31.267  30.020  1.00  0.00     0.049 A 
ATOM     54  C   UNL A   1      45.716  29.390  27.402  1.00  0.00     0.074 A 
ATOM     55  C   UNL A   1      41.218  32.532  30.579  1.00  0.00     0.029 A 
ATOM     56  N   UNL A   1      42.368  31.019  29.423  1.00  0.00    -0.354 N 
ATOM     57  N   UNL A   1      44.735  29.962  28.055  1.00  0.00    -0.248 NA
ATOM     58  C   UNL A   1      46.910  30.234  27.254  1.00  0.00     0.031 C 
ATOM     59  C   UNL A   1      42.478  33.063  30.288  1.00  0.00     0.029 A 
ATOM     60  C   UNL A   1      43.203  32.115  29.585  1.00  0.00     0.049 A 
ATOM     61  H   UNL A   1      42.610  30.189  28.953  1.00  0.00     0.167 HD
ATOM     62  C   UNL A   1      45.198  31.218  28.417  1.00  0.00     0.074 A 
ATOM     63  C   UNL A   1      46.556  31.322  27.924  1.00  0.00     0.031 C 
ATOM     64  C   UNL A   1      44.555  32.199  29.097  1.00  0.00     0.037 A 
BRANCH  51  65
ATOM     65  C   UNL A   1      38.744  30.794  30.655  1.00  0.00     0.064 A 
ATOM     66  C   UNL A   1      37.676  31.268  29.879  1.00  0.00     0.173 A 
ATOM     67  C   UNL A   1      38.563  30.722  32.044  1.00  0.00     0.173 A 
ATOM     68  F   UNL A   1      37.801  31.365  28.546  1.00  0.00    -0.203 F 
ATOM     69  C   UNL A   1      36.487  31.684  30.472  1.00  0.00     0.198 A 
ATOM     70  C   UNL A   1      37.362  31.110  32.632  1.00  0.00     0.198 A 
ATOM     71  F   UNL A   1      39.549  30.269  32.833  1.00  0.00    -0.203 F 
ATOM     72  F   UNL A   1      35.500  32.181  29.714  1.00  0.00    -0.200 F 
ATOM     73  C   UNL A   1      36.329  31.600  31.847  1.00  0.00     0.200 A 
ATOM     74  F   UNL A   1      37.205  31.017  33.960  1.00  0.00    -0.200 F 
ATOM     75  F   UNL A   1      35.182  31.996  32.416  1.00  0.00    -0.200 F 
ENDBRANCH  51  65
BRANCH  52  76
ATOM     76  C   UNL A   1      47.004  27.546  26.099  1.00  0.00     0.064 A 
ATOM     77  C   UNL A   1      48.065  26.976  26.815  1.00  0.00     0.173 A 
ATOM     78  C   UNL A   1      47.142  27.659  24.709  1.00  0.00     0.173 A 
ATOM     79  F   UNL A   1      47.988  26.866  28.151  1.00  0.00    -0.203 F 
ATOM     80  C   UNL A   1      49.225  26.553  26.171  1.00  0.00     0.198 A 
ATOM     81  C   UNL A   1      48.292  27.212  24.061  1.00  0.00     0.198 A 
ATOM     82  F   UNL A   1      46.153  28.194  23.976  1.00  0.00    -0.203 F 
ATOM     83  F   UNL A   1      50.242  26.050  26.885  1.00  0.00    -0.200 F 
ATOM     84  C   UNL A   1      49.336  26.666  24.793  1.00  0.00     0.200 A 
ATOM     85  F   UNL A   1      48.390  27.311  22.728  1.00  0.00    -0.200 F 
ATOM     86  F   UNL A   1      50.450  26.256  24.172  1.00  0.00    -0.200 F 
ENDBRANCH  52  76
BRANCH  64  87
ATOM     87  C   UNL A   1      45.323  33.456  29.378  1.00  0.00     0.064 A 
ATOM     88  C   UNL A   1      46.121  33.590  30.522  1.00  0.00     0.173 A 
ATOM     89  C   UNL A   1      45.291  34.525  28.469  1.00  0.00     0.173 A 
ATOM     90  F   UNL A   1      46.171  32.602  31.430  1.00  0.00    -0.203 F 
ATOM     91  C   UNL A   1      46.845  34.757  30.758  1.00  0.00     0.198 A 
ATOM     92  C   UNL A   1      46.036  35.679  28.693  1.00  0.00     0.198 A 
ATOM     93  F   UNL A   1      44.546  34.444  27.356  1.00  0.00    -0.203 F 
ATOM     94  F   UNL A   1      47.567  34.880  31.879  1.00  0.00    -0.200 F 
ATOM     95  C   UNL A   1      46.807  35.797  29.840  1.00  0.00     0.200 A 
ATOM     96  F   UNL A   1      46.007  36.678  27.801  1.00  0.00    -0.200 F 
ATOM     97  F   UNL A   1      47.509  36.916  30.065  1.00  0.00    -0.200 F 
ENDBRANCH  64  87
ENDBRANCH  38  39
ENDBRANCH  30  33
ENDBRANCH  28  29
ENDBRANCH  27  28
ENDBRANCH   1  27
TORSDOF 15
ENDMDL
