MODEL 1
REMARK VINA RESULT:     -12.5      0.000      0.000
REMARK SMILES O=C(NCCCNC(=O)[C@@H](NC(=O)c1ccncc1Cl)C1CC1)c1ccc(-c2c3nc(c(-c4c(F)c(F)c(F)c(F)c4F)c4ccc([nH]4)c(-c4c(F)c(F)c(F)c(F)c4F)c4nc(c(-c5c(F)c(F)c(F)c(F)c5F)c5ccc2[nH]5)C=C4)C=C3)cc1
REMARK SMILES IDX 5 1 4 2 3 3 1 4 2 5 24 7 25 8 86 9 26 10 85 11 27 12 28 13
REMARK SMILES IDX 29 14 79 15 30 16 84 17 78 18 80 19 31 20 83 21 77 22 76 23
REMARK SMILES IDX 32 25 64 26 44 27 63 28 45 29 48 30 62 31 81 32 46 33 47 34
REMARK SMILES IDX 61 36 82 37 49 38 33 39 34 40 42 41 35 42 36 43 40 44 43 45
REMARK SMILES IDX 37 46 38 47 41 48 39 49 65 50 66 51 74 52 67 53 68 54 72 55
REMARK SMILES IDX 75 56 69 57 70 58 73 59 71 60 50 61 51 62 59 63 52 64 53 65
REMARK SMILES IDX 57 66 60 67 54 68 55 69 58 70 56 71 6 72 7 73 8 74 9 76
REMARK SMILES IDX 10 77 11 78 12 79 13 81 14 82 15 83 19 84 16 85 18 86 20 87
REMARK SMILES IDX 17 88 21 89 22 90 23 91
REMARK H PARENT 3 6 80 24 48 35 7 75 11 80
REMARK Flexibility Score: inf
ROOT
ATOM      1  C   UNL A   1      31.444  32.233  26.518  1.00  0.00     0.042 C 
ENDROOT
BRANCH   1   2
ATOM      2  C   UNL A   1      32.603  32.822  27.304  1.00  0.00     0.118 C 
BRANCH   2   3
ATOM      3  N   UNL A   1      32.379  34.220  27.662  1.00  0.00    -0.352 N 
ATOM      4  O   UNL A   1      32.513  36.089  28.916  1.00  0.00    -0.269 OA
ATOM      5  C   UNL A   1      32.975  34.987  28.634  1.00  0.00     0.251 C 
ATOM      6  H   UNL A   1      31.697  34.683  27.125  1.00  0.00     0.163 HD
BRANCH   5   7
ATOM      7  C   UNL A   1      34.157  34.473  29.357  1.00  0.00     0.039 A 
ATOM      8  C   UNL A   1      35.433  34.618  28.817  1.00  0.00     0.014 A 
ATOM      9  C   UNL A   1      33.985  33.825  30.585  1.00  0.00     0.014 A 
ATOM     10  C   UNL A   1      36.503  33.950  29.391  1.00  0.00     0.010 A 
ATOM     11  C   UNL A   1      35.088  33.253  31.225  1.00  0.00     0.010 A 
ATOM     12  C   UNL A   1      36.348  33.268  30.609  1.00  0.00    -0.014 A 
BRANCH  12  13
ATOM     13  C   UNL A   1      37.535  32.614  31.215  1.00  0.00     0.031 A 
ATOM     14  C   UNL A   1      37.978  32.944  32.615  1.00  0.00     0.074 A 
ATOM     15  C   UNL A   1      38.174  31.661  30.509  1.00  0.00     0.049 A 
ATOM     16  N   UNL A   1      38.956  32.423  33.313  1.00  0.00    -0.248 NA
ATOM     17  C   UNL A   1      37.240  34.002  33.319  1.00  0.00     0.031 C 
ATOM     18  C   UNL A   1      37.840  31.265  29.139  1.00  0.00     0.029 A 
ATOM     19  N   UNL A   1      39.206  30.827  30.852  1.00  0.00    -0.354 N 
ATOM     20  C   UNL A   1      38.973  33.109  34.520  1.00  0.00     0.074 A 
ATOM     21  C   UNL A   1      37.917  34.099  34.456  1.00  0.00     0.031 C 
ATOM     22  C   UNL A   1      38.599  30.218  28.786  1.00  0.00     0.029 A 
ATOM     23  C   UNL A   1      39.517  29.913  29.876  1.00  0.00     0.049 A 
ATOM     24  H   UNL A   1      39.679  30.878  31.715  1.00  0.00     0.167 HD
ATOM     25  C   UNL A   1      39.789  32.925  35.585  1.00  0.00     0.037 A 
ATOM     26  C   UNL A   1      40.444  28.938  29.857  1.00  0.00     0.037 A 
ATOM     27  C   UNL A   1      40.811  31.912  35.657  1.00  0.00     0.049 A 
ATOM     28  C   UNL A   1      41.321  28.746  31.058  1.00  0.00     0.074 A 
ATOM     29  C   UNL A   1      41.663  31.619  36.709  1.00  0.00     0.029 A 
ATOM     30  N   UNL A   1      41.113  31.021  34.638  1.00  0.00    -0.354 N 
ATOM     31  N   UNL A   1      41.310  29.388  32.200  1.00  0.00    -0.248 NA
ATOM     32  C   UNL A   1      42.344  27.697  30.966  1.00  0.00     0.031 C 
ATOM     33  C   UNL A   1      42.507  30.576  36.311  1.00  0.00     0.029 A 
ATOM     34  C   UNL A   1      42.150  30.188  35.030  1.00  0.00     0.049 A 
ATOM     35  H   UNL A   1      40.659  30.984  33.766  1.00  0.00     0.167 HD
ATOM     36  C   UNL A   1      42.310  28.813  32.970  1.00  0.00     0.074 A 
ATOM     37  C   UNL A   1      42.893  27.754  32.171  1.00  0.00     0.031 C 
ATOM     38  C   UNL A   1      42.713  29.137  34.222  1.00  0.00     0.037 A 
BRANCH  25  39
ATOM     39  C   UNL A   1      39.630  33.852  36.755  1.00  0.00     0.064 A 
ATOM     40  C   UNL A   1      38.846  33.514  37.868  1.00  0.00     0.173 A 
ATOM     41  C   UNL A   1      40.309  35.080  36.781  1.00  0.00     0.173 A 
ATOM     42  F   UNL A   1      38.167  32.358  37.888  1.00  0.00    -0.203 F 
ATOM     43  C   UNL A   1      38.732  34.381  38.953  1.00  0.00     0.198 A 
ATOM     44  C   UNL A   1      40.214  35.932  37.878  1.00  0.00     0.198 A 
ATOM     45  F   UNL A   1      41.078  35.450  35.744  1.00  0.00    -0.203 F 
ATOM     46  F   UNL A   1      37.945  34.055  39.988  1.00  0.00    -0.200 F 
ATOM     47  C   UNL A   1      39.420  35.585  38.960  1.00  0.00     0.200 A 
ATOM     48  F   UNL A   1      40.888  37.090  37.887  1.00  0.00    -0.200 F 
ATOM     49  F   UNL A   1      39.312  36.414  40.008  1.00  0.00    -0.200 F 
ENDBRANCH  25  39
BRANCH  26  50
ATOM     50  C   UNL A   1      40.571  28.066  28.662  1.00  0.00     0.064 A 
ATOM     51  C   UNL A   1      39.890  26.843  28.587  1.00  0.00     0.173 A 
ATOM     52  C   UNL A   1      41.357  28.446  27.563  1.00  0.00     0.173 A 
ATOM     53  F   UNL A   1      39.140  26.431  29.619  1.00  0.00    -0.203 F 
ATOM     54  C   UNL A   1      40.000  26.027  27.463  1.00  0.00     0.198 A 
ATOM     55  C   UNL A   1      41.442  27.643  26.429  1.00  0.00     0.198 A 
ATOM     56  F   UNL A   1      42.021  29.610  27.584  1.00  0.00    -0.203 F 
ATOM     57  F   UNL A   1      39.368  24.847  27.431  1.00  0.00    -0.200 F 
ATOM     58  C   UNL A   1      40.769  26.432  26.382  1.00  0.00     0.200 A 
ATOM     59  F   UNL A   1      42.172  28.046  25.380  1.00  0.00    -0.200 F 
ATOM     60  F   UNL A   1      40.866  25.651  25.298  1.00  0.00    -0.200 F 
ENDBRANCH  26  50
BRANCH  38  61
ATOM     61  C   UNL A   1      43.817  28.311  34.812  1.00  0.00     0.064 A 
ATOM     62  C   UNL A   1      45.162  28.686  34.687  1.00  0.00     0.173 A 
ATOM     63  C   UNL A   1      43.522  27.138  35.523  1.00  0.00     0.173 A 
ATOM     64  F   UNL A   1      45.493  29.790  34.000  1.00  0.00    -0.203 F 
ATOM     65  C   UNL A   1      46.176  27.900  35.227  1.00  0.00     0.198 A 
ATOM     66  C   UNL A   1      44.536  26.369  36.085  1.00  0.00     0.198 A 
ATOM     67  F   UNL A   1      42.250  26.740  35.674  1.00  0.00    -0.203 F 
ATOM     68  F   UNL A   1      47.457  28.248  35.049  1.00  0.00    -0.200 F 
ATOM     69  C   UNL A   1      45.862  26.745  35.930  1.00  0.00     0.200 A 
ATOM     70  F   UNL A   1      44.231  25.259  36.772  1.00  0.00    -0.200 F 
ATOM     71  F   UNL A   1      46.839  25.989  36.447  1.00  0.00    -0.200 F 
ENDBRANCH  38  61
ENDBRANCH  12  13
ENDBRANCH   5   7
ENDBRANCH   2   3
ENDBRANCH   1   2
BRANCH   1  72
ATOM     72  C   UNL A   1      31.446  30.716  26.523  1.00  0.00     0.117 C 
BRANCH  72  73
ATOM     73  N   UNL A   1      32.629  30.170  25.886  1.00  0.00    -0.354 N 
ATOM     74  C   UNL A   1      32.799  28.961  25.270  1.00  0.00     0.242 C 
ATOM     75  H   UNL A   1      33.422  30.752  25.899  1.00  0.00     0.163 HD
ATOM     76  O   UNL A   1      33.917  28.698  24.820  1.00  0.00    -0.273 OA
BRANCH  74  77
ATOM     77  C   UNL A   1      31.624  27.955  25.158  1.00  0.00     0.174 C 
BRANCH  77  78
ATOM     78  N   UNL A   1      31.593  27.506  23.755  1.00  0.00    -0.340 N 
ATOM     79  C   UNL A   1      30.799  27.689  22.664  1.00  0.00     0.253 C 
ATOM     80  H   UNL A   1      32.352  26.913  23.550  1.00  0.00     0.164 HD
ATOM     81  O   UNL A   1      31.027  27.064  21.631  1.00  0.00    -0.269 OA
BRANCH  79  82
ATOM     82  C   UNL A   1      29.606  28.531  22.707  1.00  0.00     0.061 A 
ATOM     83  C   UNL A   1      29.744  29.843  22.239  1.00  0.00     0.035 A 
ATOM     84  C   UNL A   1      28.395  28.086  23.221  1.00  0.00     0.072 A 
ATOM     85  C   UNL A   1      28.619  30.643  22.219  1.00  0.00     0.112 A 
ATOM     86  C   UNL A   1      27.328  28.967  23.150  1.00  0.00     0.132 A 
ATOM     87  Cl  UNL A   1      28.178  26.535  23.929  1.00  0.00    -0.082 Cl
ATOM     88  N   UNL A   1      27.408  30.225  22.643  1.00  0.00    -0.263 NA
ENDBRANCH  79  82
ENDBRANCH  77  78
BRANCH  77  89
ATOM     89  C   UNL A   1      31.665  26.921  26.257  1.00  0.00     0.021 C 
ATOM     90  C   UNL A   1      30.777  25.698  26.155  1.00  0.00     0.006 C 
ATOM     91  C   UNL A   1      32.263  25.552  26.026  1.00  0.00     0.006 C 
ENDBRANCH  77  89
ENDBRANCH  74  77
ENDBRANCH  72  73
ENDBRANCH   1  72
TORSDOF 13
ENDMDL
MODEL 2
REMARK VINA RESULT:     -12.4      0.413      1.670
REMARK SMILES O=C(NCCCNC(=O)[C@@H](NC(=O)c1ccncc1Cl)C1CC1)c1ccc(-c2c3nc(c(-c4c(F)c(F)c(F)c(F)c4F)c4ccc([nH]4)c(-c4c(F)c(F)c(F)c(F)c4F)c4nc(c(-c5c(F)c(F)c(F)c(F)c5F)c5ccc2[nH]5)C=C4)C=C3)cc1
REMARK SMILES IDX 5 1 4 2 3 3 1 4 2 5 24 7 25 8 86 9 26 10 85 11 27 12 28 13
REMARK SMILES IDX 29 14 79 15 30 16 84 17 78 18 80 19 31 20 83 21 77 22 76 23
REMARK SMILES IDX 32 25 64 26 44 27 63 28 45 29 48 30 62 31 81 32 46 33 47 34
REMARK SMILES IDX 61 36 82 37 49 38 33 39 34 40 42 41 35 42 36 43 40 44 43 45
REMARK SMILES IDX 37 46 38 47 41 48 39 49 65 50 66 51 74 52 67 53 68 54 72 55
REMARK SMILES IDX 75 56 69 57 70 58 73 59 71 60 50 61 51 62 59 63 52 64 53 65
REMARK SMILES IDX 57 66 60 67 54 68 55 69 58 70 56 71 6 72 7 73 8 74 9 76
REMARK SMILES IDX 10 77 11 78 12 79 13 81 14 82 15 83 19 84 16 85 18 86 20 87
REMARK SMILES IDX 17 88 21 89 22 90 23 91
REMARK H PARENT 3 6 80 24 48 35 7 75 11 80
REMARK Flexibility Score: inf
ROOT
ATOM      1  C   UNL A   1      31.365  31.821  26.944  1.00  0.00     0.042 C 
ENDROOT
BRANCH   1   2
ATOM      2  C   UNL A   1      32.676  32.561  27.139  1.00  0.00     0.118 C 
BRANCH   2   3
ATOM      3  N   UNL A   1      32.478  33.962  27.496  1.00  0.00    -0.352 N 
ATOM      4  O   UNL A   1      32.635  35.827  28.755  1.00  0.00    -0.269 OA
ATOM      5  C   UNL A   1      33.077  34.717  28.477  1.00  0.00     0.251 C 
ATOM      6  H   UNL A   1      31.811  34.441  26.953  1.00  0.00     0.163 HD
BRANCH   5   7
ATOM      7  C   UNL A   1      34.239  34.177  29.213  1.00  0.00     0.039 A 
ATOM      8  C   UNL A   1      35.536  34.513  28.829  1.00  0.00     0.014 A 
ATOM      9  C   UNL A   1      34.030  33.314  30.293  1.00  0.00     0.014 A 
ATOM     10  C   UNL A   1      36.613  33.840  29.383  1.00  0.00     0.010 A 
ATOM     11  C   UNL A   1      35.125  32.726  30.932  1.00  0.00     0.010 A 
ATOM     12  C   UNL A   1      36.424  32.946  30.450  1.00  0.00    -0.014 A 
BRANCH  12  13
ATOM     13  C   UNL A   1      37.614  32.290  31.049  1.00  0.00     0.031 A 
ATOM     14  C   UNL A   1      38.037  32.582  32.463  1.00  0.00     0.074 A 
ATOM     15  C   UNL A   1      38.275  31.369  30.321  1.00  0.00     0.049 A 
ATOM     16  N   UNL A   1      39.015  32.054  33.155  1.00  0.00    -0.248 NA
ATOM     17  C   UNL A   1      37.276  33.608  33.192  1.00  0.00     0.031 C 
ATOM     18  C   UNL A   1      37.961  31.011  28.935  1.00  0.00     0.029 A 
ATOM     19  N   UNL A   1      39.315  30.539  30.650  1.00  0.00    -0.354 N 
ATOM     20  C   UNL A   1      39.008  32.702  34.384  1.00  0.00     0.074 A 
ATOM     21  C   UNL A   1      37.940  33.678  34.338  1.00  0.00     0.031 C 
ATOM     22  C   UNL A   1      38.739  29.986  28.559  1.00  0.00     0.029 A 
ATOM     23  C   UNL A   1      39.650  29.660  29.649  1.00  0.00     0.049 A 
ATOM     24  H   UNL A   1      39.777  30.570  31.519  1.00  0.00     0.167 HD
ATOM     25  C   UNL A   1      39.816  32.496  35.451  1.00  0.00     0.037 A 
ATOM     26  C   UNL A   1      40.591  28.700  29.610  1.00  0.00     0.037 A 
ATOM     27  C   UNL A   1      40.851  31.496  35.504  1.00  0.00     0.049 A 
ATOM     28  C   UNL A   1      41.457  28.483  30.815  1.00  0.00     0.074 A 
ATOM     29  C   UNL A   1      41.696  31.182  36.555  1.00  0.00     0.029 A 
ATOM     30  N   UNL A   1      41.178  30.641  34.461  1.00  0.00    -0.354 N 
ATOM     31  N   UNL A   1      41.424  29.089  31.976  1.00  0.00    -0.248 NA
ATOM     32  C   UNL A   1      42.496  27.452  30.701  1.00  0.00     0.031 C 
ATOM     33  C   UNL A   1      42.559  30.164  36.135  1.00  0.00     0.029 A 
ATOM     34  C   UNL A   1      42.222  29.812  34.838  1.00  0.00     0.049 A 
ATOM     35  H   UNL A   1      40.733  30.626  33.583  1.00  0.00     0.167 HD
ATOM     36  C   UNL A   1      42.424  28.504  32.739  1.00  0.00     0.074 A 
ATOM     37  C   UNL A   1      43.032  27.479  31.913  1.00  0.00     0.031 C 
ATOM     38  C   UNL A   1      42.809  28.794  34.005  1.00  0.00     0.037 A 
BRANCH  25  39
ATOM     39  C   UNL A   1      39.631  33.384  36.648  1.00  0.00     0.064 A 
ATOM     40  C   UNL A   1      40.286  34.618  36.765  1.00  0.00     0.173 A 
ATOM     41  C   UNL A   1      38.749  33.010  37.675  1.00  0.00     0.173 A 
ATOM     42  F   UNL A   1      41.147  35.016  35.817  1.00  0.00    -0.203 F 
ATOM     43  C   UNL A   1      40.080  35.436  37.875  1.00  0.00     0.198 A 
ATOM     44  C   UNL A   1      38.527  33.841  38.770  1.00  0.00     0.198 A 
ATOM     45  F   UNL A   1      38.093  31.841  37.611  1.00  0.00    -0.203 F 
ATOM     46  F   UNL A   1      40.747  36.593  37.983  1.00  0.00    -0.200 F 
ATOM     47  C   UNL A   1      39.197  35.050  38.872  1.00  0.00     0.200 A 
ATOM     48  F   UNL A   1      37.665  33.471  39.727  1.00  0.00    -0.200 F 
ATOM     49  F   UNL A   1      38.998  35.842  39.935  1.00  0.00    -0.200 F 
ENDBRANCH  25  39
BRANCH  26  50
ATOM     50  C   UNL A   1      40.743  27.868  28.390  1.00  0.00     0.064 A 
ATOM     51  C   UNL A   1      41.563  28.286  27.331  1.00  0.00     0.173 A 
ATOM     52  C   UNL A   1      40.092  26.632  28.265  1.00  0.00     0.173 A 
ATOM     53  F   UNL A   1      42.192  29.467  27.398  1.00  0.00    -0.203 F 
ATOM     54  C   UNL A   1      41.714  27.503  26.189  1.00  0.00     0.198 A 
ATOM     55  C   UNL A   1      40.269  25.837  27.136  1.00  0.00     0.198 A 
ATOM     56  F   UNL A   1      39.304  26.186  29.254  1.00  0.00    -0.203 F 
ATOM     57  F   UNL A   1      42.475  27.940  25.177  1.00  0.00    -0.200 F 
ATOM     58  C   UNL A   1      41.074  26.276  26.096  1.00  0.00     0.200 A 
ATOM     59  F   UNL A   1      39.663  24.645  27.058  1.00  0.00    -0.200 F 
ATOM     60  F   UNL A   1      41.229  25.518  25.002  1.00  0.00    -0.200 F 
ENDBRANCH  26  50
BRANCH  38  61
ATOM     61  C   UNL A   1      43.918  27.966  34.581  1.00  0.00     0.064 A 
ATOM     62  C   UNL A   1      45.257  28.377  34.506  1.00  0.00     0.173 A 
ATOM     63  C   UNL A   1      43.635  26.755  35.229  1.00  0.00     0.173 A 
ATOM     64  F   UNL A   1      45.577  29.519  33.880  1.00  0.00    -0.203 F 
ATOM     65  C   UNL A   1      46.276  27.588  35.032  1.00  0.00     0.198 A 
ATOM     66  C   UNL A   1      44.654  25.982  35.778  1.00  0.00     0.198 A 
ATOM     67  F   UNL A   1      42.369  26.322  35.331  1.00  0.00    -0.203 F 
ATOM     68  F   UNL A   1      47.553  27.974  34.902  1.00  0.00    -0.200 F 
ATOM     69  C   UNL A   1      45.973  26.395  35.672  1.00  0.00     0.200 A 
ATOM     70  F   UNL A   1      44.360  24.835  36.404  1.00  0.00    -0.200 F 
ATOM     71  F   UNL A   1      46.957  25.637  36.176  1.00  0.00    -0.200 F 
ENDBRANCH  38  61
ENDBRANCH  12  13
ENDBRANCH   5   7
ENDBRANCH   2   3
ENDBRANCH   1   2
BRANCH   1  72
ATOM     72  C   UNL A   1      31.366  30.944  25.707  1.00  0.00     0.117 C 
BRANCH  72  73
ATOM     73  N   UNL A   1      32.602  30.199  25.567  1.00  0.00    -0.354 N 
ATOM     74  C   UNL A   1      32.786  28.862  25.346  1.00  0.00     0.242 C 
ATOM     75  H   UNL A   1      33.427  30.731  25.644  1.00  0.00     0.163 HD
ATOM     76  O   UNL A   1      33.945  28.442  25.291  1.00  0.00    -0.273 OA
BRANCH  74  77
ATOM     77  C   UNL A   1      31.572  27.911  25.183  1.00  0.00     0.174 C 
BRANCH  77  78
ATOM     78  N   UNL A   1      31.560  27.489  23.770  1.00  0.00    -0.340 N 
ATOM     79  C   UNL A   1      30.789  27.706  22.669  1.00  0.00     0.253 C 
ATOM     80  H   UNL A   1      32.314  26.890  23.568  1.00  0.00     0.164 HD
ATOM     81  O   UNL A   1      31.027  27.097  21.628  1.00  0.00    -0.269 OA
BRANCH  79  82
ATOM     82  C   UNL A   1      29.608  28.565  22.708  1.00  0.00     0.061 A 
ATOM     83  C   UNL A   1      29.772  29.881  22.261  1.00  0.00     0.035 A 
ATOM     84  C   UNL A   1      28.383  28.130  23.197  1.00  0.00     0.072 A 
ATOM     85  C   UNL A   1      28.659  30.698  22.237  1.00  0.00     0.112 A 
ATOM     86  C   UNL A   1      27.330  29.027  23.123  1.00  0.00     0.132 A 
ATOM     87  Cl  UNL A   1      28.132  26.572  23.877  1.00  0.00    -0.082 Cl
ATOM     88  N   UNL A   1      27.437  30.292  22.637  1.00  0.00    -0.263 NA
ENDBRANCH  79  82
ENDBRANCH  77  78
BRANCH  77  89
ATOM     89  C   UNL A   1      31.538  26.856  26.262  1.00  0.00     0.021 C 
ATOM     90  C   UNL A   1      30.581  25.690  26.126  1.00  0.00     0.006 C 
ATOM     91  C   UNL A   1      32.057  25.459  26.010  1.00  0.00     0.006 C 
ENDBRANCH  77  89
ENDBRANCH  74  77
ENDBRANCH  72  73
ENDBRANCH   1  72
TORSDOF 13
ENDMDL
MODEL 3
REMARK VINA RESULT:     -12.3      0.525      7.457
REMARK SMILES O=C(NCCCNC(=O)[C@@H](NC(=O)c1ccncc1Cl)C1CC1)c1ccc(-c2c3nc(c(-c4c(F)c(F)c(F)c(F)c4F)c4ccc([nH]4)c(-c4c(F)c(F)c(F)c(F)c4F)c4nc(c(-c5c(F)c(F)c(F)c(F)c5F)c5ccc2[nH]5)C=C4)C=C3)cc1
REMARK SMILES IDX 5 1 4 2 3 3 1 4 2 5 24 7 25 8 86 9 26 10 85 11 27 12 28 13
REMARK SMILES IDX 29 14 79 15 30 16 84 17 78 18 80 19 31 20 83 21 77 22 76 23
REMARK SMILES IDX 32 25 64 26 44 27 63 28 45 29 48 30 62 31 81 32 46 33 47 34
REMARK SMILES IDX 61 36 82 37 49 38 33 39 34 40 42 41 35 42 36 43 40 44 43 45
REMARK SMILES IDX 37 46 38 47 41 48 39 49 65 50 66 51 74 52 67 53 68 54 72 55
REMARK SMILES IDX 75 56 69 57 70 58 73 59 71 60 50 61 51 62 59 63 52 64 53 65
REMARK SMILES IDX 57 66 60 67 54 68 55 69 58 70 56 71 6 72 7 73 8 74 9 76
REMARK SMILES IDX 10 77 11 78 12 79 13 81 14 82 15 83 19 84 16 85 18 86 20 87
REMARK SMILES IDX 17 88 21 89 22 90 23 91
REMARK H PARENT 3 6 80 24 48 35 7 75 11 80
REMARK Flexibility Score: inf
ROOT
ATOM      1  C   UNL A   1      31.404  32.392  26.520  1.00  0.00     0.042 C 
ENDROOT
BRANCH   1   2
ATOM      2  C   UNL A   1      32.607  32.962  27.251  1.00  0.00     0.118 C 
BRANCH   2   3
ATOM      3  N   UNL A   1      32.417  34.358  27.633  1.00  0.00    -0.352 N 
ATOM      4  O   UNL A   1      32.529  36.184  28.952  1.00  0.00    -0.269 OA
ATOM      5  C   UNL A   1      32.964  35.070  28.674  1.00  0.00     0.251 C 
ATOM      6  H   UNL A   1      31.802  34.868  27.058  1.00  0.00     0.163 HD
BRANCH   5   7
ATOM      7  C   UNL A   1      34.058  34.482  29.474  1.00  0.00     0.039 A 
ATOM      8  C   UNL A   1      35.377  34.560  29.030  1.00  0.00     0.014 A 
ATOM      9  C   UNL A   1      33.761  33.833  30.676  1.00  0.00     0.014 A 
ATOM     10  C   UNL A   1      36.363  33.826  29.671  1.00  0.00     0.010 A 
ATOM     11  C   UNL A   1      34.780  33.193  31.387  1.00  0.00     0.010 A 
ATOM     12  C   UNL A   1      36.081  33.142  30.865  1.00  0.00    -0.014 A 
BRANCH  12  13
ATOM     13  C   UNL A   1      37.181  32.415  31.547  1.00  0.00     0.031 A 
ATOM     14  C   UNL A   1      37.957  31.335  30.843  1.00  0.00     0.074 A 
ATOM     15  C   UNL A   1      37.520  32.788  32.796  1.00  0.00     0.049 A 
ATOM     16  N   UNL A   1      38.982  30.644  31.275  1.00  0.00    -0.248 NA
ATOM     17  C   UNL A   1      37.522  30.974  29.486  1.00  0.00     0.031 C 
ATOM     18  C   UNL A   1      36.831  33.815  33.582  1.00  0.00     0.029 A 
ATOM     19  N   UNL A   1      38.546  32.381  33.610  1.00  0.00    -0.354 N 
ATOM     20  C   UNL A   1      39.292  29.747  30.260  1.00  0.00     0.074 A 
ATOM     21  C   UNL A   1      38.336  29.967  29.196  1.00  0.00     0.031 C 
ATOM     22  C   UNL A   1      37.496  34.010  34.730  1.00  0.00     0.029 A 
ATOM     23  C   UNL A   1      38.615  33.078  34.791  1.00  0.00     0.049 A 
ATOM     24  H   UNL A   1      39.171  31.659  33.370  1.00  0.00     0.167 HD
ATOM     25  C   UNL A   1      40.288  28.829  30.221  1.00  0.00     0.037 A 
ATOM     26  C   UNL A   1      39.481  32.975  35.815  1.00  0.00     0.037 A 
ATOM     27  C   UNL A   1      41.261  28.643  31.267  1.00  0.00     0.049 A 
ATOM     28  C   UNL A   1      40.585  31.963  35.734  1.00  0.00     0.074 A 
ATOM     29  C   UNL A   1      42.333  27.767  31.303  1.00  0.00     0.029 A 
ATOM     30  N   UNL A   1      41.284  29.350  32.460  1.00  0.00    -0.354 N 
ATOM     31  N   UNL A   1      40.878  31.137  34.760  1.00  0.00    -0.248 NA
ATOM     32  C   UNL A   1      41.474  31.863  36.898  1.00  0.00     0.031 C 
ATOM     33  C   UNL A   1      42.981  27.918  32.534  1.00  0.00     0.029 A 
ATOM     34  C   UNL A   1      42.341  28.919  33.245  1.00  0.00     0.049 A 
ATOM     35  H   UNL A   1      40.644  30.054  32.711  1.00  0.00     0.167 HD
ATOM     36  C   UNL A   1      41.995  30.431  35.183  1.00  0.00     0.074 A 
ATOM     37  C   UNL A   1      42.338  30.942  36.495  1.00  0.00     0.031 C 
ATOM     38  C   UNL A   1      42.670  29.444  34.546  1.00  0.00     0.037 A 
BRANCH  25  39
ATOM     39  C   UNL A   1      40.367  27.936  29.016  1.00  0.00     0.064 A 
ATOM     40  C   UNL A   1      39.649  26.735  28.934  1.00  0.00     0.173 A 
ATOM     41  C   UNL A   1      41.143  28.313  27.908  1.00  0.00     0.173 A 
ATOM     42  F   UNL A   1      38.903  26.324  29.971  1.00  0.00    -0.203 F 
ATOM     43  C   UNL A   1      39.720  25.934  27.796  1.00  0.00     0.198 A 
ATOM     44  C   UNL A   1      41.191  27.523  26.762  1.00  0.00     0.198 A 
ATOM     45  F   UNL A   1      41.846  29.456  27.931  1.00  0.00    -0.203 F 
ATOM     46  F   UNL A   1      39.056  24.770  27.757  1.00  0.00    -0.200 F 
ATOM     47  C   UNL A   1      40.485  26.331  26.710  1.00  0.00     0.200 A 
ATOM     48  F   UNL A   1      41.921  27.914  25.709  1.00  0.00    -0.200 F 
ATOM     49  F   UNL A   1      40.546  25.561  25.615  1.00  0.00    -0.200 F 
ENDBRANCH  25  39
BRANCH  26  50
ATOM     50  C   UNL A   1      39.340  33.870  36.992  1.00  0.00     0.064 A 
ATOM     51  C   UNL A   1      38.652  33.448  38.138  1.00  0.00     0.173 A 
ATOM     52  C   UNL A   1      39.905  35.153  37.003  1.00  0.00     0.173 A 
ATOM     53  F   UNL A   1      38.080  32.236  38.168  1.00  0.00    -0.203 F 
ATOM     54  C   UNL A   1      38.525  34.282  39.247  1.00  0.00     0.198 A 
ATOM     55  C   UNL A   1      39.803  35.974  38.123  1.00  0.00     0.198 A 
ATOM     56  F   UNL A   1      40.579  35.599  35.932  1.00  0.00    -0.203 F 
ATOM     57  F   UNL A   1      37.833  33.869  40.317  1.00  0.00    -0.200 F 
ATOM     58  C   UNL A   1      39.108  35.541  39.241  1.00  0.00     0.200 A 
ATOM     59  F   UNL A   1      40.383  37.182  38.119  1.00  0.00    -0.200 F 
ATOM     60  F   UNL A   1      38.995  36.338  40.312  1.00  0.00    -0.200 F 
ENDBRANCH  26  50
BRANCH  38  61
ATOM     61  C   UNL A   1      43.867  28.880  35.250  1.00  0.00     0.064 A 
ATOM     62  C   UNL A   1      43.757  27.796  36.133  1.00  0.00     0.173 A 
ATOM     63  C   UNL A   1      45.141  29.423  35.028  1.00  0.00     0.173 A 
ATOM     64  F   UNL A   1      42.556  27.257  36.391  1.00  0.00    -0.203 F 
ATOM     65  C   UNL A   1      44.876  27.295  36.792  1.00  0.00     0.198 A 
ATOM     66  C   UNL A   1      46.262  28.901  35.667  1.00  0.00     0.198 A 
ATOM     67  F   UNL A   1      45.299  30.457  34.188  1.00  0.00    -0.203 F 
ATOM     68  F   UNL A   1      44.739  26.293  37.671  1.00  0.00    -0.200 F 
ATOM     69  C   UNL A   1      46.127  27.844  36.553  1.00  0.00     0.200 A 
ATOM     70  F   UNL A   1      47.472  29.426  35.429  1.00  0.00    -0.200 F 
ATOM     71  F   UNL A   1      47.203  27.360  37.189  1.00  0.00    -0.200 F 
ENDBRANCH  38  61
ENDBRANCH  12  13
ENDBRANCH   5   7
ENDBRANCH   2   3
ENDBRANCH   1   2
BRANCH   1  72
ATOM     72  C   UNL A   1      31.401  30.875  26.494  1.00  0.00     0.117 C 
BRANCH  72  73
ATOM     73  N   UNL A   1      32.587  30.338  25.857  1.00  0.00    -0.354 N 
ATOM     74  C   UNL A   1      32.769  29.125  25.252  1.00  0.00     0.242 C 
ATOM     75  H   UNL A   1      33.373  30.930  25.861  1.00  0.00     0.163 HD
ATOM     76  O   UNL A   1      33.888  28.871  24.799  1.00  0.00    -0.273 OA
BRANCH  74  77
ATOM     77  C   UNL A   1      31.606  28.104  25.155  1.00  0.00     0.174 C 
BRANCH  77  78
ATOM     78  N   UNL A   1      31.579  27.635  23.758  1.00  0.00    -0.340 N 
ATOM     79  C   UNL A   1      30.773  27.780  22.670  1.00  0.00     0.253 C 
ATOM     80  H   UNL A   1      32.353  27.062  23.557  1.00  0.00     0.164 HD
ATOM     81  O   UNL A   1      31.013  27.148  21.644  1.00  0.00    -0.269 OA
BRANCH  79  82
ATOM     82  C   UNL A   1      29.557  28.589  22.710  1.00  0.00     0.061 A 
ATOM     83  C   UNL A   1      29.665  29.911  22.265  1.00  0.00     0.035 A 
ATOM     84  C   UNL A   1      28.351  28.102  23.199  1.00  0.00     0.072 A 
ATOM     85  C   UNL A   1      28.519  30.681  22.242  1.00  0.00     0.112 A 
ATOM     86  C   UNL A   1      27.262  28.954  23.126  1.00  0.00     0.132 A 
ATOM     87  Cl  UNL A   1      28.167  26.534  23.877  1.00  0.00    -0.082 Cl
ATOM     88  N   UNL A   1      27.314  30.223  22.642  1.00  0.00    -0.263 NA
ENDBRANCH  79  82
ENDBRANCH  77  78
BRANCH  77  89
ATOM     89  C   UNL A   1      31.659  27.086  26.269  1.00  0.00     0.021 C 
ATOM     90  C   UNL A   1      30.883  25.793  26.126  1.00  0.00     0.006 C 
ATOM     91  C   UNL A   1      32.381  25.769  26.094  1.00  0.00     0.006 C 
ENDBRANCH  77  89
ENDBRANCH  74  77
ENDBRANCH  72  73
ENDBRANCH   1  72
TORSDOF 13
ENDMDL
