MODEL 1
REMARK VINA RESULT:     -13.1      0.000      0.000
REMARK SMILES CC1(C)[C@@](C)(C(=O)NCCCNC(=O)c2ccc(-c3c4nc(c(-c5c(F)c(F)c(F)c(F)c5F)c5ccc([nH]5)c(-c5c(F)c(F)c(F)c(F)c5F)c5nc(c(-c6c(F)c(F)c(F)c(F)c6F)c6ccc3[nH]6)C=C5)C=C4)cc2)CC[C@]1(C)C(=O)Nc1ccc(Cl)cc1Cl
REMARK SMILES IDX 10 1 9 2 8 3 6 4 7 5 4 7 1 8 2 9 3 10 80 11 5 12 78 13 79 14
REMARK SMILES IDX 81 15 82 16 83 17 84 18 85 20 86 21 91 22 87 23 90 24 92 25
REMARK SMILES IDX 88 26 89 27 11 28 12 29 13 30 14 32 15 33 16 34 77 35 17 36
REMARK SMILES IDX 76 37 18 38 19 39 20 40 70 41 21 42 75 43 69 44 71 45 22 46
REMARK SMILES IDX 74 47 68 48 67 49 23 51 55 52 35 53 54 54 36 55 39 56 53 57
REMARK SMILES IDX 72 58 37 59 38 60 52 62 73 63 40 64 24 65 25 66 33 67 26 68
REMARK SMILES IDX 27 69 31 70 34 71 28 72 29 73 32 74 30 75 56 76 57 77 65 78
REMARK SMILES IDX 58 79 59 80 63 81 66 82 60 83 61 84 64 85 62 86 41 87 42 88
REMARK SMILES IDX 50 89 43 90 44 91 48 92 51 93 45 94 46 95 49 96 47 97
REMARK H PARENT 8 6 84 19 12 31 71 50 39 61
REMARK Flexibility Score: inf
ROOT
ATOM      1  C   UNL A   1      37.029  22.084  24.046  1.00  0.00     0.042 C 
ENDROOT
BRANCH   1   2
ATOM      2  C   UNL A   1      35.797  22.885  23.601  1.00  0.00     0.117 C 
BRANCH   2   3
ATOM      3  N   UNL A   1      34.610  22.668  24.426  1.00  0.00    -0.356 N 
ATOM      4  C   UNL A   1      33.279  22.948  24.339  1.00  0.00     0.226 C 
ATOM      5  O   UNL A   1      32.615  22.486  25.276  1.00  0.00    -0.274 OA
ATOM      6  H   UNL A   1      34.830  22.199  25.264  1.00  0.00     0.163 HD
BRANCH   4   7
ATOM      7  C   UNL A   1      32.592  23.759  23.190  1.00  0.00     0.052 C 
ATOM      8  C   UNL A   1      33.780  25.867  23.992  1.00  0.00     0.013 C 
ATOM      9  C   UNL A   1      32.495  25.331  23.394  1.00  0.00    -0.007 C 
ATOM     10  C   UNL A   1      32.293  26.021  22.017  1.00  0.00     0.013 C 
ATOM     11  C   UNL A   1      31.236  25.589  24.333  1.00  0.00     0.053 C 
ATOM     12  C   UNL A   1      33.232  23.303  21.858  1.00  0.00     0.022 C 
ATOM     13  C   UNL A   1      31.086  23.375  23.126  1.00  0.00     0.018 C 
ATOM     14  C   UNL A   1      30.274  24.450  23.857  1.00  0.00     0.018 C 
ATOM     15  C   UNL A   1      31.461  25.358  25.838  1.00  0.00     0.022 C 
BRANCH  11  16
ATOM     16  C   UNL A   1      30.518  26.984  24.132  1.00  0.00     0.230 C 
ATOM     17  O   UNL A   1      29.439  27.049  23.524  1.00  0.00    -0.274 OA
ATOM     18  N   UNL A   1      31.030  28.203  24.496  1.00  0.00    -0.324 N 
ATOM     19  H   UNL A   1      30.587  28.962  24.051  1.00  0.00     0.170 HD
BRANCH  18  20
ATOM     20  C   UNL A   1      32.055  28.593  25.369  1.00  0.00     0.060 A 
ATOM     21  C   UNL A   1      31.846  28.564  26.748  1.00  0.00     0.029 A 
ATOM     22  C   UNL A   1      33.281  29.084  24.877  1.00  0.00     0.066 A 
ATOM     23  C   UNL A   1      32.892  28.870  27.626  1.00  0.00     0.023 A 
ATOM     24  C   UNL A   1      34.347  29.323  25.751  1.00  0.00     0.043 A 
ATOM     25  Cl  UNL A   1      33.581  29.259  23.184  1.00  0.00    -0.082 Cl
ATOM     26  C   UNL A   1      34.150  29.194  27.123  1.00  0.00     0.042 A 
ATOM     27  Cl  UNL A   1      35.472  29.422  28.201  1.00  0.00    -0.084 Cl
ENDBRANCH  18  20
ENDBRANCH  11  16
ENDBRANCH   4   7
ENDBRANCH   2   3
ENDBRANCH   1   2
BRANCH   1  28
ATOM     28  C   UNL A   1      37.116  21.814  25.542  1.00  0.00     0.118 C 
BRANCH  28  29
ATOM     29  N   UNL A   1      38.178  20.876  25.847  1.00  0.00    -0.352 N 
ATOM     30  C   UNL A   1      39.481  21.094  26.220  1.00  0.00     0.251 C 
ATOM     31  H   UNL A   1      37.923  19.928  25.775  1.00  0.00     0.163 HD
ATOM     32  O   UNL A   1      40.279  20.166  26.122  1.00  0.00    -0.269 OA
BRANCH  30  33
ATOM     33  C   UNL A   1      39.955  22.405  26.743  1.00  0.00     0.039 A 
ATOM     34  C   UNL A   1      39.444  23.569  26.153  1.00  0.00     0.014 A 
ATOM     35  C   UNL A   1      40.975  22.519  27.691  1.00  0.00     0.014 A 
ATOM     36  C   UNL A   1      39.954  24.824  26.501  1.00  0.00     0.010 A 
ATOM     37  C   UNL A   1      41.428  23.779  28.100  1.00  0.00     0.010 A 
ATOM     38  C   UNL A   1      40.953  24.943  27.479  1.00  0.00    -0.014 A 
BRANCH  38  39
ATOM     39  C   UNL A   1      41.557  26.269  27.788  1.00  0.00     0.031 A 
ATOM     40  C   UNL A   1      42.939  26.611  27.293  1.00  0.00     0.074 A 
ATOM     41  C   UNL A   1      40.871  27.173  28.515  1.00  0.00     0.049 A 
ATOM     42  N   UNL A   1      43.629  27.716  27.450  1.00  0.00    -0.248 NA
ATOM     43  C   UNL A   1      43.654  25.566  26.545  1.00  0.00     0.031 C 
ATOM     44  C   UNL A   1      39.548  26.958  29.098  1.00  0.00     0.029 A 
ATOM     45  N   UNL A   1      41.195  28.455  28.884  1.00  0.00    -0.354 N 
ATOM     46  C   UNL A   1      44.859  27.487  26.843  1.00  0.00     0.074 A 
ATOM     47  C   UNL A   1      44.840  26.124  26.357  1.00  0.00     0.031 C 
ATOM     48  C   UNL A   1      39.159  28.080  29.725  1.00  0.00     0.029 A 
ATOM     49  C   UNL A   1      40.212  29.085  29.608  1.00  0.00     0.049 A 
ATOM     50  H   UNL A   1      42.050  28.884  28.652  1.00  0.00     0.167 HD
ATOM     51  C   UNL A   1      45.901  28.339  26.680  1.00  0.00     0.037 A 
ATOM     52  C   UNL A   1      40.162  30.333  30.111  1.00  0.00     0.037 A 
ATOM     53  C   UNL A   1      45.909  29.709  27.121  1.00  0.00     0.049 A 
ATOM     54  C   UNL A   1      41.310  31.276  29.876  1.00  0.00     0.074 A 
ATOM     55  C   UNL A   1      46.894  30.667  26.946  1.00  0.00     0.029 A 
ATOM     56  N   UNL A   1      44.879  30.318  27.821  1.00  0.00    -0.354 N 
ATOM     57  N   UNL A   1      42.439  31.066  29.244  1.00  0.00    -0.248 NA
ATOM     58  C   UNL A   1      41.168  32.637  30.413  1.00  0.00     0.031 C 
ATOM     59  C   UNL A   1      46.472  31.848  27.569  1.00  0.00     0.029 A 
ATOM     60  C   UNL A   1      45.209  31.636  28.095  1.00  0.00     0.049 A 
ATOM     61  H   UNL A   1      44.037  29.879  28.083  1.00  0.00     0.167 HD
ATOM     62  C   UNL A   1      43.131  32.269  29.289  1.00  0.00     0.074 A 
ATOM     63  C   UNL A   1      42.286  33.211  29.992  1.00  0.00     0.031 C 
ATOM     64  C   UNL A   1      44.357  32.565  28.794  1.00  0.00     0.037 A 
BRANCH  51  65
ATOM     65  C   UNL A   1      47.124  27.810  25.988  1.00  0.00     0.064 A 
ATOM     66  C   UNL A   1      47.224  27.782  24.588  1.00  0.00     0.173 A 
ATOM     67  C   UNL A   1      48.221  27.350  26.732  1.00  0.00     0.173 A 
ATOM     68  F   UNL A   1      46.198  28.200  23.831  1.00  0.00    -0.203 F 
ATOM     69  C   UNL A   1      48.362  27.284  23.960  1.00  0.00     0.198 A 
ATOM     70  C   UNL A   1      49.369  26.878  26.100  1.00  0.00     0.198 A 
ATOM     71  F   UNL A   1      48.181  27.360  28.073  1.00  0.00    -0.203 F 
ATOM     72  F   UNL A   1      48.413  27.219  22.622  1.00  0.00    -0.200 F 
ATOM     73  C   UNL A   1      49.435  26.837  24.716  1.00  0.00     0.200 A 
ATOM     74  F   UNL A   1      50.410  26.459  26.832  1.00  0.00    -0.200 F 
ATOM     75  F   UNL A   1      50.531  26.360  24.110  1.00  0.00    -0.200 F 
ENDBRANCH  51  65
BRANCH  52  76
ATOM     76  C   UNL A   1      38.955  30.779  30.852  1.00  0.00     0.064 A 
ATOM     77  C   UNL A   1      37.871  31.358  30.176  1.00  0.00     0.173 A 
ATOM     78  C   UNL A   1      38.858  30.635  32.242  1.00  0.00     0.173 A 
ATOM     79  F   UNL A   1      37.928  31.537  28.849  1.00  0.00    -0.203 F 
ATOM     80  C   UNL A   1      36.742  31.792  30.868  1.00  0.00     0.198 A 
ATOM     81  C   UNL A   1      37.718  31.046  32.930  1.00  0.00     0.198 A 
ATOM     82  F   UNL A   1      39.867  30.085  32.932  1.00  0.00    -0.203 F 
ATOM     83  F   UNL A   1      35.737  32.379  30.203  1.00  0.00    -0.200 F 
ATOM     84  C   UNL A   1      36.664  31.630  32.243  1.00  0.00     0.200 A 
ATOM     85  F   UNL A   1      37.640  30.877  34.256  1.00  0.00    -0.200 F 
ATOM     86  F   UNL A   1      35.576  32.042  32.907  1.00  0.00    -0.200 F 
ENDBRANCH  52  76
BRANCH  64  87
ATOM     87  C   UNL A   1      44.848  33.971  28.974  1.00  0.00     0.064 A 
ATOM     88  C   UNL A   1      45.600  34.348  30.096  1.00  0.00     0.173 A 
ATOM     89  C   UNL A   1      44.577  34.949  28.006  1.00  0.00     0.173 A 
ATOM     90  F   UNL A   1      45.873  33.453  31.058  1.00  0.00    -0.203 F 
ATOM     91  C   UNL A   1      46.036  35.661  30.258  1.00  0.00     0.198 A 
ATOM     92  C   UNL A   1      45.036  36.254  28.157  1.00  0.00     0.198 A 
ATOM     93  F   UNL A   1      43.866  34.637  26.911  1.00  0.00    -0.203 F 
ATOM     94  F   UNL A   1      46.710  36.011  31.362  1.00  0.00    -0.200 F 
ATOM     95  C   UNL A   1      45.758  36.611  29.286  1.00  0.00     0.200 A 
ATOM     96  F   UNL A   1      44.776  37.169  27.213  1.00  0.00    -0.200 F 
ATOM     97  F   UNL A   1      46.177  37.874  29.444  1.00  0.00    -0.200 F 
ENDBRANCH  64  87
ENDBRANCH  38  39
ENDBRANCH  30  33
ENDBRANCH  28  29
ENDBRANCH   1  28
TORSDOF 12
ENDMDL
MODEL 2
REMARK VINA RESULT:     -13.0      2.141      7.498
REMARK SMILES CC1(C)[C@@](C)(C(=O)NCCCNC(=O)c2ccc(-c3c4nc(c(-c5c(F)c(F)c(F)c(F)c5F)c5ccc([nH]5)c(-c5c(F)c(F)c(F)c(F)c5F)c5nc(c(-c6c(F)c(F)c(F)c(F)c6F)c6ccc3[nH]6)C=C5)C=C4)cc2)CC[C@]1(C)C(=O)Nc1ccc(Cl)cc1Cl
REMARK SMILES IDX 10 1 9 2 8 3 6 4 7 5 4 7 1 8 2 9 3 10 80 11 5 12 78 13 79 14
REMARK SMILES IDX 81 15 82 16 83 17 84 18 85 20 86 21 91 22 87 23 90 24 92 25
REMARK SMILES IDX 88 26 89 27 11 28 12 29 13 30 14 32 15 33 16 34 77 35 17 36
REMARK SMILES IDX 76 37 18 38 19 39 20 40 70 41 21 42 75 43 69 44 71 45 22 46
REMARK SMILES IDX 74 47 68 48 67 49 23 51 55 52 35 53 54 54 36 55 39 56 53 57
REMARK SMILES IDX 72 58 37 59 38 60 52 62 73 63 40 64 24 65 25 66 33 67 26 68
REMARK SMILES IDX 27 69 31 70 34 71 28 72 29 73 32 74 30 75 56 76 57 77 65 78
REMARK SMILES IDX 58 79 59 80 63 81 66 82 60 83 61 84 64 85 62 86 41 87 42 88
REMARK SMILES IDX 50 89 43 90 44 91 48 92 51 93 45 94 46 95 49 96 47 97
REMARK H PARENT 8 6 84 19 12 31 71 50 39 61
REMARK Flexibility Score: inf
ROOT
ATOM      1  C   UNL A   1      37.841  19.697  24.976  1.00  0.00     0.042 C 
ENDROOT
BRANCH   1   2
ATOM      2  C   UNL A   1      36.557  20.534  25.057  1.00  0.00     0.117 C 
BRANCH   2   3
ATOM      3  N   UNL A   1      36.536  21.687  24.158  1.00  0.00    -0.356 N 
ATOM      4  C   UNL A   1      35.885  22.883  24.098  1.00  0.00     0.226 C 
ATOM      5  O   UNL A   1      36.257  23.601  23.161  1.00  0.00    -0.274 OA
ATOM      6  H   UNL A   1      37.150  21.567  23.398  1.00  0.00     0.163 HD
BRANCH   4   7
ATOM      7  C   UNL A   1      34.775  23.368  25.090  1.00  0.00     0.052 C 
ATOM      8  C   UNL A   1      33.237  21.521  24.242  1.00  0.00     0.013 C 
ATOM      9  C   UNL A   1      33.283  22.951  24.740  1.00  0.00    -0.007 C 
ATOM     10  C   UNL A   1      32.408  23.032  26.022  1.00  0.00     0.013 C 
ATOM     11  C   UNL A   1      32.767  23.990  23.651  1.00  0.00     0.053 C 
ATOM     12  C   UNL A   1      35.245  23.008  26.519  1.00  0.00     0.022 C 
ATOM     13  C   UNL A   1      34.674  24.918  25.022  1.00  0.00     0.018 C 
ATOM     14  C   UNL A   1      33.496  25.294  24.115  1.00  0.00     0.018 C 
ATOM     15  C   UNL A   1      33.229  23.733  22.205  1.00  0.00     0.022 C 
BRANCH  11  16
ATOM     16  C   UNL A   1      31.205  24.248  23.649  1.00  0.00     0.230 C 
ATOM     17  O   UNL A   1      30.433  23.394  23.189  1.00  0.00    -0.274 OA
ATOM     18  N   UNL A   1      30.589  25.409  24.039  1.00  0.00    -0.324 N 
ATOM     19  H   UNL A   1      29.664  25.489  23.712  1.00  0.00     0.170 HD
BRANCH  18  20
ATOM     20  C   UNL A   1      31.006  26.508  24.803  1.00  0.00     0.060 A 
ATOM     21  C   UNL A   1      31.121  26.391  26.189  1.00  0.00     0.029 A 
ATOM     22  C   UNL A   1      31.246  27.761  24.204  1.00  0.00     0.066 A 
ATOM     23  C   UNL A   1      31.617  27.457  26.947  1.00  0.00     0.023 A 
ATOM     24  C   UNL A   1      31.807  28.803  24.950  1.00  0.00     0.043 A 
ATOM     25  Cl  UNL A   1      31.019  28.022  22.511  1.00  0.00    -0.082 Cl
ATOM     26  C   UNL A   1      32.008  28.637  26.317  1.00  0.00     0.042 A 
ATOM     27  Cl  UNL A   1      32.757  29.889  27.229  1.00  0.00    -0.084 Cl
ENDBRANCH  18  20
ENDBRANCH  11  16
ENDBRANCH   4   7
ENDBRANCH   2   3
ENDBRANCH   1   2
BRANCH   1  28
ATOM     28  C   UNL A   1      39.031  20.265  25.737  1.00  0.00     0.118 C 
BRANCH  28  29
ATOM     29  N   UNL A   1      40.050  19.256  25.948  1.00  0.00    -0.352 N 
ATOM     30  C   UNL A   1      41.409  19.382  26.104  1.00  0.00     0.251 C 
ATOM     31  H   UNL A   1      39.715  18.332  25.988  1.00  0.00     0.163 HD
ATOM     32  O   UNL A   1      42.107  18.382  25.958  1.00  0.00    -0.269 OA
BRANCH  30  33
ATOM     33  C   UNL A   1      42.060  20.675  26.449  1.00  0.00     0.039 A 
ATOM     34  C   UNL A   1      42.085  21.057  27.797  1.00  0.00     0.014 A 
ATOM     35  C   UNL A   1      42.519  21.574  25.484  1.00  0.00     0.014 A 
ATOM     36  C   UNL A   1      42.554  22.322  28.168  1.00  0.00     0.010 A 
ATOM     37  C   UNL A   1      43.065  22.806  25.861  1.00  0.00     0.010 A 
ATOM     38  C   UNL A   1      43.048  23.212  27.203  1.00  0.00    -0.014 A 
BRANCH  38  39
ATOM     39  C   UNL A   1      43.467  24.589  27.586  1.00  0.00     0.031 A 
ATOM     40  C   UNL A   1      42.435  25.624  27.957  1.00  0.00     0.074 A 
ATOM     41  C   UNL A   1      44.773  24.921  27.603  1.00  0.00     0.049 A 
ATOM     42  N   UNL A   1      42.603  26.871  28.328  1.00  0.00    -0.248 NA
ATOM     43  C   UNL A   1      41.025  25.213  27.874  1.00  0.00     0.031 C 
ATOM     44  C   UNL A   1      45.873  24.036  27.221  1.00  0.00     0.029 A 
ATOM     45  N   UNL A   1      45.394  26.092  27.958  1.00  0.00    -0.354 N 
ATOM     46  C   UNL A   1      41.326  27.393  28.499  1.00  0.00     0.074 A 
ATOM     47  C   UNL A   1      40.393  26.346  28.145  1.00  0.00     0.031 C 
ATOM     48  C   UNL A   1      47.035  24.686  27.392  1.00  0.00     0.029 A 
ATOM     49  C   UNL A   1      46.763  26.038  27.874  1.00  0.00     0.049 A 
ATOM     50  H   UNL A   1      44.904  26.896  28.246  1.00  0.00     0.167 HD
ATOM     51  C   UNL A   1      40.960  28.624  28.935  1.00  0.00     0.037 A 
ATOM     52  C   UNL A   1      47.694  26.968  28.160  1.00  0.00     0.037 A 
ATOM     53  C   UNL A   1      41.882  29.655  29.330  1.00  0.00     0.049 A 
ATOM     54  C   UNL A   1      47.265  28.310  28.689  1.00  0.00     0.074 A 
ATOM     55  C   UNL A   1      41.606  30.911  29.845  1.00  0.00     0.029 A 
ATOM     56  N   UNL A   1      43.263  29.547  29.262  1.00  0.00    -0.354 N 
ATOM     57  N   UNL A   1      46.057  28.767  28.906  1.00  0.00    -0.248 NA
ATOM     58  C   UNL A   1      48.335  29.260  29.025  1.00  0.00     0.031 C 
ATOM     59  C   UNL A   1      42.820  31.575  30.057  1.00  0.00     0.029 A 
ATOM     60  C   UNL A   1      43.852  30.718  29.713  1.00  0.00     0.049 A 
ATOM     61  H   UNL A   1      43.752  28.755  28.941  1.00  0.00     0.167 HD
ATOM     62  C   UNL A   1      46.220  30.045  29.423  1.00  0.00     0.074 A 
ATOM     63  C   UNL A   1      47.645  30.284  29.506  1.00  0.00     0.031 C 
ATOM     64  C   UNL A   1      45.272  30.942  29.793  1.00  0.00     0.037 A 
BRANCH  51  65
ATOM     65  C   UNL A   1      39.490  28.920  29.010  1.00  0.00     0.064 A 
ATOM     66  C   UNL A   1      38.775  28.801  30.213  1.00  0.00     0.173 A 
ATOM     67  C   UNL A   1      38.792  29.357  27.874  1.00  0.00     0.173 A 
ATOM     68  F   UNL A   1      39.394  28.377  31.325  1.00  0.00    -0.203 F 
ATOM     69  C   UNL A   1      37.411  29.074  30.266  1.00  0.00     0.198 A 
ATOM     70  C   UNL A   1      37.433  29.656  27.938  1.00  0.00     0.198 A 
ATOM     71  F   UNL A   1      39.428  29.494  26.701  1.00  0.00    -0.203 F 
ATOM     72  F   UNL A   1      36.739  28.902  31.414  1.00  0.00    -0.200 F 
ATOM     73  C   UNL A   1      36.743  29.507  29.131  1.00  0.00     0.200 A 
ATOM     74  F   UNL A   1      36.792  30.086  26.843  1.00  0.00    -0.200 F 
ATOM     75  F   UNL A   1      35.430  29.772  29.185  1.00  0.00    -0.200 F 
ENDBRANCH  51  65
BRANCH  52  76
ATOM     76  C   UNL A   1      49.133  26.643  27.997  1.00  0.00     0.064 A 
ATOM     77  C   UNL A   1      49.731  26.646  26.728  1.00  0.00     0.173 A 
ATOM     78  C   UNL A   1      49.939  26.327  29.099  1.00  0.00     0.173 A 
ATOM     79  F   UNL A   1      48.994  26.920  25.642  1.00  0.00    -0.203 F 
ATOM     80  C   UNL A   1      51.077  26.327  26.568  1.00  0.00     0.198 A 
ATOM     81  C   UNL A   1      51.292  26.034  28.940  1.00  0.00     0.198 A 
ATOM     82  F   UNL A   1      49.414  26.314  30.333  1.00  0.00    -0.203 F 
ATOM     83  F   UNL A   1      51.614  26.297  25.340  1.00  0.00    -0.200 F 
ATOM     84  C   UNL A   1      51.858  26.028  27.675  1.00  0.00     0.200 A 
ATOM     85  F   UNL A   1      52.046  25.756  30.012  1.00  0.00    -0.200 F 
ATOM     86  F   UNL A   1      53.154  25.727  27.520  1.00  0.00    -0.200 F 
ENDBRANCH  52  76
BRANCH  64  87
ATOM     87  C   UNL A   1      45.749  32.253  30.344  1.00  0.00     0.064 A 
ATOM     88  C   UNL A   1      46.000  32.427  31.713  1.00  0.00     0.173 A 
ATOM     89  C   UNL A   1      45.974  33.344  29.491  1.00  0.00     0.173 A 
ATOM     90  F   UNL A   1      45.786  31.419  32.572  1.00  0.00    -0.203 F 
ATOM     91  C   UNL A   1      46.428  33.655  32.212  1.00  0.00     0.198 A 
ATOM     92  C   UNL A   1      46.427  34.562  29.989  1.00  0.00     0.198 A 
ATOM     93  F   UNL A   1      45.755  33.227  28.172  1.00  0.00    -0.203 F 
ATOM     94  F   UNL A   1      46.612  33.814  33.530  1.00  0.00    -0.200 F 
ATOM     95  C   UNL A   1      46.646  34.719  31.349  1.00  0.00     0.200 A 
ATOM     96  F   UNL A   1      46.647  35.587  29.154  1.00  0.00    -0.200 F 
ATOM     97  F   UNL A   1      47.056  35.901  31.832  1.00  0.00    -0.200 F 
ENDBRANCH  64  87
ENDBRANCH  38  39
ENDBRANCH  30  33
ENDBRANCH  28  29
ENDBRANCH   1  28
TORSDOF 12
ENDMDL
MODEL 3
REMARK VINA RESULT:     -13.0      4.648     10.113
REMARK SMILES CC1(C)[C@@](C)(C(=O)NCCCNC(=O)c2ccc(-c3c4nc(c(-c5c(F)c(F)c(F)c(F)c5F)c5ccc([nH]5)c(-c5c(F)c(F)c(F)c(F)c5F)c5nc(c(-c6c(F)c(F)c(F)c(F)c6F)c6ccc3[nH]6)C=C5)C=C4)cc2)CC[C@]1(C)C(=O)Nc1ccc(Cl)cc1Cl
REMARK SMILES IDX 10 1 9 2 8 3 6 4 7 5 4 7 1 8 2 9 3 10 80 11 5 12 78 13 79 14
REMARK SMILES IDX 81 15 82 16 83 17 84 18 85 20 86 21 91 22 87 23 90 24 92 25
REMARK SMILES IDX 88 26 89 27 11 28 12 29 13 30 14 32 15 33 16 34 77 35 17 36
REMARK SMILES IDX 76 37 18 38 19 39 20 40 70 41 21 42 75 43 69 44 71 45 22 46
REMARK SMILES IDX 74 47 68 48 67 49 23 51 55 52 35 53 54 54 36 55 39 56 53 57
REMARK SMILES IDX 72 58 37 59 38 60 52 62 73 63 40 64 24 65 25 66 33 67 26 68
REMARK SMILES IDX 27 69 31 70 34 71 28 72 29 73 32 74 30 75 56 76 57 77 65 78
REMARK SMILES IDX 58 79 59 80 63 81 66 82 60 83 61 84 64 85 62 86 41 87 42 88
REMARK SMILES IDX 50 89 43 90 44 91 48 92 51 93 45 94 46 95 49 96 47 97
REMARK H PARENT 8 6 84 19 12 31 71 50 39 61
REMARK Flexibility Score: inf
ROOT
ATOM      1  C   UNL A   1      31.332  31.848  26.486  1.00  0.00     0.042 C 
ENDROOT
BRANCH   1   2
ATOM      2  C   UNL A   1      31.427  30.503  25.751  1.00  0.00     0.117 C 
BRANCH   2   3
ATOM      3  N   UNL A   1      31.452  29.338  26.635  1.00  0.00    -0.356 N 
ATOM      4  C   UNL A   1      31.950  28.070  26.586  1.00  0.00     0.226 C 
ATOM      5  O   UNL A   1      31.794  27.438  27.639  1.00  0.00    -0.274 OA
ATOM      6  H   UNL A   1      30.988  29.516  27.485  1.00  0.00     0.163 HD
BRANCH   4   7
ATOM      7  C   UNL A   1      32.666  27.419  25.356  1.00  0.00     0.052 C 
ATOM      8  C   UNL A   1      30.487  27.549  24.040  1.00  0.00     0.013 C 
ATOM      9  C   UNL A   1      31.730  26.717  24.282  1.00  0.00    -0.007 C 
ATOM     10  C   UNL A   1      32.488  26.601  22.931  1.00  0.00     0.013 C 
ATOM     11  C   UNL A   1      31.390  25.271  24.853  1.00  0.00     0.053 C 
ATOM     12  C   UNL A   1      33.654  28.466  24.790  1.00  0.00     0.022 C 
ATOM     13  C   UNL A   1      33.516  26.210  25.843  1.00  0.00     0.018 C 
ATOM     14  C   UNL A   1      32.727  24.921  25.587  1.00  0.00     0.018 C 
ATOM     15  C   UNL A   1      30.286  25.214  25.924  1.00  0.00     0.022 C 
BRANCH  11  16
ATOM     16  C   UNL A   1      31.099  24.164  23.760  1.00  0.00     0.230 C 
ATOM     17  O   UNL A   1      30.035  24.181  23.124  1.00  0.00    -0.274 OA
ATOM     18  N   UNL A   1      31.896  23.081  23.491  1.00  0.00    -0.324 N 
ATOM     19  H   UNL A   1      31.432  22.368  22.995  1.00  0.00     0.170 HD
BRANCH  18  20
ATOM     20  C   UNL A   1      33.234  22.779  23.779  1.00  0.00     0.060 A 
ATOM     21  C   UNL A   1      34.261  23.490  23.155  1.00  0.00     0.029 A 
ATOM     22  C   UNL A   1      33.570  21.714  24.639  1.00  0.00     0.066 A 
ATOM     23  C   UNL A   1      35.595  23.250  23.500  1.00  0.00     0.023 A 
ATOM     24  C   UNL A   1      34.898  21.521  25.037  1.00  0.00     0.043 A 
ATOM     25  Cl  UNL A   1      32.364  20.711  25.364  1.00  0.00    -0.082 Cl
ATOM     26  C   UNL A   1      35.902  22.306  24.479  1.00  0.00     0.042 A 
ATOM     27  Cl  UNL A   1      37.527  22.119  25.010  1.00  0.00    -0.084 Cl
ENDBRANCH  18  20
ENDBRANCH  11  16
ENDBRANCH   4   7
ENDBRANCH   2   3
ENDBRANCH   1   2
BRANCH   1  28
ATOM     28  C   UNL A   1      32.666  32.445  26.912  1.00  0.00     0.118 C 
BRANCH  28  29
ATOM     29  N   UNL A   1      32.514  33.823  27.335  1.00  0.00    -0.352 N 
ATOM     30  C   UNL A   1      33.034  34.484  28.421  1.00  0.00     0.251 C 
ATOM     31  H   UNL A   1      31.948  34.375  26.749  1.00  0.00     0.163 HD
ATOM     32  O   UNL A   1      32.526  35.553  28.750  1.00  0.00    -0.269 OA
BRANCH  30  33
ATOM     33  C   UNL A   1      34.187  33.960  29.201  1.00  0.00     0.039 A 
ATOM     34  C   UNL A   1      35.478  34.297  28.771  1.00  0.00     0.014 A 
ATOM     35  C   UNL A   1      34.042  33.047  30.249  1.00  0.00     0.014 A 
ATOM     36  C   UNL A   1      36.601  33.722  29.375  1.00  0.00     0.010 A 
ATOM     37  C   UNL A   1      35.165  32.535  30.908  1.00  0.00     0.010 A 
ATOM     38  C   UNL A   1      36.457  32.833  30.451  1.00  0.00    -0.014 A 
BRANCH  38  39
ATOM     39  C   UNL A   1      37.646  32.154  31.038  1.00  0.00     0.031 A 
ATOM     40  C   UNL A   1      38.103  32.491  32.435  1.00  0.00     0.074 A 
ATOM     41  C   UNL A   1      38.323  31.234  30.323  1.00  0.00     0.049 A 
ATOM     42  N   UNL A   1      39.107  32.001  33.122  1.00  0.00    -0.248 NA
ATOM     43  C   UNL A   1      37.351  33.536  33.145  1.00  0.00     0.031 C 
ATOM     44  C   UNL A   1      38.022  30.847  28.946  1.00  0.00     0.029 A 
ATOM     45  N   UNL A   1      39.403  30.457  30.661  1.00  0.00    -0.354 N 
ATOM     46  C   UNL A   1      39.117  32.692  34.329  1.00  0.00     0.074 A 
ATOM     47  C   UNL A   1      38.051  33.668  34.261  1.00  0.00     0.031 C 
ATOM     48  C   UNL A   1      38.876  29.883  28.566  1.00  0.00     0.029 A 
ATOM     49  C   UNL A   1      39.798  29.600  29.662  1.00  0.00     0.049 A 
ATOM     50  H   UNL A   1      39.852  30.508  31.535  1.00  0.00     0.167 HD
ATOM     51  C   UNL A   1      39.922  32.516  35.405  1.00  0.00     0.037 A 
ATOM     52  C   UNL A   1      40.786  28.685  29.638  1.00  0.00     0.037 A 
ATOM     53  C   UNL A   1      40.954  31.517  35.495  1.00  0.00     0.049 A 
ATOM     54  C   UNL A   1      41.634  28.473  30.862  1.00  0.00     0.074 A 
ATOM     55  C   UNL A   1      41.779  31.221  36.568  1.00  0.00     0.029 A 
ATOM     56  N   UNL A   1      41.300  30.647  34.474  1.00  0.00    -0.354 N 
ATOM     57  N   UNL A   1      41.590  29.090  32.017  1.00  0.00    -0.248 NA
ATOM     58  C   UNL A   1      42.662  27.425  30.781  1.00  0.00     0.031 C 
ATOM     59  C   UNL A   1      42.646  30.191  36.183  1.00  0.00     0.029 A 
ATOM     60  C   UNL A   1      42.334  29.820  34.886  1.00  0.00     0.049 A 
ATOM     61  H   UNL A   1      40.873  30.619  33.586  1.00  0.00     0.167 HD
ATOM     62  C   UNL A   1      42.565  28.493  32.806  1.00  0.00     0.074 A 
ATOM     63  C   UNL A   1      43.172  27.452  32.004  1.00  0.00     0.031 C 
ATOM     64  C   UNL A   1      42.927  28.785  34.079  1.00  0.00     0.037 A 
BRANCH  51  65
ATOM     65  C   UNL A   1      39.711  33.426  36.580  1.00  0.00     0.064 A 
ATOM     66  C   UNL A   1      40.366  34.665  36.679  1.00  0.00     0.173 A 
ATOM     67  C   UNL A   1      38.824  33.070  37.607  1.00  0.00     0.173 A 
ATOM     68  F   UNL A   1      41.232  35.047  35.729  1.00  0.00    -0.203 F 
ATOM     69  C   UNL A   1      40.165  35.496  37.779  1.00  0.00     0.198 A 
ATOM     70  C   UNL A   1      38.605  33.917  38.691  1.00  0.00     0.198 A 
ATOM     71  F   UNL A   1      38.168  31.901  37.560  1.00  0.00    -0.203 F 
ATOM     72  F   UNL A   1      40.841  36.649  37.877  1.00  0.00    -0.200 F 
ATOM     73  C   UNL A   1      39.281  35.124  38.780  1.00  0.00     0.200 A 
ATOM     74  F   UNL A   1      37.741  33.562  39.652  1.00  0.00    -0.200 F 
ATOM     75  F   UNL A   1      39.087  35.926  39.836  1.00  0.00    -0.200 F 
ENDBRANCH  51  65
BRANCH  52  76
ATOM     76  C   UNL A   1      40.995  27.861  28.420  1.00  0.00     0.064 A 
ATOM     77  C   UNL A   1      41.897  28.266  27.426  1.00  0.00     0.173 A 
ATOM     78  C   UNL A   1      40.303  26.658  28.226  1.00  0.00     0.173 A 
ATOM     79  F   UNL A   1      42.565  29.422  27.557  1.00  0.00    -0.203 F 
ATOM     80  C   UNL A   1      42.086  27.505  26.274  1.00  0.00     0.198 A 
ATOM     81  C   UNL A   1      40.512  25.885  27.086  1.00  0.00     0.198 A 
ATOM     82  F   UNL A   1      39.432  26.228  29.150  1.00  0.00    -0.203 F 
ATOM     83  F   UNL A   1      42.925  27.935  25.321  1.00  0.00    -0.200 F 
ATOM     84  C   UNL A   1      41.398  26.312  26.108  1.00  0.00     0.200 A 
ATOM     85  F   UNL A   1      39.855  24.728  26.933  1.00  0.00    -0.200 F 
ATOM     86  F   UNL A   1      41.585  25.578  25.003  1.00  0.00    -0.200 F 
ENDBRANCH  52  76
BRANCH  64  87
ATOM     87  C   UNL A   1      44.013  27.950  34.691  1.00  0.00     0.064 A 
ATOM     88  C   UNL A   1      45.360  28.331  34.621  1.00  0.00     0.173 A 
ATOM     89  C   UNL A   1      43.700  26.762  35.370  1.00  0.00     0.173 A 
ATOM     90  F   UNL A   1      45.712  29.450  33.970  1.00  0.00    -0.203 F 
ATOM     91  C   UNL A   1      46.358  27.538  35.181  1.00  0.00     0.198 A 
ATOM     92  C   UNL A   1      44.697  25.986  35.952  1.00  0.00     0.198 A 
ATOM     93  F   UNL A   1      42.425  26.357  35.470  1.00  0.00    -0.203 F 
ATOM     94  F   UNL A   1      47.645  27.896  35.057  1.00  0.00    -0.200 F 
ATOM     95  C   UNL A   1      46.026  26.369  35.849  1.00  0.00     0.200 A 
ATOM     96  F   UNL A   1      44.375  24.862  36.606  1.00  0.00    -0.200 F 
ATOM     97  F   UNL A   1      46.989  25.606  36.386  1.00  0.00    -0.200 F 
ENDBRANCH  64  87
ENDBRANCH  38  39
ENDBRANCH  30  33
ENDBRANCH  28  29
ENDBRANCH   1  28
TORSDOF 12
ENDMDL
