MODEL 1
REMARK VINA RESULT:     -12.2      0.000      0.000
REMARK SMILES C[C@@H]1[C@@H](C(=O)NCCCNC(=O)c2ccc(-c3c4nc(c(-c5c(F)c(F)c(F)c(F)c5F)c5ccc([nH]5)c(-c5c(F)c(F)c(F)c(F)c5F)c5nc(c(-c6c(F)c(F)c(F)c(F)c6F)c6ccc3[nH]6)C=C5)C=C4)cc2)CCN1C(=O)[C@]1([NH3+])CCOC1
REMARK SMILES IDX 7 1 6 2 4 3 5 4 3 6 1 7 2 8 78 9 76 10 77 11 79 12 80 13
REMARK SMILES IDX 81 14 83 15 86 16 84 17 85 18 82 19 8 23 9 24 10 25 11 26
REMARK SMILES IDX 12 28 13 29 14 30 75 31 15 32 74 33 16 34 17 35 18 36 68 37
REMARK SMILES IDX 19 38 73 39 67 40 69 41 20 42 72 43 66 44 65 45 21 47 53 48
REMARK SMILES IDX 33 49 52 50 34 51 37 52 51 53 70 54 35 55 36 56 50 58 71 59
REMARK SMILES IDX 38 60 22 61 23 62 31 63 24 64 25 65 29 66 32 67 26 68 27 69
REMARK SMILES IDX 30 70 28 71 54 72 55 73 63 74 56 75 57 76 61 77 64 78 58 79
REMARK SMILES IDX 59 80 62 81 60 82 39 83 40 84 48 85 41 86 42 87 46 88 49 89
REMARK SMILES IDX 43 90 44 91 47 92 45 93
REMARK H PARENT 6 5 82 20 82 21 82 22 10 27 69 46 37 57
REMARK Flexibility Score: inf
ROOT
ATOM      1  C   UNL A   1      36.851  20.856  24.772  1.00  0.00     0.117 C 
ENDROOT
BRANCH   1   2
ATOM      2  N   UNL A   1      35.978  21.021  25.919  1.00  0.00    -0.356 N 
ATOM      3  C   UNL A   1      35.027  21.960  26.173  1.00  0.00     0.225 C 
ATOM      4  O   UNL A   1      34.397  21.862  27.226  1.00  0.00    -0.275 OA
ATOM      5  H   UNL A   1      36.093  20.345  26.626  1.00  0.00     0.163 HD
BRANCH   3   6
ATOM      6  C   UNL A   1      34.758  23.054  25.150  1.00  0.00     0.102 C 
ATOM      7  C   UNL A   1      34.298  25.505  24.949  1.00  0.00     0.032 C 
ATOM      8  C   UNL A   1      33.973  24.236  25.749  1.00  0.00     0.094 C 
ATOM      9  N   UNL A   1      32.563  23.861  25.586  1.00  0.00    -0.334 N 
ATOM     10  C   UNL A   1      33.832  22.565  24.034  1.00  0.00     0.037 C 
ATOM     11  C   UNL A   1      32.439  22.788  24.600  1.00  0.00     0.121 C 
BRANCH   9  12
ATOM     12  C   UNL A   1      31.422  24.239  26.262  1.00  0.00     0.286 C 
ATOM     13  O   UNL A   1      31.110  23.611  27.290  1.00  0.00    -0.267 OA
BRANCH  12  14
ATOM     14  C   UNL A   1      30.497  25.448  25.853  1.00  0.00     0.199 C 
ATOM     15  C   UNL A   1      30.256  25.620  24.368  1.00  0.00     0.110 C 
ATOM     16  C   UNL A   1      31.032  26.802  26.309  1.00  0.00     0.239 C 
ATOM     17  C   UNL A   1      31.008  26.873  23.974  1.00  0.00     0.167 C 
ATOM     18  O   UNL A   1      31.472  27.532  25.152  1.00  0.00    -0.374 OA
BRANCH  14  19
ATOM     19  N   UNL A   1      29.161  25.202  26.501  1.00  0.00    -0.343 N 
ATOM     20  H   UNL A   1      28.991  24.198  26.556  1.00  0.00     0.345 HD
ATOM     21  H   UNL A   1      28.428  25.642  25.946  1.00  0.00     0.345 HD
ATOM     22  H   UNL A   1      29.161  25.599  27.440  1.00  0.00     0.345 HD
ENDBRANCH  14  19
ENDBRANCH  12  14
ENDBRANCH   9  12
ENDBRANCH   3   6
ENDBRANCH   1   2
BRANCH   1  23
ATOM     23  C   UNL A   1      37.894  19.768  25.001  1.00  0.00     0.042 C 
BRANCH  23  24
ATOM     24  C   UNL A   1      39.126  20.221  25.780  1.00  0.00     0.118 C 
BRANCH  24  25
ATOM     25  N   UNL A   1      40.143  19.187  25.901  1.00  0.00    -0.352 N 
ATOM     26  C   UNL A   1      41.496  19.295  26.125  1.00  0.00     0.251 C 
ATOM     27  H   UNL A   1      39.811  18.264  25.810  1.00  0.00     0.163 HD
ATOM     28  O   UNL A   1      42.205  18.298  26.048  1.00  0.00    -0.269 OA
BRANCH  26  29
ATOM     29  C   UNL A   1      42.109  20.609  26.423  1.00  0.00     0.039 A 
ATOM     30  C   UNL A   1      42.543  21.404  25.358  1.00  0.00     0.014 A 
ATOM     31  C   UNL A   1      42.271  21.057  27.736  1.00  0.00     0.014 A 
ATOM     32  C   UNL A   1      43.067  22.676  25.606  1.00  0.00     0.010 A 
ATOM     33  C   UNL A   1      42.717  22.356  27.977  1.00  0.00     0.010 A 
ATOM     34  C   UNL A   1      43.116  23.181  26.915  1.00  0.00    -0.014 A 
BRANCH  34  35
ATOM     35  C   UNL A   1      43.568  24.571  27.188  1.00  0.00     0.031 A 
ATOM     36  C   UNL A   1      42.598  25.604  27.693  1.00  0.00     0.074 A 
ATOM     37  C   UNL A   1      44.842  24.921  26.923  1.00  0.00     0.049 A 
ATOM     38  N   UNL A   1      42.789  26.879  27.925  1.00  0.00    -0.248 NA
ATOM     39  C   UNL A   1      41.222  25.149  27.948  1.00  0.00     0.031 C 
ATOM     40  C   UNL A   1      45.871  24.026  26.391  1.00  0.00     0.029 A 
ATOM     41  N   UNL A   1      45.488  26.126  27.053  1.00  0.00    -0.354 N 
ATOM     42  C   UNL A   1      41.562  27.377  28.342  1.00  0.00     0.074 A 
ATOM     43  C   UNL A   1      40.619  26.282  28.276  1.00  0.00     0.031 C 
ATOM     44  C   UNL A   1      47.023  24.704  26.265  1.00  0.00     0.029 A 
ATOM     45  C   UNL A   1      46.805  26.093  26.661  1.00  0.00     0.049 A 
ATOM     46  H   UNL A   1      45.049  26.938  27.395  1.00  0.00     0.167 HD
ATOM     47  C   UNL A   1      41.255  28.627  28.762  1.00  0.00     0.037 A 
ATOM     48  C   UNL A   1      47.729  27.071  26.614  1.00  0.00     0.037 A 
ATOM     49  C   UNL A   1      42.199  29.713  28.838  1.00  0.00     0.049 A 
ATOM     50  C   UNL A   1      47.352  28.460  27.059  1.00  0.00     0.074 A 
ATOM     51  C   UNL A   1      41.997  31.002  29.299  1.00  0.00     0.029 A 
ATOM     52  N   UNL A   1      43.525  29.638  28.435  1.00  0.00    -0.354 N 
ATOM     53  N   UNL A   1      46.207  28.901  27.516  1.00  0.00    -0.248 NA
ATOM     54  C   UNL A   1      48.403  29.484  26.985  1.00  0.00     0.031 C 
ATOM     55  C   UNL A   1      43.182  31.723  29.120  1.00  0.00     0.029 A 
ATOM     56  C   UNL A   1      44.143  30.866  28.611  1.00  0.00     0.049 A 
ATOM     57  H   UNL A   1      43.962  28.831  28.077  1.00  0.00     0.167 HD
ATOM     58  C   UNL A   1      46.406  30.243  27.814  1.00  0.00     0.074 A 
ATOM     59  C   UNL A   1      47.788  30.539  27.502  1.00  0.00     0.031 C 
ATOM     60  C   UNL A   1      45.524  31.147  28.306  1.00  0.00     0.037 A 
BRANCH  47  61
ATOM     61  C   UNL A   1      39.835  28.893  29.176  1.00  0.00     0.064 A 
ATOM     62  C   UNL A   1      38.871  29.339  28.258  1.00  0.00     0.173 A 
ATOM     63  C   UNL A   1      39.421  28.659  30.496  1.00  0.00     0.173 A 
ATOM     64  F   UNL A   1      39.214  29.586  26.985  1.00  0.00    -0.203 F 
ATOM     65  C   UNL A   1      37.556  29.572  28.654  1.00  0.00     0.198 A 
ATOM     66  C   UNL A   1      38.097  28.860  30.880  1.00  0.00     0.198 A 
ATOM     67  F   UNL A   1      40.298  28.225  31.414  1.00  0.00    -0.203 F 
ATOM     68  F   UNL A   1      36.667  30.048  27.771  1.00  0.00    -0.200 F 
ATOM     69  C   UNL A   1      37.169  29.325  29.961  1.00  0.00     0.200 A 
ATOM     70  F   UNL A   1      37.720  28.604  32.141  1.00  0.00    -0.200 F 
ATOM     71  F   UNL A   1      35.900  29.539  30.338  1.00  0.00    -0.200 F 
ENDBRANCH  47  61
BRANCH  48  72
ATOM     72  C   UNL A   1      49.108  26.771  26.145  1.00  0.00     0.064 A 
ATOM     73  C   UNL A   1      50.081  26.286  27.031  1.00  0.00     0.173 A 
ATOM     74  C   UNL A   1      49.488  26.976  24.810  1.00  0.00     0.173 A 
ATOM     75  F   UNL A   1      49.773  26.093  28.322  1.00  0.00    -0.203 F 
ATOM     76  C   UNL A   1      51.385  26.042  26.607  1.00  0.00     0.198 A 
ATOM     77  C   UNL A   1      50.784  26.699  24.380  1.00  0.00     0.198 A 
ATOM     78  F   UNL A   1      48.596  27.434  23.919  1.00  0.00    -0.203 F 
ATOM     79  F   UNL A   1      52.307  25.630  27.488  1.00  0.00    -0.200 F 
ATOM     80  C   UNL A   1      51.734  26.242  25.280  1.00  0.00     0.200 A 
ATOM     81  F   UNL A   1      51.113  26.878  23.093  1.00  0.00    -0.200 F 
ATOM     82  F   UNL A   1      52.988  26.003  24.872  1.00  0.00    -0.200 F 
ENDBRANCH  48  72
BRANCH  60  83
ATOM     83  C   UNL A   1      46.034  32.534  28.581  1.00  0.00     0.064 A 
ATOM     84  C   UNL A   1      46.616  32.879  29.810  1.00  0.00     0.173 A 
ATOM     85  C   UNL A   1      45.975  33.520  27.584  1.00  0.00     0.173 A 
ATOM     86  F   UNL A   1      46.685  31.978  30.803  1.00  0.00    -0.203 F 
ATOM     87  C   UNL A   1      47.091  34.168  30.040  1.00  0.00     0.198 A 
ATOM     88  C   UNL A   1      46.483  34.796  27.806  1.00  0.00     0.198 A 
ATOM     89  F   UNL A   1      45.436  33.241  26.388  1.00  0.00    -0.203 F 
ATOM     90  F   UNL A   1      47.593  34.489  31.241  1.00  0.00    -0.200 F 
ATOM     91  C   UNL A   1      47.032  35.122  29.037  1.00  0.00     0.200 A 
ATOM     92  F   UNL A   1      46.440  35.712  26.829  1.00  0.00    -0.200 F 
ATOM     93  F   UNL A   1      47.499  36.359  29.258  1.00  0.00    -0.200 F 
ENDBRANCH  60  83
ENDBRANCH  34  35
ENDBRANCH  26  29
ENDBRANCH  24  25
ENDBRANCH  23  24
ENDBRANCH   1  23
TORSDOF 13
ENDMDL
MODEL 2
REMARK VINA RESULT:     -12.2      5.625     11.127
REMARK SMILES C[C@@H]1[C@@H](C(=O)NCCCNC(=O)c2ccc(-c3c4nc(c(-c5c(F)c(F)c(F)c(F)c5F)c5ccc([nH]5)c(-c5c(F)c(F)c(F)c(F)c5F)c5nc(c(-c6c(F)c(F)c(F)c(F)c6F)c6ccc3[nH]6)C=C5)C=C4)cc2)CCN1C(=O)[C@]1([NH3+])CCOC1
REMARK SMILES IDX 7 1 6 2 4 3 5 4 3 6 1 7 2 8 78 9 76 10 77 11 79 12 80 13
REMARK SMILES IDX 81 14 83 15 86 16 84 17 85 18 82 19 8 23 9 24 10 25 11 26
REMARK SMILES IDX 12 28 13 29 14 30 75 31 15 32 74 33 16 34 17 35 18 36 68 37
REMARK SMILES IDX 19 38 73 39 67 40 69 41 20 42 72 43 66 44 65 45 21 47 53 48
REMARK SMILES IDX 33 49 52 50 34 51 37 52 51 53 70 54 35 55 36 56 50 58 71 59
REMARK SMILES IDX 38 60 22 61 23 62 31 63 24 64 25 65 29 66 32 67 26 68 27 69
REMARK SMILES IDX 30 70 28 71 54 72 55 73 63 74 56 75 57 76 61 77 64 78 58 79
REMARK SMILES IDX 59 80 62 81 60 82 39 83 40 84 48 85 41 86 42 87 46 88 49 89
REMARK SMILES IDX 43 90 44 91 47 92 45 93
REMARK H PARENT 6 5 82 20 82 21 82 22 10 27 69 46 37 57
REMARK Flexibility Score: inf
ROOT
ATOM      1  C   UNL A   1      31.682  30.795  25.977  1.00  0.00     0.117 C 
ENDROOT
BRANCH   1   2
ATOM      2  N   UNL A   1      31.709  29.738  26.970  1.00  0.00    -0.356 N 
ATOM      3  C   UNL A   1      31.569  28.392  26.827  1.00  0.00     0.225 C 
ATOM      4  O   UNL A   1      31.659  27.699  27.840  1.00  0.00    -0.275 OA
ATOM      5  H   UNL A   1      31.853  30.044  27.895  1.00  0.00     0.163 HD
BRANCH   3   6
ATOM      6  C   UNL A   1      31.344  27.802  25.443  1.00  0.00     0.102 C 
ATOM      7  C   UNL A   1      29.854  26.244  24.173  1.00  0.00     0.032 C 
ATOM      8  C   UNL A   1      30.608  26.450  25.493  1.00  0.00     0.094 C 
ATOM      9  N   UNL A   1      31.678  25.455  25.646  1.00  0.00    -0.334 N 
ATOM     10  C   UNL A   1      32.668  27.440  24.764  1.00  0.00     0.037 C 
ATOM     11  C   UNL A   1      32.967  26.043  25.282  1.00  0.00     0.121 C 
BRANCH   9  12
ATOM     12  C   UNL A   1      31.685  24.179  26.167  1.00  0.00     0.286 C 
ATOM     13  O   UNL A   1      31.384  24.029  27.366  1.00  0.00    -0.267 OA
BRANCH  12  14
ATOM     14  C   UNL A   1      32.005  22.875  25.342  1.00  0.00     0.199 C 
ATOM     15  C   UNL A   1      33.467  22.489  25.262  1.00  0.00     0.110 C 
ATOM     16  C   UNL A   1      31.553  22.952  23.887  1.00  0.00     0.239 C 
ATOM     17  C   UNL A   1      33.880  22.745  23.829  1.00  0.00     0.167 C 
ATOM     18  O   UNL A   1      32.720  23.041  23.052  1.00  0.00    -0.374 OA
BRANCH  14  19
ATOM     19  N   UNL A   1      31.278  21.748  26.025  1.00  0.00    -0.343 N 
ATOM     20  H   UNL A   1      30.992  22.044  26.958  1.00  0.00     0.345 HD
ATOM     21  H   UNL A   1      31.895  20.940  26.098  1.00  0.00     0.345 HD
ATOM     22  H   UNL A   1      30.452  21.497  25.480  1.00  0.00     0.345 HD
ENDBRANCH  14  19
ENDBRANCH  12  14
ENDBRANCH   9  12
ENDBRANCH   3   6
ENDBRANCH   1   2
BRANCH   1  23
ATOM     23  C   UNL A   1      31.396  32.156  26.601  1.00  0.00     0.042 C 
BRANCH  23  24
ATOM     24  C   UNL A   1      32.601  32.820  27.262  1.00  0.00     0.118 C 
BRANCH  24  25
ATOM     25  N   UNL A   1      32.356  34.200  27.653  1.00  0.00    -0.352 N 
ATOM     26  C   UNL A   1      32.970  34.973  28.610  1.00  0.00     0.251 C 
ATOM     27  H   UNL A   1      31.639  34.653  27.152  1.00  0.00     0.163 HD
ATOM     28  O   UNL A   1      32.513  36.077  28.883  1.00  0.00    -0.269 OA
BRANCH  26  29
ATOM     29  C   UNL A   1      34.157  34.471  29.339  1.00  0.00     0.039 A 
ATOM     30  C   UNL A   1      33.972  33.868  30.587  1.00  0.00     0.014 A 
ATOM     31  C   UNL A   1      35.444  34.601  28.814  1.00  0.00     0.014 A 
ATOM     32  C   UNL A   1      35.066  33.327  31.268  1.00  0.00     0.010 A 
ATOM     33  C   UNL A   1      36.521  33.990  29.454  1.00  0.00     0.010 A 
ATOM     34  C   UNL A   1      36.344  33.344  30.687  1.00  0.00    -0.014 A 
BRANCH  34  35
ATOM     35  C   UNL A   1      37.499  32.678  31.346  1.00  0.00     0.031 A 
ATOM     36  C   UNL A   1      38.207  31.534  30.674  1.00  0.00     0.074 A 
ATOM     37  C   UNL A   1      37.874  33.066  32.582  1.00  0.00     0.049 A 
ATOM     38  N   UNL A   1      39.188  30.789  31.119  1.00  0.00    -0.248 NA
ATOM     39  C   UNL A   1      37.733  31.162  29.331  1.00  0.00     0.031 C 
ATOM     40  C   UNL A   1      37.243  34.133  33.360  1.00  0.00     0.029 A 
ATOM     41  N   UNL A   1      38.868  32.599  33.406  1.00  0.00    -0.354 N 
ATOM     42  C   UNL A   1      39.440  29.859  30.119  1.00  0.00     0.074 A 
ATOM     43  C   UNL A   1      38.473  30.095  29.069  1.00  0.00     0.031 C 
ATOM     44  C   UNL A   1      37.880  34.256  34.535  1.00  0.00     0.029 A 
ATOM     45  C   UNL A   1      38.933  33.248  34.615  1.00  0.00     0.049 A 
ATOM     46  H   UNL A   1      39.477  31.867  33.154  1.00  0.00     0.167 HD
ATOM     47  C   UNL A   1      40.405  28.909  30.071  1.00  0.00     0.037 A 
ATOM     48  C   UNL A   1      39.741  33.047  35.674  1.00  0.00     0.037 A 
ATOM     49  C   UNL A   1      41.374  28.684  31.113  1.00  0.00     0.049 A 
ATOM     50  C   UNL A   1      40.785  31.963  35.606  1.00  0.00     0.074 A 
ATOM     51  C   UNL A   1      42.422  27.780  31.136  1.00  0.00     0.029 A 
ATOM     52  N   UNL A   1      41.409  29.365  32.321  1.00  0.00    -0.354 N 
ATOM     53  N   UNL A   1      41.058  31.136  34.628  1.00  0.00    -0.248 NA
ATOM     54  C   UNL A   1      41.636  31.792  36.791  1.00  0.00     0.031 C 
ATOM     55  C   UNL A   1      43.055  27.872  32.379  1.00  0.00     0.029 A 
ATOM     56  C   UNL A   1      42.444  28.881  33.107  1.00  0.00     0.049 A 
ATOM     57  H   UNL A   1      40.791  30.085  32.583  1.00  0.00     0.167 HD
ATOM     58  C   UNL A   1      42.131  30.370  35.064  1.00  0.00     0.074 A 
ATOM     59  C   UNL A   1      42.469  30.842  36.390  1.00  0.00     0.031 C 
ATOM     60  C   UNL A   1      42.779  29.366  34.422  1.00  0.00     0.037 A 
BRANCH  47  61
ATOM     61  C   UNL A   1      40.462  28.036  28.849  1.00  0.00     0.064 A 
ATOM     62  C   UNL A   1      41.232  28.387  27.728  1.00  0.00     0.173 A 
ATOM     63  C   UNL A   1      39.774  26.814  28.813  1.00  0.00     0.173 A 
ATOM     64  F   UNL A   1      41.903  29.548  27.707  1.00  0.00    -0.203 F 
ATOM     65  C   UNL A   1      41.283  27.563  26.606  1.00  0.00     0.198 A 
ATOM     66  C   UNL A   1      39.855  25.977  27.703  1.00  0.00     0.198 A 
ATOM     67  F   UNL A   1      39.030  26.425  29.859  1.00  0.00    -0.203 F 
ATOM     68  F   UNL A   1      41.982  27.945  25.529  1.00  0.00    -0.200 F 
ATOM     69  C   UNL A   1      40.602  26.356  26.598  1.00  0.00     0.200 A 
ATOM     70  F   UNL A   1      39.210  24.802  27.702  1.00  0.00    -0.200 F 
ATOM     71  F   UNL A   1      40.661  25.560  25.521  1.00  0.00    -0.200 F 
ENDBRANCH  47  61
BRANCH  48  72
ATOM     72  C   UNL A   1      39.610  33.901  36.884  1.00  0.00     0.064 A 
ATOM     73  C   UNL A   1      38.836  33.485  37.978  1.00  0.00     0.173 A 
ATOM     74  C   UNL A   1      40.240  35.151  36.970  1.00  0.00     0.173 A 
ATOM     75  F   UNL A   1      38.197  32.307  37.936  1.00  0.00    -0.203 F 
ATOM     76  C   UNL A   1      38.677  34.298  39.098  1.00  0.00     0.198 A 
ATOM     77  C   UNL A   1      40.107  35.948  38.105  1.00  0.00     0.198 A 
ATOM     78  F   UNL A   1      40.996  35.595  35.956  1.00  0.00    -0.203 F 
ATOM     79  F   UNL A   1      37.887  33.899  40.105  1.00  0.00    -0.200 F 
ATOM     80  C   UNL A   1      39.317  35.526  39.164  1.00  0.00     0.200 A 
ATOM     81  F   UNL A   1      40.741  37.127  38.172  1.00  0.00    -0.200 F 
ATOM     82  F   UNL A   1      39.166  36.305  40.244  1.00  0.00    -0.200 F 
ENDBRANCH  48  72
BRANCH  60  83
ATOM     83  C   UNL A   1      43.951  28.738  35.124  1.00  0.00     0.064 A 
ATOM     84  C   UNL A   1      43.797  27.646  35.990  1.00  0.00     0.173 A 
ATOM     85  C   UNL A   1      45.251  29.215  34.895  1.00  0.00     0.173 A 
ATOM     86  F   UNL A   1      42.574  27.159  36.256  1.00  0.00    -0.203 F 
ATOM     87  C   UNL A   1      44.898  27.073  36.623  1.00  0.00     0.198 A 
ATOM     88  C   UNL A   1      46.352  28.619  35.502  1.00  0.00     0.198 A 
ATOM     89  F   UNL A   1      45.455  30.253  34.071  1.00  0.00    -0.203 F 
ATOM     90  F   UNL A   1      44.720  26.065  37.488  1.00  0.00    -0.200 F 
ATOM     91  C   UNL A   1      46.174  27.554  36.373  1.00  0.00     0.200 A 
ATOM     92  F   UNL A   1      47.585  29.074  35.246  1.00  0.00    -0.200 F 
ATOM     93  F   UNL A   1      47.232  26.996  36.977  1.00  0.00    -0.200 F 
ENDBRANCH  60  83
ENDBRANCH  34  35
ENDBRANCH  26  29
ENDBRANCH  24  25
ENDBRANCH  23  24
ENDBRANCH   1  23
TORSDOF 13
ENDMDL
MODEL 3
REMARK VINA RESULT:     -12.1      5.676     11.214
REMARK SMILES C[C@@H]1[C@@H](C(=O)NCCCNC(=O)c2ccc(-c3c4nc(c(-c5c(F)c(F)c(F)c(F)c5F)c5ccc([nH]5)c(-c5c(F)c(F)c(F)c(F)c5F)c5nc(c(-c6c(F)c(F)c(F)c(F)c6F)c6ccc3[nH]6)C=C5)C=C4)cc2)CCN1C(=O)[C@]1([NH3+])CCOC1
REMARK SMILES IDX 7 1 6 2 4 3 5 4 3 6 1 7 2 8 78 9 76 10 77 11 79 12 80 13
REMARK SMILES IDX 81 14 83 15 86 16 84 17 85 18 82 19 8 23 9 24 10 25 11 26
REMARK SMILES IDX 12 28 13 29 14 30 75 31 15 32 74 33 16 34 17 35 18 36 68 37
REMARK SMILES IDX 19 38 73 39 67 40 69 41 20 42 72 43 66 44 65 45 21 47 53 48
REMARK SMILES IDX 33 49 52 50 34 51 37 52 51 53 70 54 35 55 36 56 50 58 71 59
REMARK SMILES IDX 38 60 22 61 23 62 31 63 24 64 25 65 29 66 32 67 26 68 27 69
REMARK SMILES IDX 30 70 28 71 54 72 55 73 63 74 56 75 57 76 61 77 64 78 58 79
REMARK SMILES IDX 59 80 62 81 60 82 39 83 40 84 48 85 41 86 42 87 46 88 49 89
REMARK SMILES IDX 43 90 44 91 47 92 45 93
REMARK H PARENT 6 5 82 20 82 21 82 22 10 27 69 46 37 57
REMARK Flexibility Score: inf
ROOT
ATOM      1  C   UNL A   1      31.775  30.736  26.166  1.00  0.00     0.117 C 
ENDROOT
BRANCH   1   2
ATOM      2  N   UNL A   1      31.676  29.661  27.134  1.00  0.00    -0.356 N 
ATOM      3  C   UNL A   1      31.508  28.323  26.950  1.00  0.00     0.225 C 
ATOM      4  O   UNL A   1      31.480  27.609  27.951  1.00  0.00    -0.275 OA
ATOM      5  H   UNL A   1      31.741  29.945  28.075  1.00  0.00     0.163 HD
BRANCH   3   6
ATOM      6  C   UNL A   1      31.397  27.767  25.538  1.00  0.00     0.102 C 
ATOM      7  C   UNL A   1      30.032  26.221  24.121  1.00  0.00     0.032 C 
ATOM      8  C   UNL A   1      30.682  26.403  25.499  1.00  0.00     0.094 C 
ATOM      9  N   UNL A   1      31.754  25.421  25.706  1.00  0.00    -0.334 N 
ATOM     10  C   UNL A   1      32.773  27.443  24.952  1.00  0.00     0.037 C 
ATOM     11  C   UNL A   1      33.056  26.037  25.455  1.00  0.00     0.121 C 
BRANCH   9  12
ATOM     12  C   UNL A   1      31.743  24.131  26.195  1.00  0.00     0.286 C 
ATOM     13  O   UNL A   1      31.412  23.952  27.381  1.00  0.00    -0.267 OA
BRANCH  12  14
ATOM     14  C   UNL A   1      32.078  22.848  25.344  1.00  0.00     0.199 C 
ATOM     15  C   UNL A   1      33.545  22.479  25.259  1.00  0.00     0.110 C 
ATOM     16  C   UNL A   1      31.628  22.949  23.890  1.00  0.00     0.239 C 
ATOM     17  C   UNL A   1      33.957  22.769  23.832  1.00  0.00     0.167 C 
ATOM     18  O   UNL A   1      32.795  23.067  23.059  1.00  0.00    -0.374 OA
BRANCH  14  19
ATOM     19  N   UNL A   1      31.363  21.700  26.003  1.00  0.00    -0.343 N 
ATOM     20  H   UNL A   1      31.897  21.387  26.813  1.00  0.00     0.345 HD
ATOM     21  H   UNL A   1      31.270  20.931  25.339  1.00  0.00     0.345 HD
ATOM     22  H   UNL A   1      30.437  22.004  26.303  1.00  0.00     0.345 HD
ENDBRANCH  14  19
ENDBRANCH  12  14
ENDBRANCH   9  12
ENDBRANCH   3   6
ENDBRANCH   1   2
BRANCH   1  23
ATOM     23  C   UNL A   1      31.491  32.097  26.794  1.00  0.00     0.042 C 
BRANCH  23  24
ATOM     24  C   UNL A   1      32.733  32.880  27.209  1.00  0.00     0.118 C 
BRANCH  24  25
ATOM     25  N   UNL A   1      32.439  34.236  27.648  1.00  0.00    -0.352 N 
ATOM     26  C   UNL A   1      33.008  34.986  28.650  1.00  0.00     0.251 C 
ATOM     27  H   UNL A   1      31.721  34.688  27.148  1.00  0.00     0.163 HD
ATOM     28  O   UNL A   1      32.513  36.065  28.955  1.00  0.00    -0.269 OA
BRANCH  26  29
ATOM     29  C   UNL A   1      34.192  34.488  29.387  1.00  0.00     0.039 A 
ATOM     30  C   UNL A   1      34.000  33.879  30.630  1.00  0.00     0.014 A 
ATOM     31  C   UNL A   1      35.483  34.628  28.873  1.00  0.00     0.014 A 
ATOM     32  C   UNL A   1      35.092  33.342  31.319  1.00  0.00     0.010 A 
ATOM     33  C   UNL A   1      36.559  34.022  29.520  1.00  0.00     0.010 A 
ATOM     34  C   UNL A   1      36.374  33.369  30.749  1.00  0.00    -0.014 A 
BRANCH  34  35
ATOM     35  C   UNL A   1      37.528  32.708  31.415  1.00  0.00     0.031 A 
ATOM     36  C   UNL A   1      38.241  31.563  30.749  1.00  0.00     0.074 A 
ATOM     37  C   UNL A   1      37.897  33.100  32.651  1.00  0.00     0.049 A 
ATOM     38  N   UNL A   1      39.221  30.821  31.201  1.00  0.00    -0.248 NA
ATOM     39  C   UNL A   1      37.774  31.186  29.406  1.00  0.00     0.031 C 
ATOM     40  C   UNL A   1      37.261  34.168  33.423  1.00  0.00     0.029 A 
ATOM     41  N   UNL A   1      38.889  32.638  33.481  1.00  0.00    -0.354 N 
ATOM     42  C   UNL A   1      39.480  29.888  30.206  1.00  0.00     0.074 A 
ATOM     43  C   UNL A   1      38.517  30.119  29.151  1.00  0.00     0.031 C 
ATOM     44  C   UNL A   1      37.893  34.297  34.600  1.00  0.00     0.029 A 
ATOM     45  C   UNL A   1      38.948  33.291  34.688  1.00  0.00     0.049 A 
ATOM     46  H   UNL A   1      39.500  31.907  33.233  1.00  0.00     0.167 HD
ATOM     47  C   UNL A   1      40.447  28.940  30.165  1.00  0.00     0.037 A 
ATOM     48  C   UNL A   1      39.752  33.095  35.751  1.00  0.00     0.037 A 
ATOM     49  C   UNL A   1      41.412  28.720  31.211  1.00  0.00     0.049 A 
ATOM     50  C   UNL A   1      40.798  32.013  35.691  1.00  0.00     0.074 A 
ATOM     51  C   UNL A   1      42.462  27.819  31.242  1.00  0.00     0.029 A 
ATOM     52  N   UNL A   1      41.441  29.405  32.417  1.00  0.00    -0.354 N 
ATOM     53  N   UNL A   1      41.076  31.184  34.716  1.00  0.00    -0.248 NA
ATOM     54  C   UNL A   1      41.644  31.847  36.880  1.00  0.00     0.031 C 
ATOM     55  C   UNL A   1      43.089  27.916  32.488  1.00  0.00     0.029 A 
ATOM     56  C   UNL A   1      42.473  28.926  33.209  1.00  0.00     0.049 A 
ATOM     57  H   UNL A   1      40.820  30.125  32.674  1.00  0.00     0.167 HD
ATOM     58  C   UNL A   1      42.149  30.421  35.160  1.00  0.00     0.074 A 
ATOM     59  C   UNL A   1      42.481  30.898  36.486  1.00  0.00     0.031 C 
ATOM     60  C   UNL A   1      42.801  29.416  34.524  1.00  0.00     0.037 A 
BRANCH  47  61
ATOM     61  C   UNL A   1      40.511  28.064  28.946  1.00  0.00     0.064 A 
ATOM     62  C   UNL A   1      39.786  26.865  28.860  1.00  0.00     0.173 A 
ATOM     63  C   UNL A   1      41.274  28.447  27.832  1.00  0.00     0.173 A 
ATOM     64  F   UNL A   1      39.046  26.447  29.899  1.00  0.00    -0.203 F 
ATOM     65  C   UNL A   1      39.847  26.068  27.719  1.00  0.00     0.198 A 
ATOM     66  C   UNL A   1      41.305  27.664  26.680  1.00  0.00     0.198 A 
ATOM     67  F   UNL A   1      41.981  29.586  27.854  1.00  0.00    -0.203 F 
ATOM     68  F   UNL A   1      39.187  24.902  27.683  1.00  0.00    -0.200 F 
ATOM     69  C   UNL A   1      40.600  26.472  26.628  1.00  0.00     0.200 A 
ATOM     70  F   UNL A   1      42.020  28.065  25.619  1.00  0.00    -0.200 F 
ATOM     71  F   UNL A   1      40.650  25.709  25.528  1.00  0.00    -0.200 F 
ENDBRANCH  47  61
BRANCH  48  72
ATOM     72  C   UNL A   1      39.614  33.953  36.958  1.00  0.00     0.064 A 
ATOM     73  C   UNL A   1      38.847  33.533  38.055  1.00  0.00     0.173 A 
ATOM     74  C   UNL A   1      40.229  35.211  37.037  1.00  0.00     0.173 A 
ATOM     75  F   UNL A   1      38.221  32.348  38.020  1.00  0.00    -0.203 F 
ATOM     76  C   UNL A   1      38.681  34.349  39.172  1.00  0.00     0.198 A 
ATOM     77  C   UNL A   1      40.090  36.011  38.169  1.00  0.00     0.198 A 
ATOM     78  F   UNL A   1      40.978  35.658  36.018  1.00  0.00    -0.203 F 
ATOM     79  F   UNL A   1      37.899  33.946  40.183  1.00  0.00    -0.200 F 
ATOM     80  C   UNL A   1      39.308  35.585  39.231  1.00  0.00     0.200 A 
ATOM     81  F   UNL A   1      40.711  37.197  38.229  1.00  0.00    -0.200 F 
ATOM     82  F   UNL A   1      39.151  36.367  40.308  1.00  0.00    -0.200 F 
ENDBRANCH  48  72
BRANCH  60  83
ATOM     83  C   UNL A   1      43.971  28.793  35.233  1.00  0.00     0.064 A 
ATOM     84  C   UNL A   1      45.281  29.262  35.055  1.00  0.00     0.173 A 
ATOM     85  C   UNL A   1      43.770  27.735  36.134  1.00  0.00     0.173 A 
ATOM     86  F   UNL A   1      45.531  30.262  34.195  1.00  0.00    -0.203 F 
ATOM     87  C   UNL A   1      46.350  28.676  35.730  1.00  0.00     0.198 A 
ATOM     88  C   UNL A   1      44.836  27.175  36.832  1.00  0.00     0.198 A 
ATOM     89  F   UNL A   1      42.538  27.253  36.347  1.00  0.00    -0.203 F 
ATOM     90  F   UNL A   1      47.599  29.105  35.502  1.00  0.00    -0.200 F 
ATOM     91  C   UNL A   1      46.126  27.639  36.623  1.00  0.00     0.200 A 
ATOM     92  F   UNL A   1      44.615  26.186  37.707  1.00  0.00    -0.200 F 
ATOM     93  F   UNL A   1      47.155  27.083  37.277  1.00  0.00    -0.200 F 
ENDBRANCH  60  83
ENDBRANCH  34  35
ENDBRANCH  26  29
ENDBRANCH  24  25
ENDBRANCH  23  24
ENDBRANCH   1  23
TORSDOF 13
ENDMDL
