MODEL 1
REMARK VINA RESULT:     -12.4      0.000      0.000
REMARK SMILES O=C(CSc1ccc(Cl)cc1)Nc1ccc(C(=O)NCCCNC(=O)c2ccc(-c3c4nc(c(-c5c(F)c(F)c(F)c(F)c5F)c5ccc([nH]5)c(-c5c(F)c(F)c(F)c(F)c5F)c5nc(c(-c6c(F)c(F)c(F)c(F)c6F)c6ccc3[nH]6)C=C5)C=C4)cc2)cc1
REMARK SMILES IDX 20 1 19 2 17 3 18 4 16 6 13 7 14 8 90 9 15 10 89 11 12 12
REMARK SMILES IDX 1 13 2 14 3 16 4 17 5 18 6 19 11 20 7 21 10 22 8 23 9 24
REMARK SMILES IDX 21 25 22 26 23 27 24 28 25 30 26 31 27 32 88 33 28 34 87 35
REMARK SMILES IDX 29 36 30 37 31 38 81 39 32 40 86 41 80 42 82 43 33 44 85 45
REMARK SMILES IDX 79 46 78 47 34 49 66 50 46 51 65 52 47 53 50 54 64 55 83 56
REMARK SMILES IDX 48 57 49 58 63 60 84 61 51 62 35 63 36 64 44 65 37 66 38 67
REMARK SMILES IDX 42 68 45 69 39 70 40 71 43 72 41 73 67 74 68 75 76 76 69 77
REMARK SMILES IDX 70 78 74 79 77 80 71 81 72 82 75 83 73 84 52 85 53 86 61 87
REMARK SMILES IDX 54 88 55 89 59 90 62 91 56 92 57 93 60 94 58 95
REMARK H PARENT 19 5 12 15 23 29 82 48 50 59
REMARK Flexibility Score: inf
ROOT
ATOM      1  C   UNL A   1      31.197  31.068  25.742  1.00  0.00     0.118 C 
ENDROOT
BRANCH   1   2
ATOM      2  N   UNL A   1      30.260  31.133  24.633  1.00  0.00    -0.352 N 
ATOM      3  C   UNL A   1      29.981  30.253  23.615  1.00  0.00     0.251 C 
ATOM      4  O   UNL A   1      29.063  30.537  22.847  1.00  0.00    -0.269 OA
ATOM      5  H   UNL A   1      29.727  31.959  24.606  1.00  0.00     0.163 HD
BRANCH   3   6
ATOM      6  C   UNL A   1      30.700  28.963  23.437  1.00  0.00     0.039 A 
ATOM      7  C   UNL A   1      31.923  26.430  23.183  1.00  0.00     0.041 A 
ATOM      8  C   UNL A   1      30.534  26.554  23.098  1.00  0.00     0.027 A 
ATOM      9  C   UNL A   1      32.695  27.584  23.314  1.00  0.00     0.027 A 
ATOM     10  C   UNL A   1      29.928  27.808  23.241  1.00  0.00     0.016 A 
ATOM     11  C   UNL A   1      32.090  28.841  23.409  1.00  0.00     0.016 A 
BRANCH   7  12
ATOM     12  N   UNL A   1      32.485  25.145  23.098  1.00  0.00    -0.325 N 
ATOM     13  O   UNL A   1      33.248  25.145  20.905  1.00  0.00    -0.274 OA
ATOM     14  C   UNL A   1      33.049  24.568  21.973  1.00  0.00     0.234 C 
ATOM     15  H   UNL A   1      32.477  24.602  23.920  1.00  0.00     0.169 HD
BRANCH  14  16
ATOM     16  C   UNL A   1      33.355  23.084  22.092  1.00  0.00     0.175 C 
BRANCH  16  17
ATOM     17  S   UNL A   1      33.127  22.395  23.765  1.00  0.00    -0.116 SA
BRANCH  17  18
ATOM     18  C   UNL A   1      34.798  22.110  24.327  1.00  0.00     0.008 A 
ATOM     19  C   UNL A   1      35.671  23.208  24.301  1.00  0.00     0.016 A 
ATOM     20  C   UNL A   1      35.262  20.892  24.831  1.00  0.00     0.016 A 
ATOM     21  C   UNL A   1      36.988  23.086  24.751  1.00  0.00     0.021 A 
ATOM     22  C   UNL A   1      36.582  20.767  25.284  1.00  0.00     0.021 A 
ATOM     23  C   UNL A   1      37.439  21.864  25.241  1.00  0.00     0.041 A 
ATOM     24  Cl  UNL A   1      39.056  21.713  25.805  1.00  0.00    -0.084 Cl
ENDBRANCH  17  18
ENDBRANCH  16  17
ENDBRANCH  14  16
ENDBRANCH   7  12
ENDBRANCH   3   6
ENDBRANCH   1   2
BRANCH   1  25
ATOM     25  C   UNL A   1      31.115  32.323  26.613  1.00  0.00     0.042 C 
BRANCH  25  26
ATOM     26  C   UNL A   1      32.473  32.817  27.105  1.00  0.00     0.118 C 
BRANCH  26  27
ATOM     27  N   UNL A   1      32.410  34.182  27.603  1.00  0.00    -0.352 N 
ATOM     28  C   UNL A   1      33.100  34.787  28.621  1.00  0.00     0.251 C 
ATOM     29  H   UNL A   1      31.769  34.763  27.134  1.00  0.00     0.163 HD
ATOM     30  O   UNL A   1      32.749  35.903  28.996  1.00  0.00    -0.269 OA
BRANCH  28  31
ATOM     31  C   UNL A   1      34.250  34.126  29.281  1.00  0.00     0.039 A 
ATOM     32  C   UNL A   1      35.540  34.480  28.868  1.00  0.00     0.014 A 
ATOM     33  C   UNL A   1      34.082  33.112  30.228  1.00  0.00     0.014 A 
ATOM     34  C   UNL A   1      36.653  33.839  29.416  1.00  0.00     0.010 A 
ATOM     35  C   UNL A   1      35.196  32.517  30.823  1.00  0.00     0.010 A 
ATOM     36  C   UNL A   1      36.491  32.860  30.407  1.00  0.00    -0.014 A 
BRANCH  36  37
ATOM     37  C   UNL A   1      37.671  32.171  30.987  1.00  0.00     0.031 A 
ATOM     38  C   UNL A   1      38.145  32.512  32.373  1.00  0.00     0.074 A 
ATOM     39  C   UNL A   1      38.331  31.252  30.259  1.00  0.00     0.049 A 
ATOM     40  N   UNL A   1      39.143  32.006  33.056  1.00  0.00    -0.248 NA
ATOM     41  C   UNL A   1      37.418  33.578  33.077  1.00  0.00     0.031 C 
ATOM     42  C   UNL A   1      37.995  30.865  28.889  1.00  0.00     0.029 A 
ATOM     43  N   UNL A   1      39.418  30.476  30.570  1.00  0.00    -0.354 N 
ATOM     44  C   UNL A   1      39.172  32.702  34.257  1.00  0.00     0.074 A 
ATOM     45  C   UNL A   1      38.123  33.698  34.192  1.00  0.00     0.031 C 
ATOM     46  C   UNL A   1      38.833  29.894  28.491  1.00  0.00     0.029 A 
ATOM     47  C   UNL A   1      39.779  29.612  29.566  1.00  0.00     0.049 A 
ATOM     48  H   UNL A   1      39.894  30.532  31.429  1.00  0.00     0.167 HD
ATOM     49  C   UNL A   1      39.982  32.514  35.326  1.00  0.00     0.037 A 
ATOM     50  C   UNL A   1      40.756  28.686  29.524  1.00  0.00     0.037 A 
ATOM     51  C   UNL A   1      41.003  31.502  35.402  1.00  0.00     0.049 A 
ATOM     52  C   UNL A   1      41.639  28.490  30.725  1.00  0.00     0.074 A 
ATOM     53  C   UNL A   1      41.825  31.180  36.467  1.00  0.00     0.029 A 
ATOM     54  N   UNL A   1      41.342  30.647  34.363  1.00  0.00    -0.354 N 
ATOM     55  N   UNL A   1      41.607  29.100  31.884  1.00  0.00    -0.248 NA
ATOM     56  C   UNL A   1      42.691  27.469  30.612  1.00  0.00     0.031 C 
ATOM     57  C   UNL A   1      42.690  30.157  36.059  1.00  0.00     0.029 A 
ATOM     58  C   UNL A   1      42.378  29.814  34.753  1.00  0.00     0.049 A 
ATOM     59  H   UNL A   1      40.910  30.635  33.478  1.00  0.00     0.167 HD
ATOM     60  C   UNL A   1      42.610  28.521  32.649  1.00  0.00     0.074 A 
ATOM     61  C   UNL A   1      43.229  27.504  31.822  1.00  0.00     0.031 C 
ATOM     62  C   UNL A   1      42.981  28.804  33.921  1.00  0.00     0.037 A 
BRANCH  49  63
ATOM     63  C   UNL A   1      39.796  33.431  36.501  1.00  0.00     0.064 A 
ATOM     64  C   UNL A   1      38.925  33.111  37.554  1.00  0.00     0.173 A 
ATOM     65  C   UNL A   1      40.501  34.640  36.579  1.00  0.00     0.173 A 
ATOM     66  F   UNL A   1      38.218  31.971  37.523  1.00  0.00    -0.203 F 
ATOM     67  C   UNL A   1      38.738  33.987  38.621  1.00  0.00     0.198 A 
ATOM     68  C   UNL A   1      40.334  35.500  37.661  1.00  0.00     0.198 A 
ATOM     69  F   UNL A   1      41.352  34.991  35.602  1.00  0.00    -0.203 F 
ATOM     70  F   UNL A   1      37.857  33.687  39.585  1.00  0.00    -0.200 F 
ATOM     71  C   UNL A   1      39.444  35.178  38.675  1.00  0.00     0.200 A 
ATOM     72  F   UNL A   1      41.026  36.646  37.719  1.00  0.00    -0.200 F 
ATOM     73  F   UNL A   1      39.261  36.021  39.700  1.00  0.00    -0.200 F 
ENDBRANCH  49  63
BRANCH  50  74
ATOM     74  C   UNL A   1      40.903  27.831  28.320  1.00  0.00     0.064 A 
ATOM     75  C   UNL A   1      41.724  28.233  27.258  1.00  0.00     0.173 A 
ATOM     76  C   UNL A   1      40.256  26.592  28.217  1.00  0.00     0.173 A 
ATOM     77  F   UNL A   1      42.347  29.419  27.306  1.00  0.00    -0.203 F 
ATOM     78  C   UNL A   1      41.890  27.428  26.134  1.00  0.00     0.198 A 
ATOM     79  C   UNL A   1      40.440  25.778  27.100  1.00  0.00     0.198 A 
ATOM     80  F   UNL A   1      39.463  26.162  29.210  1.00  0.00    -0.203 F 
ATOM     81  F   UNL A   1      42.661  27.846  25.120  1.00  0.00    -0.200 F 
ATOM     82  C   UNL A   1      41.254  26.197  26.059  1.00  0.00     0.200 A 
ATOM     83  F   UNL A   1      39.833  24.585  27.037  1.00  0.00    -0.200 F 
ATOM     84  F   UNL A   1      41.421  25.419  24.981  1.00  0.00    -0.200 F 
ENDBRANCH  50  74
BRANCH  62  85
ATOM     85  C   UNL A   1      44.088  27.982  34.511  1.00  0.00     0.064 A 
ATOM     86  C   UNL A   1      45.424  28.406  34.461  1.00  0.00     0.173 A 
ATOM     87  C   UNL A   1      43.805  26.775  35.166  1.00  0.00     0.173 A 
ATOM     88  F   UNL A   1      45.747  29.546  33.831  1.00  0.00    -0.203 F 
ATOM     89  C   UNL A   1      46.439  27.640  35.027  1.00  0.00     0.198 A 
ATOM     90  C   UNL A   1      44.819  26.023  35.753  1.00  0.00     0.198 A 
ATOM     91  F   UNL A   1      42.542  26.328  35.244  1.00  0.00    -0.203 F 
ATOM     92  F   UNL A   1      47.713  28.044  34.932  1.00  0.00    -0.200 F 
ATOM     93  C   UNL A   1      46.135  26.453  35.678  1.00  0.00     0.200 A 
ATOM     94  F   UNL A   1      44.523  24.882  36.390  1.00  0.00    -0.200 F 
ATOM     95  F   UNL A   1      47.113  25.720  36.227  1.00  0.00    -0.200 F 
ENDBRANCH  62  85
ENDBRANCH  36  37
ENDBRANCH  28  31
ENDBRANCH  26  27
ENDBRANCH  25  26
ENDBRANCH   1  25
TORSDOF 14
ENDMDL
MODEL 2
REMARK VINA RESULT:     -12.4      1.044      1.730
REMARK SMILES O=C(CSc1ccc(Cl)cc1)Nc1ccc(C(=O)NCCCNC(=O)c2ccc(-c3c4nc(c(-c5c(F)c(F)c(F)c(F)c5F)c5ccc([nH]5)c(-c5c(F)c(F)c(F)c(F)c5F)c5nc(c(-c6c(F)c(F)c(F)c(F)c6F)c6ccc3[nH]6)C=C5)C=C4)cc2)cc1
REMARK SMILES IDX 20 1 19 2 17 3 18 4 16 6 13 7 14 8 90 9 15 10 89 11 12 12
REMARK SMILES IDX 1 13 2 14 3 16 4 17 5 18 6 19 11 20 7 21 10 22 8 23 9 24
REMARK SMILES IDX 21 25 22 26 23 27 24 28 25 30 26 31 27 32 88 33 28 34 87 35
REMARK SMILES IDX 29 36 30 37 31 38 81 39 32 40 86 41 80 42 82 43 33 44 85 45
REMARK SMILES IDX 79 46 78 47 34 49 66 50 46 51 65 52 47 53 50 54 64 55 83 56
REMARK SMILES IDX 48 57 49 58 63 60 84 61 51 62 35 63 36 64 44 65 37 66 38 67
REMARK SMILES IDX 42 68 45 69 39 70 40 71 43 72 41 73 67 74 68 75 76 76 69 77
REMARK SMILES IDX 70 78 74 79 77 80 71 81 72 82 75 83 73 84 52 85 53 86 61 87
REMARK SMILES IDX 54 88 55 89 59 90 62 91 56 92 57 93 60 94 58 95
REMARK H PARENT 19 5 12 15 23 29 82 48 50 59
REMARK Flexibility Score: inf
ROOT
ATOM      1  C   UNL A   1      31.106  30.746  25.460  1.00  0.00     0.118 C 
ENDROOT
BRANCH   1   2
ATOM      2  N   UNL A   1      30.292  30.799  24.257  1.00  0.00    -0.352 N 
ATOM      3  C   UNL A   1      29.817  29.814  23.427  1.00  0.00     0.251 C 
ATOM      4  O   UNL A   1      29.069  30.149  22.509  1.00  0.00    -0.269 OA
ATOM      5  H   UNL A   1      30.035  31.710  23.987  1.00  0.00     0.163 HD
BRANCH   3   6
ATOM      6  C   UNL A   1      30.124  28.371  23.619  1.00  0.00     0.039 A 
ATOM      7  C   UNL A   1      30.546  25.617  24.078  1.00  0.00     0.041 A 
ATOM      8  C   UNL A   1      29.255  26.106  23.867  1.00  0.00     0.027 A 
ATOM      9  C   UNL A   1      31.624  26.496  23.979  1.00  0.00     0.027 A 
ATOM     10  C   UNL A   1      29.045  27.475  23.656  1.00  0.00     0.016 A 
ATOM     11  C   UNL A   1      31.416  27.855  23.722  1.00  0.00     0.016 A 
BRANCH   7  12
ATOM     12  N   UNL A   1      30.705  24.247  24.350  1.00  0.00    -0.325 N 
ATOM     13  O   UNL A   1      30.918  24.282  26.662  1.00  0.00    -0.274 OA
ATOM     14  C   UNL A   1      30.936  23.678  25.590  1.00  0.00     0.234 C 
ATOM     15  H   UNL A   1      30.646  23.632  23.583  1.00  0.00     0.169 HD
BRANCH  14  16
ATOM     16  C   UNL A   1      31.314  22.206  25.566  1.00  0.00     0.175 C 
BRANCH  16  17
ATOM     17  S   UNL A   1      32.066  21.642  24.004  1.00  0.00    -0.116 SA
BRANCH  17  18
ATOM     18  C   UNL A   1      33.819  21.742  24.329  1.00  0.00     0.008 A 
ATOM     19  C   UNL A   1      34.398  20.667  25.018  1.00  0.00     0.016 A 
ATOM     20  C   UNL A   1      34.641  22.787  23.896  1.00  0.00     0.016 A 
ATOM     21  C   UNL A   1      35.769  20.645  25.289  1.00  0.00     0.021 A 
ATOM     22  C   UNL A   1      36.016  22.767  24.166  1.00  0.00     0.021 A 
ATOM     23  C   UNL A   1      36.573  21.697  24.862  1.00  0.00     0.041 A 
ATOM     24  Cl  UNL A   1      38.261  21.669  25.183  1.00  0.00    -0.084 Cl
ENDBRANCH  17  18
ENDBRANCH  16  17
ENDBRANCH  14  16
ENDBRANCH   7  12
ENDBRANCH   3   6
ENDBRANCH   1   2
BRANCH   1  25
ATOM     25  C   UNL A   1      31.029  32.058  26.243  1.00  0.00     0.042 C 
BRANCH  25  26
ATOM     26  C   UNL A   1      32.346  32.456  26.904  1.00  0.00     0.118 C 
BRANCH  26  27
ATOM     27  N   UNL A   1      32.312  33.818  27.412  1.00  0.00    -0.352 N 
ATOM     28  C   UNL A   1      33.086  34.429  28.363  1.00  0.00     0.251 C 
ATOM     29  H   UNL A   1      31.623  34.392  27.008  1.00  0.00     0.163 HD
ATOM     30  O   UNL A   1      32.758  35.539  28.775  1.00  0.00    -0.269 OA
BRANCH  28  31
ATOM     31  C   UNL A   1      34.301  33.781  28.911  1.00  0.00     0.039 A 
ATOM     32  C   UNL A   1      34.137  32.652  29.723  1.00  0.00     0.014 A 
ATOM     33  C   UNL A   1      35.580  34.309  28.712  1.00  0.00     0.014 A 
ATOM     34  C   UNL A   1      35.247  32.045  30.313  1.00  0.00     0.010 A 
ATOM     35  C   UNL A   1      36.696  33.664  29.248  1.00  0.00     0.010 A 
ATOM     36  C   UNL A   1      36.538  32.538  30.071  1.00  0.00    -0.014 A 
BRANCH  36  37
ATOM     37  C   UNL A   1      37.721  31.899  30.701  1.00  0.00     0.031 A 
ATOM     38  C   UNL A   1      38.128  32.269  32.101  1.00  0.00     0.074 A 
ATOM     39  C   UNL A   1      38.442  31.001  30.006  1.00  0.00     0.049 A 
ATOM     40  N   UNL A   1      39.117  31.806  32.826  1.00  0.00    -0.248 NA
ATOM     41  C   UNL A   1      37.334  33.311  32.767  1.00  0.00     0.031 C 
ATOM     42  C   UNL A   1      38.173  30.591  28.629  1.00  0.00     0.029 A 
ATOM     43  N   UNL A   1      39.545  30.269  30.366  1.00  0.00    -0.354 N 
ATOM     44  C   UNL A   1      39.073  32.512  34.021  1.00  0.00     0.074 A 
ATOM     45  C   UNL A   1      37.991  33.466  33.907  1.00  0.00     0.031 C 
ATOM     46  C   UNL A   1      39.062  29.649  28.271  1.00  0.00     0.029 A 
ATOM     47  C   UNL A   1      39.977  29.412  29.384  1.00  0.00     0.049 A 
ATOM     48  H   UNL A   1      39.985  30.349  31.242  1.00  0.00     0.167 HD
ATOM     49  C   UNL A   1      39.849  32.362  35.122  1.00  0.00     0.037 A 
ATOM     50  C   UNL A   1      40.989  28.524  29.388  1.00  0.00     0.037 A 
ATOM     51  C   UNL A   1      40.903  31.391  35.245  1.00  0.00     0.049 A 
ATOM     52  C   UNL A   1      41.832  28.370  30.623  1.00  0.00     0.074 A 
ATOM     53  C   UNL A   1      41.696  31.109  36.344  1.00  0.00     0.029 A 
ATOM     54  N   UNL A   1      41.314  30.542  34.227  1.00  0.00    -0.354 N 
ATOM     55  N   UNL A   1      41.732  28.987  31.775  1.00  0.00    -0.248 NA
ATOM     56  C   UNL A   1      42.925  27.389  30.559  1.00  0.00     0.031 C 
ATOM     57  C   UNL A   1      42.614  30.116  35.978  1.00  0.00     0.029 A 
ATOM     58  C   UNL A   1      42.365  29.751  34.665  1.00  0.00     0.049 A 
ATOM     59  H   UNL A   1      40.918  30.506  33.327  1.00  0.00     0.167 HD
ATOM     60  C   UNL A   1      42.726  28.452  32.582  1.00  0.00     0.074 A 
ATOM     61  C   UNL A   1      43.415  27.453  31.789  1.00  0.00     0.031 C 
ATOM     62  C   UNL A   1      43.037  28.758  33.865  1.00  0.00     0.037 A 
BRANCH  49  63
ATOM     63  C   UNL A   1      39.583  33.280  36.280  1.00  0.00     0.064 A 
ATOM     64  C   UNL A   1      40.220  34.526  36.394  1.00  0.00     0.173 A 
ATOM     65  C   UNL A   1      38.676  32.914  37.285  1.00  0.00     0.173 A 
ATOM     66  F   UNL A   1      41.105  34.919  35.467  1.00  0.00    -0.203 F 
ATOM     67  C   UNL A   1      39.988  35.352  37.492  1.00  0.00     0.198 A 
ATOM     68  C   UNL A   1      38.424  33.755  38.366  1.00  0.00     0.198 A 
ATOM     69  F   UNL A   1      38.034  31.737  37.221  1.00  0.00    -0.203 F 
ATOM     70  F   UNL A   1      40.653  36.509  37.609  1.00  0.00    -0.200 F 
ATOM     71  C   UNL A   1      39.089  34.968  38.474  1.00  0.00     0.200 A 
ATOM     72  F   UNL A   1      37.545  33.389  39.309  1.00  0.00    -0.200 F 
ATOM     73  F   UNL A   1      38.869  35.762  39.530  1.00  0.00    -0.200 F 
ENDBRANCH  49  63
BRANCH  50  74
ATOM     74  C   UNL A   1      41.214  27.665  28.197  1.00  0.00     0.064 A 
ATOM     75  C   UNL A   1      42.056  28.092  27.162  1.00  0.00     0.173 A 
ATOM     76  C   UNL A   1      40.622  26.400  28.083  1.00  0.00     0.173 A 
ATOM     77  F   UNL A   1      42.628  29.303  27.221  1.00  0.00    -0.203 F 
ATOM     78  C   UNL A   1      42.295  27.285  26.052  1.00  0.00     0.198 A 
ATOM     79  C   UNL A   1      40.879  25.585  26.982  1.00  0.00     0.198 A 
ATOM     80  F   UNL A   1      39.811  25.947  29.051  1.00  0.00    -0.203 F 
ATOM     81  F   UNL A   1      43.084  27.727  25.064  1.00  0.00    -0.200 F 
ATOM     82  C   UNL A   1      41.712  26.030  25.966  1.00  0.00     0.200 A 
ATOM     83  F   UNL A   1      40.324  24.368  26.908  1.00  0.00    -0.200 F 
ATOM     84  F   UNL A   1      41.950  25.250  24.903  1.00  0.00    -0.200 F 
ENDBRANCH  50  74
BRANCH  62  85
ATOM     85  C   UNL A   1      44.151  27.984  34.504  1.00  0.00     0.064 A 
ATOM     86  C   UNL A   1      45.472  28.454  34.494  1.00  0.00     0.173 A 
ATOM     87  C   UNL A   1      43.888  26.776  35.165  1.00  0.00     0.173 A 
ATOM     88  F   UNL A   1      45.777  29.597  33.859  1.00  0.00    -0.203 F 
ATOM     89  C   UNL A   1      46.493  27.732  35.105  1.00  0.00     0.198 A 
ATOM     90  C   UNL A   1      44.906  26.068  35.798  1.00  0.00     0.198 A 
ATOM     91  F   UNL A   1      42.639  26.286  35.207  1.00  0.00    -0.203 F 
ATOM     92  F   UNL A   1      47.755  28.179  35.047  1.00  0.00    -0.200 F 
ATOM     93  C   UNL A   1      46.209  26.544  35.762  1.00  0.00     0.200 A 
ATOM     94  F   UNL A   1      44.628  24.926  36.440  1.00  0.00    -0.200 F 
ATOM     95  F   UNL A   1      47.192  25.852  36.354  1.00  0.00    -0.200 F 
ENDBRANCH  62  85
ENDBRANCH  36  37
ENDBRANCH  28  31
ENDBRANCH  26  27
ENDBRANCH  25  26
ENDBRANCH   1  25
TORSDOF 14
ENDMDL
MODEL 3
REMARK VINA RESULT:     -12.4      5.434     10.950
REMARK SMILES O=C(CSc1ccc(Cl)cc1)Nc1ccc(C(=O)NCCCNC(=O)c2ccc(-c3c4nc(c(-c5c(F)c(F)c(F)c(F)c5F)c5ccc([nH]5)c(-c5c(F)c(F)c(F)c(F)c5F)c5nc(c(-c6c(F)c(F)c(F)c(F)c6F)c6ccc3[nH]6)C=C5)C=C4)cc2)cc1
REMARK SMILES IDX 20 1 19 2 17 3 18 4 16 6 13 7 14 8 90 9 15 10 89 11 12 12
REMARK SMILES IDX 1 13 2 14 3 16 4 17 5 18 6 19 11 20 7 21 10 22 8 23 9 24
REMARK SMILES IDX 21 25 22 26 23 27 24 28 25 30 26 31 27 32 88 33 28 34 87 35
REMARK SMILES IDX 29 36 30 37 31 38 81 39 32 40 86 41 80 42 82 43 33 44 85 45
REMARK SMILES IDX 79 46 78 47 34 49 66 50 46 51 65 52 47 53 50 54 64 55 83 56
REMARK SMILES IDX 48 57 49 58 63 60 84 61 51 62 35 63 36 64 44 65 37 66 38 67
REMARK SMILES IDX 42 68 45 69 39 70 40 71 43 72 41 73 67 74 68 75 76 76 69 77
REMARK SMILES IDX 70 78 74 79 77 80 71 81 72 82 75 83 73 84 52 85 53 86 61 87
REMARK SMILES IDX 54 88 55 89 59 90 62 91 56 92 57 93 60 94 58 95
REMARK H PARENT 19 5 12 15 23 29 82 48 50 59
REMARK Flexibility Score: inf
ROOT
ATOM      1  C   UNL A   1      36.869  19.998  24.920  1.00  0.00     0.118 C 
ENDROOT
BRANCH   1   2
ATOM      2  N   UNL A   1      35.771  19.046  24.938  1.00  0.00    -0.352 N 
ATOM      3  C   UNL A   1      34.409  19.217  24.932  1.00  0.00     0.251 C 
ATOM      4  O   UNL A   1      33.704  18.210  24.868  1.00  0.00    -0.269 OA
ATOM      5  H   UNL A   1      36.057  18.105  24.961  1.00  0.00     0.163 HD
BRANCH   3   6
ATOM      6  C   UNL A   1      33.758  20.556  24.947  1.00  0.00     0.039 A 
ATOM      7  C   UNL A   1      32.527  23.088  25.161  1.00  0.00     0.041 A 
ATOM      8  C   UNL A   1      33.495  22.693  26.089  1.00  0.00     0.027 A 
ATOM      9  C   UNL A   1      32.240  22.245  24.088  1.00  0.00     0.027 A 
ATOM     10  C   UNL A   1      34.092  21.431  25.991  1.00  0.00     0.016 A 
ATOM     11  C   UNL A   1      32.873  21.004  23.966  1.00  0.00     0.016 A 
BRANCH   7  12
ATOM     12  N   UNL A   1      31.907  24.337  25.334  1.00  0.00    -0.325 N 
ATOM     13  O   UNL A   1      30.437  23.859  27.068  1.00  0.00    -0.274 OA
ATOM     14  C   UNL A   1      30.881  24.629  26.216  1.00  0.00     0.234 C 
ATOM     15  H   UNL A   1      32.235  25.078  24.774  1.00  0.00     0.169 HD
BRANCH  14  16
ATOM     16  C   UNL A   1      30.230  25.989  26.024  1.00  0.00     0.175 C 
BRANCH  16  17
ATOM     17  S   UNL A   1      30.964  26.999  24.695  1.00  0.00    -0.116 SA
BRANCH  17  18
ATOM     18  C   UNL A   1      31.853  28.269  25.583  1.00  0.00     0.008 A 
ATOM     19  C   UNL A   1      31.374  29.581  25.459  1.00  0.00     0.016 A 
ATOM     20  C   UNL A   1      32.946  28.025  26.420  1.00  0.00     0.016 A 
ATOM     21  C   UNL A   1      31.989  30.634  26.143  1.00  0.00     0.021 A 
ATOM     22  C   UNL A   1      33.562  29.079  27.107  1.00  0.00     0.021 A 
ATOM     23  C   UNL A   1      33.082  30.378  26.964  1.00  0.00     0.041 A 
ATOM     24  Cl  UNL A   1      33.834  31.669  27.815  1.00  0.00    -0.084 Cl
ENDBRANCH  17  18
ENDBRANCH  16  17
ENDBRANCH  14  16
ENDBRANCH   7  12
ENDBRANCH   3   6
ENDBRANCH   1   2
BRANCH   1  25
ATOM     25  C   UNL A   1      38.221  19.286  24.838  1.00  0.00     0.042 C 
BRANCH  25  26
ATOM     26  C   UNL A   1      39.264  19.838  25.806  1.00  0.00     0.118 C 
BRANCH  26  27
ATOM     27  N   UNL A   1      40.414  18.957  25.930  1.00  0.00    -0.352 N 
ATOM     28  C   UNL A   1      41.739  19.251  26.125  1.00  0.00     0.251 C 
ATOM     29  H   UNL A   1      40.209  17.997  25.862  1.00  0.00     0.163 HD
ATOM     30  O   UNL A   1      42.570  18.354  26.008  1.00  0.00    -0.269 OA
BRANCH  28  31
ATOM     31  C   UNL A   1      42.190  20.621  26.464  1.00  0.00     0.039 A 
ATOM     32  C   UNL A   1      42.237  20.983  27.816  1.00  0.00     0.014 A 
ATOM     33  C   UNL A   1      42.482  21.572  25.484  1.00  0.00     0.014 A 
ATOM     34  C   UNL A   1      42.594  22.282  28.182  1.00  0.00     0.010 A 
ATOM     35  C   UNL A   1      42.903  22.852  25.851  1.00  0.00     0.010 A 
ATOM     36  C   UNL A   1      42.942  23.225  27.203  1.00  0.00    -0.014 A 
BRANCH  36  37
ATOM     37  C   UNL A   1      43.316  24.609  27.588  1.00  0.00     0.031 A 
ATOM     38  C   UNL A   1      44.755  25.045  27.553  1.00  0.00     0.074 A 
ATOM     39  C   UNL A   1      42.363  25.469  27.989  1.00  0.00     0.049 A 
ATOM     40  N   UNL A   1      45.274  26.215  27.834  1.00  0.00    -0.248 NA
ATOM     41  C   UNL A   1      45.745  24.027  27.174  1.00  0.00     0.031 C 
ATOM     42  C   UNL A   1      40.940  25.154  28.106  1.00  0.00     0.029 A 
ATOM     43  N   UNL A   1      42.448  26.785  28.370  1.00  0.00    -0.354 N 
ATOM     44  C   UNL A   1      46.646  26.067  27.683  1.00  0.00     0.074 A 
ATOM     45  C   UNL A   1      46.885  24.684  27.332  1.00  0.00     0.031 C 
ATOM     46  C   UNL A   1      40.277  26.257  28.490  1.00  0.00     0.029 A 
ATOM     47  C   UNL A   1      41.232  27.347  28.673  1.00  0.00     0.049 A 
ATOM     48  H   UNL A   1      43.298  27.279  28.422  1.00  0.00     0.167 HD
ATOM     49  C   UNL A   1      47.618  27.005  27.803  1.00  0.00     0.037 A 
ATOM     50  C   UNL A   1      40.923  28.603  29.043  1.00  0.00     0.037 A 
ATOM     51  C   UNL A   1      47.376  28.387  28.120  1.00  0.00     0.049 A 
ATOM     52  C   UNL A   1      42.016  29.629  29.162  1.00  0.00     0.074 A 
ATOM     53  C   UNL A   1      48.282  29.430  28.190  1.00  0.00     0.029 A 
ATOM     54  N   UNL A   1      46.130  28.918  28.424  1.00  0.00    -0.354 N 
ATOM     55  N   UNL A   1      43.301  29.497  28.941  1.00  0.00    -0.248 NA
ATOM     56  C   UNL A   1      41.612  30.980  29.577  1.00  0.00     0.031 C 
ATOM     57  C   UNL A   1      47.591  30.585  28.576  1.00  0.00     0.029 A 
ATOM     58  C   UNL A   1      46.247  30.271  28.706  1.00  0.00     0.049 A 
ATOM     59  H   UNL A   1      45.288  28.410  28.437  1.00  0.00     0.167 HD
ATOM     60  C   UNL A   1      43.856  30.750  29.160  1.00  0.00     0.074 A 
ATOM     61  C   UNL A   1      42.765  31.632  29.525  1.00  0.00     0.031 C 
ATOM     62  C   UNL A   1      45.152  31.135  29.063  1.00  0.00     0.037 A 
BRANCH  49  63
ATOM     63  C   UNL A   1      49.035  26.557  27.593  1.00  0.00     0.064 A 
ATOM     64  C   UNL A   1      49.581  26.416  26.308  1.00  0.00     0.173 A 
ATOM     65  C   UNL A   1      49.862  26.271  28.690  1.00  0.00     0.173 A 
ATOM     66  F   UNL A   1      48.830  26.665  25.225  1.00  0.00    -0.203 F 
ATOM     67  C   UNL A   1      50.888  25.967  26.129  1.00  0.00     0.198 A 
ATOM     68  C   UNL A   1      51.177  25.852  28.508  1.00  0.00     0.198 A 
ATOM     69  F   UNL A   1      49.392  26.397  29.941  1.00  0.00    -0.203 F 
ATOM     70  F   UNL A   1      51.367  25.783  24.891  1.00  0.00    -0.200 F 
ATOM     71  C   UNL A   1      51.685  25.689  27.227  1.00  0.00     0.200 A 
ATOM     72  F   UNL A   1      51.951  25.594  29.572  1.00  0.00    -0.200 F 
ATOM     73  F   UNL A   1      52.940  25.255  27.054  1.00  0.00    -0.200 F 
ENDBRANCH  49  63
BRANCH  50  74
ATOM     74  C   UNL A   1      39.501  28.973  29.261  1.00  0.00     0.064 A 
ATOM     75  C   UNL A   1      38.712  29.425  28.195  1.00  0.00     0.173 A 
ATOM     76  C   UNL A   1      38.898  28.856  30.520  1.00  0.00     0.173 A 
ATOM     77  F   UNL A   1      39.253  29.570  26.977  1.00  0.00    -0.203 F 
ATOM     78  C   UNL A   1      37.372  29.751  28.381  1.00  0.00     0.198 A 
ATOM     79  C   UNL A   1      37.551  29.163  30.701  1.00  0.00     0.198 A 
ATOM     80  F   UNL A   1      39.612  28.424  31.571  1.00  0.00    -0.203 F 
ATOM     81  F   UNL A   1      36.645  30.205  27.351  1.00  0.00    -0.200 F 
ATOM     82  C   UNL A   1      36.790  29.613  29.633  1.00  0.00     0.200 A 
ATOM     83  F   UNL A   1      36.989  29.017  31.909  1.00  0.00    -0.200 F 
ATOM     84  F   UNL A   1      35.497  29.917  29.810  1.00  0.00    -0.200 F 
ENDBRANCH  50  74
BRANCH  62  85
ATOM     85  C   UNL A   1      45.459  32.579  29.326  1.00  0.00     0.064 A 
ATOM     86  C   UNL A   1      45.798  33.037  30.607  1.00  0.00     0.173 A 
ATOM     87  C   UNL A   1      45.449  33.510  28.276  1.00  0.00     0.173 A 
ATOM     88  F   UNL A   1      45.806  32.188  31.646  1.00  0.00    -0.203 F 
ATOM     89  C   UNL A   1      46.096  34.378  30.832  1.00  0.00     0.198 A 
ATOM     90  C   UNL A   1      45.772  34.845  28.499  1.00  0.00     0.198 A 
ATOM     91  F   UNL A   1      45.135  33.121  27.031  1.00  0.00    -0.203 F 
ATOM     92  F   UNL A   1      46.378  34.801  32.072  1.00  0.00    -0.200 F 
ATOM     93  C   UNL A   1      46.090  35.279  29.777  1.00  0.00     0.200 A 
ATOM     94  F   UNL A   1      45.775  35.712  27.478  1.00  0.00    -0.200 F 
ATOM     95  F   UNL A   1      46.382  36.569  29.995  1.00  0.00    -0.200 F 
ENDBRANCH  62  85
ENDBRANCH  36  37
ENDBRANCH  28  31
ENDBRANCH  26  27
ENDBRANCH  25  26
ENDBRANCH   1  25
TORSDOF 14
ENDMDL
