MODEL 1
REMARK VINA RESULT:     -12.1      0.000      0.000
REMARK SMILES CCC1C[NH+]([C@H]2COC[C@@]2(C)C(=O)NCCCNC(=O)c2ccc(-c3c4nc(c(-c5c(F)c(F)c(F)c(F)c5F)c5ccc([nH]5)c(-c5c(F)c(F)c(F)c(F)c5F)c5nc(c(-c6c(F)c(F)c(F)c(F)c6F)c6ccc3[nH]6)C=C5)C=C4)cc2)C1
REMARK SMILES IDX 16 1 15 2 14 3 12 4 13 5 10 7 6 8 7 9 8 10 9 11 11 12 5 13
REMARK SMILES IDX 3 14 4 15 84 16 2 18 1 19 17 20 18 21 19 22 20 24 21 25
REMARK SMILES IDX 22 26 83 27 23 28 82 29 24 30 25 31 26 32 76 33 27 34 81 35
REMARK SMILES IDX 75 36 77 37 28 38 80 39 74 40 73 41 29 43 61 44 41 45 60 46
REMARK SMILES IDX 42 47 45 48 59 49 78 50 43 51 44 52 58 54 79 55 46 56 30 57
REMARK SMILES IDX 31 58 39 59 32 60 33 61 37 62 40 63 34 64 35 65 38 66 36 67
REMARK SMILES IDX 62 68 63 69 71 70 64 71 65 72 69 73 72 74 66 75 67 76 70 77
REMARK SMILES IDX 68 78 47 79 48 80 56 81 49 82 50 83 54 84 57 85 51 86 52 87
REMARK SMILES IDX 55 88 53 89
REMARK H PARENT 14 6 5 17 18 23 77 42 45 53
REMARK Flexibility Score: inf
ROOT
ATOM      1  C   UNL A   1      31.497  32.059  26.738  1.00  0.00     0.042 C 
ENDROOT
BRANCH   1   2
ATOM      2  C   UNL A   1      31.651  30.544  26.738  1.00  0.00     0.117 C 
BRANCH   2   3
ATOM      3  N   UNL A   1      32.651  30.077  25.797  1.00  0.00    -0.355 N 
ATOM      4  C   UNL A   1      32.814  28.884  25.163  1.00  0.00     0.234 C 
ATOM      5  O   UNL A   1      33.964  28.693  24.748  1.00  0.00    -0.274 OA
ATOM      6  H   UNL A   1      33.339  30.747  25.576  1.00  0.00     0.163 HD
BRANCH   4   7
ATOM      7  C   UNL A   1      31.700  27.835  24.957  1.00  0.00     0.123 C 
ATOM      8  C   UNL A   1      30.408  28.389  24.286  1.00  0.00     0.228 C 
ATOM      9  C   UNL A   1      29.858  27.106  23.621  1.00  0.00     0.226 C 
ATOM     10  O   UNL A   1      30.974  26.249  23.324  1.00  0.00    -0.374 OA
ATOM     11  C   UNL A   1      32.161  26.842  23.885  1.00  0.00     0.183 C 
ATOM     12  C   UNL A   1      31.308  27.006  26.199  1.00  0.00     0.031 C 
BRANCH   8  13
ATOM     13  N   UNL A   1      30.573  29.569  23.404  1.00  0.00    -0.329 N 
ATOM     14  C   UNL A   1      29.447  30.693  22.006  1.00  0.00     0.099 C 
ATOM     15  C   UNL A   1      29.482  30.553  23.548  1.00  0.00     0.271 C 
ATOM     16  C   UNL A   1      30.214  29.355  21.987  1.00  0.00     0.271 C 
ATOM     17  H   UNL A   1      31.536  29.810  23.638  1.00  0.00     0.348 HD
BRANCH  14  18
ATOM     18  C   UNL A   1      28.077  30.657  21.337  1.00  0.00     0.012 C 
ATOM     19  C   UNL A   1      27.844  31.912  20.515  1.00  0.00     0.004 C 
ENDBRANCH  14  18
ENDBRANCH   8  13
ENDBRANCH   4   7
ENDBRANCH   2   3
ENDBRANCH   1   2
BRANCH   1  20
ATOM     20  C   UNL A   1      32.735  32.794  27.234  1.00  0.00     0.118 C 
BRANCH  20  21
ATOM     21  N   UNL A   1      32.461  34.173  27.620  1.00  0.00    -0.352 N 
ATOM     22  C   UNL A   1      33.003  34.963  28.607  1.00  0.00     0.251 C 
ATOM     23  H   UNL A   1      31.766  34.616  27.082  1.00  0.00     0.163 HD
ATOM     24  O   UNL A   1      32.487  36.046  28.870  1.00  0.00    -0.269 OA
BRANCH  22  25
ATOM     25  C   UNL A   1      34.183  34.510  29.377  1.00  0.00     0.039 A 
ATOM     26  C   UNL A   1      33.996  33.971  30.654  1.00  0.00     0.014 A 
ATOM     27  C   UNL A   1      35.472  34.625  28.858  1.00  0.00     0.014 A 
ATOM     28  C   UNL A   1      35.089  33.462  31.362  1.00  0.00     0.010 A 
ATOM     29  C   UNL A   1      36.539  34.020  29.511  1.00  0.00     0.010 A 
ATOM     30  C   UNL A   1      36.363  33.431  30.772  1.00  0.00    -0.014 A 
BRANCH  30  31
ATOM     31  C   UNL A   1      37.526  32.796  31.445  1.00  0.00     0.031 A 
ATOM     32  C   UNL A   1      38.242  31.646  30.788  1.00  0.00     0.074 A 
ATOM     33  C   UNL A   1      37.877  33.186  32.687  1.00  0.00     0.049 A 
ATOM     34  N   UNL A   1      39.180  30.869  31.267  1.00  0.00    -0.248 NA
ATOM     35  C   UNL A   1      37.815  31.295  29.423  1.00  0.00     0.031 C 
ATOM     36  C   UNL A   1      37.227  34.247  33.460  1.00  0.00     0.029 A 
ATOM     37  N   UNL A   1      38.859  32.721  33.528  1.00  0.00    -0.354 N 
ATOM     38  C   UNL A   1      39.427  29.923  30.281  1.00  0.00     0.074 A 
ATOM     39  C   UNL A   1      38.507  30.189  29.198  1.00  0.00     0.031 C 
ATOM     40  C   UNL A   1      37.840  34.367  34.648  1.00  0.00     0.029 A 
ATOM     41  C   UNL A   1      38.898  33.367  34.741  1.00  0.00     0.049 A 
ATOM     42  H   UNL A   1      39.477  31.995  33.284  1.00  0.00     0.167 HD
ATOM     43  C   UNL A   1      40.356  28.937  30.268  1.00  0.00     0.037 A 
ATOM     44  C   UNL A   1      39.692  33.168  35.810  1.00  0.00     0.037 A 
ATOM     45  C   UNL A   1      41.308  28.710  31.323  1.00  0.00     0.049 A 
ATOM     46  C   UNL A   1      40.740  32.089  35.754  1.00  0.00     0.074 A 
ATOM     47  C   UNL A   1      42.339  27.789  31.371  1.00  0.00     0.029 A 
ATOM     48  N   UNL A   1      41.350  29.422  32.512  1.00  0.00    -0.354 N 
ATOM     49  N   UNL A   1      41.006  31.244  34.789  1.00  0.00    -0.248 NA
ATOM     50  C   UNL A   1      41.603  31.941  36.936  1.00  0.00     0.031 C 
ATOM     51  C   UNL A   1      42.985  27.920  32.605  1.00  0.00     0.029 A 
ATOM     52  C   UNL A   1      42.383  28.952  33.306  1.00  0.00     0.049 A 
ATOM     53  H   UNL A   1      40.737  30.153  32.756  1.00  0.00     0.167 HD
ATOM     54  C   UNL A   1      42.082  30.487  35.231  1.00  0.00     0.074 A 
ATOM     55  C   UNL A   1      42.430  30.981  36.547  1.00  0.00     0.031 C 
ATOM     56  C   UNL A   1      42.725  29.471  34.605  1.00  0.00     0.037 A 
BRANCH  43  57
ATOM     57  C   UNL A   1      40.400  28.036  29.067  1.00  0.00     0.064 A 
ATOM     58  C   UNL A   1      39.668  26.840  29.018  1.00  0.00     0.173 A 
ATOM     59  C   UNL A   1      41.149  28.393  27.936  1.00  0.00     0.173 A 
ATOM     60  F   UNL A   1      38.946  26.448  30.078  1.00  0.00    -0.203 F 
ATOM     61  C   UNL A   1      39.707  26.021  27.894  1.00  0.00     0.198 A 
ATOM     62  C   UNL A   1      41.161  27.587  26.801  1.00  0.00     0.198 A 
ATOM     63  F   UNL A   1      41.863  29.529  27.928  1.00  0.00    -0.203 F 
ATOM     64  F   UNL A   1      39.037  24.860  27.889  1.00  0.00    -0.200 F 
ATOM     65  C   UNL A   1      40.447  26.398  26.783  1.00  0.00     0.200 A 
ATOM     66  F   UNL A   1      41.866  27.959  25.724  1.00  0.00    -0.200 F 
ATOM     67  F   UNL A   1      40.475  25.614  25.698  1.00  0.00    -0.200 F 
ENDBRANCH  43  57
BRANCH  44  68
ATOM     68  C   UNL A   1      39.549  34.025  37.015  1.00  0.00     0.064 A 
ATOM     69  C   UNL A   1      38.792  33.595  38.114  1.00  0.00     0.173 A 
ATOM     70  C   UNL A   1      40.149  35.291  37.092  1.00  0.00     0.173 A 
ATOM     71  F   UNL A   1      38.183  32.401  38.081  1.00  0.00    -0.203 F 
ATOM     72  C   UNL A   1      38.620  34.408  39.233  1.00  0.00     0.198 A 
ATOM     73  C   UNL A   1      39.999  36.091  38.223  1.00  0.00     0.198 A 
ATOM     74  F   UNL A   1      40.889  35.746  36.071  1.00  0.00    -0.203 F 
ATOM     75  F   UNL A   1      37.850  33.991  40.248  1.00  0.00    -0.200 F 
ATOM     76  C   UNL A   1      39.227  35.652  39.288  1.00  0.00     0.200 A 
ATOM     77  F   UNL A   1      40.599  37.288  38.279  1.00  0.00    -0.200 F 
ATOM     78  F   UNL A   1      39.061  36.434  40.365  1.00  0.00    -0.200 F 
ENDBRANCH  44  68
BRANCH  56  79
ATOM     79  C   UNL A   1      43.895  28.857  35.313  1.00  0.00     0.064 A 
ATOM     80  C   UNL A   1      45.205  29.312  35.102  1.00  0.00     0.173 A 
ATOM     81  C   UNL A   1      43.696  27.831  36.250  1.00  0.00     0.173 A 
ATOM     82  F   UNL A   1      45.447  30.279  34.204  1.00  0.00    -0.203 F 
ATOM     83  C   UNL A   1      46.277  28.745  35.786  1.00  0.00     0.198 A 
ATOM     84  C   UNL A   1      44.767  27.288  36.953  1.00  0.00     0.198 A 
ATOM     85  F   UNL A   1      42.461  27.367  36.492  1.00  0.00    -0.203 F 
ATOM     86  F   UNL A   1      47.525  29.164  35.537  1.00  0.00    -0.200 F 
ATOM     87  C   UNL A   1      46.056  27.740  36.716  1.00  0.00     0.200 A 
ATOM     88  F   UNL A   1      44.550  26.325  37.861  1.00  0.00    -0.200 F 
ATOM     89  F   UNL A   1      47.088  27.203  37.381  1.00  0.00    -0.200 F 
ENDBRANCH  56  79
ENDBRANCH  30  31
ENDBRANCH  22  25
ENDBRANCH  20  21
ENDBRANCH   1  20
TORSDOF 12
ENDMDL
MODEL 2
REMARK VINA RESULT:     -12.1      6.805     12.083
REMARK SMILES CCC1C[NH+]([C@H]2COC[C@@]2(C)C(=O)NCCCNC(=O)c2ccc(-c3c4nc(c(-c5c(F)c(F)c(F)c(F)c5F)c5ccc([nH]5)c(-c5c(F)c(F)c(F)c(F)c5F)c5nc(c(-c6c(F)c(F)c(F)c(F)c6F)c6ccc3[nH]6)C=C5)C=C4)cc2)C1
REMARK SMILES IDX 16 1 15 2 14 3 12 4 13 5 10 7 6 8 7 9 8 10 9 11 11 12 5 13
REMARK SMILES IDX 3 14 4 15 84 16 2 18 1 19 17 20 18 21 19 22 20 24 21 25
REMARK SMILES IDX 22 26 83 27 23 28 82 29 24 30 25 31 26 32 76 33 27 34 81 35
REMARK SMILES IDX 75 36 77 37 28 38 80 39 74 40 73 41 29 43 61 44 41 45 60 46
REMARK SMILES IDX 42 47 45 48 59 49 78 50 43 51 44 52 58 54 79 55 46 56 30 57
REMARK SMILES IDX 31 58 39 59 32 60 33 61 37 62 40 63 34 64 35 65 38 66 36 67
REMARK SMILES IDX 62 68 63 69 71 70 64 71 65 72 69 73 72 74 66 75 67 76 70 77
REMARK SMILES IDX 68 78 47 79 48 80 56 81 49 82 50 83 54 84 57 85 51 86 52 87
REMARK SMILES IDX 55 88 53 89
REMARK H PARENT 14 6 5 17 18 23 77 42 45 53
REMARK Flexibility Score: inf
ROOT
ATOM      1  C   UNL A   1      38.147  19.983  25.002  1.00  0.00     0.042 C 
ENDROOT
BRANCH   1   2
ATOM      2  C   UNL A   1      37.277  21.205  24.742  1.00  0.00     0.117 C 
BRANCH   2   3
ATOM      3  N   UNL A   1      36.419  21.538  25.862  1.00  0.00    -0.355 N 
ATOM      4  C   UNL A   1      35.153  22.033  25.921  1.00  0.00     0.234 C 
ATOM      5  O   UNL A   1      34.875  22.561  27.004  1.00  0.00    -0.274 OA
ATOM      6  H   UNL A   1      36.828  21.375  26.743  1.00  0.00     0.163 HD
BRANCH   4   7
ATOM      7  C   UNL A   1      34.126  21.966  24.771  1.00  0.00     0.123 C 
ATOM      8  C   UNL A   1      33.831  20.527  24.251  1.00  0.00     0.228 C 
ATOM      9  C   UNL A   1      32.399  20.709  23.698  1.00  0.00     0.226 C 
ATOM     10  O   UNL A   1      31.767  21.763  24.447  1.00  0.00    -0.374 OA
ATOM     11  C   UNL A   1      32.749  22.343  25.327  1.00  0.00     0.183 C 
ATOM     12  C   UNL A   1      34.393  22.893  23.566  1.00  0.00     0.031 C 
BRANCH   8  13
ATOM     13  N   UNL A   1      34.028  19.421  25.217  1.00  0.00    -0.329 N 
ATOM     14  C   UNL A   1      33.701  17.332  25.349  1.00  0.00     0.099 C 
ATOM     15  C   UNL A   1      34.713  18.254  24.626  1.00  0.00     0.271 C 
ATOM     16  C   UNL A   1      32.831  18.599  25.490  1.00  0.00     0.271 C 
ATOM     17  H   UNL A   1      34.449  19.948  25.982  1.00  0.00     0.348 HD
BRANCH  14  18
ATOM     18  C   UNL A   1      33.072  16.212  24.526  1.00  0.00     0.012 C 
ATOM     19  C   UNL A   1      32.864  14.970  25.376  1.00  0.00     0.004 C 
ENDBRANCH  14  18
ENDBRANCH   8  13
ENDBRANCH   4   7
ENDBRANCH   2   3
ENDBRANCH   1   2
BRANCH   1  20
ATOM     20  C   UNL A   1      39.204  20.208  26.073  1.00  0.00     0.118 C 
BRANCH  20  21
ATOM     21  N   UNL A   1      40.247  19.188  26.067  1.00  0.00    -0.352 N 
ATOM     22  C   UNL A   1      41.616  19.291  26.126  1.00  0.00     0.251 C 
ATOM     23  H   UNL A   1      39.912  18.264  26.011  1.00  0.00     0.163 HD
ATOM     24  O   UNL A   1      42.310  18.298  25.923  1.00  0.00    -0.269 OA
BRANCH  22  25
ATOM     25  C   UNL A   1      42.267  20.591  26.401  1.00  0.00     0.039 A 
ATOM     26  C   UNL A   1      42.657  21.398  25.326  1.00  0.00     0.014 A 
ATOM     27  C   UNL A   1      42.509  21.017  27.707  1.00  0.00     0.014 A 
ATOM     28  C   UNL A   1      43.197  22.665  25.567  1.00  0.00     0.010 A 
ATOM     29  C   UNL A   1      42.940  22.317  27.944  1.00  0.00     0.010 A 
ATOM     30  C   UNL A   1      43.291  23.158  26.878  1.00  0.00    -0.014 A 
BRANCH  30  31
ATOM     31  C   UNL A   1      43.752  24.541  27.168  1.00  0.00     0.031 A 
ATOM     32  C   UNL A   1      42.779  25.568  27.682  1.00  0.00     0.074 A 
ATOM     33  C   UNL A   1      45.018  24.901  26.876  1.00  0.00     0.049 A 
ATOM     34  N   UNL A   1      42.946  26.854  27.860  1.00  0.00    -0.248 NA
ATOM     35  C   UNL A   1      41.422  25.093  27.998  1.00  0.00     0.031 C 
ATOM     36  C   UNL A   1      46.044  24.018  26.316  1.00  0.00     0.029 A 
ATOM     37  N   UNL A   1      45.655  26.112  26.993  1.00  0.00    -0.354 N 
ATOM     38  C   UNL A   1      41.712  27.342  28.273  1.00  0.00     0.074 A 
ATOM     39  C   UNL A   1      40.792  26.226  28.269  1.00  0.00     0.031 C 
ATOM     40  C   UNL A   1      47.184  24.709  26.160  1.00  0.00     0.029 A 
ATOM     41  C   UNL A   1      46.962  26.091  26.568  1.00  0.00     0.049 A 
ATOM     42  H   UNL A   1      45.217  26.919  27.347  1.00  0.00     0.167 HD
ATOM     43  C   UNL A   1      41.382  28.601  28.646  1.00  0.00     0.037 A 
ATOM     44  C   UNL A   1      47.875  27.079  26.507  1.00  0.00     0.037 A 
ATOM     45  C   UNL A   1      42.313  29.697  28.702  1.00  0.00     0.049 A 
ATOM     46  C   UNL A   1      47.492  28.461  26.962  1.00  0.00     0.074 A 
ATOM     47  C   UNL A   1      42.096  30.991  29.141  1.00  0.00     0.029 A 
ATOM     48  N   UNL A   1      43.642  29.622  28.316  1.00  0.00    -0.354 N 
ATOM     49  N   UNL A   1      46.339  28.894  27.412  1.00  0.00    -0.248 NA
ATOM     50  C   UNL A   1      48.539  29.492  26.907  1.00  0.00     0.031 C 
ATOM     51  C   UNL A   1      43.286  31.709  28.989  1.00  0.00     0.029 A 
ATOM     52  C   UNL A   1      44.255  30.851  28.496  1.00  0.00     0.049 A 
ATOM     53  H   UNL A   1      44.085  28.815  27.966  1.00  0.00     0.167 HD
ATOM     54  C   UNL A   1      46.529  30.233  27.722  1.00  0.00     0.074 A 
ATOM     55  C   UNL A   1      47.912  30.541  27.422  1.00  0.00     0.031 C 
ATOM     56  C   UNL A   1      45.638  31.131  28.210  1.00  0.00     0.037 A 
BRANCH  43  57
ATOM     57  C   UNL A   1      39.956  28.861  29.040  1.00  0.00     0.064 A 
ATOM     58  C   UNL A   1      38.995  29.261  28.098  1.00  0.00     0.173 A 
ATOM     59  C   UNL A   1      39.536  28.666  30.363  1.00  0.00     0.173 A 
ATOM     60  F   UNL A   1      39.349  29.473  26.822  1.00  0.00    -0.203 F 
ATOM     61  C   UNL A   1      37.674  29.486  28.475  1.00  0.00     0.198 A 
ATOM     62  C   UNL A   1      38.206  28.861  30.730  1.00  0.00     0.198 A 
ATOM     63  F   UNL A   1      40.413  28.277  31.302  1.00  0.00    -0.203 F 
ATOM     64  F   UNL A   1      36.785  29.914  27.567  1.00  0.00    -0.200 F 
ATOM     65  C   UNL A   1      37.279  29.277  29.787  1.00  0.00     0.200 A 
ATOM     66  F   UNL A   1      37.823  28.647  31.996  1.00  0.00    -0.200 F 
ATOM     67  F   UNL A   1      36.004  29.484  30.145  1.00  0.00    -0.200 F 
ENDBRANCH  43  57
BRANCH  44  68
ATOM     68  C   UNL A   1      49.250  26.796  26.020  1.00  0.00     0.064 A 
ATOM     69  C   UNL A   1      49.593  27.004  24.677  1.00  0.00     0.173 A 
ATOM     70  C   UNL A   1      50.244  26.299  26.877  1.00  0.00     0.173 A 
ATOM     71  F   UNL A   1      48.672  27.459  23.815  1.00  0.00    -0.203 F 
ATOM     72  C   UNL A   1      50.868  26.703  24.203  1.00  0.00     0.198 A 
ATOM     73  C   UNL A   1      51.528  26.026  26.408  1.00  0.00     0.198 A 
ATOM     74  F   UNL A   1      49.970  26.088  28.172  1.00  0.00    -0.203 F 
ATOM     75  F   UNL A   1      51.153  26.866  22.904  1.00  0.00    -0.200 F 
ATOM     76  C   UNL A   1      51.836  26.219  25.070  1.00  0.00     0.200 A 
ATOM     77  F   UNL A   1      52.464  25.570  27.252  1.00  0.00    -0.200 F 
ATOM     78  F   UNL A   1      53.062  25.930  24.613  1.00  0.00    -0.200 F 
ENDBRANCH  44  68
BRANCH  56  79
ATOM     79  C   UNL A   1      46.140  32.515  28.492  1.00  0.00     0.064 A 
ATOM     80  C   UNL A   1      46.075  33.532  27.528  1.00  0.00     0.173 A 
ATOM     81  C   UNL A   1      46.649  32.839  29.759  1.00  0.00     0.173 A 
ATOM     82  F   UNL A   1      45.611  33.267  26.298  1.00  0.00    -0.203 F 
ATOM     83  C   UNL A   1      46.525  34.818  27.816  1.00  0.00     0.198 A 
ATOM     84  C   UNL A   1      47.070  34.133  30.051  1.00  0.00     0.198 A 
ATOM     85  F   UNL A   1      46.725  31.902  30.716  1.00  0.00    -0.203 F 
ATOM     86  F   UNL A   1      46.495  35.764  26.867  1.00  0.00    -0.200 F 
ATOM     87  C   UNL A   1      47.014  35.119  29.079  1.00  0.00     0.200 A 
ATOM     88  F   UNL A   1      47.531  34.424  31.276  1.00  0.00    -0.200 F 
ATOM     89  F   UNL A   1      47.437  36.359  29.356  1.00  0.00    -0.200 F 
ENDBRANCH  56  79
ENDBRANCH  30  31
ENDBRANCH  22  25
ENDBRANCH  20  21
ENDBRANCH   1  20
TORSDOF 12
ENDMDL
MODEL 3
REMARK VINA RESULT:     -12.1      6.788     12.071
REMARK SMILES CCC1C[NH+]([C@H]2COC[C@@]2(C)C(=O)NCCCNC(=O)c2ccc(-c3c4nc(c(-c5c(F)c(F)c(F)c(F)c5F)c5ccc([nH]5)c(-c5c(F)c(F)c(F)c(F)c5F)c5nc(c(-c6c(F)c(F)c(F)c(F)c6F)c6ccc3[nH]6)C=C5)C=C4)cc2)C1
REMARK SMILES IDX 16 1 15 2 14 3 12 4 13 5 10 7 6 8 7 9 8 10 9 11 11 12 5 13
REMARK SMILES IDX 3 14 4 15 84 16 2 18 1 19 17 20 18 21 19 22 20 24 21 25
REMARK SMILES IDX 22 26 83 27 23 28 82 29 24 30 25 31 26 32 76 33 27 34 81 35
REMARK SMILES IDX 75 36 77 37 28 38 80 39 74 40 73 41 29 43 61 44 41 45 60 46
REMARK SMILES IDX 42 47 45 48 59 49 78 50 43 51 44 52 58 54 79 55 46 56 30 57
REMARK SMILES IDX 31 58 39 59 32 60 33 61 37 62 40 63 34 64 35 65 38 66 36 67
REMARK SMILES IDX 62 68 63 69 71 70 64 71 65 72 69 73 72 74 66 75 67 76 70 77
REMARK SMILES IDX 68 78 47 79 48 80 56 81 49 82 50 83 54 84 57 85 51 86 52 87
REMARK SMILES IDX 55 88 53 89
REMARK H PARENT 14 6 5 17 18 23 77 42 45 53
REMARK Flexibility Score: inf
ROOT
ATOM      1  C   UNL A   1      38.142  19.893  25.001  1.00  0.00     0.042 C 
ENDROOT
BRANCH   1   2
ATOM      2  C   UNL A   1      37.269  21.108  24.721  1.00  0.00     0.117 C 
BRANCH   2   3
ATOM      3  N   UNL A   1      36.429  21.472  25.845  1.00  0.00    -0.355 N 
ATOM      4  C   UNL A   1      35.177  22.001  25.910  1.00  0.00     0.234 C 
ATOM      5  O   UNL A   1      34.921  22.546  26.991  1.00  0.00    -0.274 OA
ATOM      6  H   UNL A   1      36.841  21.307  26.725  1.00  0.00     0.163 HD
BRANCH   4   7
ATOM      7  C   UNL A   1      34.139  21.952  24.769  1.00  0.00     0.123 C 
ATOM      8  C   UNL A   1      33.816  20.518  24.251  1.00  0.00     0.228 C 
ATOM      9  C   UNL A   1      32.382  20.724  23.711  1.00  0.00     0.226 C 
ATOM     10  O   UNL A   1      31.774  21.788  24.466  1.00  0.00    -0.374 OA
ATOM     11  C   UNL A   1      32.773  22.351  25.338  1.00  0.00     0.183 C 
ATOM     12  C   UNL A   1      34.410  22.875  23.562  1.00  0.00     0.031 C 
BRANCH   8  13
ATOM     13  N   UNL A   1      34.003  19.408  25.215  1.00  0.00    -0.329 N 
ATOM     14  C   UNL A   1      33.673  17.319  25.336  1.00  0.00     0.099 C 
ATOM     15  C   UNL A   1      34.693  18.243  24.626  1.00  0.00     0.271 C 
ATOM     16  C   UNL A   1      32.803  18.586  25.474  1.00  0.00     0.271 C 
ATOM     17  H   UNL A   1      34.418  19.933  25.986  1.00  0.00     0.348 HD
BRANCH  14  18
ATOM     18  C   UNL A   1      33.051  16.203  24.504  1.00  0.00     0.012 C 
ATOM     19  C   UNL A   1      32.708  15.007  25.376  1.00  0.00     0.004 C 
ENDBRANCH  14  18
ENDBRANCH   8  13
ENDBRANCH   4   7
ENDBRANCH   2   3
ENDBRANCH   1   2
BRANCH   1  20
ATOM     20  C   UNL A   1      39.216  20.146  26.049  1.00  0.00     0.118 C 
BRANCH  20  21
ATOM     21  N   UNL A   1      40.263  19.132  26.048  1.00  0.00    -0.352 N 
ATOM     22  C   UNL A   1      41.632  19.241  26.126  1.00  0.00     0.251 C 
ATOM     23  H   UNL A   1      39.934  18.207  25.980  1.00  0.00     0.163 HD
ATOM     24  O   UNL A   1      42.332  18.252  25.923  1.00  0.00    -0.269 OA
BRANCH  22  25
ATOM     25  C   UNL A   1      42.273  20.541  26.421  1.00  0.00     0.039 A 
ATOM     26  C   UNL A   1      42.744  21.323  25.360  1.00  0.00     0.014 A 
ATOM     27  C   UNL A   1      42.425  20.992  27.731  1.00  0.00     0.014 A 
ATOM     28  C   UNL A   1      43.277  22.591  25.612  1.00  0.00     0.010 A 
ATOM     29  C   UNL A   1      42.850  22.293  27.972  1.00  0.00     0.010 A 
ATOM     30  C   UNL A   1      43.282  23.110  26.917  1.00  0.00    -0.014 A 
BRANCH  30  31
ATOM     31  C   UNL A   1      43.734  24.495  27.211  1.00  0.00     0.031 A 
ATOM     32  C   UNL A   1      42.753  25.514  27.729  1.00  0.00     0.074 A 
ATOM     33  C   UNL A   1      44.997  24.865  26.919  1.00  0.00     0.049 A 
ATOM     34  N   UNL A   1      42.911  26.801  27.912  1.00  0.00    -0.248 NA
ATOM     35  C   UNL A   1      41.400  25.028  28.045  1.00  0.00     0.031 C 
ATOM     36  C   UNL A   1      46.029  23.991  26.356  1.00  0.00     0.029 A 
ATOM     37  N   UNL A   1      45.626  26.080  27.040  1.00  0.00    -0.354 N 
ATOM     38  C   UNL A   1      41.675  27.278  28.326  1.00  0.00     0.074 A 
ATOM     39  C   UNL A   1      40.763  26.155  28.320  1.00  0.00     0.031 C 
ATOM     40  C   UNL A   1      47.164  24.691  26.202  1.00  0.00     0.029 A 
ATOM     41  C   UNL A   1      46.932  26.071  26.614  1.00  0.00     0.049 A 
ATOM     42  H   UNL A   1      45.181  26.883  27.397  1.00  0.00     0.167 HD
ATOM     43  C   UNL A   1      41.336  28.534  28.704  1.00  0.00     0.037 A 
ATOM     44  C   UNL A   1      47.838  27.065  26.555  1.00  0.00     0.037 A 
ATOM     45  C   UNL A   1      42.259  29.636  28.763  1.00  0.00     0.049 A 
ATOM     46  C   UNL A   1      47.445  28.443  27.015  1.00  0.00     0.074 A 
ATOM     47  C   UNL A   1      42.033  30.927  29.206  1.00  0.00     0.029 A 
ATOM     48  N   UNL A   1      43.588  29.571  28.376  1.00  0.00    -0.354 N 
ATOM     49  N   UNL A   1      46.290  28.866  27.467  1.00  0.00    -0.248 NA
ATOM     50  C   UNL A   1      48.485  29.481  26.963  1.00  0.00     0.031 C 
ATOM     51  C   UNL A   1      43.218  31.654  29.055  1.00  0.00     0.029 A 
ATOM     52  C   UNL A   1      44.193  30.804  28.559  1.00  0.00     0.049 A 
ATOM     53  H   UNL A   1      44.037  28.769  28.023  1.00  0.00     0.167 HD
ATOM     54  C   UNL A   1      46.471  30.205  27.781  1.00  0.00     0.074 A 
ATOM     55  C   UNL A   1      47.851  30.524  27.481  1.00  0.00     0.031 C 
ATOM     56  C   UNL A   1      45.574  31.095  28.273  1.00  0.00     0.037 A 
BRANCH  43  57
ATOM     57  C   UNL A   1      39.909  28.782  29.099  1.00  0.00     0.064 A 
ATOM     58  C   UNL A   1      39.478  28.636  30.427  1.00  0.00     0.173 A 
ATOM     59  C   UNL A   1      38.971  29.213  28.150  1.00  0.00     0.173 A 
ATOM     60  F   UNL A   1      40.333  28.215  31.371  1.00  0.00    -0.203 F 
ATOM     61  C   UNL A   1      38.155  28.883  30.782  1.00  0.00     0.198 A 
ATOM     62  C   UNL A   1      37.656  29.490  28.514  1.00  0.00     0.198 A 
ATOM     63  F   UNL A   1      39.332  29.375  26.867  1.00  0.00    -0.203 F 
ATOM     64  F   UNL A   1      37.756  28.691  32.047  1.00  0.00    -0.200 F 
ATOM     65  C   UNL A   1      37.247  29.318  29.828  1.00  0.00     0.200 A 
ATOM     66  F   UNL A   1      36.783  29.922  27.594  1.00  0.00    -0.200 F 
ATOM     67  F   UNL A   1      35.977  29.565  30.175  1.00  0.00    -0.200 F 
ENDBRANCH  43  57
BRANCH  44  68
ATOM     68  C   UNL A   1      49.215  26.793  26.067  1.00  0.00     0.064 A 
ATOM     69  C   UNL A   1      49.554  27.006  24.724  1.00  0.00     0.173 A 
ATOM     70  C   UNL A   1      50.214  26.303  26.922  1.00  0.00     0.173 A 
ATOM     71  F   UNL A   1      48.629  27.455  23.863  1.00  0.00    -0.203 F 
ATOM     72  C   UNL A   1      50.832  26.716  24.248  1.00  0.00     0.198 A 
ATOM     73  C   UNL A   1      51.499  26.040  26.451  1.00  0.00     0.198 A 
ATOM     74  F   UNL A   1      49.942  26.087  28.217  1.00  0.00    -0.203 F 
ATOM     75  F   UNL A   1      51.113  26.883  22.948  1.00  0.00    -0.200 F 
ATOM     76  C   UNL A   1      51.804  26.238  25.113  1.00  0.00     0.200 A 
ATOM     77  F   UNL A   1      52.439  25.591  27.293  1.00  0.00    -0.200 F 
ATOM     78  F   UNL A   1      53.032  25.959  24.655  1.00  0.00    -0.200 F 
ENDBRANCH  44  68
BRANCH  56  79
ATOM     79  C   UNL A   1      46.066  32.482  28.559  1.00  0.00     0.064 A 
ATOM     80  C   UNL A   1      46.637  32.820  29.795  1.00  0.00     0.173 A 
ATOM     81  C   UNL A   1      46.008  33.473  27.566  1.00  0.00     0.173 A 
ATOM     82  F   UNL A   1      46.700  31.912  30.780  1.00  0.00    -0.203 F 
ATOM     83  C   UNL A   1      47.110  34.108  30.034  1.00  0.00     0.198 A 
ATOM     84  C   UNL A   1      46.509  34.749  27.800  1.00  0.00     0.198 A 
ATOM     85  F   UNL A   1      45.477  33.196  26.366  1.00  0.00    -0.203 F 
ATOM     86  F   UNL A   1      47.612  34.422  31.236  1.00  0.00    -0.200 F 
ATOM     87  C   UNL A   1      47.053  35.068  29.034  1.00  0.00     0.200 A 
ATOM     88  F   UNL A   1      46.464  35.672  26.829  1.00  0.00    -0.200 F 
ATOM     89  F   UNL A   1      47.518  36.303  29.264  1.00  0.00    -0.200 F 
ENDBRANCH  56  79
ENDBRANCH  30  31
ENDBRANCH  22  25
ENDBRANCH  20  21
ENDBRANCH   1  20
TORSDOF 12
ENDMDL
