MODEL 1
REMARK VINA RESULT:     -12.7      0.000      0.000
REMARK SMILES CCc1cccc(CC)c1NC(=O)C[C@@](C)(C(=O)NCCCNC(=O)c1ccc(-c2c3nc(c(-c4c(F)c(F)c(F)c(F)c4F)c4ccc([nH]4)c(-c4c(F)c(F)c(F)c(F)c4F)c4nc(c(-c5c(F)c(F)c(F)c(F)c5F)c5ccc2[nH]5)C=C4)C=C3)cc1)c1ccccc1
REMARK SMILES IDX 20 1 19 2 17 3 18 4 15 6 16 7 14 8 12 9 11 10 13 12 10 13
REMARK SMILES IDX 3 14 4 15 5 16 7 17 6 18 2 19 1 20 8 21 9 22 89 23 90 24
REMARK SMILES IDX 94 25 91 26 93 27 92 28 21 29 22 30 23 31 24 32 25 34 26 35
REMARK SMILES IDX 27 36 88 37 28 38 87 39 29 40 30 41 31 42 81 43 32 44 86 45
REMARK SMILES IDX 80 46 82 47 33 48 85 49 79 50 78 51 34 53 66 54 46 55 65 56
REMARK SMILES IDX 47 57 50 58 64 59 83 60 48 61 49 62 63 64 84 65 51 66 35 67
REMARK SMILES IDX 36 68 44 69 37 70 38 71 42 72 45 73 39 74 40 75 43 76 41 77
REMARK SMILES IDX 67 78 68 79 76 80 69 81 70 82 74 83 77 84 71 85 72 86 75 87
REMARK SMILES IDX 73 88 52 89 53 90 61 91 54 92 55 93 59 94 62 95 56 96 57 97
REMARK SMILES IDX 60 98 58 99
REMARK H PARENT 19 5 11 11 23 33 82 52 50 63
REMARK Flexibility Score: inf
ROOT
ATOM      1  C   UNL A   1      35.322  20.805  24.942  1.00  0.00     0.117 C 
ENDROOT
BRANCH   1   2
ATOM      2  N   UNL A   1      34.283  21.647  25.516  1.00  0.00    -0.355 N 
ATOM      3  C   UNL A   1      33.177  22.031  24.783  1.00  0.00     0.230 C 
ATOM      4  O   UNL A   1      32.704  21.280  23.933  1.00  0.00    -0.274 OA
ATOM      5  H   UNL A   1      34.370  21.950  26.448  1.00  0.00     0.163 HD
BRANCH   3   6
ATOM      6  C   UNL A   1      32.660  23.489  25.023  1.00  0.00     0.080 C 
ATOM      7  C   UNL A   1      33.449  23.963  26.284  1.00  0.00     0.027 C 
BRANCH   6   8
ATOM      8  C   UNL A   1      31.114  23.435  25.243  1.00  0.00     0.121 C 
BRANCH   8   9
ATOM      9  C   UNL A   1      30.528  24.374  26.246  1.00  0.00     0.225 C 
ATOM     10  N   UNL A   1      30.494  25.718  26.233  1.00  0.00    -0.326 N 
ATOM     11  H   UNL A   1      29.940  25.985  27.002  1.00  0.00     0.169 HD
ATOM     12  O   UNL A   1      29.994  23.871  27.250  1.00  0.00    -0.275 OA
BRANCH  10  13
ATOM     13  C   UNL A   1      30.902  26.923  25.604  1.00  0.00     0.047 A 
ATOM     14  C   UNL A   1      30.214  27.168  24.362  1.00  0.00    -0.024 A 
ATOM     15  C   UNL A   1      30.409  28.365  23.640  1.00  0.00     0.006 A 
ATOM     16  C   UNL A   1      31.270  29.338  24.099  1.00  0.00     0.001 A 
ATOM     17  C   UNL A   1      31.836  27.905  26.019  1.00  0.00    -0.024 A 
ATOM     18  C   UNL A   1      31.963  29.107  25.270  1.00  0.00     0.006 A 
BRANCH  14  19
ATOM     19  C   UNL A   1      29.268  26.175  23.685  1.00  0.00     0.034 C 
ATOM     20  C   UNL A   1      27.786  26.453  23.912  1.00  0.00     0.009 C 
ENDBRANCH  14  19
BRANCH  17  21
ATOM     21  C   UNL A   1      32.788  27.863  27.182  1.00  0.00     0.034 C 
ATOM     22  C   UNL A   1      34.142  28.529  26.895  1.00  0.00     0.009 C 
ENDBRANCH  17  21
ENDBRANCH  10  13
ENDBRANCH   8   9
ENDBRANCH   6   8
BRANCH   6  23
ATOM     23  C   UNL A   1      33.081  24.510  23.939  1.00  0.00    -0.032 A 
ATOM     24  C   UNL A   1      33.929  25.594  24.208  1.00  0.00     0.005 A 
ATOM     25  C   UNL A   1      32.422  24.494  22.688  1.00  0.00     0.005 A 
ATOM     26  C   UNL A   1      34.016  26.667  23.312  1.00  0.00     0.000 A 
ATOM     27  C   UNL A   1      32.492  25.573  21.809  1.00  0.00     0.000 A 
ATOM     28  C   UNL A   1      33.273  26.674  22.133  1.00  0.00     0.000 A 
ENDBRANCH   6  23
ENDBRANCH   3   6
ENDBRANCH   1   2
BRANCH   1  29
ATOM     29  C   UNL A   1      36.409  21.683  24.324  1.00  0.00     0.042 C 
BRANCH  29  30
ATOM     30  C   UNL A   1      37.496  22.093  25.302  1.00  0.00     0.118 C 
BRANCH  30  31
ATOM     31  N   UNL A   1      38.448  21.062  25.686  1.00  0.00    -0.352 N 
ATOM     32  C   UNL A   1      39.617  21.227  26.421  1.00  0.00     0.251 C 
ATOM     33  H   UNL A   1      38.241  20.146  25.392  1.00  0.00     0.163 HD
ATOM     34  O   UNL A   1      40.362  20.290  26.629  1.00  0.00    -0.269 OA
BRANCH  32  35
ATOM     35  C   UNL A   1      39.978  22.591  26.903  1.00  0.00     0.039 A 
ATOM     36  C   UNL A   1      41.044  22.750  27.794  1.00  0.00     0.014 A 
ATOM     37  C   UNL A   1      39.312  23.714  26.417  1.00  0.00     0.014 A 
ATOM     38  C   UNL A   1      41.511  24.037  28.099  1.00  0.00     0.010 A 
ATOM     39  C   UNL A   1      39.847  24.979  26.624  1.00  0.00     0.010 A 
ATOM     40  C   UNL A   1      40.954  25.159  27.468  1.00  0.00    -0.014 A 
BRANCH  40  41
ATOM     41  C   UNL A   1      41.471  26.541  27.665  1.00  0.00     0.031 A 
ATOM     42  C   UNL A   1      42.847  26.893  27.168  1.00  0.00     0.074 A 
ATOM     43  C   UNL A   1      40.778  27.431  28.405  1.00  0.00     0.049 A 
ATOM     44  N   UNL A   1      43.580  27.949  27.415  1.00  0.00    -0.248 NA
ATOM     45  C   UNL A   1      43.513  25.889  26.321  1.00  0.00     0.031 C 
ATOM     46  C   UNL A   1      39.459  27.203  28.996  1.00  0.00     0.029 A 
ATOM     47  N   UNL A   1      41.102  28.705  28.804  1.00  0.00    -0.354 N 
ATOM     48  C   UNL A   1      44.808  27.704  26.812  1.00  0.00     0.074 A 
ATOM     49  C   UNL A   1      44.737  26.383  26.230  1.00  0.00     0.031 C 
ATOM     50  C   UNL A   1      39.073  28.309  29.651  1.00  0.00     0.029 A 
ATOM     51  C   UNL A   1      40.133  29.308  29.568  1.00  0.00     0.049 A 
ATOM     52  H   UNL A   1      41.950  29.145  28.563  1.00  0.00     0.167 HD
ATOM     53  C   UNL A   1      45.889  28.517  26.730  1.00  0.00     0.037 A 
ATOM     54  C   UNL A   1      40.107  30.528  30.140  1.00  0.00     0.037 A 
ATOM     55  C   UNL A   1      45.924  29.861  27.238  1.00  0.00     0.049 A 
ATOM     56  C   UNL A   1      41.295  31.439  29.985  1.00  0.00     0.074 A 
ATOM     57  C   UNL A   1      46.927  30.806  27.117  1.00  0.00     0.029 A 
ATOM     58  N   UNL A   1      44.894  30.458  27.953  1.00  0.00    -0.354 N 
ATOM     59  N   UNL A   1      42.430  31.220  29.365  1.00  0.00    -0.248 NA
ATOM     60  C   UNL A   1      41.200  32.766  30.610  1.00  0.00     0.031 C 
ATOM     61  C   UNL A   1      46.517  31.965  27.785  1.00  0.00     0.029 A 
ATOM     62  C   UNL A   1      45.242  31.755  28.287  1.00  0.00     0.049 A 
ATOM     63  H   UNL A   1      44.043  30.022  28.187  1.00  0.00     0.167 HD
ATOM     64  C   UNL A   1      43.165  32.390  29.489  1.00  0.00     0.074 A 
ATOM     65  C   UNL A   1      42.349  33.317  30.247  1.00  0.00     0.031 C 
ATOM     66  C   UNL A   1      44.404  32.672  29.018  1.00  0.00     0.037 A 
BRANCH  53  67
ATOM     67  C   UNL A   1      47.117  27.968  26.060  1.00  0.00     0.064 A 
ATOM     68  C   UNL A   1      47.251  27.943  24.663  1.00  0.00     0.173 A 
ATOM     69  C   UNL A   1      48.175  27.455  26.827  1.00  0.00     0.173 A 
ATOM     70  F   UNL A   1      46.266  28.411  23.882  1.00  0.00    -0.203 F 
ATOM     71  C   UNL A   1      48.371  27.379  24.059  1.00  0.00     0.198 A 
ATOM     72  C   UNL A   1      49.310  26.925  26.220  1.00  0.00     0.198 A 
ATOM     73  F   UNL A   1      48.105  27.462  28.167  1.00  0.00    -0.203 F 
ATOM     74  F   UNL A   1      48.440  27.298  22.723  1.00  0.00    -0.200 F 
ATOM     75  C   UNL A   1      49.401  26.874  24.838  1.00  0.00     0.200 A 
ATOM     76  F   UNL A   1      50.311  26.449  26.973  1.00  0.00    -0.200 F 
ATOM     77  F   UNL A   1      50.477  26.326  24.255  1.00  0.00    -0.200 F 
ENDBRANCH  53  67
BRANCH  54  78
ATOM     78  C   UNL A   1      38.890  30.982  30.862  1.00  0.00     0.064 A 
ATOM     79  C   UNL A   1      37.835  31.583  30.159  1.00  0.00     0.173 A 
ATOM     80  C   UNL A   1      38.743  30.818  32.246  1.00  0.00     0.173 A 
ATOM     81  F   UNL A   1      37.939  31.780  28.837  1.00  0.00    -0.203 F 
ATOM     82  C   UNL A   1      36.683  32.011  30.816  1.00  0.00     0.198 A 
ATOM     83  C   UNL A   1      37.579  31.226  32.898  1.00  0.00     0.198 A 
ATOM     84  F   UNL A   1      39.721  30.244  32.962  1.00  0.00    -0.203 F 
ATOM     85  F   UNL A   1      35.705  32.613  30.124  1.00  0.00    -0.200 F 
ATOM     86  C   UNL A   1      36.554  31.827  32.184  1.00  0.00     0.200 A 
ATOM     87  F   UNL A   1      37.453  31.036  34.218  1.00  0.00    -0.200 F 
ATOM     88  F   UNL A   1      35.443  32.232  32.814  1.00  0.00    -0.200 F 
ENDBRANCH  54  78
BRANCH  66  89
ATOM     89  C   UNL A   1      44.936  34.054  29.253  1.00  0.00     0.064 A 
ATOM     90  C   UNL A   1      45.660  34.378  30.407  1.00  0.00     0.173 A 
ATOM     91  C   UNL A   1      44.771  35.047  28.275  1.00  0.00     0.173 A 
ATOM     92  F   UNL A   1      45.830  33.466  31.376  1.00  0.00    -0.203 F 
ATOM     93  C   UNL A   1      46.189  35.655  30.581  1.00  0.00     0.198 A 
ATOM     94  C   UNL A   1      45.324  36.313  28.441  1.00  0.00     0.198 A 
ATOM     95  F   UNL A   1      44.089  34.782  27.150  1.00  0.00    -0.203 F 
ATOM     96  F   UNL A   1      46.851  35.955  31.708  1.00  0.00    -0.200 F 
ATOM     97  C   UNL A   1      46.029  36.617  29.595  1.00  0.00     0.200 A 
ATOM     98  F   UNL A   1      45.177  37.238  27.481  1.00  0.00    -0.200 F 
ATOM     99  F   UNL A   1      46.552  37.840  29.760  1.00  0.00    -0.200 F 
ENDBRANCH  66  89
ENDBRANCH  40  41
ENDBRANCH  32  35
ENDBRANCH  30  31
ENDBRANCH  29  30
ENDBRANCH   1  29
TORSDOF 16
ENDMDL
MODEL 2
REMARK VINA RESULT:     -12.6      0.560      7.296
REMARK SMILES CCc1cccc(CC)c1NC(=O)C[C@@](C)(C(=O)NCCCNC(=O)c1ccc(-c2c3nc(c(-c4c(F)c(F)c(F)c(F)c4F)c4ccc([nH]4)c(-c4c(F)c(F)c(F)c(F)c4F)c4nc(c(-c5c(F)c(F)c(F)c(F)c5F)c5ccc2[nH]5)C=C4)C=C3)cc1)c1ccccc1
REMARK SMILES IDX 20 1 19 2 17 3 18 4 15 6 16 7 14 8 12 9 11 10 13 12 10 13
REMARK SMILES IDX 3 14 4 15 5 16 7 17 6 18 2 19 1 20 8 21 9 22 89 23 90 24
REMARK SMILES IDX 94 25 91 26 93 27 92 28 21 29 22 30 23 31 24 32 25 34 26 35
REMARK SMILES IDX 27 36 88 37 28 38 87 39 29 40 30 41 31 42 81 43 32 44 86 45
REMARK SMILES IDX 80 46 82 47 33 48 85 49 79 50 78 51 34 53 66 54 46 55 65 56
REMARK SMILES IDX 47 57 50 58 64 59 83 60 48 61 49 62 63 64 84 65 51 66 35 67
REMARK SMILES IDX 36 68 44 69 37 70 38 71 42 72 45 73 39 74 40 75 43 76 41 77
REMARK SMILES IDX 67 78 68 79 76 80 69 81 70 82 74 83 77 84 71 85 72 86 75 87
REMARK SMILES IDX 73 88 52 89 53 90 61 91 54 92 55 93 59 94 62 95 56 96 57 97
REMARK SMILES IDX 60 98 58 99
REMARK H PARENT 19 5 11 11 23 33 82 52 50 63
REMARK Flexibility Score: inf
ROOT
ATOM      1  C   UNL A   1      35.303  20.898  24.955  1.00  0.00     0.117 C 
ENDROOT
BRANCH   1   2
ATOM      2  N   UNL A   1      34.198  21.695  25.464  1.00  0.00    -0.355 N 
ATOM      3  C   UNL A   1      33.216  22.187  24.627  1.00  0.00     0.230 C 
ATOM      4  O   UNL A   1      32.868  21.550  23.634  1.00  0.00    -0.274 OA
ATOM      5  H   UNL A   1      34.148  21.888  26.428  1.00  0.00     0.163 HD
BRANCH   3   6
ATOM      6  C   UNL A   1      32.680  23.621  24.957  1.00  0.00     0.080 C 
ATOM      7  C   UNL A   1      33.487  24.039  26.226  1.00  0.00     0.027 C 
BRANCH   6   8
ATOM      8  C   UNL A   1      31.140  23.528  25.203  1.00  0.00     0.121 C 
BRANCH   8   9
ATOM      9  C   UNL A   1      30.556  24.419  26.251  1.00  0.00     0.225 C 
ATOM     10  N   UNL A   1      30.486  25.760  26.282  1.00  0.00    -0.326 N 
ATOM     11  H   UNL A   1      29.946  25.988  27.073  1.00  0.00     0.169 HD
ATOM     12  O   UNL A   1      30.062  23.869  27.251  1.00  0.00    -0.275 OA
BRANCH  10  13
ATOM     13  C   UNL A   1      30.845  26.996  25.683  1.00  0.00     0.047 A 
ATOM     14  C   UNL A   1      30.095  27.278  24.485  1.00  0.00    -0.024 A 
ATOM     15  C   UNL A   1      30.237  28.505  23.803  1.00  0.00     0.006 A 
ATOM     16  C   UNL A   1      31.105  29.474  24.258  1.00  0.00     0.001 A 
ATOM     17  C   UNL A   1      31.783  27.976  26.091  1.00  0.00    -0.024 A 
ATOM     18  C   UNL A   1      31.856  29.209  25.386  1.00  0.00     0.006 A 
BRANCH  14  19
ATOM     19  C   UNL A   1      29.133  26.296  23.815  1.00  0.00     0.034 C 
ATOM     20  C   UNL A   1      27.664  26.703  23.876  1.00  0.00     0.009 C 
ENDBRANCH  14  19
BRANCH  17  21
ATOM     21  C   UNL A   1      32.790  27.906  27.206  1.00  0.00     0.034 C 
ATOM     22  C   UNL A   1      34.116  28.612  26.884  1.00  0.00     0.009 C 
ENDBRANCH  17  21
ENDBRANCH  10  13
ENDBRANCH   8   9
ENDBRANCH   6   8
BRANCH   6  23
ATOM     23  C   UNL A   1      33.062  24.707  23.922  1.00  0.00    -0.032 A 
ATOM     24  C   UNL A   1      33.962  25.743  24.209  1.00  0.00     0.005 A 
ATOM     25  C   UNL A   1      32.321  24.802  22.721  1.00  0.00     0.005 A 
ATOM     26  C   UNL A   1      34.026  26.876  23.388  1.00  0.00     0.000 A 
ATOM     27  C   UNL A   1      32.369  25.940  21.918  1.00  0.00     0.000 A 
ATOM     28  C   UNL A   1      33.206  26.991  22.266  1.00  0.00     0.000 A 
ENDBRANCH   6  23
ENDBRANCH   3   6
ENDBRANCH   1   2
BRANCH   1  29
ATOM     29  C   UNL A   1      36.394  21.822  24.416  1.00  0.00     0.042 C 
BRANCH  29  30
ATOM     30  C   UNL A   1      37.523  22.077  25.399  1.00  0.00     0.118 C 
BRANCH  30  31
ATOM     31  N   UNL A   1      38.421  20.963  25.661  1.00  0.00    -0.352 N 
ATOM     32  C   UNL A   1      39.645  21.004  26.320  1.00  0.00     0.251 C 
ATOM     33  H   UNL A   1      38.129  20.081  25.335  1.00  0.00     0.163 HD
ATOM     34  O   UNL A   1      40.331  20.008  26.426  1.00  0.00    -0.269 OA
BRANCH  32  35
ATOM     35  C   UNL A   1      40.135  22.310  26.846  1.00  0.00     0.039 A 
ATOM     36  C   UNL A   1      41.092  22.330  27.866  1.00  0.00     0.014 A 
ATOM     37  C   UNL A   1      39.705  23.509  26.281  1.00  0.00     0.014 A 
ATOM     38  C   UNL A   1      41.698  23.541  28.230  1.00  0.00     0.010 A 
ATOM     39  C   UNL A   1      40.386  24.687  26.557  1.00  0.00     0.010 A 
ATOM     40  C   UNL A   1      41.392  24.721  27.535  1.00  0.00    -0.014 A 
BRANCH  40  41
ATOM     41  C   UNL A   1      42.074  26.018  27.799  1.00  0.00     0.031 A 
ATOM     42  C   UNL A   1      41.347  27.093  28.562  1.00  0.00     0.074 A 
ATOM     43  C   UNL A   1      43.273  26.285  27.243  1.00  0.00     0.049 A 
ATOM     44  N   UNL A   1      41.651  28.356  28.720  1.00  0.00    -0.248 NA
ATOM     45  C   UNL A   1      40.071  26.703  29.185  1.00  0.00     0.031 C 
ATOM     46  C   UNL A   1      44.062  25.357  26.434  1.00  0.00     0.029 A 
ATOM     47  N   UNL A   1      44.029  27.432  27.260  1.00  0.00    -0.354 N 
ATOM     48  C   UNL A   1      40.577  28.920  29.400  1.00  0.00     0.074 A 
ATOM     49  C   UNL A   1      39.595  27.873  29.580  1.00  0.00     0.031 C 
ATOM     50  C   UNL A   1      45.203  25.957  26.060  1.00  0.00     0.029 A 
ATOM     51  C   UNL A   1      45.208  27.327  26.563  1.00  0.00     0.049 A 
ATOM     52  H   UNL A   1      43.751  28.253  27.728  1.00  0.00     0.167 HD
ATOM     53  C   UNL A   1      40.432  30.188  29.852  1.00  0.00     0.037 A 
ATOM     54  C   UNL A   1      46.179  28.236  26.349  1.00  0.00     0.037 A 
ATOM     55  C   UNL A   1      41.447  31.201  29.743  1.00  0.00     0.049 A 
ATOM     56  C   UNL A   1      46.025  29.623  26.914  1.00  0.00     0.074 A 
ATOM     57  C   UNL A   1      41.446  32.484  30.258  1.00  0.00     0.029 A 
ATOM     58  N   UNL A   1      42.656  31.034  29.083  1.00  0.00    -0.354 N 
ATOM     59  N   UNL A   1      45.032  30.130  27.603  1.00  0.00    -0.248 NA
ATOM     60  C   UNL A   1      47.128  30.564  26.671  1.00  0.00     0.031 C 
ATOM     61  C   UNL A   1      42.643  33.105  29.884  1.00  0.00     0.029 A 
ATOM     62  C   UNL A   1      43.406  32.193  29.171  1.00  0.00     0.049 A 
ATOM     63  H   UNL A   1      42.939  30.211  28.621  1.00  0.00     0.167 HD
ATOM     64  C   UNL A   1      45.404  31.431  27.910  1.00  0.00     0.074 A 
ATOM     65  C   UNL A   1      46.715  31.638  27.329  1.00  0.00     0.031 C 
ATOM     66  C   UNL A   1      44.721  32.371  28.610  1.00  0.00     0.037 A 
BRANCH  53  67
ATOM     67  C   UNL A   1      39.129  30.542  30.511  1.00  0.00     0.064 A 
ATOM     68  C   UNL A   1      38.959  30.472  31.903  1.00  0.00     0.173 A 
ATOM     69  C   UNL A   1      38.032  30.953  29.738  1.00  0.00     0.173 A 
ATOM     70  F   UNL A   1      39.971  30.076  32.687  1.00  0.00    -0.203 F 
ATOM     71  C   UNL A   1      37.727  30.749  32.490  1.00  0.00     0.198 A 
ATOM     72  C   UNL A   1      36.812  31.264  30.332  1.00  0.00     0.198 A 
ATOM     73  F   UNL A   1      38.140  31.046  28.404  1.00  0.00    -0.203 F 
ATOM     74  F   UNL A   1      37.570  30.601  33.813  1.00  0.00    -0.200 F 
ATOM     75  C   UNL A   1      36.656  31.148  31.705  1.00  0.00     0.200 A 
ATOM     76  F   UNL A   1      35.781  31.663  29.575  1.00  0.00    -0.200 F 
ATOM     77  F   UNL A   1      35.470  31.410  32.271  1.00  0.00    -0.200 F 
ENDBRANCH  53  67
BRANCH  54  78
ATOM     78  C   UNL A   1      47.412  27.845  25.617  1.00  0.00     0.064 A 
ATOM     79  C   UNL A   1      48.559  27.455  26.323  1.00  0.00     0.173 A 
ATOM     80  C   UNL A   1      47.473  27.838  24.217  1.00  0.00     0.173 A 
ATOM     81  F   UNL A   1      48.555  27.467  27.664  1.00  0.00    -0.203 F 
ATOM     82  C   UNL A   1      49.723  27.080  25.655  1.00  0.00     0.198 A 
ATOM     83  C   UNL A   1      48.631  27.440  23.550  1.00  0.00     0.198 A 
ATOM     84  F   UNL A   1      46.400  28.198  23.496  1.00  0.00    -0.203 F 
ATOM     85  F   UNL A   1      50.815  26.744  26.356  1.00  0.00    -0.200 F 
ATOM     86  C   UNL A   1      49.757  27.068  24.269  1.00  0.00     0.200 A 
ATOM     87  F   UNL A   1      48.656  27.418  22.211  1.00  0.00    -0.200 F 
ATOM     88  F   UNL A   1      50.874  26.700  23.628  1.00  0.00    -0.200 F 
ENDBRANCH  54  78
BRANCH  66  89
ATOM     89  C   UNL A   1      45.398  33.688  28.841  1.00  0.00     0.064 A 
ATOM     90  C   UNL A   1      45.221  34.769  27.968  1.00  0.00     0.173 A 
ATOM     91  C   UNL A   1      46.182  33.886  29.988  1.00  0.00     0.173 A 
ATOM     92  F   UNL A   1      44.493  34.624  26.851  1.00  0.00    -0.203 F 
ATOM     93  C   UNL A   1      45.817  36.001  28.229  1.00  0.00     0.198 A 
ATOM     94  C   UNL A   1      46.754  35.124  30.259  1.00  0.00     0.198 A 
ATOM     95  F   UNL A   1      46.375  32.880  30.855  1.00  0.00    -0.203 F 
ATOM     96  F   UNL A   1      45.663  37.014  27.366  1.00  0.00    -0.200 F 
ATOM     97  C   UNL A   1      46.575  36.179  29.378  1.00  0.00     0.200 A 
ATOM     98  F   UNL A   1      47.476  35.298  31.375  1.00  0.00    -0.200 F 
ATOM     99  F   UNL A   1      47.136  37.370  29.633  1.00  0.00    -0.200 F 
ENDBRANCH  66  89
ENDBRANCH  40  41
ENDBRANCH  32  35
ENDBRANCH  30  31
ENDBRANCH  29  30
ENDBRANCH   1  29
TORSDOF 16
ENDMDL
MODEL 3
REMARK VINA RESULT:     -12.6      4.238      9.578
REMARK SMILES CCc1cccc(CC)c1NC(=O)C[C@@](C)(C(=O)NCCCNC(=O)c1ccc(-c2c3nc(c(-c4c(F)c(F)c(F)c(F)c4F)c4ccc([nH]4)c(-c4c(F)c(F)c(F)c(F)c4F)c4nc(c(-c5c(F)c(F)c(F)c(F)c5F)c5ccc2[nH]5)C=C4)C=C3)cc1)c1ccccc1
REMARK SMILES IDX 20 1 19 2 17 3 18 4 15 6 16 7 14 8 12 9 11 10 13 12 10 13
REMARK SMILES IDX 3 14 4 15 5 16 7 17 6 18 2 19 1 20 8 21 9 22 89 23 90 24
REMARK SMILES IDX 94 25 91 26 93 27 92 28 21 29 22 30 23 31 24 32 25 34 26 35
REMARK SMILES IDX 27 36 88 37 28 38 87 39 29 40 30 41 31 42 81 43 32 44 86 45
REMARK SMILES IDX 80 46 82 47 33 48 85 49 79 50 78 51 34 53 66 54 46 55 65 56
REMARK SMILES IDX 47 57 50 58 64 59 83 60 48 61 49 62 63 64 84 65 51 66 35 67
REMARK SMILES IDX 36 68 44 69 37 70 38 71 42 72 45 73 39 74 40 75 43 76 41 77
REMARK SMILES IDX 67 78 68 79 76 80 69 81 70 82 74 83 77 84 71 85 72 86 75 87
REMARK SMILES IDX 73 88 52 89 53 90 61 91 54 92 55 93 59 94 62 95 56 96 57 97
REMARK SMILES IDX 60 98 58 99
REMARK H PARENT 19 5 11 11 23 33 82 52 50 63
REMARK Flexibility Score: inf
ROOT
ATOM      1  C   UNL A   1      31.073  29.538  24.663  1.00  0.00     0.117 C 
ENDROOT
BRANCH   1   2
ATOM      2  N   UNL A   1      31.599  28.428  23.884  1.00  0.00    -0.355 N 
ATOM      3  C   UNL A   1      31.014  27.177  23.921  1.00  0.00     0.230 C 
ATOM      4  O   UNL A   1      29.799  27.064  24.069  1.00  0.00    -0.274 OA
ATOM      5  H   UNL A   1      32.391  28.571  23.317  1.00  0.00     0.163 HD
BRANCH   3   6
ATOM      6  C   UNL A   1      31.992  25.955  23.882  1.00  0.00     0.080 C 
ATOM      7  C   UNL A   1      33.407  26.603  23.997  1.00  0.00     0.027 C 
BRANCH   6   8
ATOM      8  C   UNL A   1      31.768  25.187  22.540  1.00  0.00     0.121 C 
BRANCH   8   9
ATOM      9  C   UNL A   1      32.964  24.568  21.893  1.00  0.00     0.225 C 
ATOM     10  N   UNL A   1      33.750  23.572  22.338  1.00  0.00    -0.326 N 
ATOM     11  H   UNL A   1      34.372  23.366  21.603  1.00  0.00     0.169 HD
ATOM     12  O   UNL A   1      33.310  25.022  20.788  1.00  0.00    -0.275 OA
BRANCH  10  13
ATOM     13  C   UNL A   1      34.082  22.686  23.396  1.00  0.00     0.047 A 
ATOM     14  C   UNL A   1      33.131  21.615  23.550  1.00  0.00    -0.024 A 
ATOM     15  C   UNL A   1      33.342  20.576  24.482  1.00  0.00     0.006 A 
ATOM     16  C   UNL A   1      34.465  20.556  25.280  1.00  0.00     0.001 A 
ATOM     17  C   UNL A   1      35.192  22.683  24.276  1.00  0.00    -0.024 A 
ATOM     18  C   UNL A   1      35.372  21.591  25.169  1.00  0.00     0.006 A 
BRANCH  14  19
ATOM     19  C   UNL A   1      31.810  21.513  22.786  1.00  0.00     0.034 C 
ATOM     20  C   UNL A   1      31.848  20.592  21.570  1.00  0.00     0.009 C 
ENDBRANCH  14  19
BRANCH  17  21
ATOM     21  C   UNL A   1      36.262  23.727  24.442  1.00  0.00     0.034 C 
ATOM     22  C   UNL A   1      36.878  23.760  25.849  1.00  0.00     0.009 C 
ENDBRANCH  17  21
ENDBRANCH  10  13
ENDBRANCH   8   9
ENDBRANCH   6   8
BRANCH   6  23
ATOM     23  C   UNL A   1      31.924  25.034  25.124  1.00  0.00    -0.032 A 
ATOM     24  C   UNL A   1      32.978  24.919  26.040  1.00  0.00     0.005 A 
ATOM     25  C   UNL A   1      30.864  24.103  25.231  1.00  0.00     0.005 A 
ATOM     26  C   UNL A   1      33.023  23.849  26.943  1.00  0.00     0.000 A 
ATOM     27  C   UNL A   1      30.921  23.027  26.114  1.00  0.00     0.000 A 
ATOM     28  C   UNL A   1      32.015  22.886  26.956  1.00  0.00     0.000 A 
ENDBRANCH   6  23
ENDBRANCH   3   6
ENDBRANCH   1   2
BRANCH   1  29
ATOM     29  C   UNL A   1      31.569  29.433  26.104  1.00  0.00     0.042 C 
BRANCH  29  30
ATOM     30  C   UNL A   1      32.847  30.208  26.372  1.00  0.00     0.118 C 
BRANCH  30  31
ATOM     31  N   UNL A   1      32.691  31.591  26.796  1.00  0.00    -0.352 N 
ATOM     32  C   UNL A   1      33.580  32.344  27.556  1.00  0.00     0.251 C 
ATOM     33  H   UNL A   1      31.864  32.044  26.514  1.00  0.00     0.163 HD
ATOM     34  O   UNL A   1      33.307  33.478  27.895  1.00  0.00    -0.269 OA
BRANCH  32  35
ATOM     35  C   UNL A   1      34.856  31.716  28.004  1.00  0.00     0.039 A 
ATOM     36  C   UNL A   1      35.991  32.511  28.191  1.00  0.00     0.014 A 
ATOM     37  C   UNL A   1      34.908  30.357  28.310  1.00  0.00     0.014 A 
ATOM     38  C   UNL A   1      37.133  31.965  28.794  1.00  0.00     0.010 A 
ATOM     39  C   UNL A   1      35.992  29.847  29.012  1.00  0.00     0.010 A 
ATOM     40  C   UNL A   1      37.120  30.643  29.264  1.00  0.00    -0.014 A 
BRANCH  40  41
ATOM     41  C   UNL A   1      38.259  30.035  30.006  1.00  0.00     0.031 A 
ATOM     42  C   UNL A   1      38.503  30.430  31.438  1.00  0.00     0.074 A 
ATOM     43  C   UNL A   1      39.149  29.249  29.367  1.00  0.00     0.049 A 
ATOM     44  N   UNL A   1      39.541  30.203  32.202  1.00  0.00    -0.248 NA
ATOM     45  C   UNL A   1      37.457  31.243  32.079  1.00  0.00     0.031 C 
ATOM     46  C   UNL A   1      39.067  28.833  27.967  1.00  0.00     0.029 A 
ATOM     47  N   UNL A   1      40.315  28.674  29.812  1.00  0.00    -0.354 N 
ATOM     48  C   UNL A   1      39.300  30.897  33.382  1.00  0.00     0.074 A 
ATOM     49  C   UNL A   1      38.043  31.591  33.213  1.00  0.00     0.031 C 
ATOM     50  C   UNL A   1      40.115  28.045  27.678  1.00  0.00     0.029 A 
ATOM     51  C   UNL A   1      40.968  27.936  28.856  1.00  0.00     0.049 A 
ATOM     52  H   UNL A   1      40.650  28.782  30.733  1.00  0.00     0.167 HD
ATOM     53  C   UNL A   1      40.047  30.935  34.511  1.00  0.00     0.037 A 
ATOM     54  C   UNL A   1      42.128  27.254  28.923  1.00  0.00     0.037 A 
ATOM     55  C   UNL A   1      41.253  30.176  34.702  1.00  0.00     0.049 A 
ATOM     56  C   UNL A   1      42.912  27.259  30.208  1.00  0.00     0.074 A 
ATOM     57  C   UNL A   1      42.029  30.059  35.841  1.00  0.00     0.029 A 
ATOM     58  N   UNL A   1      41.849  29.388  33.726  1.00  0.00    -0.354 N 
ATOM     59  N   UNL A   1      42.647  27.873  31.336  1.00  0.00    -0.248 NA
ATOM     60  C   UNL A   1      44.156  26.477  30.229  1.00  0.00     0.031 C 
ATOM     61  C   UNL A   1      43.112  29.223  35.545  1.00  0.00     0.029 A 
ATOM     62  C   UNL A   1      42.987  28.789  34.235  1.00  0.00     0.049 A 
ATOM     63  H   UNL A   1      41.510  29.273  32.809  1.00  0.00     0.167 HD
ATOM     64  C   UNL A   1      43.665  27.521  32.211  1.00  0.00     0.074 A 
ATOM     65  C   UNL A   1      44.556  26.640  31.482  1.00  0.00     0.031 C 
ATOM     66  C   UNL A   1      43.846  27.893  33.502  1.00  0.00     0.037 A 
BRANCH  53  67
ATOM     67  C   UNL A   1      39.570  31.823  35.626  1.00  0.00     0.064 A 
ATOM     68  C   UNL A   1      38.600  31.400  36.547  1.00  0.00     0.173 A 
ATOM     69  C   UNL A   1      40.089  33.119  35.771  1.00  0.00     0.173 A 
ATOM     70  F   UNL A   1      38.063  30.175  36.447  1.00  0.00    -0.203 F 
ATOM     71  C   UNL A   1      38.130  32.257  37.538  1.00  0.00     0.198 A 
ATOM     72  C   UNL A   1      39.643  33.961  36.786  1.00  0.00     0.198 A 
ATOM     73  F   UNL A   1      41.026  33.572  34.924  1.00  0.00    -0.203 F 
ATOM     74  F   UNL A   1      37.148  31.856  38.358  1.00  0.00    -0.200 F 
ATOM     75  C   UNL A   1      38.654  33.535  37.659  1.00  0.00     0.200 A 
ATOM     76  F   UNL A   1      40.160  35.190  36.911  1.00  0.00    -0.200 F 
ATOM     77  F   UNL A   1      38.197  34.361  38.611  1.00  0.00    -0.200 F 
ENDBRANCH  53  67
BRANCH  54  78
ATOM     78  C   UNL A   1      42.588  26.458  27.755  1.00  0.00     0.064 A 
ATOM     79  C   UNL A   1      43.520  26.998  26.856  1.00  0.00     0.173 A 
ATOM     80  C   UNL A   1      42.128  25.157  27.515  1.00  0.00     0.173 A 
ATOM     81  F   UNL A   1      43.973  28.247  27.032  1.00  0.00    -0.203 F 
ATOM     82  C   UNL A   1      43.967  26.267  25.757  1.00  0.00     0.198 A 
ATOM     83  C   UNL A   1      42.594  24.418  26.428  1.00  0.00     0.198 A 
ATOM     84  F   UNL A   1      41.239  24.595  28.348  1.00  0.00    -0.203 F 
ATOM     85  F   UNL A   1      44.833  26.820  24.896  1.00  0.00    -0.200 F 
ATOM     86  C   UNL A   1      43.508  24.975  25.547  1.00  0.00     0.200 A 
ATOM     87  F   UNL A   1      42.157  23.167  26.235  1.00  0.00    -0.200 F 
ATOM     88  F   UNL A   1      43.945  24.271  24.495  1.00  0.00    -0.200 F 
ENDBRANCH  54  78
BRANCH  66  89
ATOM     89  C   UNL A   1      45.016  27.307  34.233  1.00  0.00     0.064 A 
ATOM     90  C   UNL A   1      44.928  26.079  34.900  1.00  0.00     0.173 A 
ATOM     91  C   UNL A   1      46.260  27.958  34.207  1.00  0.00     0.173 A 
ATOM     92  F   UNL A   1      43.757  25.427  34.964  1.00  0.00    -0.203 F 
ATOM     93  C   UNL A   1      46.042  25.527  35.529  1.00  0.00     0.198 A 
ATOM     94  C   UNL A   1      47.376  27.391  34.814  1.00  0.00     0.198 A 
ATOM     95  F   UNL A   1      46.393  29.134  33.576  1.00  0.00    -0.203 F 
ATOM     96  F   UNL A   1      45.929  24.367  36.189  1.00  0.00    -0.200 F 
ATOM     97  C   UNL A   1      47.266  26.180  35.477  1.00  0.00     0.200 A 
ATOM     98  F   UNL A   1      48.560  28.018  34.753  1.00  0.00    -0.200 F 
ATOM     99  F   UNL A   1      48.339  25.639  36.072  1.00  0.00    -0.200 F 
ENDBRANCH  66  89
ENDBRANCH  40  41
ENDBRANCH  32  35
ENDBRANCH  30  31
ENDBRANCH  29  30
ENDBRANCH   1  29
TORSDOF 16
ENDMDL
