MODEL 1
REMARK VINA RESULT:     -12.1      0.000      0.000
REMARK SMILES C[C@H](CNc1cccc(F)c1C(=O)NCCCNC(=O)c1ccc(-c2c3nc(c(-c4c(F)c(F)c(F)c(F)c4F)c4ccc([nH]4)c(-c4c(F)c(F)c(F)c(F)c4F)c4nc(c(-c5c(F)c(F)c(F)c(F)c5F)c5ccc2[nH]5)C=C4)C=C3)cc1)C[NH+]1CCCC1
REMARK SMILES IDX 12 1 13 2 14 3 11 5 5 6 6 7 7 8 9 9 8 10 10 11 4 12 3 14
REMARK SMILES IDX 2 15 1 16 84 17 85 18 86 19 89 20 87 22 88 23 15 24 16 25
REMARK SMILES IDX 17 26 18 27 19 28 20 30 21 31 22 32 83 33 23 34 82 35 24 36
REMARK SMILES IDX 25 37 26 38 76 39 27 40 81 41 75 42 77 43 28 44 80 45 74 46
REMARK SMILES IDX 73 47 29 49 61 50 41 51 60 52 42 53 45 54 59 55 78 56 43 57
REMARK SMILES IDX 44 58 58 60 79 61 46 62 30 63 31 64 39 65 32 66 33 67 37 68
REMARK SMILES IDX 40 69 34 70 35 71 38 72 36 73 62 74 63 75 71 76 64 77 65 78
REMARK SMILES IDX 69 79 72 80 66 81 67 82 70 83 68 84 47 85 48 86 56 87 49 88
REMARK SMILES IDX 50 89 54 90 57 91 51 92 52 93 55 94 53 95
REMARK H PARENT 14 4 4 13 85 21 18 29 77 48 45 59
REMARK Flexibility Score: inf
ROOT
ATOM      1  C   UNL A   1      31.429  29.575  24.052  1.00  0.00     0.256 C 
ATOM      2  O   UNL A   1      32.286  29.147  23.267  1.00  0.00    -0.269 OA
ATOM      3  N   UNL A   1      31.963  30.191  25.152  1.00  0.00    -0.352 N 
ATOM      4  H   UNL A   1      32.924  30.380  25.044  1.00  0.00     0.163 HD
ENDROOT
BRANCH   1   5
ATOM      5  C   UNL A   1      29.975  29.454  23.696  1.00  0.00     0.098 A 
ATOM      6  C   UNL A   1      29.435  28.140  23.521  1.00  0.00     0.050 A 
ATOM      7  C   UNL A   1      28.092  27.996  23.124  1.00  0.00     0.027 A 
ATOM      8  C   UNL A   1      27.276  29.099  22.899  1.00  0.00     0.005 A 
ATOM      9  C   UNL A   1      29.106  30.538  23.536  1.00  0.00     0.138 A 
ATOM     10  C   UNL A   1      27.785  30.370  23.113  1.00  0.00     0.040 A 
ATOM     11  F   UNL A   1      29.457  31.788  23.855  1.00  0.00    -0.206 F 
BRANCH   6  12
ATOM     12  N   UNL A   1      30.205  27.001  23.750  1.00  0.00    -0.384 N 
ATOM     13  H   UNL A   1      30.739  26.659  22.998  1.00  0.00     0.160 HD
BRANCH  12  14
ATOM     14  C   UNL A   1      30.284  26.280  25.009  1.00  0.00     0.122 C 
BRANCH  14  15
ATOM     15  C   UNL A   1      31.110  24.986  24.842  1.00  0.00     0.060 C 
ATOM     16  C   UNL A   1      30.866  24.058  26.051  1.00  0.00     0.015 C 
BRANCH  15  17
ATOM     17  C   UNL A   1      30.732  24.205  23.557  1.00  0.00     0.267 C 
BRANCH  17  18
ATOM     18  N   UNL A   1      31.744  23.739  22.604  1.00  0.00    -0.335 N 
ATOM     19  C   UNL A   1      32.237  22.383  22.846  1.00  0.00     0.262 C 
ATOM     20  C   UNL A   1      32.930  24.562  22.407  1.00  0.00     0.262 C 
ATOM     21  H   UNL A   1      31.174  23.795  21.761  1.00  0.00     0.348 HD
ATOM     22  C   UNL A   1      33.558  22.537  23.579  1.00  0.00     0.067 C 
ATOM     23  C   UNL A   1      34.025  23.952  23.270  1.00  0.00     0.067 C 
ENDBRANCH  17  18
ENDBRANCH  15  17
ENDBRANCH  14  15
ENDBRANCH  12  14
ENDBRANCH   6  12
ENDBRANCH   1   5
BRANCH   3  24
ATOM     24  C   UNL A   1      31.458  30.630  26.437  1.00  0.00     0.118 C 
BRANCH  24  25
ATOM     25  C   UNL A   1      31.459  32.160  26.504  1.00  0.00     0.042 C 
BRANCH  25  26
ATOM     26  C   UNL A   1      32.707  32.727  27.190  1.00  0.00     0.118 C 
BRANCH  26  27
ATOM     27  N   UNL A   1      32.504  34.100  27.638  1.00  0.00    -0.352 N 
ATOM     28  C   UNL A   1      33.036  34.772  28.709  1.00  0.00     0.251 C 
ATOM     29  H   UNL A   1      31.887  34.630  27.083  1.00  0.00     0.163 HD
ATOM     30  O   UNL A   1      32.529  35.822  29.085  1.00  0.00    -0.269 OA
BRANCH  28  31
ATOM     31  C   UNL A   1      34.222  34.239  29.415  1.00  0.00     0.039 A 
ATOM     32  C   UNL A   1      34.034  33.433  30.542  1.00  0.00     0.014 A 
ATOM     33  C   UNL A   1      35.512  34.577  29.002  1.00  0.00     0.014 A 
ATOM     34  C   UNL A   1      35.142  32.913  31.216  1.00  0.00     0.010 A 
ATOM     35  C   UNL A   1      36.614  34.007  29.633  1.00  0.00     0.010 A 
ATOM     36  C   UNL A   1      36.439  33.167  30.743  1.00  0.00    -0.014 A 
BRANCH  36  37
ATOM     37  C   UNL A   1      37.630  32.541  31.369  1.00  0.00     0.031 A 
ATOM     38  C   UNL A   1      38.355  31.426  30.674  1.00  0.00     0.074 A 
ATOM     39  C   UNL A   1      37.995  32.918  32.609  1.00  0.00     0.049 A 
ATOM     40  N   UNL A   1      39.338  30.681  31.110  1.00  0.00    -0.248 NA
ATOM     41  C   UNL A   1      37.898  31.086  29.317  1.00  0.00     0.031 C 
ATOM     42  C   UNL A   1      37.341  33.963  33.397  1.00  0.00     0.029 A 
ATOM     43  N   UNL A   1      38.992  32.455  33.431  1.00  0.00    -0.354 N 
ATOM     44  C   UNL A   1      39.601  29.772  30.094  1.00  0.00     0.074 A 
ATOM     45  C   UNL A   1      38.648  30.030  29.037  1.00  0.00     0.031 C 
ATOM     46  C   UNL A   1      37.964  34.074  34.580  1.00  0.00     0.029 A 
ATOM     47  C   UNL A   1      39.029  33.078  34.653  1.00  0.00     0.049 A 
ATOM     48  H   UNL A   1      39.621  31.745  33.168  1.00  0.00     0.167 HD
ATOM     49  C   UNL A   1      40.564  28.822  30.047  1.00  0.00     0.037 A 
ATOM     50  C   UNL A   1      39.819  32.862  35.723  1.00  0.00     0.037 A 
ATOM     51  C   UNL A   1      41.527  28.596  31.093  1.00  0.00     0.049 A 
ATOM     52  C   UNL A   1      40.866  31.786  35.657  1.00  0.00     0.074 A 
ATOM     53  C   UNL A   1      42.600  27.723  31.101  1.00  0.00     0.029 A 
ATOM     54  N   UNL A   1      41.526  29.242  32.321  1.00  0.00    -0.354 N 
ATOM     55  N   UNL A   1      41.154  30.979  34.666  1.00  0.00    -0.248 NA
ATOM     56  C   UNL A   1      41.692  31.584  36.855  1.00  0.00     0.031 C 
ATOM     57  C   UNL A   1      43.213  27.798  32.354  1.00  0.00     0.029 A 
ATOM     58  C   UNL A   1      42.556  28.756  33.110  1.00  0.00     0.049 A 
ATOM     59  H   UNL A   1      40.888  29.941  32.592  1.00  0.00     0.167 HD
ATOM     60  C   UNL A   1      42.198  30.182  35.112  1.00  0.00     0.074 A 
ATOM     61  C   UNL A   1      42.502  30.609  36.462  1.00  0.00     0.031 C 
ATOM     62  C   UNL A   1      42.842  29.185  34.457  1.00  0.00     0.037 A 
BRANCH  49  63
ATOM     63  C   UNL A   1      40.631  27.952  28.825  1.00  0.00     0.064 A 
ATOM     64  C   UNL A   1      41.394  28.344  27.714  1.00  0.00     0.173 A 
ATOM     65  C   UNL A   1      39.902  26.756  28.729  1.00  0.00     0.173 A 
ATOM     66  F   UNL A   1      42.103  29.481  27.748  1.00  0.00    -0.203 F 
ATOM     67  C   UNL A   1      41.423  27.573  26.555  1.00  0.00     0.198 A 
ATOM     68  C   UNL A   1      39.957  25.973  27.580  1.00  0.00     0.198 A 
ATOM     69  F   UNL A   1      39.161  26.333  29.764  1.00  0.00    -0.203 F 
ATOM     70  F   UNL A   1      42.139  27.980  25.498  1.00  0.00    -0.200 F 
ATOM     71  C   UNL A   1      40.711  26.385  26.491  1.00  0.00     0.200 A 
ATOM     72  F   UNL A   1      39.289  24.813  27.529  1.00  0.00    -0.200 F 
ATOM     73  F   UNL A   1      40.755  25.634  25.382  1.00  0.00    -0.200 F 
ENDBRANCH  49  63
BRANCH  50  74
ATOM     74  C   UNL A   1      39.649  33.714  36.926  1.00  0.00     0.064 A 
ATOM     75  C   UNL A   1      38.820  33.323  37.989  1.00  0.00     0.173 A 
ATOM     76  C   UNL A   1      40.246  34.979  36.995  1.00  0.00     0.173 A 
ATOM     77  F   UNL A   1      38.221  32.123  37.965  1.00  0.00    -0.203 F 
ATOM     78  C   UNL A   1      38.567  34.180  39.056  1.00  0.00     0.198 A 
ATOM     79  C   UNL A   1      40.010  35.827  38.075  1.00  0.00     0.198 A 
ATOM     80  F   UNL A   1      41.059  35.389  36.010  1.00  0.00    -0.203 F 
ATOM     81  F   UNL A   1      37.732  33.803  40.033  1.00  0.00    -0.200 F 
ATOM     82  C   UNL A   1      39.161  35.433  39.098  1.00  0.00     0.200 A 
ATOM     83  F   UNL A   1      40.597  37.031  38.120  1.00  0.00    -0.200 F 
ATOM     84  F   UNL A   1      38.911  36.261  40.121  1.00  0.00    -0.200 F 
ENDBRANCH  50  74
BRANCH  62  85
ATOM     85  C   UNL A   1      43.945  28.470  35.179  1.00  0.00     0.064 A 
ATOM     86  C   UNL A   1      45.275  28.903  35.054  1.00  0.00     0.173 A 
ATOM     87  C   UNL A   1      43.700  27.289  35.892  1.00  0.00     0.173 A 
ATOM     88  F   UNL A   1      45.559  30.023  34.374  1.00  0.00    -0.203 F 
ATOM     89  C   UNL A   1      46.322  28.159  35.590  1.00  0.00     0.198 A 
ATOM     90  C   UNL A   1      44.747  26.561  36.449  1.00  0.00     0.198 A 
ATOM     91  F   UNL A   1      42.444  26.845  36.050  1.00  0.00    -0.203 F 
ATOM     92  F   UNL A   1      47.586  28.563  35.416  1.00  0.00    -0.200 F 
ATOM     93  C   UNL A   1      46.057  26.988  36.285  1.00  0.00     0.200 A 
ATOM     94  F   UNL A   1      44.491  25.441  37.138  1.00  0.00    -0.200 F 
ATOM     95  F   UNL A   1      47.067  26.270  36.795  1.00  0.00    -0.200 F 
ENDBRANCH  62  85
ENDBRANCH  36  37
ENDBRANCH  28  31
ENDBRANCH  26  27
ENDBRANCH  25  26
ENDBRANCH  24  25
ENDBRANCH   3  24
TORSDOF 15
ENDMDL
MODEL 2
REMARK VINA RESULT:     -12.0      3.607      9.074
REMARK SMILES C[C@H](CNc1cccc(F)c1C(=O)NCCCNC(=O)c1ccc(-c2c3nc(c(-c4c(F)c(F)c(F)c(F)c4F)c4ccc([nH]4)c(-c4c(F)c(F)c(F)c(F)c4F)c4nc(c(-c5c(F)c(F)c(F)c(F)c5F)c5ccc2[nH]5)C=C4)C=C3)cc1)C[NH+]1CCCC1
REMARK SMILES IDX 12 1 13 2 14 3 11 5 5 6 6 7 7 8 9 9 8 10 10 11 4 12 3 14
REMARK SMILES IDX 2 15 1 16 84 17 85 18 86 19 89 20 87 22 88 23 15 24 16 25
REMARK SMILES IDX 17 26 18 27 19 28 20 30 21 31 22 32 83 33 23 34 82 35 24 36
REMARK SMILES IDX 25 37 26 38 76 39 27 40 81 41 75 42 77 43 28 44 80 45 74 46
REMARK SMILES IDX 73 47 29 49 61 50 41 51 60 52 42 53 45 54 59 55 78 56 43 57
REMARK SMILES IDX 44 58 58 60 79 61 46 62 30 63 31 64 39 65 32 66 33 67 37 68
REMARK SMILES IDX 40 69 34 70 35 71 38 72 36 73 62 74 63 75 71 76 64 77 65 78
REMARK SMILES IDX 69 79 72 80 66 81 67 82 70 83 68 84 47 85 48 86 56 87 49 88
REMARK SMILES IDX 50 89 54 90 57 91 51 92 52 93 55 94 53 95
REMARK H PARENT 14 4 4 13 85 21 18 29 77 48 45 59
REMARK Flexibility Score: inf
ROOT
ATOM      1  C   UNL A   1      31.342  25.177  26.112  1.00  0.00     0.256 C 
ATOM      2  O   UNL A   1      30.471  24.373  26.469  1.00  0.00    -0.269 OA
ATOM      3  N   UNL A   1      31.218  26.407  26.702  1.00  0.00    -0.352 N 
ATOM      4  H   UNL A   1      30.593  26.393  27.463  1.00  0.00     0.163 HD
ENDROOT
BRANCH   1   5
ATOM      5  C   UNL A   1      32.430  24.722  25.182  1.00  0.00     0.098 A 
ATOM      6  C   UNL A   1      32.286  25.011  23.788  1.00  0.00     0.050 A 
ATOM      7  C   UNL A   1      33.258  24.541  22.884  1.00  0.00     0.027 A 
ATOM      8  C   UNL A   1      34.357  23.804  23.313  1.00  0.00     0.005 A 
ATOM      9  C   UNL A   1      33.586  24.045  25.588  1.00  0.00     0.138 A 
ATOM     10  C   UNL A   1      34.521  23.563  24.668  1.00  0.00     0.040 A 
ATOM     11  F   UNL A   1      33.908  23.890  26.876  1.00  0.00    -0.206 F 
BRANCH   6  12
ATOM     12  N   UNL A   1      31.214  25.760  23.308  1.00  0.00    -0.384 N 
ATOM     13  H   UNL A   1      30.311  25.386  23.429  1.00  0.00     0.160 HD
BRANCH  12  14
ATOM     14  C   UNL A   1      31.319  27.049  22.645  1.00  0.00     0.122 C 
BRANCH  14  15
ATOM     15  C   UNL A   1      30.032  27.875  22.857  1.00  0.00     0.060 C 
ATOM     16  C   UNL A   1      29.054  27.087  23.753  1.00  0.00     0.015 C 
BRANCH  15  17
ATOM     17  C   UNL A   1      30.311  29.240  23.538  1.00  0.00     0.267 C 
BRANCH  17  18
ATOM     18  N   UNL A   1      29.885  30.509  22.940  1.00  0.00    -0.335 N 
ATOM     19  C   UNL A   1      29.143  31.393  23.839  1.00  0.00     0.262 C 
ATOM     20  C   UNL A   1      29.113  30.460  21.705  1.00  0.00     0.262 C 
ATOM     21  H   UNL A   1      30.812  30.875  22.722  1.00  0.00     0.348 HD
ATOM     22  C   UNL A   1      27.673  31.193  23.512  1.00  0.00     0.067 C 
ATOM     23  C   UNL A   1      27.652  30.609  22.106  1.00  0.00     0.067 C 
ENDBRANCH  17  18
ENDBRANCH  15  17
ENDBRANCH  14  15
ENDBRANCH  12  14
ENDBRANCH   6  12
ENDBRANCH   1   5
BRANCH   3  24
ATOM     24  C   UNL A   1      31.781  27.722  26.475  1.00  0.00     0.118 C 
BRANCH  24  25
ATOM     25  C   UNL A   1      33.264  27.729  26.859  1.00  0.00     0.042 C 
BRANCH  25  26
ATOM     26  C   UNL A   1      34.060  28.827  26.147  1.00  0.00     0.118 C 
BRANCH  26  27
ATOM     27  N   UNL A   1      33.897  30.124  26.795  1.00  0.00    -0.352 N 
ATOM     28  C   UNL A   1      34.613  30.704  27.812  1.00  0.00     0.251 C 
ATOM     29  H   UNL A   1      33.155  30.670  26.447  1.00  0.00     0.163 HD
ATOM     30  O   UNL A   1      34.151  31.667  28.411  1.00  0.00    -0.269 OA
BRANCH  28  31
ATOM     31  C   UNL A   1      35.941  30.176  28.190  1.00  0.00     0.039 A 
ATOM     32  C   UNL A   1      36.983  30.234  27.260  1.00  0.00     0.014 A 
ATOM     33  C   UNL A   1      36.144  29.576  29.434  1.00  0.00     0.014 A 
ATOM     34  C   UNL A   1      38.247  29.749  27.603  1.00  0.00     0.010 A 
ATOM     35  C   UNL A   1      37.419  29.152  29.800  1.00  0.00     0.010 A 
ATOM     36  C   UNL A   1      38.483  29.238  28.889  1.00  0.00    -0.014 A 
BRANCH  36  37
ATOM     37  C   UNL A   1      39.838  28.817  29.321  1.00  0.00     0.031 A 
ATOM     38  C   UNL A   1      40.671  29.715  30.189  1.00  0.00     0.074 A 
ATOM     39  C   UNL A   1      40.351  27.665  28.848  1.00  0.00     0.049 A 
ATOM     40  N   UNL A   1      41.915  29.574  30.571  1.00  0.00    -0.248 NA
ATOM     41  C   UNL A   1      40.030  30.948  30.671  1.00  0.00     0.031 C 
ATOM     42  C   UNL A   1      39.650  26.732  27.967  1.00  0.00     0.029 A 
ATOM     43  N   UNL A   1      41.586  27.092  29.027  1.00  0.00    -0.354 N 
ATOM     44  C   UNL A   1      42.211  30.707  31.317  1.00  0.00     0.074 A 
ATOM     45  C   UNL A   1      41.033  31.545  31.299  1.00  0.00     0.031 C 
ATOM     46  C   UNL A   1      40.455  25.695  27.695  1.00  0.00     0.029 A 
ATOM     47  C   UNL A   1      41.746  25.912  28.344  1.00  0.00     0.049 A 
ATOM     48  H   UNL A   1      42.288  27.488  29.591  1.00  0.00     0.167 HD
ATOM     49  C   UNL A   1      43.358  31.006  31.970  1.00  0.00     0.037 A 
ATOM     50  C   UNL A   1      42.816  25.102  28.234  1.00  0.00     0.037 A 
ATOM     51  C   UNL A   1      44.513  30.147  32.006  1.00  0.00     0.049 A 
ATOM     52  C   UNL A   1      44.088  25.466  28.949  1.00  0.00     0.074 A 
ATOM     53  C   UNL A   1      45.688  30.316  32.715  1.00  0.00     0.029 A 
ATOM     54  N   UNL A   1      44.641  28.964  31.293  1.00  0.00    -0.354 N 
ATOM     55  N   UNL A   1      44.336  26.504  29.709  1.00  0.00    -0.248 NA
ATOM     56  C   UNL A   1      45.229  24.554  28.786  1.00  0.00     0.031 C 
ATOM     57  C   UNL A   1      46.549  29.266  32.388  1.00  0.00     0.029 A 
ATOM     58  C   UNL A   1      45.892  28.412  31.514  1.00  0.00     0.049 A 
ATOM     59  H   UNL A   1      43.945  28.573  30.715  1.00  0.00     0.167 HD
ATOM     60  C   UNL A   1      45.652  26.368  30.125  1.00  0.00     0.074 A 
ATOM     61  C   UNL A   1      46.150  25.140  29.541  1.00  0.00     0.031 C 
ATOM     62  C   UNL A   1      46.379  27.192  30.919  1.00  0.00     0.037 A 
BRANCH  49  63
ATOM     63  C   UNL A   1      43.426  32.314  32.703  1.00  0.00     0.064 A 
ATOM     64  C   UNL A   1      43.017  32.400  34.042  1.00  0.00     0.173 A 
ATOM     65  C   UNL A   1      43.848  33.494  32.070  1.00  0.00     0.173 A 
ATOM     66  F   UNL A   1      42.597  31.306  34.693  1.00  0.00    -0.203 F 
ATOM     67  C   UNL A   1      43.026  33.618  34.718  1.00  0.00     0.198 A 
ATOM     68  C   UNL A   1      43.885  34.703  32.758  1.00  0.00     0.198 A 
ATOM     69  F   UNL A   1      44.256  33.465  30.792  1.00  0.00    -0.203 F 
ATOM     70  F   UNL A   1      42.606  33.681  35.990  1.00  0.00    -0.200 F 
ATOM     71  C   UNL A   1      43.467  34.767  34.078  1.00  0.00     0.200 A 
ATOM     72  F   UNL A   1      44.334  35.807  32.145  1.00  0.00    -0.200 F 
ATOM     73  F   UNL A   1      43.492  35.934  34.736  1.00  0.00    -0.200 F 
ENDBRANCH  49  63
BRANCH  50  74
ATOM     74  C   UNL A   1      42.699  23.858  27.433  1.00  0.00     0.064 A 
ATOM     75  C   UNL A   1      42.302  22.646  28.017  1.00  0.00     0.173 A 
ATOM     76  C   UNL A   1      43.071  23.843  26.082  1.00  0.00     0.173 A 
ATOM     77  F   UNL A   1      41.944  22.609  29.309  1.00  0.00    -0.203 F 
ATOM     78  C   UNL A   1      42.315  21.459  27.288  1.00  0.00     0.198 A 
ATOM     79  C   UNL A   1      43.061  22.659  25.349  1.00  0.00     0.198 A 
ATOM     80  F   UNL A   1      43.442  24.981  25.477  1.00  0.00    -0.203 F 
ATOM     81  F   UNL A   1      41.980  20.306  27.883  1.00  0.00    -0.200 F 
ATOM     82  C   UNL A   1      42.696  21.466  25.955  1.00  0.00     0.200 A 
ATOM     83  F   UNL A   1      43.416  22.671  24.057  1.00  0.00    -0.200 F 
ATOM     84  F   UNL A   1      42.717  20.323  25.256  1.00  0.00    -0.200 F 
ENDBRANCH  50  74
BRANCH  62  85
ATOM     85  C   UNL A   1      47.799  26.810  31.213  1.00  0.00     0.064 A 
ATOM     86  C   UNL A   1      48.842  27.261  30.389  1.00  0.00     0.173 A 
ATOM     87  C   UNL A   1      48.109  25.902  32.233  1.00  0.00     0.173 A 
ATOM     88  F   UNL A   1      48.591  28.125  29.394  1.00  0.00    -0.203 F 
ATOM     89  C   UNL A   1      50.140  26.790  30.558  1.00  0.00     0.198 A 
ATOM     90  C   UNL A   1      49.414  25.453  32.415  1.00  0.00     0.198 A 
ATOM     91  F   UNL A   1      47.148  25.454  33.055  1.00  0.00    -0.203 F 
ATOM     92  F   UNL A   1      51.111  27.196  29.729  1.00  0.00    -0.200 F 
ATOM     93  C   UNL A   1      50.425  25.885  31.569  1.00  0.00     0.200 A 
ATOM     94  F   UNL A   1      49.694  24.593  33.406  1.00  0.00    -0.200 F 
ATOM     95  F   UNL A   1      51.674  25.427  31.726  1.00  0.00    -0.200 F 
ENDBRANCH  62  85
ENDBRANCH  36  37
ENDBRANCH  28  31
ENDBRANCH  26  27
ENDBRANCH  25  26
ENDBRANCH  24  25
ENDBRANCH   3  24
TORSDOF 15
ENDMDL
MODEL 3
REMARK VINA RESULT:     -12.0      2.046      4.342
REMARK SMILES C[C@H](CNc1cccc(F)c1C(=O)NCCCNC(=O)c1ccc(-c2c3nc(c(-c4c(F)c(F)c(F)c(F)c4F)c4ccc([nH]4)c(-c4c(F)c(F)c(F)c(F)c4F)c4nc(c(-c5c(F)c(F)c(F)c(F)c5F)c5ccc2[nH]5)C=C4)C=C3)cc1)C[NH+]1CCCC1
REMARK SMILES IDX 12 1 13 2 14 3 11 5 5 6 6 7 7 8 9 9 8 10 10 11 4 12 3 14
REMARK SMILES IDX 2 15 1 16 84 17 85 18 86 19 89 20 87 22 88 23 15 24 16 25
REMARK SMILES IDX 17 26 18 27 19 28 20 30 21 31 22 32 83 33 23 34 82 35 24 36
REMARK SMILES IDX 25 37 26 38 76 39 27 40 81 41 75 42 77 43 28 44 80 45 74 46
REMARK SMILES IDX 73 47 29 49 61 50 41 51 60 52 42 53 45 54 59 55 78 56 43 57
REMARK SMILES IDX 44 58 58 60 79 61 46 62 30 63 31 64 39 65 32 66 33 67 37 68
REMARK SMILES IDX 40 69 34 70 35 71 38 72 36 73 62 74 63 75 71 76 64 77 65 78
REMARK SMILES IDX 69 79 72 80 66 81 67 82 70 83 68 84 47 85 48 86 56 87 49 88
REMARK SMILES IDX 50 89 54 90 57 91 51 92 52 93 55 94 53 95
REMARK H PARENT 14 4 4 13 85 21 18 29 77 48 45 59
REMARK Flexibility Score: inf
ROOT
ATOM      1  C   UNL A   1      30.434  25.299  26.289  1.00  0.00     0.256 C 
ATOM      2  O   UNL A   1      29.276  25.114  26.685  1.00  0.00    -0.269 OA
ATOM      3  N   UNL A   1      30.998  26.444  26.785  1.00  0.00    -0.352 N 
ATOM      4  H   UNL A   1      30.479  26.822  27.532  1.00  0.00     0.163 HD
ENDROOT
BRANCH   1   5
ATOM      5  C   UNL A   1      31.092  24.266  25.420  1.00  0.00     0.098 A 
ATOM      6  C   UNL A   1      30.931  24.382  24.003  1.00  0.00     0.050 A 
ATOM      7  C   UNL A   1      31.482  23.393  23.165  1.00  0.00     0.027 A 
ATOM      8  C   UNL A   1      32.180  22.306  23.681  1.00  0.00     0.005 A 
ATOM      9  C   UNL A   1      31.863  23.203  25.900  1.00  0.00     0.138 A 
ATOM     10  C   UNL A   1      32.374  22.217  25.050  1.00  0.00     0.040 A 
ATOM     11  F   UNL A   1      32.229  23.107  27.182  1.00  0.00    -0.206 F 
BRANCH   6  12
ATOM     12  N   UNL A   1      30.257  25.460  23.433  1.00  0.00    -0.384 N 
ATOM     13  H   UNL A   1      29.281  25.377  23.327  1.00  0.00     0.160 HD
BRANCH  12  14
ATOM     14  C   UNL A   1      30.874  26.696  22.984  1.00  0.00     0.122 C 
BRANCH  14  15
ATOM     15  C   UNL A   1      29.819  27.815  22.856  1.00  0.00     0.060 C 
ATOM     16  C   UNL A   1      28.518  27.382  23.562  1.00  0.00     0.015 C 
BRANCH  15  17
ATOM     17  C   UNL A   1      30.289  29.147  23.496  1.00  0.00     0.267 C 
BRANCH  17  18
ATOM     18  N   UNL A   1      29.912  30.452  22.943  1.00  0.00    -0.335 N 
ATOM     19  C   UNL A   1      29.165  31.315  23.858  1.00  0.00     0.262 C 
ATOM     20  C   UNL A   1      29.177  30.476  21.685  1.00  0.00     0.262 C 
ATOM     21  H   UNL A   1      30.853  30.803  22.768  1.00  0.00     0.348 HD
ATOM     22  C   UNL A   1      27.701  31.166  23.480  1.00  0.00     0.067 C 
ATOM     23  C   UNL A   1      27.709  30.644  22.050  1.00  0.00     0.067 C 
ENDBRANCH  17  18
ENDBRANCH  15  17
ENDBRANCH  14  15
ENDBRANCH  12  14
ENDBRANCH   6  12
ENDBRANCH   1   5
BRANCH   3  24
ATOM     24  C   UNL A   1      32.173  27.234  26.476  1.00  0.00     0.118 C 
BRANCH  24  25
ATOM     25  C   UNL A   1      31.830  28.726  26.534  1.00  0.00     0.042 C 
BRANCH  25  26
ATOM     26  C   UNL A   1      32.935  29.616  25.956  1.00  0.00     0.118 C 
BRANCH  26  27
ATOM     27  N   UNL A   1      32.703  31.026  26.247  1.00  0.00    -0.352 N 
ATOM     28  C   UNL A   1      33.289  31.848  27.178  1.00  0.00     0.251 C 
ATOM     29  H   UNL A   1      32.019  31.458  25.686  1.00  0.00     0.163 HD
ATOM     30  O   UNL A   1      32.764  32.918  27.463  1.00  0.00    -0.269 OA
BRANCH  28  31
ATOM     31  C   UNL A   1      34.551  31.454  27.838  1.00  0.00     0.039 A 
ATOM     32  C   UNL A   1      35.584  32.391  27.941  1.00  0.00     0.014 A 
ATOM     33  C   UNL A   1      34.739  30.151  28.303  1.00  0.00     0.014 A 
ATOM     34  C   UNL A   1      36.780  32.040  28.570  1.00  0.00     0.010 A 
ATOM     35  C   UNL A   1      35.905  29.820  28.987  1.00  0.00     0.010 A 
ATOM     36  C   UNL A   1      36.935  30.762  29.131  1.00  0.00    -0.014 A 
BRANCH  36  37
ATOM     37  C   UNL A   1      38.148  30.394  29.900  1.00  0.00     0.031 A 
ATOM     38  C   UNL A   1      39.150  29.435  29.326  1.00  0.00     0.074 A 
ATOM     39  C   UNL A   1      38.294  30.854  31.158  1.00  0.00     0.049 A 
ATOM     40  N   UNL A   1      40.205  28.905  29.890  1.00  0.00    -0.248 NA
ATOM     41  C   UNL A   1      38.920  28.991  27.942  1.00  0.00     0.031 C 
ATOM     42  C   UNL A   1      37.366  31.759  31.835  1.00  0.00     0.029 A 
ATOM     43  N   UNL A   1      39.266  30.609  32.096  1.00  0.00    -0.354 N 
ATOM     44  C   UNL A   1      40.751  28.052  28.941  1.00  0.00     0.074 A 
ATOM     45  C   UNL A   1      39.889  28.101  27.781  1.00  0.00     0.031 C 
ATOM     46  C   UNL A   1      37.820  32.009  33.072  1.00  0.00     0.029 A 
ATOM     47  C   UNL A   1      39.045  31.245  33.292  1.00  0.00     0.049 A 
ATOM     48  H   UNL A   1      40.046  30.034  31.927  1.00  0.00     0.167 HD
ATOM     49  C   UNL A   1      41.881  27.311  29.029  1.00  0.00     0.037 A 
ATOM     50  C   UNL A   1      39.739  31.206  34.446  1.00  0.00     0.037 A 
ATOM     51  C   UNL A   1      42.748  27.296  30.178  1.00  0.00     0.049 A 
ATOM     52  C   UNL A   1      40.977  30.358  34.529  1.00  0.00     0.074 A 
ATOM     53  C   UNL A   1      43.963  26.653  30.330  1.00  0.00     0.029 A 
ATOM     54  N   UNL A   1      42.485  27.946  31.375  1.00  0.00    -0.354 N 
ATOM     55  N   UNL A   1      41.525  29.609  33.604  1.00  0.00    -0.248 NA
ATOM     56  C   UNL A   1      41.690  30.341  35.814  1.00  0.00     0.031 C 
ATOM     57  C   UNL A   1      44.408  26.866  31.637  1.00  0.00     0.029 A 
ATOM     58  C   UNL A   1      43.497  27.686  32.285  1.00  0.00     0.049 A 
ATOM     59  H   UNL A   1      41.697  28.509  31.552  1.00  0.00     0.167 HD
ATOM     60  C   UNL A   1      42.648  29.041  34.185  1.00  0.00     0.074 A 
ATOM     61  C   UNL A   1      42.713  29.540  35.544  1.00  0.00     0.031 C 
ATOM     62  C   UNL A   1      43.544  28.183  33.639  1.00  0.00     0.037 A 
BRANCH  49  63
ATOM     63  C   UNL A   1      42.250  26.454  27.853  1.00  0.00     0.064 A 
ATOM     64  C   UNL A   1      41.719  25.162  27.721  1.00  0.00     0.173 A 
ATOM     65  C   UNL A   1      43.167  26.887  26.882  1.00  0.00     0.173 A 
ATOM     66  F   UNL A   1      40.845  24.694  28.623  1.00  0.00    -0.203 F 
ATOM     67  C   UNL A   1      42.093  24.337  26.662  1.00  0.00     0.198 A 
ATOM     68  C   UNL A   1      43.515  26.072  25.810  1.00  0.00     0.198 A 
ATOM     69  F   UNL A   1      43.700  28.117  26.959  1.00  0.00    -0.203 F 
ATOM     70  F   UNL A   1      41.592  23.097  26.571  1.00  0.00    -0.200 F 
ATOM     71  C   UNL A   1      42.985  24.795  25.704  1.00  0.00     0.200 A 
ATOM     72  F   UNL A   1      44.358  26.525  24.872  1.00  0.00    -0.200 F 
ATOM     73  F   UNL A   1      43.329  24.007  24.676  1.00  0.00    -0.200 F 
ENDBRANCH  49  63
BRANCH  50  74
ATOM     74  C   UNL A   1      39.275  32.024  35.594  1.00  0.00     0.064 A 
ATOM     75  C   UNL A   1      39.768  33.319  35.816  1.00  0.00     0.173 A 
ATOM     76  C   UNL A   1      38.393  31.489  36.541  1.00  0.00     0.173 A 
ATOM     77  F   UNL A   1      40.621  33.872  34.941  1.00  0.00    -0.203 F 
ATOM     78  C   UNL A   1      39.423  34.032  36.962  1.00  0.00     0.198 A 
ATOM     79  C   UNL A   1      38.031  32.212  37.675  1.00  0.00     0.198 A 
ATOM     80  F   UNL A   1      37.883  30.261  36.361  1.00  0.00    -0.203 F 
ATOM     81  F   UNL A   1      39.948  35.246  37.176  1.00  0.00    -0.200 F 
ATOM     82  C   UNL A   1      38.556  33.478  37.891  1.00  0.00     0.200 A 
ATOM     83  F   UNL A   1      37.182  31.680  38.564  1.00  0.00    -0.200 F 
ATOM     84  F   UNL A   1      38.231  34.161  38.998  1.00  0.00    -0.200 F 
ENDBRANCH  50  74
BRANCH  62  85
ATOM     85  C   UNL A   1      44.678  27.711  34.498  1.00  0.00     0.064 A 
ATOM     86  C   UNL A   1      44.540  26.562  35.292  1.00  0.00     0.173 A 
ATOM     87  C   UNL A   1      45.853  28.464  34.625  1.00  0.00     0.173 A 
ATOM     88  F   UNL A   1      43.430  25.815  35.210  1.00  0.00    -0.203 F 
ATOM     89  C   UNL A   1      45.525  26.204  36.208  1.00  0.00     0.198 A 
ATOM     90  C   UNL A   1      46.848  28.088  35.524  1.00  0.00     0.198 A 
ATOM     91  F   UNL A   1      46.037  29.561  33.877  1.00  0.00    -0.203 F 
ATOM     92  F   UNL A   1      45.350  25.131  36.991  1.00  0.00    -0.200 F 
ATOM     93  C   UNL A   1      46.676  26.967  36.324  1.00  0.00     0.200 A 
ATOM     94  F   UNL A   1      47.970  28.814  35.622  1.00  0.00    -0.200 F 
ATOM     95  F   UNL A   1      47.621  26.624  37.211  1.00  0.00    -0.200 F 
ENDBRANCH  62  85
ENDBRANCH  36  37
ENDBRANCH  28  31
ENDBRANCH  26  27
ENDBRANCH  25  26
ENDBRANCH  24  25
ENDBRANCH   3  24
TORSDOF 15
ENDMDL
