MODEL 1
REMARK VINA RESULT:     -11.6      0.000      0.000
REMARK SMILES CC[C@]1(C(=O)NCCCNC(=O)c2ccc(-c3c4nc(c(-c5c(F)c(F)c(F)c(F)c5F)c5ccc([nH]5)c(-c5c(F)c(F)c(F)c(F)c5F)c5nc(c(-c6c(F)c(F)c(F)c(F)c6F)c6ccc3[nH]6)C=C5)C=C4)cc2)CCCN(C(=O)C[C@H](C)COC)C1
REMARK SMILES IDX 4 1 5 2 6 3 3 5 76 6 88 7 77 8 79 9 78 10 2 11 1 12 80 13
REMARK SMILES IDX 81 14 82 15 83 16 84 17 85 18 86 19 87 20 7 21 8 22 9 23
REMARK SMILES IDX 10 24 11 25 12 27 13 28 14 29 75 30 15 31 74 32 16 33 17 34
REMARK SMILES IDX 18 35 68 36 19 37 73 38 67 39 69 40 20 41 72 42 66 43 65 44
REMARK SMILES IDX 21 46 53 47 33 48 52 49 34 50 37 51 51 52 70 53 35 54 36 55
REMARK SMILES IDX 50 57 71 58 38 59 22 60 23 61 31 62 24 63 25 64 29 65 32 66
REMARK SMILES IDX 26 67 27 68 30 69 28 70 54 71 55 72 63 73 56 74 57 75 61 76
REMARK SMILES IDX 64 77 58 78 59 79 62 80 60 81 39 82 40 83 48 84 41 85 42 86
REMARK SMILES IDX 46 87 49 88 43 89 44 90 47 91 45 92
REMARK H PARENT 6 4 10 26 69 45 37 56
REMARK Flexibility Score: inf
ROOT
ATOM      1  C   UNL A   1      31.115  29.194  24.201  1.00  0.00     0.228 C 
ATOM      2  O   UNL A   1      30.361  29.170  23.225  1.00  0.00    -0.274 OA
ATOM      3  N   UNL A   1      31.066  30.331  24.948  1.00  0.00    -0.355 N 
ATOM      4  H   UNL A   1      30.484  31.029  24.572  1.00  0.00     0.163 HD
ENDROOT
BRANCH   1   5
ATOM      5  C   UNL A   1      32.016  28.008  24.585  1.00  0.00     0.066 C 
ATOM      6  C   UNL A   1      31.467  27.256  25.831  1.00  0.00     0.020 C 
ATOM      7  C   UNL A   1      32.090  27.120  23.309  1.00  0.00     0.136 C 
ATOM      8  C   UNL A   1      31.970  25.817  25.951  1.00  0.00     0.023 C 
ATOM      9  N   UNL A   1      32.474  25.739  23.555  1.00  0.00    -0.342 N 
ATOM     10  C   UNL A   1      31.795  25.054  24.648  1.00  0.00     0.119 C 
BRANCH   5  11
ATOM     11  C   UNL A   1      33.477  28.493  24.894  1.00  0.00     0.015 C 
ATOM     12  C   UNL A   1      34.408  28.729  23.704  1.00  0.00     0.005 C 
ENDBRANCH   5  11
BRANCH   9  13
ATOM     13  C   UNL A   1      33.200  25.099  22.562  1.00  0.00     0.222 C 
ATOM     14  O   UNL A   1      33.602  25.692  21.558  1.00  0.00    -0.275 OA
BRANCH  13  15
ATOM     15  C   UNL A   1      33.588  23.652  22.782  1.00  0.00     0.106 C 
BRANCH  15  16
ATOM     16  C   UNL A   1      34.769  23.461  23.756  1.00  0.00     0.021 C 
ATOM     17  C   UNL A   1      36.055  23.003  23.046  1.00  0.00     0.010 C 
BRANCH  16  18
ATOM     18  C   UNL A   1      34.351  22.476  24.861  1.00  0.00     0.163 C 
BRANCH  18  19
ATOM     19  O   UNL A   1      34.063  21.168  24.372  1.00  0.00    -0.384 OA
ATOM     20  C   UNL A   1      33.721  20.220  25.370  1.00  0.00     0.194 C 
ENDBRANCH  18  19
ENDBRANCH  16  18
ENDBRANCH  15  16
ENDBRANCH  13  15
ENDBRANCH   9  13
ENDBRANCH   1   5
BRANCH   3  21
ATOM     21  C   UNL A   1      31.708  30.710  26.197  1.00  0.00     0.117 C 
BRANCH  21  22
ATOM     22  C   UNL A   1      31.443  32.163  26.548  1.00  0.00     0.042 C 
BRANCH  22  23
ATOM     23  C   UNL A   1      32.560  32.789  27.365  1.00  0.00     0.118 C 
BRANCH  23  24
ATOM     24  N   UNL A   1      32.335  34.205  27.625  1.00  0.00    -0.352 N 
ATOM     25  C   UNL A   1      32.920  35.025  28.559  1.00  0.00     0.251 C 
ATOM     26  H   UNL A   1      31.666  34.638  27.048  1.00  0.00     0.163 HD
ATOM     27  O   UNL A   1      32.464  36.145  28.771  1.00  0.00    -0.269 OA
BRANCH  25  28
ATOM     28  C   UNL A   1      34.084  34.540  29.325  1.00  0.00     0.039 A 
ATOM     29  C   UNL A   1      33.884  33.997  30.594  1.00  0.00     0.014 A 
ATOM     30  C   UNL A   1      35.367  34.602  28.777  1.00  0.00     0.014 A 
ATOM     31  C   UNL A   1      34.965  33.444  31.282  1.00  0.00     0.010 A 
ATOM     32  C   UNL A   1      36.420  33.960  29.415  1.00  0.00     0.010 A 
ATOM     33  C   UNL A   1      36.232  33.382  30.678  1.00  0.00    -0.014 A 
BRANCH  33  34
ATOM     34  C   UNL A   1      37.381  32.730  31.354  1.00  0.00     0.031 A 
ATOM     35  C   UNL A   1      38.072  31.565  30.698  1.00  0.00     0.074 A 
ATOM     36  C   UNL A   1      37.751  33.135  32.585  1.00  0.00     0.049 A 
ATOM     37  N   UNL A   1      39.031  30.805  31.160  1.00  0.00    -0.248 NA
ATOM     38  C   UNL A   1      37.598  31.182  29.357  1.00  0.00     0.031 C 
ATOM     39  C   UNL A   1      37.122  34.218  33.346  1.00  0.00     0.029 A 
ATOM     40  N   UNL A   1      38.739  32.677  33.419  1.00  0.00    -0.354 N 
ATOM     41  C   UNL A   1      39.258  29.847  30.181  1.00  0.00     0.074 A 
ATOM     42  C   UNL A   1      38.301  30.083  29.124  1.00  0.00     0.031 C 
ATOM     43  C   UNL A   1      37.758  34.358  34.519  1.00  0.00     0.029 A 
ATOM     44  C   UNL A   1      38.809  33.349  34.615  1.00  0.00     0.049 A 
ATOM     45  H   UNL A   1      39.341  31.935  33.182  1.00  0.00     0.167 HD
ATOM     46  C   UNL A   1      40.198  28.873  30.155  1.00  0.00     0.037 A 
ATOM     47  C   UNL A   1      39.623  33.165  35.671  1.00  0.00     0.037 A 
ATOM     48  C   UNL A   1      41.176  28.670  31.190  1.00  0.00     0.049 A 
ATOM     49  C   UNL A   1      40.661  32.076  35.610  1.00  0.00     0.074 A 
ATOM     50  C   UNL A   1      42.218  27.762  31.223  1.00  0.00     0.029 A 
ATOM     51  N   UNL A   1      41.230  29.388  32.375  1.00  0.00    -0.354 N 
ATOM     52  N   UNL A   1      40.918  31.228  34.645  1.00  0.00    -0.248 NA
ATOM     53  C   UNL A   1      41.528  31.922  36.788  1.00  0.00     0.031 C 
ATOM     54  C   UNL A   1      42.874  27.896  32.451  1.00  0.00     0.029 A 
ATOM     55  C   UNL A   1      42.276  28.926  33.158  1.00  0.00     0.049 A 
ATOM     56  H   UNL A   1      40.617  30.117  32.624  1.00  0.00     0.167 HD
ATOM     57  C   UNL A   1      41.994  30.467  35.081  1.00  0.00     0.074 A 
ATOM     58  C   UNL A   1      42.353  30.964  36.392  1.00  0.00     0.031 C 
ATOM     59  C   UNL A   1      42.629  29.446  34.453  1.00  0.00     0.037 A 
BRANCH  46  60
ATOM     60  C   UNL A   1      40.226  27.957  28.967  1.00  0.00     0.064 A 
ATOM     61  C   UNL A   1      40.959  28.270  27.811  1.00  0.00     0.173 A 
ATOM     62  C   UNL A   1      39.559  26.723  29.006  1.00  0.00     0.173 A 
ATOM     63  F   UNL A   1      41.603  29.443  27.719  1.00  0.00    -0.203 F 
ATOM     64  C   UNL A   1      41.006  27.392  26.733  1.00  0.00     0.198 A 
ATOM     65  C   UNL A   1      39.634  25.834  27.937  1.00  0.00     0.198 A 
ATOM     66  F   UNL A   1      38.847  26.373  30.087  1.00  0.00    -0.203 F 
ATOM     67  F   UNL A   1      41.678  27.731  25.623  1.00  0.00    -0.200 F 
ATOM     68  C   UNL A   1      40.353  26.170  26.800  1.00  0.00     0.200 A 
ATOM     69  F   UNL A   1      39.014  24.648  28.010  1.00  0.00    -0.200 F 
ATOM     70  F   UNL A   1      40.413  25.319  25.767  1.00  0.00    -0.200 F 
ENDBRANCH  46  60
BRANCH  47  71
ATOM     71  C   UNL A   1      39.512  34.039  36.869  1.00  0.00     0.064 A 
ATOM     72  C   UNL A   1      40.195  35.263  36.933  1.00  0.00     0.173 A 
ATOM     73  C   UNL A   1      38.752  33.660  37.985  1.00  0.00     0.173 A 
ATOM     74  F   UNL A   1      40.951  35.661  35.899  1.00  0.00    -0.203 F 
ATOM     75  C   UNL A   1      40.150  36.055  38.078  1.00  0.00     0.198 A 
ATOM     76  C   UNL A   1      38.681  34.469  39.117  1.00  0.00     0.198 A 
ATOM     77  F   UNL A   1      38.073  32.503  37.975  1.00  0.00    -0.203 F 
ATOM     78  F   UNL A   1      40.862  37.189  38.134  1.00  0.00    -0.200 F 
ATOM     79  C   UNL A   1      39.391  35.659  39.168  1.00  0.00     0.200 A 
ATOM     80  F   UNL A   1      37.933  34.090  40.163  1.00  0.00    -0.200 F 
ATOM     81  F   UNL A   1      39.350  36.420  40.271  1.00  0.00    -0.200 F 
ENDBRANCH  47  71
BRANCH  59  82
ATOM     82  C   UNL A   1      43.805  28.832  35.153  1.00  0.00     0.064 A 
ATOM     83  C   UNL A   1      45.108  29.320  34.973  1.00  0.00     0.173 A 
ATOM     84  C   UNL A   1      43.619  27.768  36.049  1.00  0.00     0.173 A 
ATOM     85  F   UNL A   1      45.340  30.326  34.117  1.00  0.00    -0.203 F 
ATOM     86  C   UNL A   1      46.185  28.745  35.643  1.00  0.00     0.198 A 
ATOM     87  C   UNL A   1      44.693  27.219  36.742  1.00  0.00     0.198 A 
ATOM     88  F   UNL A   1      42.392  27.270  36.262  1.00  0.00    -0.203 F 
ATOM     89  F   UNL A   1      47.428  29.193  35.418  1.00  0.00    -0.200 F 
ATOM     90  C   UNL A   1      45.976  27.702  36.533  1.00  0.00     0.200 A 
ATOM     91  F   UNL A   1      44.486  26.221  37.613  1.00  0.00    -0.200 F 
ATOM     92  F   UNL A   1      47.012  27.157  37.183  1.00  0.00    -0.200 F 
ENDBRANCH  59  82
ENDBRANCH  33  34
ENDBRANCH  25  28
ENDBRANCH  23  24
ENDBRANCH  22  23
ENDBRANCH  21  22
ENDBRANCH   3  21
TORSDOF 16
ENDMDL
MODEL 2
REMARK VINA RESULT:     -11.5      0.920      7.325
REMARK SMILES CC[C@]1(C(=O)NCCCNC(=O)c2ccc(-c3c4nc(c(-c5c(F)c(F)c(F)c(F)c5F)c5ccc([nH]5)c(-c5c(F)c(F)c(F)c(F)c5F)c5nc(c(-c6c(F)c(F)c(F)c(F)c6F)c6ccc3[nH]6)C=C5)C=C4)cc2)CCCN(C(=O)C[C@H](C)COC)C1
REMARK SMILES IDX 4 1 5 2 6 3 3 5 76 6 88 7 77 8 79 9 78 10 2 11 1 12 80 13
REMARK SMILES IDX 81 14 82 15 83 16 84 17 85 18 86 19 87 20 7 21 8 22 9 23
REMARK SMILES IDX 10 24 11 25 12 27 13 28 14 29 75 30 15 31 74 32 16 33 17 34
REMARK SMILES IDX 18 35 68 36 19 37 73 38 67 39 69 40 20 41 72 42 66 43 65 44
REMARK SMILES IDX 21 46 53 47 33 48 52 49 34 50 37 51 51 52 70 53 35 54 36 55
REMARK SMILES IDX 50 57 71 58 38 59 22 60 23 61 31 62 24 63 25 64 29 65 32 66
REMARK SMILES IDX 26 67 27 68 30 69 28 70 54 71 55 72 63 73 56 74 57 75 61 76
REMARK SMILES IDX 64 77 58 78 59 79 62 80 60 81 39 82 40 83 48 84 41 85 42 86
REMARK SMILES IDX 46 87 49 88 43 89 44 90 47 91 45 92
REMARK H PARENT 6 4 10 26 69 45 37 56
REMARK Flexibility Score: inf
ROOT
ATOM      1  C   UNL A   1      31.034  29.325  24.428  1.00  0.00     0.228 C 
ATOM      2  O   UNL A   1      30.342  29.408  23.411  1.00  0.00    -0.274 OA
ATOM      3  N   UNL A   1      31.149  30.473  25.151  1.00  0.00    -0.355 N 
ATOM      4  H   UNL A   1      30.722  31.253  24.729  1.00  0.00     0.163 HD
ENDROOT
BRANCH   1   5
ATOM      5  C   UNL A   1      31.686  28.009  24.886  1.00  0.00     0.066 C 
ATOM      6  C   UNL A   1      31.466  27.764  26.406  1.00  0.00     0.020 C 
ATOM      7  C   UNL A   1      31.057  26.906  23.985  1.00  0.00     0.136 C 
ATOM      8  C   UNL A   1      31.600  26.297  26.817  1.00  0.00     0.023 C 
ATOM      9  N   UNL A   1      31.146  25.559  24.525  1.00  0.00    -0.342 N 
ATOM     10  C   UNL A   1      30.771  25.389  25.923  1.00  0.00     0.119 C 
BRANCH   5  11
ATOM     11  C   UNL A   1      33.229  28.018  24.595  1.00  0.00     0.015 C 
ATOM     12  C   UNL A   1      33.672  27.907  23.136  1.00  0.00     0.005 C 
ENDBRANCH   5  11
BRANCH   9  13
ATOM     13  C   UNL A   1      31.269  24.520  23.616  1.00  0.00     0.222 C 
ATOM     14  O   UNL A   1      30.287  23.965  23.118  1.00  0.00    -0.275 OA
BRANCH  13  15
ATOM     15  C   UNL A   1      32.660  24.135  23.157  1.00  0.00     0.106 C 
BRANCH  15  16
ATOM     16  C   UNL A   1      33.554  23.564  24.277  1.00  0.00     0.021 C 
ATOM     17  C   UNL A   1      34.723  24.497  24.637  1.00  0.00     0.010 C 
BRANCH  16  18
ATOM     18  C   UNL A   1      34.051  22.170  23.857  1.00  0.00     0.163 C 
BRANCH  18  19
ATOM     19  O   UNL A   1      33.835  21.170  24.851  1.00  0.00    -0.384 OA
ATOM     20  C   UNL A   1      32.473  20.924  25.160  1.00  0.00     0.194 C 
ENDBRANCH  18  19
ENDBRANCH  16  18
ENDBRANCH  15  16
ENDBRANCH  13  15
ENDBRANCH   9  13
ENDBRANCH   1   5
BRANCH   3  21
ATOM     21  C   UNL A   1      31.780  30.766  26.428  1.00  0.00     0.117 C 
BRANCH  21  22
ATOM     22  C   UNL A   1      31.511  32.192  26.874  1.00  0.00     0.042 C 
BRANCH  22  23
ATOM     23  C   UNL A   1      32.783  32.982  27.132  1.00  0.00     0.118 C 
BRANCH  23  24
ATOM     24  N   UNL A   1      32.516  34.316  27.653  1.00  0.00    -0.352 N 
ATOM     25  C   UNL A   1      33.038  34.943  28.758  1.00  0.00     0.251 C 
ATOM     26  H   UNL A   1      31.866  34.847  27.138  1.00  0.00     0.163 HD
ATOM     27  O   UNL A   1      32.548  35.994  29.162  1.00  0.00    -0.269 OA
BRANCH  25  28
ATOM     28  C   UNL A   1      34.174  34.331  29.473  1.00  0.00     0.039 A 
ATOM     29  C   UNL A   1      33.921  33.496  30.562  1.00  0.00     0.014 A 
ATOM     30  C   UNL A   1      35.485  34.563  29.050  1.00  0.00     0.014 A 
ATOM     31  C   UNL A   1      34.982  32.833  31.179  1.00  0.00     0.010 A 
ATOM     32  C   UNL A   1      36.525  33.825  29.596  1.00  0.00     0.010 A 
ATOM     33  C   UNL A   1      36.287  32.958  30.672  1.00  0.00    -0.014 A 
BRANCH  33  34
ATOM     34  C   UNL A   1      37.422  32.204  31.259  1.00  0.00     0.031 A 
ATOM     35  C   UNL A   1      37.924  32.555  32.632  1.00  0.00     0.074 A 
ATOM     36  C   UNL A   1      38.044  31.258  30.528  1.00  0.00     0.049 A 
ATOM     37  N   UNL A   1      38.954  32.080  33.284  1.00  0.00    -0.248 NA
ATOM     38  C   UNL A   1      37.192  33.607  33.357  1.00  0.00     0.031 C 
ATOM     39  C   UNL A   1      37.683  30.865  29.164  1.00  0.00     0.029 A 
ATOM     40  N   UNL A   1      39.120  30.460  30.826  1.00  0.00    -0.354 N 
ATOM     41  C   UNL A   1      39.004  32.786  34.478  1.00  0.00     0.074 A 
ATOM     42  C   UNL A   1      37.938  33.762  34.441  1.00  0.00     0.031 C 
ATOM     43  C   UNL A   1      38.503  29.884  28.756  1.00  0.00     0.029 A 
ATOM     44  C   UNL A   1      39.475  29.608  29.809  1.00  0.00     0.049 A 
ATOM     45  H   UNL A   1      39.594  30.496  31.689  1.00  0.00     0.167 HD
ATOM     46  C   UNL A   1      39.847  32.618  35.523  1.00  0.00     0.037 A 
ATOM     47  C   UNL A   1      40.477  28.711  29.734  1.00  0.00     0.037 A 
ATOM     48  C   UNL A   1      40.879  31.616  35.573  1.00  0.00     0.049 A 
ATOM     49  C   UNL A   1      41.397  28.544  30.914  1.00  0.00     0.074 A 
ATOM     50  C   UNL A   1      41.735  31.313  36.616  1.00  0.00     0.029 A 
ATOM     51  N   UNL A   1      41.191  30.754  34.533  1.00  0.00    -0.354 N 
ATOM     52  N   UNL A   1      41.383  29.163  32.070  1.00  0.00    -0.248 NA
ATOM     53  C   UNL A   1      42.469  27.548  30.782  1.00  0.00     0.031 C 
ATOM     54  C   UNL A   1      42.600  30.300  36.189  1.00  0.00     0.029 A 
ATOM     55  C   UNL A   1      42.245  29.934  34.901  1.00  0.00     0.049 A 
ATOM     56  H   UNL A   1      40.732  30.728  33.662  1.00  0.00     0.167 HD
ATOM     57  C   UNL A   1      42.418  28.609  32.812  1.00  0.00     0.074 A 
ATOM     58  C   UNL A   1      43.029  27.592  31.982  1.00  0.00     0.031 C 
ATOM     59  C   UNL A   1      42.827  28.914  34.068  1.00  0.00     0.037 A 
BRANCH  46  60
ATOM     60  C   UNL A   1      39.688  33.527  36.707  1.00  0.00     0.064 A 
ATOM     61  C   UNL A   1      40.335  34.771  36.773  1.00  0.00     0.173 A 
ATOM     62  C   UNL A   1      38.833  33.176  37.762  1.00  0.00     0.173 A 
ATOM     63  F   UNL A   1      41.175  35.147  35.797  1.00  0.00    -0.203 F 
ATOM     64  C   UNL A   1      40.148  35.619  37.861  1.00  0.00     0.198 A 
ATOM     65  C   UNL A   1      38.623  34.040  38.833  1.00  0.00     0.198 A 
ATOM     66  F   UNL A   1      38.188  32.000  37.747  1.00  0.00    -0.203 F 
ATOM     67  F   UNL A   1      40.809  36.783  37.922  1.00  0.00    -0.200 F 
ATOM     68  C   UNL A   1      39.284  35.258  38.884  1.00  0.00     0.200 A 
ATOM     69  F   UNL A   1      37.777  33.696  39.814  1.00  0.00    -0.200 F 
ATOM     70  F   UNL A   1      39.092  36.083  39.922  1.00  0.00    -0.200 F 
ENDBRANCH  46  60
BRANCH  47  71
ATOM     71  C   UNL A   1      40.657  27.883  28.511  1.00  0.00     0.064 A 
ATOM     72  C   UNL A   1      41.438  28.342  27.441  1.00  0.00     0.173 A 
ATOM     73  C   UNL A   1      40.030  26.637  28.372  1.00  0.00     0.173 A 
ATOM     74  F   UNL A   1      42.043  29.537  27.518  1.00  0.00    -0.203 F 
ATOM     75  C   UNL A   1      41.557  27.603  26.266  1.00  0.00     0.198 A 
ATOM     76  C   UNL A   1      40.177  25.883  27.209  1.00  0.00     0.198 A 
ATOM     77  F   UNL A   1      39.278  26.147  29.368  1.00  0.00    -0.203 F 
ATOM     78  F   UNL A   1      42.260  28.094  25.236  1.00  0.00    -0.200 F 
ATOM     79  C   UNL A   1      40.929  26.373  26.152  1.00  0.00     0.200 A 
ATOM     80  F   UNL A   1      39.581  24.687  27.109  1.00  0.00    -0.200 F 
ATOM     81  F   UNL A   1      41.040  25.663  25.021  1.00  0.00    -0.200 F 
ENDBRANCH  47  71
BRANCH  59  82
ATOM     82  C   UNL A   1      43.956  28.109  34.639  1.00  0.00     0.064 A 
ATOM     83  C   UNL A   1      45.292  28.522  34.523  1.00  0.00     0.173 A 
ATOM     84  C   UNL A   1      43.693  26.928  35.351  1.00  0.00     0.173 A 
ATOM     85  F   UNL A   1      45.596  29.636  33.839  1.00  0.00    -0.203 F 
ATOM     86  C   UNL A   1      46.324  27.767  35.073  1.00  0.00     0.198 A 
ATOM     87  C   UNL A   1      44.724  26.195  35.929  1.00  0.00     0.198 A 
ATOM     88  F   UNL A   1      42.432  26.494  35.498  1.00  0.00    -0.203 F 
ATOM     89  F   UNL A   1      47.596  28.154  34.906  1.00  0.00    -0.200 F 
ATOM     90  C   UNL A   1      46.040  26.610  35.783  1.00  0.00     0.200 A 
ATOM     91  F   UNL A   1      44.446  25.085  36.628  1.00  0.00    -0.200 F 
ATOM     92  F   UNL A   1      47.034  25.891  36.320  1.00  0.00    -0.200 F 
ENDBRANCH  59  82
ENDBRANCH  33  34
ENDBRANCH  25  28
ENDBRANCH  23  24
ENDBRANCH  22  23
ENDBRANCH  21  22
ENDBRANCH   3  21
TORSDOF 16
ENDMDL
MODEL 3
REMARK VINA RESULT:     -11.5      5.524     11.095
REMARK SMILES CC[C@]1(C(=O)NCCCNC(=O)c2ccc(-c3c4nc(c(-c5c(F)c(F)c(F)c(F)c5F)c5ccc([nH]5)c(-c5c(F)c(F)c(F)c(F)c5F)c5nc(c(-c6c(F)c(F)c(F)c(F)c6F)c6ccc3[nH]6)C=C5)C=C4)cc2)CCCN(C(=O)C[C@H](C)COC)C1
REMARK SMILES IDX 4 1 5 2 6 3 3 5 76 6 88 7 77 8 79 9 78 10 2 11 1 12 80 13
REMARK SMILES IDX 81 14 82 15 83 16 84 17 85 18 86 19 87 20 7 21 8 22 9 23
REMARK SMILES IDX 10 24 11 25 12 27 13 28 14 29 75 30 15 31 74 32 16 33 17 34
REMARK SMILES IDX 18 35 68 36 19 37 73 38 67 39 69 40 20 41 72 42 66 43 65 44
REMARK SMILES IDX 21 46 53 47 33 48 52 49 34 50 37 51 51 52 70 53 35 54 36 55
REMARK SMILES IDX 50 57 71 58 38 59 22 60 23 61 31 62 24 63 25 64 29 65 32 66
REMARK SMILES IDX 26 67 27 68 30 69 28 70 54 71 55 72 63 73 56 74 57 75 61 76
REMARK SMILES IDX 64 77 58 78 59 79 62 80 60 81 39 82 40 83 48 84 41 85 42 86
REMARK SMILES IDX 46 87 49 88 43 89 44 90 47 91 45 92
REMARK H PARENT 6 4 10 26 69 45 37 56
REMARK Flexibility Score: inf
ROOT
ATOM      1  C   UNL A   1      34.135  20.565  25.419  1.00  0.00     0.228 C 
ATOM      2  O   UNL A   1      33.311  19.662  25.579  1.00  0.00    -0.274 OA
ATOM      3  N   UNL A   1      35.434  20.163  25.350  1.00  0.00    -0.355 N 
ATOM      4  H   UNL A   1      35.562  19.201  25.511  1.00  0.00     0.163 HD
ENDROOT
BRANCH   1   5
ATOM      5  C   UNL A   1      33.734  22.041  25.258  1.00  0.00     0.066 C 
ATOM      6  C   UNL A   1      34.650  22.975  26.100  1.00  0.00     0.020 C 
ATOM      7  C   UNL A   1      33.805  22.319  23.728  1.00  0.00     0.136 C 
ATOM      8  C   UNL A   1      34.673  24.421  25.604  1.00  0.00     0.023 C 
ATOM      9  N   UNL A   1      33.935  23.724  23.374  1.00  0.00    -0.342 N 
ATOM     10  C   UNL A   1      34.932  24.494  24.108  1.00  0.00     0.119 C 
BRANCH   5  11
ATOM     11  C   UNL A   1      32.244  22.267  25.699  1.00  0.00     0.015 C 
ATOM     12  C   UNL A   1      32.000  22.805  27.110  1.00  0.00     0.005 C 
ENDBRANCH   5  11
BRANCH   9  13
ATOM     13  C   UNL A   1      33.348  24.133  22.187  1.00  0.00     0.222 C 
ATOM     14  O   UNL A   1      33.419  23.463  21.154  1.00  0.00    -0.275 OA
BRANCH  13  15
ATOM     15  C   UNL A   1      32.513  25.396  22.203  1.00  0.00     0.106 C 
BRANCH  15  16
ATOM     16  C   UNL A   1      31.453  25.433  23.323  1.00  0.00     0.021 C 
ATOM     17  C   UNL A   1      30.485  24.239  23.264  1.00  0.00     0.010 C 
BRANCH  16  18
ATOM     18  C   UNL A   1      30.702  26.774  23.257  1.00  0.00     0.163 C 
BRANCH  18  19
ATOM     19  O   UNL A   1      30.339  27.282  24.539  1.00  0.00    -0.384 OA
ATOM     20  C   UNL A   1      31.432  27.553  25.403  1.00  0.00     0.194 C 
ENDBRANCH  18  19
ENDBRANCH  16  18
ENDBRANCH  15  16
ENDBRANCH  13  15
ENDBRANCH   9  13
ENDBRANCH   1   5
BRANCH   3  21
ATOM     21  C   UNL A   1      36.669  20.883  25.081  1.00  0.00     0.117 C 
BRANCH  21  22
ATOM     22  C   UNL A   1      37.844  19.939  24.900  1.00  0.00     0.042 C 
BRANCH  22  23
ATOM     23  C   UNL A   1      39.059  20.340  25.718  1.00  0.00     0.118 C 
BRANCH  23  24
ATOM     24  N   UNL A   1      40.022  19.256  25.858  1.00  0.00    -0.352 N 
ATOM     25  C   UNL A   1      41.379  19.313  26.055  1.00  0.00     0.251 C 
ATOM     26  H   UNL A   1      39.644  18.348  25.804  1.00  0.00     0.163 HD
ATOM     27  O   UNL A   1      42.063  18.299  25.948  1.00  0.00    -0.269 OA
BRANCH  25  28
ATOM     28  C   UNL A   1      42.015  20.607  26.368  1.00  0.00     0.039 A 
ATOM     29  C   UNL A   1      42.400  21.446  25.321  1.00  0.00     0.014 A 
ATOM     30  C   UNL A   1      42.207  20.999  27.695  1.00  0.00     0.014 A 
ATOM     31  C   UNL A   1      42.908  22.713  25.609  1.00  0.00     0.010 A 
ATOM     32  C   UNL A   1      42.614  22.295  27.978  1.00  0.00     0.010 A 
ATOM     33  C   UNL A   1      42.977  23.164  26.939  1.00  0.00    -0.014 A 
BRANCH  33  34
ATOM     34  C   UNL A   1      43.438  24.534  27.269  1.00  0.00     0.031 A 
ATOM     35  C   UNL A   1      42.468  25.534  27.837  1.00  0.00     0.074 A 
ATOM     36  C   UNL A   1      44.705  24.899  26.988  1.00  0.00     0.049 A 
ATOM     37  N   UNL A   1      42.649  26.802  28.107  1.00  0.00    -0.248 NA
ATOM     38  C   UNL A   1      41.101  25.055  28.104  1.00  0.00     0.031 C 
ATOM     39  C   UNL A   1      45.723  24.035  26.387  1.00  0.00     0.029 A 
ATOM     40  N   UNL A   1      45.351  26.098  27.162  1.00  0.00    -0.354 N 
ATOM     41  C   UNL A   1      41.420  27.271  28.553  1.00  0.00     0.074 A 
ATOM     42  C   UNL A   1      40.487  26.171  28.464  1.00  0.00     0.031 C 
ATOM     43  C   UNL A   1      46.870  24.721  26.269  1.00  0.00     0.029 A 
ATOM     44  C   UNL A   1      46.659  26.086  26.743  1.00  0.00     0.049 A 
ATOM     45  H   UNL A   1      44.916  26.892  27.549  1.00  0.00     0.167 HD
ATOM     46  C   UNL A   1      41.106  28.502  29.019  1.00  0.00     0.037 A 
ATOM     47  C   UNL A   1      47.580  27.068  26.736  1.00  0.00     0.037 A 
ATOM     48  C   UNL A   1      42.050  29.580  29.145  1.00  0.00     0.049 A 
ATOM     49  C   UNL A   1      47.202  28.426  27.265  1.00  0.00     0.074 A 
ATOM     50  C   UNL A   1      41.851  30.842  29.677  1.00  0.00     0.029 A 
ATOM     51  N   UNL A   1      43.373  29.522  28.735  1.00  0.00    -0.354 N 
ATOM     52  N   UNL A   1      46.058  28.835  27.758  1.00  0.00    -0.248 NA
ATOM     53  C   UNL A   1      48.246  29.460  27.240  1.00  0.00     0.031 C 
ATOM     54  C   UNL A   1      43.041  31.564  29.543  1.00  0.00     0.029 A 
ATOM     55  C   UNL A   1      43.996  30.735  28.980  1.00  0.00     0.049 A 
ATOM     56  H   UNL A   1      43.806  28.736  28.329  1.00  0.00     0.167 HD
ATOM     57  C   UNL A   1      46.255  30.157  28.134  1.00  0.00     0.074 A 
ATOM     58  C   UNL A   1      47.633  30.477  27.826  1.00  0.00     0.031 C 
ATOM     59  C   UNL A   1      45.374  31.029  28.684  1.00  0.00     0.037 A 
BRANCH  46  60
ATOM     60  C   UNL A   1      39.687  28.753  29.439  1.00  0.00     0.064 A 
ATOM     61  C   UNL A   1      39.251  28.504  30.749  1.00  0.00     0.173 A 
ATOM     62  C   UNL A   1      38.767  29.304  28.535  1.00  0.00     0.173 A 
ATOM     63  F   UNL A   1      40.089  27.965  31.648  1.00  0.00    -0.203 F 
ATOM     64  C   UNL A   1      37.942  28.778  31.133  1.00  0.00     0.198 A 
ATOM     65  C   UNL A   1      37.466  29.606  28.931  1.00  0.00     0.198 A 
ATOM     66  F   UNL A   1      39.133  29.565  27.271  1.00  0.00    -0.203 F 
ATOM     67  F   UNL A   1      37.536  28.493  32.378  1.00  0.00    -0.200 F 
ATOM     68  C   UNL A   1      37.054  29.338  30.227  1.00  0.00     0.200 A 
ATOM     69  F   UNL A   1      36.614  30.160  28.058  1.00  0.00    -0.200 F 
ATOM     70  F   UNL A   1      35.798  29.616  30.602  1.00  0.00    -0.200 F 
ENDBRANCH  46  60
BRANCH  47  71
ATOM     71  C   UNL A   1      48.956  26.807  26.235  1.00  0.00     0.064 A 
ATOM     72  C   UNL A   1      49.299  27.077  24.902  1.00  0.00     0.173 A 
ATOM     73  C   UNL A   1      49.944  26.255  27.062  1.00  0.00     0.173 A 
ATOM     74  F   UNL A   1      48.383  27.587  24.066  1.00  0.00    -0.203 F 
ATOM     75  C   UNL A   1      50.565  26.773  24.408  1.00  0.00     0.198 A 
ATOM     76  C   UNL A   1      51.221  25.982  26.575  1.00  0.00     0.198 A 
ATOM     77  F   UNL A   1      49.672  25.984  28.347  1.00  0.00    -0.203 F 
ATOM     78  F   UNL A   1      50.846  26.985  23.115  1.00  0.00    -0.200 F 
ATOM     79  C   UNL A   1      51.527  26.229  25.246  1.00  0.00     0.200 A 
ATOM     80  F   UNL A   1      52.153  25.471  27.393  1.00  0.00    -0.200 F 
ATOM     81  F   UNL A   1      52.744  25.933  24.769  1.00  0.00    -0.200 F 
ENDBRANCH  47  71
BRANCH  59  82
ATOM     82  C   UNL A   1      45.885  32.396  29.033  1.00  0.00     0.064 A 
ATOM     83  C   UNL A   1      45.794  33.470  28.135  1.00  0.00     0.173 A 
ATOM     84  C   UNL A   1      46.434  32.643  30.301  1.00  0.00     0.173 A 
ATOM     85  F   UNL A   1      45.291  33.281  26.906  1.00  0.00    -0.203 F 
ATOM     86  C   UNL A   1      46.261  34.734  28.485  1.00  0.00     0.198 A 
ATOM     87  C   UNL A   1      46.868  33.915  30.658  1.00  0.00     0.198 A 
ATOM     88  F   UNL A   1      46.536  31.651  31.199  1.00  0.00    -0.203 F 
ATOM     89  F   UNL A   1      46.212  35.734  27.593  1.00  0.00    -0.200 F 
ATOM     90  C   UNL A   1      46.789  34.958  29.747  1.00  0.00     0.200 A 
ATOM     91  F   UNL A   1      47.364  34.133  31.885  1.00  0.00    -0.200 F 
ATOM     92  F   UNL A   1      47.229  36.178  30.084  1.00  0.00    -0.200 F 
ENDBRANCH  59  82
ENDBRANCH  33  34
ENDBRANCH  25  28
ENDBRANCH  23  24
ENDBRANCH  22  23
ENDBRANCH  21  22
ENDBRANCH   3  21
TORSDOF 16
ENDMDL
