MODEL 1
REMARK VINA RESULT:     -13.8      0.000      0.000
REMARK SMILES NS(=O)(=O)c1ccc(-n2nc(C(F)(F)F)cc2-c2ccc(C(=O)NCCCNC(=O)c3ccc(-c4c5nc(c(-c6c(F)c(F)c(F)c(F)c6F)c6ccc([nH]6)c(-c6c(F)c(F)c(F)c(F)c6F)c6nc(c(-c7c(F)c(F)c(F)c(F)c7F)c7ccc4[nH]7)C=C6)C=C5)cc3)cc2)cc1
REMARK SMILES IDX 25 1 24 2 22 3 23 4 21 6 18 7 19 8 95 9 20 10 94 11 17 12
REMARK SMILES IDX 9 13 10 14 11 15 16 16 8 17 5 18 6 19 97 20 7 21 96 22 2 23
REMARK SMILES IDX 3 24 4 25 1 26 12 29 13 30 14 31 15 32 26 33 27 34 28 35
REMARK SMILES IDX 29 36 30 38 31 39 32 40 93 41 33 42 92 43 34 44 35 45 36 46
REMARK SMILES IDX 86 47 37 48 91 49 85 50 87 51 38 52 90 53 84 54 83 55 39 57
REMARK SMILES IDX 71 58 51 59 70 60 52 61 55 62 69 63 88 64 53 65 54 66 68 68
REMARK SMILES IDX 89 69 56 70 40 71 41 72 49 73 42 74 43 75 47 76 50 77 44 78
REMARK SMILES IDX 45 79 48 80 46 81 72 82 73 83 81 84 74 85 75 86 79 87 82 88
REMARK SMILES IDX 76 89 77 90 80 91 78 92 57 93 58 94 66 95 59 96 60 97 64 98
REMARK SMILES IDX 67 99 61 100 62 101 65 102 63 103
REMARK H PARENT 24 5 1 27 1 28 28 37 87 56 55 67
REMARK Flexibility Score: inf
ROOT
ATOM      1  C   UNL A   1      31.884  31.148  26.823  1.00  0.00     0.118 C 
ENDROOT
BRANCH   1   2
ATOM      2  N   UNL A   1      33.037  30.803  27.645  1.00  0.00    -0.352 N 
ATOM      3  C   UNL A   1      33.746  29.630  27.754  1.00  0.00     0.251 C 
ATOM      4  O   UNL A   1      34.750  29.615  28.464  1.00  0.00    -0.269 OA
ATOM      5  H   UNL A   1      33.363  31.533  28.219  1.00  0.00     0.163 HD
BRANCH   3   6
ATOM      6  C   UNL A   1      33.367  28.411  26.992  1.00  0.00     0.039 A 
ATOM      7  C   UNL A   1      32.658  26.021  25.718  1.00  0.00     0.000 A 
ATOM      8  C   UNL A   1      31.813  26.578  26.688  1.00  0.00     0.011 A 
ATOM      9  C   UNL A   1      33.829  26.676  25.361  1.00  0.00     0.011 A 
ATOM     10  C   UNL A   1      32.169  27.769  27.327  1.00  0.00     0.014 A 
ATOM     11  C   UNL A   1      34.145  27.886  25.959  1.00  0.00     0.014 A 
BRANCH   7  12
ATOM     12  C   UNL A   1      32.296  24.827  24.980  1.00  0.00     0.075 A 
ATOM     13  N   UNL A   1      31.314  24.783  24.006  1.00  0.00    -0.233 N 
ATOM     14  N   UNL A   1      31.079  23.517  23.581  1.00  0.00    -0.163 NA
ATOM     15  C   UNL A   1      32.069  22.784  24.134  1.00  0.00     0.167 A 
ATOM     16  C   UNL A   1      32.822  23.558  25.050  1.00  0.00     0.064 A 
BRANCH  13  17
ATOM     17  C   UNL A   1      30.574  25.888  23.518  1.00  0.00     0.065 A 
ATOM     18  C   UNL A   1      29.251  28.252  22.903  1.00  0.00     0.082 A 
ATOM     19  C   UNL A   1      30.540  28.040  22.407  1.00  0.00     0.024 A 
ATOM     20  C   UNL A   1      28.613  27.277  23.681  1.00  0.00     0.024 A 
ATOM     21  C   UNL A   1      31.205  26.857  22.719  1.00  0.00     0.030 A 
ATOM     22  C   UNL A   1      29.266  26.076  23.969  1.00  0.00     0.030 A 
BRANCH  18  23
ATOM     23  S   UNL A   1      28.474  29.792  22.519  1.00  0.00     0.238 S 
ATOM     24  O   UNL A   1      28.470  29.940  21.073  1.00  0.00    -0.207 OA
ATOM     25  O   UNL A   1      28.987  30.798  23.402  1.00  0.00    -0.207 OA
BRANCH  23  26
ATOM     26  N   UNL A   1      26.865  29.582  22.952  1.00  0.00    -0.225 NA
ATOM     27  H   UNL A   1      26.276  30.183  22.377  1.00  0.00     0.137 HD
ATOM     28  H   UNL A   1      26.743  29.827  23.935  1.00  0.00     0.137 HD
ENDBRANCH  23  26
ENDBRANCH  18  23
ENDBRANCH  13  17
BRANCH  15  29
ATOM     29  C   UNL A   1      32.324  21.336  23.806  1.00  0.00     0.435 C 
ATOM     30  F   UNL A   1      31.812  20.482  24.726  1.00  0.00    -0.164 F 
ATOM     31  F   UNL A   1      31.809  20.989  22.597  1.00  0.00    -0.164 F 
ATOM     32  F   UNL A   1      33.661  21.072  23.736  1.00  0.00    -0.164 F 
ENDBRANCH  15  29
ENDBRANCH   7  12
ENDBRANCH   3   6
ENDBRANCH   1   2
BRANCH   1  33
ATOM     33  C   UNL A   1      31.589  32.656  26.858  1.00  0.00     0.042 C 
BRANCH  33  34
ATOM     34  C   UNL A   1      32.832  33.467  27.141  1.00  0.00     0.118 C 
BRANCH  34  35
ATOM     35  N   UNL A   1      32.589  34.537  28.118  1.00  0.00    -0.352 N 
ATOM     36  C   UNL A   1      33.106  34.703  29.393  1.00  0.00     0.251 C 
ATOM     37  H   UNL A   1      31.965  35.241  27.823  1.00  0.00     0.163 HD
ATOM     38  O   UNL A   1      32.557  35.436  30.205  1.00  0.00    -0.269 OA
BRANCH  36  39
ATOM     39  C   UNL A   1      34.352  34.009  29.749  1.00  0.00     0.039 A 
ATOM     40  C   UNL A   1      34.453  33.004  30.720  1.00  0.00     0.014 A 
ATOM     41  C   UNL A   1      35.461  34.365  29.020  1.00  0.00     0.014 A 
ATOM     42  C   UNL A   1      35.698  32.400  30.922  1.00  0.00     0.010 A 
ATOM     43  C   UNL A   1      36.391  33.399  28.876  1.00  0.00     0.010 A 
ATOM     44  C   UNL A   1      36.699  32.658  29.991  1.00  0.00    -0.014 A 
BRANCH  44  45
ATOM     45  C   UNL A   1      38.043  32.114  29.981  1.00  0.00     0.031 A 
ATOM     46  C   UNL A   1      38.126  30.808  29.291  1.00  0.00     0.074 A 
ATOM     47  C   UNL A   1      39.113  32.906  30.241  1.00  0.00     0.049 A 
ATOM     48  N   UNL A   1      38.254  29.641  29.829  1.00  0.00    -0.248 NA
ATOM     49  C   UNL A   1      37.782  30.764  27.856  1.00  0.00     0.031 C 
ATOM     50  C   UNL A   1      39.136  34.340  30.571  1.00  0.00     0.029 A 
ATOM     51  N   UNL A   1      40.442  32.610  30.159  1.00  0.00    -0.354 N 
ATOM     52  C   UNL A   1      38.267  28.754  28.758  1.00  0.00     0.074 A 
ATOM     53  C   UNL A   1      37.656  29.451  27.666  1.00  0.00     0.031 C 
ATOM     54  C   UNL A   1      40.394  34.826  30.446  1.00  0.00     0.029 A 
ATOM     55  C   UNL A   1      41.291  33.721  30.173  1.00  0.00     0.049 A 
ATOM     56  H   UNL A   1      40.777  31.687  30.096  1.00  0.00     0.167 HD
ATOM     57  C   UNL A   1      39.113  27.684  28.756  1.00  0.00     0.037 A 
ATOM     58  C   UNL A   1      42.627  33.697  29.916  1.00  0.00     0.037 A 
ATOM     59  C   UNL A   1      39.647  27.475  30.085  1.00  0.00     0.049 A 
ATOM     60  C   UNL A   1      43.065  32.281  30.065  1.00  0.00     0.074 A 
ATOM     61  C   UNL A   1      39.095  27.235  31.329  1.00  0.00     0.029 A 
ATOM     62  N   UNL A   1      40.925  27.922  30.324  1.00  0.00    -0.354 N 
ATOM     63  N   UNL A   1      43.050  31.641  31.203  1.00  0.00    -0.248 NA
ATOM     64  C   UNL A   1      43.005  31.443  28.875  1.00  0.00     0.031 C 
ATOM     65  C   UNL A   1      39.885  28.004  32.237  1.00  0.00     0.029 A 
ATOM     66  C   UNL A   1      40.931  28.587  31.522  1.00  0.00     0.049 A 
ATOM     67  H   UNL A   1      41.703  27.788  29.735  1.00  0.00     0.167 HD
ATOM     68  C   UNL A   1      42.539  30.386  30.896  1.00  0.00     0.074 A 
ATOM     69  C   UNL A   1      42.582  30.306  29.436  1.00  0.00     0.031 C 
ATOM     70  C   UNL A   1      41.842  29.666  31.824  1.00  0.00     0.037 A 
BRANCH  57  71
ATOM     71  C   UNL A   1      39.810  27.126  27.527  1.00  0.00     0.064 A 
ATOM     72  C   UNL A   1      39.832  25.725  27.364  1.00  0.00     0.173 A 
ATOM     73  C   UNL A   1      40.695  27.836  26.683  1.00  0.00     0.173 A 
ATOM     74  F   UNL A   1      39.018  24.940  28.085  1.00  0.00    -0.203 F 
ATOM     75  C   UNL A   1      40.761  25.086  26.537  1.00  0.00     0.198 A 
ATOM     76  C   UNL A   1      41.588  27.198  25.825  1.00  0.00     0.198 A 
ATOM     77  F   UNL A   1      40.821  29.165  26.706  1.00  0.00    -0.203 F 
ATOM     78  F   UNL A   1      40.837  23.750  26.536  1.00  0.00    -0.200 F 
ATOM     79  C   UNL A   1      41.651  25.823  25.782  1.00  0.00     0.200 A 
ATOM     80  F   UNL A   1      42.443  27.935  25.101  1.00  0.00    -0.200 F 
ATOM     81  F   UNL A   1      42.591  25.217  25.047  1.00  0.00    -0.200 F 
ENDBRANCH  57  71
BRANCH  58  82
ATOM     82  C   UNL A   1      43.461  34.712  29.218  1.00  0.00     0.064 A 
ATOM     83  C   UNL A   1      44.828  34.865  29.510  1.00  0.00     0.173 A 
ATOM     84  C   UNL A   1      43.001  35.354  28.051  1.00  0.00     0.173 A 
ATOM     85  F   UNL A   1      45.362  34.249  30.574  1.00  0.00    -0.203 F 
ATOM     86  C   UNL A   1      45.684  35.597  28.674  1.00  0.00     0.198 A 
ATOM     87  C   UNL A   1      43.854  36.085  27.221  1.00  0.00     0.198 A 
ATOM     88  F   UNL A   1      41.733  35.201  27.641  1.00  0.00    -0.203 F 
ATOM     89  F   UNL A   1      46.992  35.672  28.955  1.00  0.00    -0.200 F 
ATOM     90  C   UNL A   1      45.197  36.198  27.526  1.00  0.00     0.200 A 
ATOM     91  F   UNL A   1      43.378  36.626  26.090  1.00  0.00    -0.200 F 
ATOM     92  F   UNL A   1      46.026  36.844  26.693  1.00  0.00    -0.200 F 
ENDBRANCH  58  82
BRANCH  70  93
ATOM     93  C   UNL A   1      41.857  30.153  33.249  1.00  0.00     0.064 A 
ATOM     94  C   UNL A   1      40.883  30.999  33.810  1.00  0.00     0.173 A 
ATOM     95  C   UNL A   1      42.810  29.610  34.117  1.00  0.00     0.173 A 
ATOM     96  F   UNL A   1      39.880  31.482  33.069  1.00  0.00    -0.203 F 
ATOM     97  C   UNL A   1      40.889  31.311  35.169  1.00  0.00     0.198 A 
ATOM     98  C   UNL A   1      42.793  29.894  35.480  1.00  0.00     0.198 A 
ATOM     99  F   UNL A   1      43.730  28.752  33.649  1.00  0.00    -0.203 F 
ATOM    100  F   UNL A   1      39.951  32.124  35.678  1.00  0.00    -0.200 F 
ATOM    101  C   UNL A   1      41.841  30.751  36.005  1.00  0.00     0.200 A 
ATOM    102  F   UNL A   1      43.686  29.309  36.291  1.00  0.00    -0.200 F 
ATOM    103  F   UNL A   1      41.824  31.015  37.318  1.00  0.00    -0.200 F 
ENDBRANCH  70  93
ENDBRANCH  44  45
ENDBRANCH  36  39
ENDBRANCH  34  35
ENDBRANCH  33  34
ENDBRANCH   1  33
TORSDOF 15
ENDMDL
MODEL 2
REMARK VINA RESULT:     -13.0      3.590      7.552
REMARK SMILES NS(=O)(=O)c1ccc(-n2nc(C(F)(F)F)cc2-c2ccc(C(=O)NCCCNC(=O)c3ccc(-c4c5nc(c(-c6c(F)c(F)c(F)c(F)c6F)c6ccc([nH]6)c(-c6c(F)c(F)c(F)c(F)c6F)c6nc(c(-c7c(F)c(F)c(F)c(F)c7F)c7ccc4[nH]7)C=C6)C=C5)cc3)cc2)cc1
REMARK SMILES IDX 25 1 24 2 22 3 23 4 21 6 18 7 19 8 95 9 20 10 94 11 17 12
REMARK SMILES IDX 9 13 10 14 11 15 16 16 8 17 5 18 6 19 97 20 7 21 96 22 2 23
REMARK SMILES IDX 3 24 4 25 1 26 12 29 13 30 14 31 15 32 26 33 27 34 28 35
REMARK SMILES IDX 29 36 30 38 31 39 32 40 93 41 33 42 92 43 34 44 35 45 36 46
REMARK SMILES IDX 86 47 37 48 91 49 85 50 87 51 38 52 90 53 84 54 83 55 39 57
REMARK SMILES IDX 71 58 51 59 70 60 52 61 55 62 69 63 88 64 53 65 54 66 68 68
REMARK SMILES IDX 89 69 56 70 40 71 41 72 49 73 42 74 43 75 47 76 50 77 44 78
REMARK SMILES IDX 45 79 48 80 46 81 72 82 73 83 81 84 74 85 75 86 79 87 82 88
REMARK SMILES IDX 76 89 77 90 80 91 78 92 57 93 58 94 66 95 59 96 60 97 64 98
REMARK SMILES IDX 67 99 61 100 62 101 65 102 63 103
REMARK H PARENT 24 5 1 27 1 28 28 37 87 56 55 67
REMARK Flexibility Score: inf
ROOT
ATOM      1  C   UNL A   1      34.832  23.169  25.703  1.00  0.00     0.118 C 
ENDROOT
BRANCH   1   2
ATOM      2  N   UNL A   1      33.635  22.352  25.859  1.00  0.00    -0.352 N 
ATOM      3  C   UNL A   1      32.309  22.647  25.649  1.00  0.00     0.251 C 
ATOM      4  O   UNL A   1      31.480  21.746  25.768  1.00  0.00    -0.269 OA
ATOM      5  H   UNL A   1      33.805  21.432  26.168  1.00  0.00     0.163 HD
BRANCH   3   6
ATOM      6  C   UNL A   1      31.866  24.001  25.223  1.00  0.00     0.039 A 
ATOM      7  C   UNL A   1      30.857  26.497  24.454  1.00  0.00     0.000 A 
ATOM      8  C   UNL A   1      30.684  26.043  25.769  1.00  0.00     0.011 A 
ATOM      9  C   UNL A   1      31.565  25.724  23.543  1.00  0.00     0.011 A 
ATOM     10  C   UNL A   1      31.184  24.796  26.152  1.00  0.00     0.014 A 
ATOM     11  C   UNL A   1      32.106  24.514  23.947  1.00  0.00     0.014 A 
BRANCH   7  12
ATOM     12  C   UNL A   1      30.418  27.812  24.033  1.00  0.00     0.075 A 
ATOM     13  N   UNL A   1      30.956  28.999  24.500  1.00  0.00    -0.233 N 
ATOM     14  N   UNL A   1      30.267  30.078  24.056  1.00  0.00    -0.163 NA
ATOM     15  C   UNL A   1      29.421  29.581  23.127  1.00  0.00     0.167 A 
ATOM     16  C   UNL A   1      29.454  28.166  23.118  1.00  0.00     0.064 A 
BRANCH  13  17
ATOM     17  C   UNL A   1      32.057  29.123  25.384  1.00  0.00     0.065 A 
ATOM     18  C   UNL A   1      34.333  29.679  26.876  1.00  0.00     0.082 A 
ATOM     19  C   UNL A   1      33.119  30.270  27.234  1.00  0.00     0.024 A 
ATOM     20  C   UNL A   1      34.408  28.793  25.794  1.00  0.00     0.024 A 
ATOM     21  C   UNL A   1      31.978  29.995  26.483  1.00  0.00     0.030 A 
ATOM     22  C   UNL A   1      33.258  28.490  25.059  1.00  0.00     0.030 A 
BRANCH  18  23
ATOM     23  S   UNL A   1      35.759  30.105  27.830  1.00  0.00     0.238 S 
ATOM     24  O   UNL A   1      36.025  31.519  27.625  1.00  0.00    -0.207 OA
ATOM     25  O   UNL A   1      36.755  29.092  27.643  1.00  0.00    -0.207 OA
BRANCH  23  26
ATOM     26  N   UNL A   1      35.262  29.969  29.429  1.00  0.00    -0.225 NA
ATOM     27  H   UNL A   1      35.496  29.040  29.780  1.00  0.00     0.137 HD
ATOM     28  H   UNL A   1      34.253  30.109  29.484  1.00  0.00     0.137 HD
ENDBRANCH  23  26
ENDBRANCH  18  23
ENDBRANCH  13  17
BRANCH  15  29
ATOM     29  C   UNL A   1      28.564  30.435  22.230  1.00  0.00     0.435 C 
ATOM     30  F   UNL A   1      29.253  31.435  21.627  1.00  0.00    -0.164 F 
ATOM     31  F   UNL A   1      27.966  29.705  21.251  1.00  0.00    -0.164 F 
ATOM     32  F   UNL A   1      27.553  31.027  22.928  1.00  0.00    -0.164 F 
ENDBRANCH  15  29
ENDBRANCH   7  12
ENDBRANCH   3   6
ENDBRANCH   1   2
BRANCH   1  33
ATOM     33  C   UNL A   1      36.019  22.347  25.175  1.00  0.00     0.042 C 
BRANCH  33  34
ATOM     34  C   UNL A   1      37.332  23.071  25.361  1.00  0.00     0.118 C 
BRANCH  34  35
ATOM     35  N   UNL A   1      38.361  22.211  25.963  1.00  0.00    -0.352 N 
ATOM     36  C   UNL A   1      39.559  22.558  26.565  1.00  0.00     0.251 C 
ATOM     37  H   UNL A   1      38.170  21.245  25.933  1.00  0.00     0.163 HD
ATOM     38  O   UNL A   1      40.457  21.738  26.702  1.00  0.00    -0.269 OA
BRANCH  36  39
ATOM     39  C   UNL A   1      39.727  23.927  27.073  1.00  0.00     0.039 A 
ATOM     40  C   UNL A   1      38.705  24.885  27.134  1.00  0.00     0.014 A 
ATOM     41  C   UNL A   1      40.976  24.234  27.559  1.00  0.00     0.014 A 
ATOM     42  C   UNL A   1      39.001  26.136  27.683  1.00  0.00     0.010 A 
ATOM     43  C   UNL A   1      41.003  25.168  28.531  1.00  0.00     0.010 A 
ATOM     44  C   UNL A   1      40.213  26.277  28.353  1.00  0.00    -0.014 A 
BRANCH  44  45
ATOM     45  C   UNL A   1      40.704  27.463  29.028  1.00  0.00     0.031 A 
ATOM     46  C   UNL A   1      41.887  28.050  28.363  1.00  0.00     0.074 A 
ATOM     47  C   UNL A   1      39.925  28.124  29.919  1.00  0.00     0.049 A 
ATOM     48  N   UNL A   1      43.117  27.995  28.752  1.00  0.00    -0.248 NA
ATOM     49  C   UNL A   1      41.725  28.547  26.983  1.00  0.00     0.031 C 
ATOM     50  C   UNL A   1      38.557  27.806  30.359  1.00  0.00     0.029 A 
ATOM     51  N   UNL A   1      40.161  29.309  30.554  1.00  0.00    -0.354 N 
ATOM     52  C   UNL A   1      43.832  28.685  27.779  1.00  0.00     0.074 A 
ATOM     53  C   UNL A   1      42.999  28.691  26.614  1.00  0.00     0.031 C 
ATOM     54  C   UNL A   1      38.016  28.867  31.003  1.00  0.00     0.029 A 
ATOM     55  C   UNL A   1      39.036  29.885  31.154  1.00  0.00     0.049 A 
ATOM     56  H   UNL A   1      41.052  29.725  30.588  1.00  0.00     0.167 HD
ATOM     57  C   UNL A   1      44.860  29.509  28.130  1.00  0.00     0.037 A 
ATOM     58  C   UNL A   1      38.977  31.140  31.677  1.00  0.00     0.037 A 
ATOM     59  C   UNL A   1      45.249  29.257  29.501  1.00  0.00     0.049 A 
ATOM     60  C   UNL A   1      40.384  31.581  31.889  1.00  0.00     0.074 A 
ATOM     61  C   UNL A   1      45.692  28.149  30.198  1.00  0.00     0.029 A 
ATOM     62  N   UNL A   1      44.801  30.142  30.452  1.00  0.00    -0.354 N 
ATOM     63  N   UNL A   1      41.188  31.022  32.753  1.00  0.00    -0.248 NA
ATOM     64  C   UNL A   1      41.034  32.269  30.783  1.00  0.00     0.031 C 
ATOM     65  C   UNL A   1      45.043  28.230  31.468  1.00  0.00     0.029 A 
ATOM     66  C   UNL A   1      44.324  29.424  31.517  1.00  0.00     0.049 A 
ATOM     67  H   UNL A   1      44.819  31.124  30.381  1.00  0.00     0.167 HD
ATOM     68  C   UNL A   1      42.398  30.903  32.082  1.00  0.00     0.074 A 
ATOM     69  C   UNL A   1      42.256  31.739  30.890  1.00  0.00     0.031 C 
ATOM     70  C   UNL A   1      43.273  29.899  32.387  1.00  0.00     0.037 A 
BRANCH  57  71
ATOM     71  C   UNL A   1      45.202  30.818  27.438  1.00  0.00     0.064 A 
ATOM     72  C   UNL A   1      46.535  31.009  27.017  1.00  0.00     0.173 A 
ATOM     73  C   UNL A   1      44.406  31.986  27.437  1.00  0.00     0.173 A 
ATOM     74  F   UNL A   1      47.385  29.974  26.948  1.00  0.00    -0.203 F 
ATOM     75  C   UNL A   1      47.059  32.279  26.759  1.00  0.00     0.198 A 
ATOM     76  C   UNL A   1      44.920  33.245  27.133  1.00  0.00     0.198 A 
ATOM     77  F   UNL A   1      43.125  32.001  27.817  1.00  0.00    -0.203 F 
ATOM     78  F   UNL A   1      48.367  32.417  26.510  1.00  0.00    -0.200 F 
ATOM     79  C   UNL A   1      46.255  33.398  26.835  1.00  0.00     0.200 A 
ATOM     80  F   UNL A   1      44.119  34.318  27.213  1.00  0.00    -0.200 F 
ATOM     81  F   UNL A   1      46.768  34.623  26.664  1.00  0.00    -0.200 F 
ENDBRANCH  57  71
BRANCH  58  82
ATOM     82  C   UNL A   1      37.840  32.100  31.670  1.00  0.00     0.064 A 
ATOM     83  C   UNL A   1      37.484  32.807  30.508  1.00  0.00     0.173 A 
ATOM     84  C   UNL A   1      36.905  32.127  32.723  1.00  0.00     0.173 A 
ATOM     85  F   UNL A   1      38.292  32.795  29.438  1.00  0.00    -0.203 F 
ATOM     86  C   UNL A   1      36.259  33.481  30.400  1.00  0.00     0.198 A 
ATOM     87  C   UNL A   1      35.686  32.801  32.616  1.00  0.00     0.198 A 
ATOM     88  F   UNL A   1      37.113  31.417  33.841  1.00  0.00    -0.203 F 
ATOM     89  F   UNL A   1      35.930  34.095  29.255  1.00  0.00    -0.200 F 
ATOM     90  C   UNL A   1      35.357  33.468  31.451  1.00  0.00     0.200 A 
ATOM     91  F   UNL A   1      34.804  32.744  33.625  1.00  0.00    -0.200 F 
ATOM     92  F   UNL A   1      34.160  34.058  31.327  1.00  0.00    -0.200 F 
ENDBRANCH  58  82
BRANCH  70  93
ATOM     93  C   UNL A   1      43.007  29.085  33.625  1.00  0.00     0.064 A 
ATOM     94  C   UNL A   1      42.226  27.915  33.655  1.00  0.00     0.173 A 
ATOM     95  C   UNL A   1      43.703  29.420  34.792  1.00  0.00     0.173 A 
ATOM     96  F   UNL A   1      41.608  27.472  32.555  1.00  0.00    -0.203 F 
ATOM     97  C   UNL A   1      42.122  27.141  34.810  1.00  0.00     0.198 A 
ATOM     98  C   UNL A   1      43.627  28.627  35.933  1.00  0.00     0.198 A 
ATOM     99  F   UNL A   1      44.508  30.494  34.806  1.00  0.00    -0.203 F 
ATOM    100  F   UNL A   1      41.367  26.032  34.813  1.00  0.00    -0.200 F 
ATOM    101  C   UNL A   1      42.830  27.494  35.947  1.00  0.00     0.200 A 
ATOM    102  F   UNL A   1      44.354  28.946  37.013  1.00  0.00    -0.200 F 
ATOM    103  F   UNL A   1      42.766  26.730  37.045  1.00  0.00    -0.200 F 
ENDBRANCH  70  93
ENDBRANCH  44  45
ENDBRANCH  36  39
ENDBRANCH  34  35
ENDBRANCH  33  34
ENDBRANCH   1  33
TORSDOF 15
ENDMDL
MODEL 3
REMARK VINA RESULT:     -13.0      0.919      2.203
REMARK SMILES NS(=O)(=O)c1ccc(-n2nc(C(F)(F)F)cc2-c2ccc(C(=O)NCCCNC(=O)c3ccc(-c4c5nc(c(-c6c(F)c(F)c(F)c(F)c6F)c6ccc([nH]6)c(-c6c(F)c(F)c(F)c(F)c6F)c6nc(c(-c7c(F)c(F)c(F)c(F)c7F)c7ccc4[nH]7)C=C6)C=C5)cc3)cc2)cc1
REMARK SMILES IDX 25 1 24 2 22 3 23 4 21 6 18 7 19 8 95 9 20 10 94 11 17 12
REMARK SMILES IDX 9 13 10 14 11 15 16 16 8 17 5 18 6 19 97 20 7 21 96 22 2 23
REMARK SMILES IDX 3 24 4 25 1 26 12 29 13 30 14 31 15 32 26 33 27 34 28 35
REMARK SMILES IDX 29 36 30 38 31 39 32 40 93 41 33 42 92 43 34 44 35 45 36 46
REMARK SMILES IDX 86 47 37 48 91 49 85 50 87 51 38 52 90 53 84 54 83 55 39 57
REMARK SMILES IDX 71 58 51 59 70 60 52 61 55 62 69 63 88 64 53 65 54 66 68 68
REMARK SMILES IDX 89 69 56 70 40 71 41 72 49 73 42 74 43 75 47 76 50 77 44 78
REMARK SMILES IDX 45 79 48 80 46 81 72 82 73 83 81 84 74 85 75 86 79 87 82 88
REMARK SMILES IDX 76 89 77 90 80 91 78 92 57 93 58 94 66 95 59 96 60 97 64 98
REMARK SMILES IDX 67 99 61 100 62 101 65 102 63 103
REMARK H PARENT 24 5 1 27 1 28 28 37 87 56 55 67
REMARK Flexibility Score: inf
ROOT
ATOM      1  C   UNL A   1      32.036  31.314  26.630  1.00  0.00     0.118 C 
ENDROOT
BRANCH   1   2
ATOM      2  N   UNL A   1      33.195  30.997  27.456  1.00  0.00    -0.352 N 
ATOM      3  C   UNL A   1      33.889  29.822  27.621  1.00  0.00     0.251 C 
ATOM      4  O   UNL A   1      34.902  29.830  28.317  1.00  0.00    -0.269 OA
ATOM      5  H   UNL A   1      33.540  31.753  27.984  1.00  0.00     0.163 HD
BRANCH   3   6
ATOM      6  C   UNL A   1      33.481  28.568  26.934  1.00  0.00     0.039 A 
ATOM      7  C   UNL A   1      32.695  26.306  25.482  1.00  0.00     0.000 A 
ATOM      8  C   UNL A   1      33.884  26.974  25.155  1.00  0.00     0.011 A 
ATOM      9  C   UNL A   1      31.927  26.745  26.552  1.00  0.00     0.011 A 
ATOM     10  C   UNL A   1      34.273  28.105  25.877  1.00  0.00     0.014 A 
ATOM     11  C   UNL A   1      32.351  27.833  27.298  1.00  0.00     0.014 A 
BRANCH   7  12
ATOM     12  C   UNL A   1      32.289  25.090  24.807  1.00  0.00     0.075 A 
ATOM     13  N   UNL A   1      31.267  25.019  23.878  1.00  0.00    -0.233 N 
ATOM     14  N   UNL A   1      31.000  23.741  23.512  1.00  0.00    -0.163 NA
ATOM     15  C   UNL A   1      32.006  23.018  24.051  1.00  0.00     0.167 A 
ATOM     16  C   UNL A   1      32.805  23.818  24.903  1.00  0.00     0.064 A 
BRANCH  13  17
ATOM     17  C   UNL A   1      30.518  26.114  23.379  1.00  0.00     0.065 A 
ATOM     18  C   UNL A   1      29.175  28.460  22.740  1.00  0.00     0.082 A 
ATOM     19  C   UNL A   1      30.466  28.255  22.248  1.00  0.00     0.024 A 
ATOM     20  C   UNL A   1      28.544  27.487  23.526  1.00  0.00     0.024 A 
ATOM     21  C   UNL A   1      31.141  27.081  22.572  1.00  0.00     0.030 A 
ATOM     22  C   UNL A   1      29.208  26.294  23.826  1.00  0.00     0.030 A 
BRANCH  18  23
ATOM     23  S   UNL A   1      28.385  29.990  22.342  1.00  0.00     0.238 S 
ATOM     24  O   UNL A   1      27.540  30.359  23.466  1.00  0.00    -0.207 OA
ATOM     25  O   UNL A   1      27.899  29.919  20.996  1.00  0.00    -0.207 OA
BRANCH  23  26
ATOM     26  N   UNL A   1      29.625  31.122  22.322  1.00  0.00    -0.225 NA
ATOM     27  H   UNL A   1      29.909  31.333  23.279  1.00  0.00     0.137 HD
ATOM     28  H   UNL A   1      29.298  31.977  21.869  1.00  0.00     0.137 HD
ENDBRANCH  23  26
ENDBRANCH  18  23
ENDBRANCH  13  17
BRANCH  15  29
ATOM     29  C   UNL A   1      32.233  21.556  23.770  1.00  0.00     0.435 C 
ATOM     30  F   UNL A   1      33.545  21.214  23.741  1.00  0.00    -0.164 F 
ATOM     31  F   UNL A   1      31.624  20.760  24.689  1.00  0.00    -0.164 F 
ATOM     32  F   UNL A   1      31.714  21.198  22.560  1.00  0.00    -0.164 F 
ENDBRANCH  15  29
ENDBRANCH   7  12
ENDBRANCH   3   6
ENDBRANCH   1   2
BRANCH   1  33
ATOM     33  C   UNL A   1      31.450  32.692  26.975  1.00  0.00     0.042 C 
BRANCH  33  34
ATOM     34  C   UNL A   1      32.514  33.764  27.009  1.00  0.00     0.118 C 
BRANCH  34  35
ATOM     35  N   UNL A   1      32.441  34.583  28.227  1.00  0.00    -0.352 N 
ATOM     36  C   UNL A   1      33.217  34.530  29.374  1.00  0.00     0.251 C 
ATOM     37  H   UNL A   1      31.736  35.271  28.228  1.00  0.00     0.163 HD
ATOM     38  O   UNL A   1      32.826  35.025  30.423  1.00  0.00    -0.269 OA
BRANCH  36  39
ATOM     39  C   UNL A   1      34.541  33.896  29.306  1.00  0.00     0.039 A 
ATOM     40  C   UNL A   1      35.439  34.042  28.240  1.00  0.00     0.014 A 
ATOM     41  C   UNL A   1      34.906  33.159  30.407  1.00  0.00     0.014 A 
ATOM     42  C   UNL A   1      36.685  33.414  28.332  1.00  0.00     0.010 A 
ATOM     43  C   UNL A   1      36.232  33.099  30.647  1.00  0.00     0.010 A 
ATOM     44  C   UNL A   1      37.053  32.887  29.566  1.00  0.00    -0.014 A 
BRANCH  44  45
ATOM     45  C   UNL A   1      38.304  32.233  29.899  1.00  0.00     0.031 A 
ATOM     46  C   UNL A   1      38.361  30.834  29.423  1.00  0.00     0.074 A 
ATOM     47  C   UNL A   1      39.391  32.961  30.258  1.00  0.00     0.049 A 
ATOM     48  N   UNL A   1      38.252  29.759  30.130  1.00  0.00    -0.248 NA
ATOM     49  C   UNL A   1      38.287  30.597  27.969  1.00  0.00     0.031 C 
ATOM     50  C   UNL A   1      39.518  34.422  30.388  1.00  0.00     0.029 A 
ATOM     51  N   UNL A   1      40.669  32.542  30.485  1.00  0.00    -0.354 N 
ATOM     52  C   UNL A   1      38.362  28.717  29.214  1.00  0.00     0.074 A 
ATOM     53  C   UNL A   1      38.047  29.286  27.938  1.00  0.00     0.031 C 
ATOM     54  C   UNL A   1      40.824  34.771  30.453  1.00  0.00     0.029 A 
ATOM     55  C   UNL A   1      41.623  33.564  30.517  1.00  0.00     0.049 A 
ATOM     56  H   UNL A   1      40.902  31.594  30.616  1.00  0.00     0.167 HD
ATOM     57  C   UNL A   1      39.064  27.591  29.527  1.00  0.00     0.037 A 
ATOM     58  C   UNL A   1      42.972  33.384  30.538  1.00  0.00     0.037 A 
ATOM     59  C   UNL A   1      39.315  27.546  30.952  1.00  0.00     0.049 A 
ATOM     60  C   UNL A   1      43.208  31.976  30.962  1.00  0.00     0.074 A 
ATOM     61  C   UNL A   1      38.519  27.552  32.081  1.00  0.00     0.029 A 
ATOM     62  N   UNL A   1      40.570  27.913  31.378  1.00  0.00    -0.354 N 
ATOM     63  N   UNL A   1      42.909  31.525  32.151  1.00  0.00    -0.248 NA
ATOM     64  C   UNL A   1      43.273  30.972  29.910  1.00  0.00     0.031 C 
ATOM     65  C   UNL A   1      39.211  28.381  33.016  1.00  0.00     0.029 A 
ATOM     66  C   UNL A   1      40.431  28.753  32.451  1.00  0.00     0.049 A 
ATOM     67  H   UNL A   1      41.422  27.621  30.981  1.00  0.00     0.167 HD
ATOM     68  C   UNL A   1      42.323  30.287  31.921  1.00  0.00     0.074 A 
ATOM     69  C   UNL A   1      42.626  29.977  30.524  1.00  0.00     0.031 C 
ATOM     70  C   UNL A   1      41.388  29.783  32.781  1.00  0.00     0.037 A 
BRANCH  57  71
ATOM     71  C   UNL A   1      39.907  26.790  28.549  1.00  0.00     0.064 A 
ATOM     72  C   UNL A   1      40.929  27.470  27.854  1.00  0.00     0.173 A 
ATOM     73  C   UNL A   1      39.590  25.511  28.038  1.00  0.00     0.173 A 
ATOM     74  F   UNL A   1      41.341  28.681  28.257  1.00  0.00    -0.203 F 
ATOM     75  C   UNL A   1      41.479  26.974  26.668  1.00  0.00     0.198 A 
ATOM     76  C   UNL A   1      40.175  24.999  26.881  1.00  0.00     0.198 A 
ATOM     77  F   UNL A   1      38.641  24.728  28.558  1.00  0.00    -0.203 F 
ATOM     78  F   UNL A   1      42.336  27.729  25.970  1.00  0.00    -0.200 F 
ATOM     79  C   UNL A   1      41.088  25.747  26.173  1.00  0.00     0.200 A 
ATOM     80  F   UNL A   1      39.779  23.804  26.420  1.00  0.00    -0.200 F 
ATOM     81  F   UNL A   1      41.555  25.301  25.000  1.00  0.00    -0.200 F 
ENDBRANCH  57  71
BRANCH  58  82
ATOM     82  C   UNL A   1      44.032  34.202  29.890  1.00  0.00     0.064 A 
ATOM     83  C   UNL A   1      44.052  34.408  28.499  1.00  0.00     0.173 A 
ATOM     84  C   UNL A   1      44.876  35.034  30.651  1.00  0.00     0.173 A 
ATOM     85  F   UNL A   1      43.243  33.697  27.701  1.00  0.00    -0.203 F 
ATOM     86  C   UNL A   1      44.853  35.398  27.911  1.00  0.00     0.198 A 
ATOM     87  C   UNL A   1      45.676  36.017  30.064  1.00  0.00     0.198 A 
ATOM     88  F   UNL A   1      44.869  34.972  31.991  1.00  0.00    -0.203 F 
ATOM     89  F   UNL A   1      44.802  35.603  26.587  1.00  0.00    -0.200 F 
ATOM     90  C   UNL A   1      45.656  36.207  28.696  1.00  0.00     0.200 A 
ATOM     91  F   UNL A   1      46.417  36.822  30.840  1.00  0.00    -0.200 F 
ATOM     92  F   UNL A   1      46.374  37.195  28.142  1.00  0.00    -0.200 F 
ENDBRANCH  58  82
BRANCH  70  93
ATOM     93  C   UNL A   1      41.195  30.483  34.099  1.00  0.00     0.064 A 
ATOM     94  C   UNL A   1      42.020  30.302  35.224  1.00  0.00     0.173 A 
ATOM     95  C   UNL A   1      40.229  31.494  34.170  1.00  0.00     0.173 A 
ATOM     96  F   UNL A   1      43.029  29.425  35.204  1.00  0.00    -0.203 F 
ATOM     97  C   UNL A   1      41.859  31.074  36.374  1.00  0.00     0.198 A 
ATOM     98  C   UNL A   1      40.094  32.287  35.305  1.00  0.00     0.198 A 
ATOM     99  F   UNL A   1      39.450  31.751  33.108  1.00  0.00    -0.203 F 
ATOM    100  F   UNL A   1      42.657  30.878  37.435  1.00  0.00    -0.200 F 
ATOM    101  C   UNL A   1      40.900  32.072  36.410  1.00  0.00     0.200 A 
ATOM    102  F   UNL A   1      39.198  33.284  35.315  1.00  0.00    -0.200 F 
ATOM    103  F   UNL A   1      40.772  32.844  37.498  1.00  0.00    -0.200 F 
ENDBRANCH  70  93
ENDBRANCH  44  45
ENDBRANCH  36  39
ENDBRANCH  34  35
ENDBRANCH  33  34
ENDBRANCH   1  33
TORSDOF 15
ENDMDL
