MODEL 1
REMARK VINA RESULT:     -13.4      0.000      0.000
REMARK SMILES O=C(CCCN1C(=O)C(=O)/C(=C(/[O-])c2ccc(Cl)cc2)[C@@H]1c1ccccc1[N+](=O)[O-])NCCCNC(=O)c1ccc(-c2c3nc(c(-c4c(F)c(F)c(F)c(F)c4F)c4ccc([nH]4)c(-c4c(F)c(F)c(F)c(F)c4F)c4nc(c(-c5c(F)c(F)c(F)c(F)c5F)c5ccc2[nH]5)C=C4)C=C3)cc1
REMARK SMILES IDX 1 1 2 2 31 3 3 5 4 6 5 7 6 8 7 9 21 10 8 11 9 12 11 13 10 14
REMARK SMILES IDX 12 15 13 16 22 17 23 18 27 19 24 20 26 21 25 22 28 23 29 24
REMARK SMILES IDX 30 25 14 26 15 27 20 28 16 29 19 30 17 31 18 32 32 33 33 34
REMARK SMILES IDX 34 35 35 36 36 37 37 39 38 40 39 41 100 42 40 43 99 44 41 45
REMARK SMILES IDX 42 46 43 47 93 48 44 49 98 50 92 51 94 52 45 53 97 54 91 55
REMARK SMILES IDX 90 56 46 58 78 59 58 60 77 61 59 62 62 63 76 64 95 65 60 66
REMARK SMILES IDX 61 67 75 69 96 70 63 71 47 72 48 73 56 74 49 75 50 76 54 77
REMARK SMILES IDX 57 78 51 79 52 80 55 81 53 82 79 83 80 84 88 85 81 86 82 87
REMARK SMILES IDX 86 88 89 89 83 90 84 91 87 92 85 93 64 94 65 95 73 96 66 97
REMARK SMILES IDX 67 98 71 99 74 100 68 101 69 102 72 103 70 104
REMARK H PARENT 31 4 35 38 94 57 62 68
REMARK Flexibility Score: inf
ROOT
ATOM      1  O   UNL A   1      30.746  29.215  22.508  1.00  0.00    -0.275 OA
ATOM      2  C   UNL A   1      30.248  28.706  23.513  1.00  0.00     0.220 C 
ATOM      3  N   UNL A   1      30.609  29.104  24.776  1.00  0.00    -0.356 N 
ATOM      4  H   UNL A   1      30.188  28.661  25.547  1.00  0.00     0.163 HD
ENDROOT
BRANCH   2   5
ATOM      5  C   UNL A   1      29.298  27.518  23.385  1.00  0.00     0.102 C 
BRANCH   5   6
ATOM      6  C   UNL A   1      29.609  26.061  23.790  1.00  0.00     0.031 C 
BRANCH   6   7
ATOM      7  C   UNL A   1      30.095  25.584  25.184  1.00  0.00     0.121 C 
BRANCH   7   8
ATOM      8  N   UNL A   1      31.488  25.143  25.317  1.00  0.00    -0.324 N 
ATOM      9  C   UNL A   1      31.819  24.312  26.387  1.00  0.00     0.295 C 
ATOM     10  C   UNL A   1      32.417  24.967  24.182  1.00  0.00     0.157 C 
ATOM     11  O   UNL A   1      31.121  23.986  27.323  1.00  0.00    -0.265 OA
ATOM     12  C   UNL A   1      33.183  23.701  26.090  1.00  0.00     0.248 C 
ATOM     13  C   UNL A   1      33.451  23.958  24.652  1.00  0.00     0.025 C 
ATOM     14  O   UNL A   1      33.817  23.037  26.874  1.00  0.00    -0.283 OA
ATOM     15  C   UNL A   1      34.467  23.413  23.955  1.00  0.00    -0.092 C 
ATOM     16  O   UNL A   1      34.593  23.519  22.586  1.00  0.00    -0.872 OA
BRANCH  10  17
ATOM     17  C   UNL A   1      33.108  26.240  23.673  1.00  0.00     0.057 A 
ATOM     18  C   UNL A   1      33.672  27.139  24.606  1.00  0.00     0.013 A 
ATOM     19  C   UNL A   1      33.153  26.675  22.340  1.00  0.00     0.275 A 
ATOM     20  C   UNL A   1      34.290  28.343  24.227  1.00  0.00     0.001 A 
ATOM     21  C   UNL A   1      33.795  27.860  21.938  1.00  0.00     0.086 A 
ATOM     22  C   UNL A   1      34.372  28.691  22.887  1.00  0.00     0.007 A 
BRANCH  19  23
ATOM     23  N   UNL A   1      32.510  25.941  21.282  1.00  0.00     0.063 N 
ATOM     24  O   UNL A   1      33.239  25.227  20.595  1.00  0.00    -0.258 OA
ATOM     25  O   UNL A   1      31.296  26.103  21.135  1.00  0.00    -0.258 OA
ENDBRANCH  19  23
ENDBRANCH  10  17
BRANCH  15  26
ATOM     26  C   UNL A   1      35.696  22.944  24.602  1.00  0.00    -0.033 A 
ATOM     27  C   UNL A   1      36.637  23.812  25.159  1.00  0.00     0.009 A 
ATOM     28  C   UNL A   1      35.946  21.561  24.589  1.00  0.00     0.009 A 
ATOM     29  C   UNL A   1      37.842  23.303  25.652  1.00  0.00     0.021 A 
ATOM     30  C   UNL A   1      37.146  21.054  25.086  1.00  0.00     0.021 A 
ATOM     31  C   UNL A   1      38.094  21.931  25.604  1.00  0.00     0.041 A 
ATOM     32  Cl  UNL A   1      39.596  21.315  26.177  1.00  0.00    -0.084 Cl
ENDBRANCH  15  26
ENDBRANCH   7   8
ENDBRANCH   6   7
ENDBRANCH   5   6
ENDBRANCH   2   5
BRANCH   3  33
ATOM     33  C   UNL A   1      31.587  30.151  25.023  1.00  0.00     0.117 C 
BRANCH  33  34
ATOM     34  C   UNL A   1      31.170  31.203  26.054  1.00  0.00     0.042 C 
BRANCH  34  35
ATOM     35  C   UNL A   1      32.245  31.728  27.005  1.00  0.00     0.118 C 
BRANCH  35  36
ATOM     36  N   UNL A   1      32.196  33.144  27.298  1.00  0.00    -0.352 N 
ATOM     37  C   UNL A   1      33.068  33.956  27.988  1.00  0.00     0.251 C 
ATOM     38  H   UNL A   1      31.403  33.606  26.943  1.00  0.00     0.163 HD
ATOM     39  O   UNL A   1      32.795  35.151  28.084  1.00  0.00    -0.269 OA
BRANCH  37  40
ATOM     40  C   UNL A   1      34.304  33.458  28.654  1.00  0.00     0.039 A 
ATOM     41  C   UNL A   1      34.162  32.432  29.595  1.00  0.00     0.014 A 
ATOM     42  C   UNL A   1      35.567  34.024  28.471  1.00  0.00     0.014 A 
ATOM     43  C   UNL A   1      35.273  31.940  30.294  1.00  0.00     0.010 A 
ATOM     44  C   UNL A   1      36.695  33.494  29.130  1.00  0.00     0.010 A 
ATOM     45  C   UNL A   1      36.564  32.435  30.044  1.00  0.00    -0.014 A 
BRANCH  45  46
ATOM     46  C   UNL A   1      37.752  31.803  30.703  1.00  0.00     0.031 A 
ATOM     47  C   UNL A   1      38.189  32.178  32.098  1.00  0.00     0.074 A 
ATOM     48  C   UNL A   1      38.464  30.871  30.033  1.00  0.00     0.049 A 
ATOM     49  N   UNL A   1      39.193  31.717  32.807  1.00  0.00    -0.248 NA
ATOM     50  C   UNL A   1      37.402  33.212  32.783  1.00  0.00     0.031 C 
ATOM     51  C   UNL A   1      38.181  30.415  28.673  1.00  0.00     0.029 A 
ATOM     52  N   UNL A   1      39.570  30.138  30.402  1.00  0.00    -0.354 N 
ATOM     53  C   UNL A   1      39.162  32.402  34.016  1.00  0.00     0.074 A 
ATOM     54  C   UNL A   1      38.064  33.344  33.925  1.00  0.00     0.031 C 
ATOM     55  C   UNL A   1      39.067  29.468  28.330  1.00  0.00     0.029 A 
ATOM     56  C   UNL A   1      40.014  29.278  29.425  1.00  0.00     0.049 A 
ATOM     57  H   UNL A   1      40.002  30.223  31.282  1.00  0.00     0.167 HD
ATOM     58  C   UNL A   1      39.958  32.251  35.105  1.00  0.00     0.037 A 
ATOM     59  C   UNL A   1      41.068  28.437  29.399  1.00  0.00     0.037 A 
ATOM     60  C   UNL A   1      41.049  31.311  35.207  1.00  0.00     0.049 A 
ATOM     61  C   UNL A   1      41.965  28.324  30.604  1.00  0.00     0.074 A 
ATOM     62  C   UNL A   1      41.874  31.061  36.292  1.00  0.00     0.029 A 
ATOM     63  N   UNL A   1      41.478  30.476  34.185  1.00  0.00    -0.354 N 
ATOM     64  N   UNL A   1      41.879  28.933  31.761  1.00  0.00    -0.248 NA
ATOM     65  C   UNL A   1      43.104  27.399  30.499  1.00  0.00     0.031 C 
ATOM     66  C   UNL A   1      42.843  30.129  35.906  1.00  0.00     0.029 A 
ATOM     67  C   UNL A   1      42.578  29.739  34.605  1.00  0.00     0.049 A 
ATOM     68  H   UNL A   1      41.065  30.416  33.294  1.00  0.00     0.167 HD
ATOM     69  C   UNL A   1      42.928  28.442  32.529  1.00  0.00     0.074 A 
ATOM     70  C   UNL A   1      43.627  27.473  31.714  1.00  0.00     0.031 C 
ATOM     71  C   UNL A   1      43.275  28.769  33.799  1.00  0.00     0.037 A 
BRANCH  58  72
ATOM     72  C   UNL A   1      39.692  33.135  36.296  1.00  0.00     0.064 A 
ATOM     73  C   UNL A   1      38.808  32.755  37.316  1.00  0.00     0.173 A 
ATOM     74  C   UNL A   1      40.383  34.349  36.451  1.00  0.00     0.173 A 
ATOM     75  F   UNL A   1      38.122  31.606  37.221  1.00  0.00    -0.203 F 
ATOM     76  C   UNL A   1      38.598  33.571  38.427  1.00  0.00     0.198 A 
ATOM     77  C   UNL A   1      40.196  35.145  37.578  1.00  0.00     0.198 A 
ATOM     78  F   UNL A   1      41.254  34.756  35.514  1.00  0.00    -0.203 F 
ATOM     79  F   UNL A   1      37.709  33.209  39.361  1.00  0.00    -0.200 F 
ATOM     80  C   UNL A   1      39.297  34.760  38.561  1.00  0.00     0.200 A 
ATOM     81  F   UNL A   1      40.888  36.284  37.715  1.00  0.00    -0.200 F 
ATOM     82  F   UNL A   1      39.099  35.538  39.633  1.00  0.00    -0.200 F 
ENDBRANCH  58  72
BRANCH  59  83
ATOM     83  C   UNL A   1      41.341  27.626  28.181  1.00  0.00     0.064 A 
ATOM     84  C   UNL A   1      40.835  26.324  28.047  1.00  0.00     0.173 A 
ATOM     85  C   UNL A   1      42.131  28.126  27.135  1.00  0.00     0.173 A 
ATOM     86  F   UNL A   1      40.095  25.789  29.030  1.00  0.00    -0.203 F 
ATOM     87  C   UNL A   1      41.130  25.548  26.928  1.00  0.00     0.198 A 
ATOM     88  C   UNL A   1      42.395  27.363  26.001  1.00  0.00     0.198 A 
ATOM     89  F   UNL A   1      42.637  29.366  27.210  1.00  0.00    -0.203 F 
ATOM     90  F   UNL A   1      40.681  24.287  26.853  1.00  0.00    -0.200 F 
ATOM     91  C   UNL A   1      41.904  26.069  25.903  1.00  0.00     0.200 A 
ATOM     92  F   UNL A   1      43.127  27.878  25.004  1.00  0.00    -0.200 F 
ATOM     93  F   UNL A   1      42.182  25.324  24.824  1.00  0.00    -0.200 F 
ENDBRANCH  59  83
BRANCH  71  94
ATOM     94  C   UNL A   1      44.442  28.043  34.412  1.00  0.00     0.064 A 
ATOM     95  C   UNL A   1      45.744  28.563  34.373  1.00  0.00     0.173 A 
ATOM     96  C   UNL A   1      44.248  26.822  35.077  1.00  0.00     0.173 A 
ATOM     97  F   UNL A   1      45.992  29.719  33.737  1.00  0.00    -0.203 F 
ATOM     98  C   UNL A   1      46.811  27.875  34.949  1.00  0.00     0.198 A 
ATOM     99  C   UNL A   1      45.310  26.154  35.683  1.00  0.00     0.198 A 
ATOM    100  F   UNL A   1      43.024  26.278  35.150  1.00  0.00    -0.203 F 
ATOM    101  F   UNL A   1      48.054  28.365  34.850  1.00  0.00    -0.200 F 
ATOM    102  C   UNL A   1      46.592  26.676  35.610  1.00  0.00     0.200 A 
ATOM    103  F   UNL A   1      45.091  25.004  36.335  1.00  0.00    -0.200 F 
ATOM    104  F   UNL A   1      47.617  26.020  36.171  1.00  0.00    -0.200 F 
ENDBRANCH  71  94
ENDBRANCH  45  46
ENDBRANCH  37  40
ENDBRANCH  35  36
ENDBRANCH  34  35
ENDBRANCH  33  34
ENDBRANCH   3  33
TORSDOF 16
ENDMDL
MODEL 2
REMARK VINA RESULT:     -13.3      4.491     10.156
REMARK SMILES O=C(CCCN1C(=O)C(=O)/C(=C(/[O-])c2ccc(Cl)cc2)[C@@H]1c1ccccc1[N+](=O)[O-])NCCCNC(=O)c1ccc(-c2c3nc(c(-c4c(F)c(F)c(F)c(F)c4F)c4ccc([nH]4)c(-c4c(F)c(F)c(F)c(F)c4F)c4nc(c(-c5c(F)c(F)c(F)c(F)c5F)c5ccc2[nH]5)C=C4)C=C3)cc1
REMARK SMILES IDX 1 1 2 2 31 3 3 5 4 6 5 7 6 8 7 9 21 10 8 11 9 12 11 13 10 14
REMARK SMILES IDX 12 15 13 16 22 17 23 18 27 19 24 20 26 21 25 22 28 23 29 24
REMARK SMILES IDX 30 25 14 26 15 27 20 28 16 29 19 30 17 31 18 32 32 33 33 34
REMARK SMILES IDX 34 35 35 36 36 37 37 39 38 40 39 41 100 42 40 43 99 44 41 45
REMARK SMILES IDX 42 46 43 47 93 48 44 49 98 50 92 51 94 52 45 53 97 54 91 55
REMARK SMILES IDX 90 56 46 58 78 59 58 60 77 61 59 62 62 63 76 64 95 65 60 66
REMARK SMILES IDX 61 67 75 69 96 70 63 71 47 72 48 73 56 74 49 75 50 76 54 77
REMARK SMILES IDX 57 78 51 79 52 80 55 81 53 82 79 83 80 84 88 85 81 86 82 87
REMARK SMILES IDX 86 88 89 89 83 90 84 91 87 92 85 93 64 94 65 95 73 96 66 97
REMARK SMILES IDX 67 98 71 99 74 100 68 101 69 102 72 103 70 104
REMARK H PARENT 31 4 35 38 94 57 62 68
REMARK Flexibility Score: inf
ROOT
ATOM      1  O   UNL A   1      33.165  19.611  25.230  1.00  0.00    -0.275 OA
ATOM      2  C   UNL A   1      33.561  20.492  24.465  1.00  0.00     0.220 C 
ATOM      3  N   UNL A   1      34.870  20.904  24.458  1.00  0.00    -0.356 N 
ATOM      4  H   UNL A   1      35.136  21.616  23.834  1.00  0.00     0.163 HD
ENDROOT
BRANCH   2   5
ATOM      5  C   UNL A   1      32.572  21.248  23.583  1.00  0.00     0.102 C 
BRANCH   5   6
ATOM      6  C   UNL A   1      32.927  22.352  22.564  1.00  0.00     0.031 C 
BRANCH   6   7
ATOM      7  C   UNL A   1      32.211  23.720  22.411  1.00  0.00     0.121 C 
BRANCH   7   8
ATOM      8  N   UNL A   1      32.597  24.808  23.315  1.00  0.00    -0.324 N 
ATOM      9  C   UNL A   1      32.995  26.022  22.757  1.00  0.00     0.295 C 
ATOM     10  C   UNL A   1      32.061  24.985  24.681  1.00  0.00     0.157 C 
ATOM     11  O   UNL A   1      33.188  26.279  21.588  1.00  0.00    -0.265 OA
ATOM     12  C   UNL A   1      32.967  27.069  23.864  1.00  0.00     0.248 C 
ATOM     13  C   UNL A   1      32.208  26.465  24.990  1.00  0.00     0.025 C 
ATOM     14  O   UNL A   1      33.381  28.197  23.746  1.00  0.00    -0.283 OA
ATOM     15  C   UNL A   1      31.798  27.138  26.083  1.00  0.00    -0.092 C 
ATOM     16  O   UNL A   1      30.944  26.607  27.026  1.00  0.00    -0.872 OA
BRANCH  10  17
ATOM     17  C   UNL A   1      32.723  24.142  25.780  1.00  0.00     0.057 A 
ATOM     18  C   UNL A   1      34.130  24.162  25.911  1.00  0.00     0.013 A 
ATOM     19  C   UNL A   1      32.068  23.243  26.634  1.00  0.00     0.275 A 
ATOM     20  C   UNL A   1      34.817  23.393  26.865  1.00  0.00     0.001 A 
ATOM     21  C   UNL A   1      32.735  22.490  27.617  1.00  0.00     0.086 A 
ATOM     22  C   UNL A   1      34.114  22.574  27.736  1.00  0.00     0.007 A 
BRANCH  19  23
ATOM     23  N   UNL A   1      30.651  23.006  26.541  1.00  0.00     0.063 N 
ATOM     24  O   UNL A   1      29.935  23.709  27.252  1.00  0.00    -0.258 OA
ATOM     25  O   UNL A   1      30.274  22.109  25.782  1.00  0.00    -0.258 OA
ENDBRANCH  19  23
ENDBRANCH  10  17
BRANCH  15  26
ATOM     26  C   UNL A   1      32.466  28.358  26.546  1.00  0.00    -0.033 A 
ATOM     27  C   UNL A   1      31.853  29.611  26.526  1.00  0.00     0.009 A 
ATOM     28  C   UNL A   1      33.805  28.244  26.959  1.00  0.00     0.009 A 
ATOM     29  C   UNL A   1      32.590  30.749  26.869  1.00  0.00     0.021 A 
ATOM     30  C   UNL A   1      34.537  29.378  27.306  1.00  0.00     0.021 A 
ATOM     31  C   UNL A   1      33.928  30.628  27.247  1.00  0.00     0.041 A 
ATOM     32  Cl  UNL A   1      34.841  32.036  27.630  1.00  0.00    -0.084 Cl
ENDBRANCH  15  26
ENDBRANCH   7   8
ENDBRANCH   6   7
ENDBRANCH   5   6
ENDBRANCH   2   5
BRANCH   3  33
ATOM     33  C   UNL A   1      35.882  20.332  25.333  1.00  0.00     0.117 C 
BRANCH  33  34
ATOM     34  C   UNL A   1      37.225  20.027  24.666  1.00  0.00     0.042 C 
BRANCH  34  35
ATOM     35  C   UNL A   1      38.456  20.775  25.176  1.00  0.00     0.118 C 
BRANCH  35  36
ATOM     36  N   UNL A   1      39.328  20.033  26.060  1.00  0.00    -0.352 N 
ATOM     37  C   UNL A   1      40.297  20.458  26.941  1.00  0.00     0.251 C 
ATOM     38  H   UNL A   1      39.208  19.057  26.026  1.00  0.00     0.163 HD
ATOM     39  O   UNL A   1      40.897  19.608  27.597  1.00  0.00    -0.269 OA
BRANCH  37  40
ATOM     40  C   UNL A   1      40.680  21.887  27.116  1.00  0.00     0.039 A 
ATOM     41  C   UNL A   1      41.703  22.175  28.026  1.00  0.00     0.014 A 
ATOM     42  C   UNL A   1      40.010  22.951  26.507  1.00  0.00     0.014 A 
ATOM     43  C   UNL A   1      42.091  23.499  28.275  1.00  0.00     0.010 A 
ATOM     44  C   UNL A   1      40.435  24.279  26.713  1.00  0.00     0.010 A 
ATOM     45  C   UNL A   1      41.491  24.571  27.594  1.00  0.00    -0.014 A 
BRANCH  45  46
ATOM     46  C   UNL A   1      42.011  25.964  27.776  1.00  0.00     0.031 A 
ATOM     47  C   UNL A   1      43.337  26.405  27.207  1.00  0.00     0.074 A 
ATOM     48  C   UNL A   1      41.279  26.859  28.473  1.00  0.00     0.049 A 
ATOM     49  N   UNL A   1      43.922  27.578  27.275  1.00  0.00    -0.248 NA
ATOM     50  C   UNL A   1      44.114  25.395  26.476  1.00  0.00     0.031 C 
ATOM     51  C   UNL A   1      39.987  26.581  29.100  1.00  0.00     0.029 A 
ATOM     52  N   UNL A   1      41.512  28.183  28.773  1.00  0.00    -0.354 N 
ATOM     53  C   UNL A   1      45.131  27.449  26.601  1.00  0.00     0.074 A 
ATOM     54  C   UNL A   1      45.215  26.068  26.171  1.00  0.00     0.031 C 
ATOM     55  C   UNL A   1      39.530  27.699  29.685  1.00  0.00     0.029 A 
ATOM     56  C   UNL A   1      40.514  28.765  29.519  1.00  0.00     0.049 A 
ATOM     57  H   UNL A   1      42.317  28.667  28.479  1.00  0.00     0.167 HD
ATOM     58  C   UNL A   1      46.074  28.393  26.348  1.00  0.00     0.037 A 
ATOM     59  C   UNL A   1      40.401  30.008  30.028  1.00  0.00     0.037 A 
ATOM     60  C   UNL A   1      45.995  29.772  26.767  1.00  0.00     0.049 A 
ATOM     61  C   UNL A   1      41.484  31.023  29.773  1.00  0.00     0.074 A 
ATOM     62  C   UNL A   1      46.884  30.804  26.509  1.00  0.00     0.029 A 
ATOM     63  N   UNL A   1      44.979  30.313  27.541  1.00  0.00    -0.354 N 
ATOM     64  N   UNL A   1      42.588  30.900  29.077  1.00  0.00    -0.248 NA
ATOM     65  C   UNL A   1      41.301  32.354  30.370  1.00  0.00     0.031 C 
ATOM     66  C   UNL A   1      46.443  31.947  27.184  1.00  0.00     0.029 A 
ATOM     67  C   UNL A   1      45.239  31.652  27.800  1.00  0.00     0.049 A 
ATOM     68  H   UNL A   1      44.189  29.819  27.861  1.00  0.00     0.167 HD
ATOM     69  C   UNL A   1      43.211  32.141  29.126  1.00  0.00     0.074 A 
ATOM     70  C   UNL A   1      42.355  33.009  29.906  1.00  0.00     0.031 C 
ATOM     71  C   UNL A   1      44.388  32.522  28.572  1.00  0.00     0.037 A 
BRANCH  58  72
ATOM     72  C   UNL A   1      47.299  27.971  25.580  1.00  0.00     0.064 A 
ATOM     73  C   UNL A   1      48.486  27.599  26.229  1.00  0.00     0.173 A 
ATOM     74  C   UNL A   1      47.265  27.875  24.179  1.00  0.00     0.173 A 
ATOM     75  F   UNL A   1      48.576  27.671  27.566  1.00  0.00    -0.203 F 
ATOM     76  C   UNL A   1      49.602  27.182  25.505  1.00  0.00     0.198 A 
ATOM     77  C   UNL A   1      48.370  27.425  23.461  1.00  0.00     0.198 A 
ATOM     78  F   UNL A   1      46.152  28.202  23.505  1.00  0.00    -0.203 F 
ATOM     79  F   UNL A   1      50.740  26.882  26.146  1.00  0.00    -0.200 F 
ATOM     80  C   UNL A   1      49.541  27.087  24.124  1.00  0.00     0.200 A 
ATOM     81  F   UNL A   1      48.302  27.315  22.127  1.00  0.00    -0.200 F 
ATOM     82  F   UNL A   1      50.612  26.678  23.430  1.00  0.00    -0.200 F 
ENDBRANCH  58  72
BRANCH  59  83
ATOM     83  C   UNL A   1      39.206  30.373  30.838  1.00  0.00     0.064 A 
ATOM     84  C   UNL A   1      38.099  31.008  30.256  1.00  0.00     0.173 A 
ATOM     85  C   UNL A   1      39.155  30.115  32.216  1.00  0.00     0.173 A 
ATOM     86  F   UNL A   1      38.108  31.300  28.946  1.00  0.00    -0.203 F 
ATOM     87  C   UNL A   1      37.001  31.392  31.023  1.00  0.00     0.198 A 
ATOM     88  C   UNL A   1      38.042  30.466  32.976  1.00  0.00     0.198 A 
ATOM     89  F   UNL A   1      40.185  29.508  32.824  1.00  0.00    -0.203 F 
ATOM     90  F   UNL A   1      35.982  32.048  30.450  1.00  0.00    -0.200 F 
ATOM     91  C   UNL A   1      36.970  31.115  32.381  1.00  0.00     0.200 A 
ATOM     92  F   UNL A   1      38.009  30.179  34.284  1.00  0.00    -0.200 F 
ATOM     93  F   UNL A   1      35.912  31.479  33.118  1.00  0.00    -0.200 F 
ENDBRANCH  59  83
BRANCH  71  94
ATOM     94  C   UNL A   1      44.809  33.956  28.746  1.00  0.00     0.064 A 
ATOM     95  C   UNL A   1      45.649  34.362  29.793  1.00  0.00     0.173 A 
ATOM     96  C   UNL A   1      44.390  34.935  27.830  1.00  0.00     0.173 A 
ATOM     97  F   UNL A   1      46.068  33.472  30.707  1.00  0.00    -0.203 F 
ATOM     98  C   UNL A   1      46.030  35.696  29.935  1.00  0.00     0.198 A 
ATOM     99  C   UNL A   1      44.802  36.260  27.954  1.00  0.00     0.198 A 
ATOM    100  F   UNL A   1      43.590  34.605  26.806  1.00  0.00    -0.203 F 
ATOM    101  F   UNL A   1      46.787  36.067  30.975  1.00  0.00    -0.200 F 
ATOM    102  C   UNL A   1      45.612  36.641  29.011  1.00  0.00     0.200 A 
ATOM    103  F   UNL A   1      44.409  37.169  27.050  1.00  0.00    -0.200 F 
ATOM    104  F   UNL A   1      45.986  37.921  29.144  1.00  0.00    -0.200 F 
ENDBRANCH  71  94
ENDBRANCH  45  46
ENDBRANCH  37  40
ENDBRANCH  35  36
ENDBRANCH  34  35
ENDBRANCH  33  34
ENDBRANCH   3  33
TORSDOF 16
ENDMDL
MODEL 3
REMARK VINA RESULT:     -13.3      4.746     10.244
REMARK SMILES O=C(CCCN1C(=O)C(=O)/C(=C(/[O-])c2ccc(Cl)cc2)[C@@H]1c1ccccc1[N+](=O)[O-])NCCCNC(=O)c1ccc(-c2c3nc(c(-c4c(F)c(F)c(F)c(F)c4F)c4ccc([nH]4)c(-c4c(F)c(F)c(F)c(F)c4F)c4nc(c(-c5c(F)c(F)c(F)c(F)c5F)c5ccc2[nH]5)C=C4)C=C3)cc1
REMARK SMILES IDX 1 1 2 2 31 3 3 5 4 6 5 7 6 8 7 9 21 10 8 11 9 12 11 13 10 14
REMARK SMILES IDX 12 15 13 16 22 17 23 18 27 19 24 20 26 21 25 22 28 23 29 24
REMARK SMILES IDX 30 25 14 26 15 27 20 28 16 29 19 30 17 31 18 32 32 33 33 34
REMARK SMILES IDX 34 35 35 36 36 37 37 39 38 40 39 41 100 42 40 43 99 44 41 45
REMARK SMILES IDX 42 46 43 47 93 48 44 49 98 50 92 51 94 52 45 53 97 54 91 55
REMARK SMILES IDX 90 56 46 58 78 59 58 60 77 61 59 62 62 63 76 64 95 65 60 66
REMARK SMILES IDX 61 67 75 69 96 70 63 71 47 72 48 73 56 74 49 75 50 76 54 77
REMARK SMILES IDX 57 78 51 79 52 80 55 81 53 82 79 83 80 84 88 85 81 86 82 87
REMARK SMILES IDX 86 88 89 89 83 90 84 91 87 92 85 93 64 94 65 95 73 96 66 97
REMARK SMILES IDX 67 98 71 99 74 100 68 101 69 102 72 103 70 104
REMARK H PARENT 31 4 35 38 94 57 62 68
REMARK Flexibility Score: inf
ROOT
ATOM      1  O   UNL A   1      33.145  19.867  25.664  1.00  0.00    -0.275 OA
ATOM      2  C   UNL A   1      33.555  20.247  24.566  1.00  0.00     0.220 C 
ATOM      3  N   UNL A   1      34.881  20.529  24.352  1.00  0.00    -0.356 N 
ATOM      4  H   UNL A   1      35.159  20.837  23.460  1.00  0.00     0.163 HD
ENDROOT
BRANCH   2   5
ATOM      5  C   UNL A   1      32.573  20.542  23.436  1.00  0.00     0.102 C 
BRANCH   5   6
ATOM      6  C   UNL A   1      31.935  21.913  23.124  1.00  0.00     0.031 C 
BRANCH   6   7
ATOM      7  C   UNL A   1      32.651  23.127  22.476  1.00  0.00     0.121 C 
BRANCH   7   8
ATOM      8  N   UNL A   1      32.929  24.296  23.318  1.00  0.00    -0.324 N 
ATOM      9  C   UNL A   1      33.345  25.473  22.698  1.00  0.00     0.295 C 
ATOM     10  C   UNL A   1      32.271  24.564  24.613  1.00  0.00     0.157 C 
ATOM     11  O   UNL A   1      33.633  25.642  21.533  1.00  0.00    -0.265 OA
ATOM     12  C   UNL A   1      33.194  26.604  23.709  1.00  0.00     0.248 C 
ATOM     13  C   UNL A   1      32.354  26.068  24.811  1.00  0.00     0.025 C 
ATOM     14  O   UNL A   1      33.589  27.731  23.535  1.00  0.00    -0.283 OA
ATOM     15  C   UNL A   1      31.834  26.812  25.806  1.00  0.00    -0.092 C 
ATOM     16  O   UNL A   1      30.913  26.331  26.713  1.00  0.00    -0.872 OA
BRANCH  10  17
ATOM     17  C   UNL A   1      32.854  23.833  25.831  1.00  0.00     0.057 A 
ATOM     18  C   UNL A   1      34.255  23.807  26.014  1.00  0.00     0.013 A 
ATOM     19  C   UNL A   1      32.128  23.073  26.760  1.00  0.00     0.275 A 
ATOM     20  C   UNL A   1      34.872  23.131  27.080  1.00  0.00     0.001 A 
ATOM     21  C   UNL A   1      32.725  22.416  27.851  1.00  0.00     0.086 A 
ATOM     22  C   UNL A   1      34.102  22.454  28.014  1.00  0.00     0.007 A 
BRANCH  19  23
ATOM     23  N   UNL A   1      30.706  22.887  26.639  1.00  0.00     0.063 N 
ATOM     24  O   UNL A   1      30.001  23.653  27.295  1.00  0.00    -0.258 OA
ATOM     25  O   UNL A   1      30.312  21.969  25.915  1.00  0.00    -0.258 OA
ENDBRANCH  19  23
ENDBRANCH  10  17
BRANCH  15  26
ATOM     26  C   UNL A   1      32.429  28.086  26.223  1.00  0.00    -0.033 A 
ATOM     27  C   UNL A   1      33.654  28.169  26.885  1.00  0.00     0.009 A 
ATOM     28  C   UNL A   1      31.681  29.253  25.994  1.00  0.00     0.009 A 
ATOM     29  C   UNL A   1      34.103  29.404  27.360  1.00  0.00     0.021 A 
ATOM     30  C   UNL A   1      32.132  30.486  26.463  1.00  0.00     0.021 A 
ATOM     31  C   UNL A   1      33.338  30.553  27.156  1.00  0.00     0.041 A 
ATOM     32  Cl  UNL A   1      33.877  32.064  27.777  1.00  0.00    -0.084 Cl
ENDBRANCH  15  26
ENDBRANCH   7   8
ENDBRANCH   6   7
ENDBRANCH   5   6
ENDBRANCH   2   5
BRANCH   3  33
ATOM     33  C   UNL A   1      35.894  20.392  25.387  1.00  0.00     0.117 C 
BRANCH  33  34
ATOM     34  C   UNL A   1      37.215  19.769  24.928  1.00  0.00     0.042 C 
BRANCH  34  35
ATOM     35  C   UNL A   1      38.506  20.326  25.526  1.00  0.00     0.118 C 
BRANCH  35  36
ATOM     36  N   UNL A   1      39.601  19.389  25.656  1.00  0.00    -0.352 N 
ATOM     37  C   UNL A   1      40.893  19.563  26.100  1.00  0.00     0.251 C 
ATOM     38  H   UNL A   1      39.386  18.470  25.378  1.00  0.00     0.163 HD
ATOM     39  O   UNL A   1      41.634  18.582  26.125  1.00  0.00    -0.269 OA
BRANCH  37  40
ATOM     40  C   UNL A   1      41.448  20.880  26.519  1.00  0.00     0.039 A 
ATOM     41  C   UNL A   1      41.725  21.814  25.514  1.00  0.00     0.014 A 
ATOM     42  C   UNL A   1      41.803  21.191  27.834  1.00  0.00     0.014 A 
ATOM     43  C   UNL A   1      42.288  23.059  25.827  1.00  0.00     0.010 A 
ATOM     44  C   UNL A   1      42.317  22.463  28.158  1.00  0.00     0.010 A 
ATOM     45  C   UNL A   1      42.557  23.420  27.157  1.00  0.00    -0.014 A 
BRANCH  45  46
ATOM     46  C   UNL A   1      43.033  24.804  27.480  1.00  0.00     0.031 A 
ATOM     47  C   UNL A   1      44.453  25.243  27.222  1.00  0.00     0.074 A 
ATOM     48  C   UNL A   1      42.172  25.691  28.024  1.00  0.00     0.049 A 
ATOM     49  N   UNL A   1      45.015  26.409  27.442  1.00  0.00    -0.248 NA
ATOM     50  C   UNL A   1      45.363  24.243  26.651  1.00  0.00     0.031 C 
ATOM     51  C   UNL A   1      40.774  25.412  28.350  1.00  0.00     0.029 A 
ATOM     52  N   UNL A   1      42.341  27.005  28.398  1.00  0.00    -0.354 N 
ATOM     53  C   UNL A   1      46.340  26.283  27.041  1.00  0.00     0.074 A 
ATOM     54  C   UNL A   1      46.508  24.911  26.607  1.00  0.00     0.031 C 
ATOM     55  C   UNL A   1      40.207  26.521  28.850  1.00  0.00     0.029 A 
ATOM     56  C   UNL A   1      41.209  27.581  28.926  1.00  0.00     0.049 A 
ATOM     57  H   UNL A   1      43.194  27.487  28.297  1.00  0.00     0.167 HD
ATOM     58  C   UNL A   1      47.320  27.222  27.020  1.00  0.00     0.037 A 
ATOM     59  C   UNL A   1      40.995  28.814  29.427  1.00  0.00     0.037 A 
ATOM     60  C   UNL A   1      47.160  28.593  27.445  1.00  0.00     0.049 A 
ATOM     61  C   UNL A   1      42.113  29.823  29.435  1.00  0.00     0.074 A 
ATOM     62  C   UNL A   1      48.089  29.621  27.410  1.00  0.00     0.029 A 
ATOM     63  N   UNL A   1      46.003  29.126  27.994  1.00  0.00    -0.354 N 
ATOM     64  N   UNL A   1      43.340  29.703  28.992  1.00  0.00    -0.248 NA
ATOM     65  C   UNL A   1      41.812  31.142  30.011  1.00  0.00     0.031 C 
ATOM     66  C   UNL A   1      47.518  30.753  28.000  1.00  0.00     0.029 A 
ATOM     67  C   UNL A   1      46.209  30.457  28.335  1.00  0.00     0.049 A 
ATOM     68  H   UNL A   1      45.161  28.634  28.124  1.00  0.00     0.167 HD
ATOM     69  C   UNL A   1      43.944  30.937  29.204  1.00  0.00     0.074 A 
ATOM     70  C   UNL A   1      42.945  31.796  29.800  1.00  0.00     0.031 C 
ATOM     71  C   UNL A   1      45.215  31.318  28.925  1.00  0.00     0.037 A 
BRANCH  58  72
ATOM     72  C   UNL A   1      48.680  26.805  26.525  1.00  0.00     0.064 A 
ATOM     73  C   UNL A   1      49.067  26.982  25.188  1.00  0.00     0.173 A 
ATOM     74  C   UNL A   1      49.634  26.284  27.415  1.00  0.00     0.173 A 
ATOM     75  F   UNL A   1      48.197  27.476  24.294  1.00  0.00    -0.203 F 
ATOM     76  C   UNL A   1      50.341  26.620  24.753  1.00  0.00     0.198 A 
ATOM     77  C   UNL A   1      50.917  25.955  26.985  1.00  0.00     0.198 A 
ATOM     78  F   UNL A   1      49.326  26.108  28.710  1.00  0.00    -0.203 F 
ATOM     79  F   UNL A   1      50.667  26.750  23.461  1.00  0.00    -0.200 F 
ATOM     80  C   UNL A   1      51.267  26.114  25.653  1.00  0.00     0.200 A 
ATOM     81  F   UNL A   1      51.817  25.485  27.860  1.00  0.00    -0.200 F 
ATOM     82  F   UNL A   1      52.493  25.774  25.234  1.00  0.00    -0.200 F 
ENDBRANCH  58  72
BRANCH  59  83
ATOM     83  C   UNL A   1      39.655  29.172  29.969  1.00  0.00     0.064 A 
ATOM     84  C   UNL A   1      39.307  28.884  31.297  1.00  0.00     0.173 A 
ATOM     85  C   UNL A   1      38.686  29.791  29.164  1.00  0.00     0.173 A 
ATOM     86  F   UNL A   1      40.189  28.270  32.101  1.00  0.00    -0.203 F 
ATOM     87  C   UNL A   1      38.037  29.177  31.790  1.00  0.00     0.198 A 
ATOM     88  C   UNL A   1      37.430  30.117  29.668  1.00  0.00     0.198 A 
ATOM     89  F   UNL A   1      38.967  30.092  27.888  1.00  0.00    -0.203 F 
ATOM     90  F   UNL A   1      37.714  28.838  33.046  1.00  0.00    -0.200 F 
ATOM     91  C   UNL A   1      37.102  29.799  30.978  1.00  0.00     0.200 A 
ATOM     92  F   UNL A   1      36.536  30.735  28.886  1.00  0.00    -0.200 F 
ATOM     93  F   UNL A   1      35.882  30.086  31.454  1.00  0.00    -0.200 F 
ENDBRANCH  59  83
BRANCH  71  94
ATOM     94  C   UNL A   1      45.596  32.744  29.220  1.00  0.00     0.064 A 
ATOM     95  C   UNL A   1      46.199  33.117  30.430  1.00  0.00     0.173 A 
ATOM     96  C   UNL A   1      45.383  33.748  28.261  1.00  0.00     0.173 A 
ATOM     97  F   UNL A   1      46.412  32.202  31.389  1.00  0.00    -0.203 F 
ATOM     98  C   UNL A   1      46.546  34.443  30.682  1.00  0.00     0.198 A 
ATOM     99  C   UNL A   1      45.765  35.066  28.502  1.00  0.00     0.198 A 
ATOM    100  F   UNL A   1      44.815  33.450  27.084  1.00  0.00    -0.203 F 
ATOM    101  F   UNL A   1      47.069  34.783  31.868  1.00  0.00    -0.200 F 
ATOM    102  C   UNL A   1      46.336  35.415  29.715  1.00  0.00     0.200 A 
ATOM    103  F   UNL A   1      45.575  35.999  27.559  1.00  0.00    -0.200 F 
ATOM    104  F   UNL A   1      46.679  36.687  29.956  1.00  0.00    -0.200 F 
ENDBRANCH  71  94
ENDBRANCH  45  46
ENDBRANCH  37  40
ENDBRANCH  35  36
ENDBRANCH  34  35
ENDBRANCH  33  34
ENDBRANCH   3  33
TORSDOF 16
ENDMDL
