MODEL 1
REMARK VINA RESULT:     -11.2      0.000      0.000
REMARK SMILES NS(=O)(=O)c1ccc(-n2nc(C(=O)NCCCCCCCCCCC(=O)NCCCNC(=O)c3ccc(-c4c5nc(c(-c6c(F)c(F)c(F)c(F)c6F)c6ccc([nH]6)c(-c6c(F)c(F)c(F)c(F)c6F)c6nc(c(-c7c(F)c(F)c(F)c(F)c7F)c7ccc4[nH]7)C=C6)C=C5)cc3)cc2-c2ccccc2)cc1
REMARK SMILES IDX 21 1 20 2 19 3 18 4 17 5 16 6 15 7 14 8 12 9 13 10 11 12
REMARK SMILES IDX 9 13 10 14 98 15 97 16 8 17 5 18 6 19 106 20 7 21 105 22
REMARK SMILES IDX 2 23 3 24 4 25 1 26 99 29 100 30 104 31 101 32 103 33 102 34
REMARK SMILES IDX 22 35 23 36 24 37 25 38 26 39 27 40 28 42 29 43 30 44 31 45
REMARK SMILES IDX 32 46 33 48 34 49 35 50 96 51 36 52 95 53 37 54 38 55 39 56
REMARK SMILES IDX 89 57 40 58 94 59 88 60 90 61 41 62 93 63 87 64 86 65 42 67
REMARK SMILES IDX 74 68 54 69 73 70 55 71 58 72 72 73 91 74 56 75 57 76 71 78
REMARK SMILES IDX 92 79 59 80 43 81 44 82 52 83 45 84 46 85 50 86 53 87 47 88
REMARK SMILES IDX 48 89 51 90 49 91 75 92 76 93 84 94 77 95 78 96 82 97 85 98
REMARK SMILES IDX 79 99 80 100 83 101 81 102 60 103 61 104 69 105 62 106
REMARK SMILES IDX 63 107 67 108 70 109 64 110 65 111 68 112 66 113
REMARK H PARENT 14 11 1 27 1 28 27 41 31 47 90 66 58 77
REMARK Flexibility Score: inf
ROOT
ATOM      1  C   UNL A   1      30.473  31.248  25.189  1.00  0.00     0.000 C 
ENDROOT
BRANCH   1   2
ATOM      2  C   UNL A   1      29.280  31.291  24.247  1.00  0.00     0.000 C 
BRANCH   2   3
ATOM      3  C   UNL A   1      29.424  30.342  23.057  1.00  0.00     0.000 C 
BRANCH   3   4
ATOM      4  C   UNL A   1      28.363  29.234  23.008  1.00  0.00     0.000 C 
BRANCH   4   5
ATOM      5  C   UNL A   1      28.924  27.818  23.192  1.00  0.00     0.002 C 
BRANCH   5   6
ATOM      6  C   UNL A   1      30.284  27.603  22.517  1.00  0.00     0.021 C 
BRANCH   6   7
ATOM      7  C   UNL A   1      31.075  26.473  23.176  1.00  0.00     0.116 C 
BRANCH   7   8
ATOM      8  N   UNL A   1      30.499  26.151  24.456  1.00  0.00    -0.351 N 
ATOM      9  C   UNL A   1      30.824  25.204  25.393  1.00  0.00     0.271 C 
ATOM     10  O   UNL A   1      30.094  25.159  26.386  1.00  0.00    -0.267 OA
ATOM     11  H   UNL A   1      29.730  26.714  24.703  1.00  0.00     0.163 HD
BRANCH   9  12
ATOM     12  C   UNL A   1      32.019  24.349  25.244  1.00  0.00     0.151 A 
ATOM     13  N   UNL A   1      33.100  22.494  25.215  1.00  0.00    -0.232 N 
ATOM     14  N   UNL A   1      31.869  23.023  25.068  1.00  0.00    -0.162 NA
ATOM     15  C   UNL A   1      34.077  23.462  25.342  1.00  0.00     0.075 A 
ATOM     16  C   UNL A   1      33.402  24.660  25.232  1.00  0.00     0.065 A 
BRANCH  13  17
ATOM     17  C   UNL A   1      33.269  21.092  25.186  1.00  0.00     0.065 A 
ATOM     18  C   UNL A   1      33.372  18.328  25.103  1.00  0.00     0.082 A 
ATOM     19  C   UNL A   1      33.717  19.064  23.965  1.00  0.00     0.024 A 
ATOM     20  C   UNL A   1      33.013  18.968  26.295  1.00  0.00     0.024 A 
ATOM     21  C   UNL A   1      33.648  20.453  24.000  1.00  0.00     0.030 A 
ATOM     22  C   UNL A   1      32.995  20.360  26.348  1.00  0.00     0.030 A 
BRANCH  18  23
ATOM     23  S   UNL A   1      33.307  16.567  25.019  1.00  0.00     0.238 S 
ATOM     24  O   UNL A   1      32.246  16.093  25.867  1.00  0.00    -0.207 OA
ATOM     25  O   UNL A   1      34.661  16.055  25.083  1.00  0.00    -0.207 OA
BRANCH  23  26
ATOM     26  N   UNL A   1      32.775  16.276  23.449  1.00  0.00    -0.225 NA
ATOM     27  H   UNL A   1      32.050  15.559  23.463  1.00  0.00     0.137 HD
ATOM     28  H   UNL A   1      33.557  15.958  22.878  1.00  0.00     0.137 HD
ENDBRANCH  23  26
ENDBRANCH  18  23
ENDBRANCH  13  17
BRANCH  15  29
ATOM     29  C   UNL A   1      35.515  23.242  25.419  1.00  0.00     0.000 A 
ATOM     30  C   UNL A   1      36.294  23.954  26.336  1.00  0.00     0.010 A 
ATOM     31  C   UNL A   1      36.125  22.300  24.582  1.00  0.00     0.010 A 
ATOM     32  C   UNL A   1      37.671  23.734  26.407  1.00  0.00     0.001 A 
ATOM     33  C   UNL A   1      37.502  22.086  24.650  1.00  0.00     0.001 A 
ATOM     34  C   UNL A   1      38.274  22.803  25.563  1.00  0.00     0.000 A 
ENDBRANCH  15  29
ENDBRANCH   9  12
ENDBRANCH   7   8
ENDBRANCH   6   7
ENDBRANCH   5   6
ENDBRANCH   4   5
ENDBRANCH   3   4
ENDBRANCH   2   3
ENDBRANCH   1   2
BRANCH   1  35
ATOM     35  C   UNL A   1      31.329  29.988  25.007  1.00  0.00     0.001 C 
BRANCH  35  36
ATOM     36  C   UNL A   1      31.407  29.119  26.252  1.00  0.00     0.010 C 
BRANCH  36  37
ATOM     37  C   UNL A   1      32.590  28.153  26.290  1.00  0.00     0.100 C 
BRANCH  37  38
ATOM     38  C   UNL A   1      33.817  28.666  25.563  1.00  0.00     0.219 C 
ATOM     39  O   UNL A   1      34.029  28.340  24.393  1.00  0.00    -0.275 OA
ATOM     40  N   UNL A   1      34.719  29.494  26.164  1.00  0.00    -0.356 N 
ATOM     41  H   UNL A   1      35.495  29.719  25.603  1.00  0.00     0.163 HD
BRANCH  40  42
ATOM     42  C   UNL A   1      34.742  30.107  27.489  1.00  0.00     0.117 C 
BRANCH  42  43
ATOM     43  C   UNL A   1      33.968  31.436  27.562  1.00  0.00     0.042 C 
BRANCH  43  44
ATOM     44  C   UNL A   1      34.775  32.600  28.089  1.00  0.00     0.118 C 
BRANCH  44  45
ATOM     45  N   UNL A   1      34.651  32.797  29.536  1.00  0.00    -0.352 N 
ATOM     46  C   UNL A   1      35.337  32.111  30.528  1.00  0.00     0.251 C 
ATOM     47  H   UNL A   1      34.016  33.487  29.834  1.00  0.00     0.163 HD
ATOM     48  O   UNL A   1      34.910  32.045  31.673  1.00  0.00    -0.269 OA
BRANCH  46  49
ATOM     49  C   UNL A   1      36.597  31.449  30.153  1.00  0.00     0.039 A 
ATOM     50  C   UNL A   1      37.765  32.153  29.857  1.00  0.00     0.014 A 
ATOM     51  C   UNL A   1      36.602  30.064  30.233  1.00  0.00     0.014 A 
ATOM     52  C   UNL A   1      38.956  31.436  29.740  1.00  0.00     0.010 A 
ATOM     53  C   UNL A   1      37.792  29.421  30.405  1.00  0.00     0.010 A 
ATOM     54  C   UNL A   1      38.963  30.065  30.047  1.00  0.00    -0.014 A 
BRANCH  54  55
ATOM     55  C   UNL A   1      40.189  29.278  30.060  1.00  0.00     0.031 A 
ATOM     56  C   UNL A   1      40.778  29.057  31.406  1.00  0.00     0.074 A 
ATOM     57  C   UNL A   1      40.649  28.621  28.971  1.00  0.00     0.049 A 
ATOM     58  N   UNL A   1      41.893  29.521  31.861  1.00  0.00    -0.248 NA
ATOM     59  C   UNL A   1      39.976  28.338  32.410  1.00  0.00     0.031 C 
ATOM     60  C   UNL A   1      40.025  28.452  27.651  1.00  0.00     0.029 A 
ATOM     61  N   UNL A   1      41.769  27.859  28.855  1.00  0.00    -0.354 N 
ATOM     62  C   UNL A   1      42.035  28.993  33.141  1.00  0.00     0.074 A 
ATOM     63  C   UNL A   1      40.756  28.429  33.489  1.00  0.00     0.031 C 
ATOM     64  C   UNL A   1      40.637  27.455  26.975  1.00  0.00     0.029 A 
ATOM     65  C   UNL A   1      41.813  27.057  27.720  1.00  0.00     0.049 A 
ATOM     66  H   UNL A   1      42.492  27.875  29.522  1.00  0.00     0.167 HD
ATOM     67  C   UNL A   1      43.268  28.844  33.700  1.00  0.00     0.037 A 
ATOM     68  C   UNL A   1      42.748  26.119  27.433  1.00  0.00     0.037 A 
ATOM     69  C   UNL A   1      44.246  29.669  33.029  1.00  0.00     0.049 A 
ATOM     70  C   UNL A   1      43.935  26.424  28.272  1.00  0.00     0.074 A 
ATOM     71  C   UNL A   1      44.346  31.025  32.769  1.00  0.00     0.029 A 
ATOM     72  N   UNL A   1      45.119  29.072  32.151  1.00  0.00    -0.354 N 
ATOM     73  N   UNL A   1      44.684  27.480  28.112  1.00  0.00    -0.248 NA
ATOM     74  C   UNL A   1      43.999  25.802  29.586  1.00  0.00     0.031 C 
ATOM     75  C   UNL A   1      44.834  31.105  31.429  1.00  0.00     0.029 A 
ATOM     76  C   UNL A   1      45.082  29.806  30.990  1.00  0.00     0.049 A 
ATOM     77  H   UNL A   1      45.666  28.272  32.322  1.00  0.00     0.167 HD
ATOM     78  C   UNL A   1      44.969  27.906  29.401  1.00  0.00     0.074 A 
ATOM     79  C   UNL A   1      44.583  26.792  30.266  1.00  0.00     0.031 C 
ATOM     80  C   UNL A   1      45.211  29.222  29.676  1.00  0.00     0.037 A 
BRANCH  67  81
ATOM     81  C   UNL A   1      43.657  27.689  34.593  1.00  0.00     0.064 A 
ATOM     82  C   UNL A   1      43.593  26.376  34.086  1.00  0.00     0.173 A 
ATOM     83  C   UNL A   1      43.801  27.789  35.995  1.00  0.00     0.173 A 
ATOM     84  F   UNL A   1      43.434  26.159  32.772  1.00  0.00    -0.203 F 
ATOM     85  C   UNL A   1      43.594  25.258  34.926  1.00  0.00     0.198 A 
ATOM     86  C   UNL A   1      43.859  26.670  36.823  1.00  0.00     0.198 A 
ATOM     87  F   UNL A   1      43.778  28.962  36.636  1.00  0.00    -0.203 F 
ATOM     88  F   UNL A   1      43.398  24.039  34.407  1.00  0.00    -0.200 F 
ATOM     89  C   UNL A   1      43.721  25.407  36.294  1.00  0.00     0.200 A 
ATOM     90  F   UNL A   1      43.963  26.839  38.150  1.00  0.00    -0.200 F 
ATOM     91  F   UNL A   1      43.660  24.342  37.105  1.00  0.00    -0.200 F 
ENDBRANCH  67  81
BRANCH  68  92
ATOM     92  C   UNL A   1      42.575  24.817  26.749  1.00  0.00     0.064 A 
ATOM     93  C   UNL A   1      43.201  24.572  25.516  1.00  0.00     0.173 A 
ATOM     94  C   UNL A   1      42.056  23.693  27.421  1.00  0.00     0.173 A 
ATOM     95  F   UNL A   1      43.749  25.584  24.826  1.00  0.00    -0.203 F 
ATOM     96  C   UNL A   1      43.345  23.277  25.010  1.00  0.00     0.198 A 
ATOM     97  C   UNL A   1      42.195  22.401  26.912  1.00  0.00     0.198 A 
ATOM     98  F   UNL A   1      41.496  23.814  28.633  1.00  0.00    -0.203 F 
ATOM     99  F   UNL A   1      44.019  23.077  23.868  1.00  0.00    -0.200 F 
ATOM    100  C   UNL A   1      42.857  22.191  25.717  1.00  0.00     0.200 A 
ATOM    101  F   UNL A   1      41.748  21.355  27.620  1.00  0.00    -0.200 F 
ATOM    102  F   UNL A   1      43.062  20.944  25.269  1.00  0.00    -0.200 F 
ENDBRANCH  68  92
BRANCH  80 103
ATOM    103  C   UNL A   1      45.399  30.166  28.517  1.00  0.00     0.064 A 
ATOM    104  C   UNL A   1      44.347  30.796  27.827  1.00  0.00     0.173 A 
ATOM    105  C   UNL A   1      46.704  30.548  28.176  1.00  0.00     0.173 A 
ATOM    106  F   UNL A   1      43.070  30.574  28.159  1.00  0.00    -0.203 F 
ATOM    107  C   UNL A   1      44.594  31.720  26.811  1.00  0.00     0.198 A 
ATOM    108  C   UNL A   1      46.948  31.498  27.188  1.00  0.00     0.198 A 
ATOM    109  F   UNL A   1      47.749  30.026  28.836  1.00  0.00    -0.203 F 
ATOM    110  F   UNL A   1      43.571  32.289  26.156  1.00  0.00    -0.200 F 
ATOM    111  C   UNL A   1      45.895  32.073  26.496  1.00  0.00     0.200 A 
ATOM    112  F   UNL A   1      48.207  31.874  26.923  1.00  0.00    -0.200 F 
ATOM    113  F   UNL A   1      46.134  32.986  25.544  1.00  0.00    -0.200 F 
ENDBRANCH  80 103
ENDBRANCH  54  55
ENDBRANCH  46  49
ENDBRANCH  44  45
ENDBRANCH  43  44
ENDBRANCH  42  43
ENDBRANCH  40  42
ENDBRANCH  37  38
ENDBRANCH  36  37
ENDBRANCH  35  36
ENDBRANCH   1  35
TORSDOF 25
ENDMDL
MODEL 2
REMARK VINA RESULT:     -11.1      2.816      6.094
REMARK SMILES NS(=O)(=O)c1ccc(-n2nc(C(=O)NCCCCCCCCCCC(=O)NCCCNC(=O)c3ccc(-c4c5nc(c(-c6c(F)c(F)c(F)c(F)c6F)c6ccc([nH]6)c(-c6c(F)c(F)c(F)c(F)c6F)c6nc(c(-c7c(F)c(F)c(F)c(F)c7F)c7ccc4[nH]7)C=C6)C=C5)cc3)cc2-c2ccccc2)cc1
REMARK SMILES IDX 21 1 20 2 19 3 18 4 17 5 16 6 15 7 14 8 12 9 13 10 11 12
REMARK SMILES IDX 9 13 10 14 98 15 97 16 8 17 5 18 6 19 106 20 7 21 105 22
REMARK SMILES IDX 2 23 3 24 4 25 1 26 99 29 100 30 104 31 101 32 103 33 102 34
REMARK SMILES IDX 22 35 23 36 24 37 25 38 26 39 27 40 28 42 29 43 30 44 31 45
REMARK SMILES IDX 32 46 33 48 34 49 35 50 96 51 36 52 95 53 37 54 38 55 39 56
REMARK SMILES IDX 89 57 40 58 94 59 88 60 90 61 41 62 93 63 87 64 86 65 42 67
REMARK SMILES IDX 74 68 54 69 73 70 55 71 58 72 72 73 91 74 56 75 57 76 71 78
REMARK SMILES IDX 92 79 59 80 43 81 44 82 52 83 45 84 46 85 50 86 53 87 47 88
REMARK SMILES IDX 48 89 51 90 49 91 75 92 76 93 84 94 77 95 78 96 82 97 85 98
REMARK SMILES IDX 79 99 80 100 83 101 81 102 60 103 61 104 69 105 62 106
REMARK SMILES IDX 63 107 67 108 70 109 64 110 65 111 68 112 66 113
REMARK H PARENT 14 11 1 27 1 28 27 41 31 47 90 66 58 77
REMARK Flexibility Score: inf
ROOT
ATOM      1  C   UNL A   1      39.806  24.128  27.154  1.00  0.00     0.000 C 
ENDROOT
BRANCH   1   2
ATOM      2  C   UNL A   1      39.717  22.642  26.845  1.00  0.00     0.000 C 
BRANCH   2   3
ATOM      3  C   UNL A   1      38.484  22.277  26.017  1.00  0.00     0.000 C 
BRANCH   3   4
ATOM      4  C   UNL A   1      37.406  23.370  25.984  1.00  0.00     0.000 C 
BRANCH   4   5
ATOM      5  C   UNL A   1      36.690  23.507  24.634  1.00  0.00     0.002 C 
BRANCH   5   6
ATOM      6  C   UNL A   1      35.821  22.296  24.273  1.00  0.00     0.021 C 
BRANCH   6   7
ATOM      7  C   UNL A   1      34.567  22.704  23.501  1.00  0.00     0.116 C 
BRANCH   7   8
ATOM      8  N   UNL A   1      33.418  22.015  24.031  1.00  0.00    -0.351 N 
ATOM      9  C   UNL A   1      32.331  22.461  24.739  1.00  0.00     0.271 C 
ATOM     10  O   UNL A   1      31.526  21.593  25.087  1.00  0.00    -0.267 OA
ATOM     11  H   UNL A   1      33.413  21.048  23.851  1.00  0.00     0.163 HD
BRANCH   9  12
ATOM     12  C   UNL A   1      32.115  23.898  24.999  1.00  0.00     0.151 A 
ATOM     13  N   UNL A   1      31.422  25.880  24.548  1.00  0.00    -0.232 N 
ATOM     14  N   UNL A   1      31.220  24.579  24.260  1.00  0.00    -0.162 NA
ATOM     15  C   UNL A   1      32.336  26.056  25.569  1.00  0.00     0.075 A 
ATOM     16  C   UNL A   1      32.689  24.778  25.950  1.00  0.00     0.065 A 
BRANCH  13  17
ATOM     17  C   UNL A   1      30.698  26.873  23.853  1.00  0.00     0.065 A 
ATOM     18  C   UNL A   1      29.246  28.923  22.692  1.00  0.00     0.082 A 
ATOM     19  C   UNL A   1      30.642  28.937  22.610  1.00  0.00     0.024 A 
ATOM     20  C   UNL A   1      28.570  27.869  23.317  1.00  0.00     0.024 A 
ATOM     21  C   UNL A   1      31.373  27.916  23.210  1.00  0.00     0.030 A 
ATOM     22  C   UNL A   1      29.298  26.819  23.871  1.00  0.00     0.030 A 
BRANCH  18  23
ATOM     23  S   UNL A   1      28.320  30.291  22.071  1.00  0.00     0.238 S 
ATOM     24  O   UNL A   1      27.328  30.668  23.041  1.00  0.00    -0.207 OA
ATOM     25  O   UNL A   1      28.011  30.040  20.677  1.00  0.00    -0.207 OA
BRANCH  23  26
ATOM     26  N   UNL A   1      29.440  31.548  22.079  1.00  0.00    -0.225 NA
ATOM     27  H   UNL A   1      29.022  32.373  22.508  1.00  0.00     0.137 HD
ATOM     28  H   UNL A   1      29.714  31.765  21.121  1.00  0.00     0.137 HD
ENDBRANCH  23  26
ENDBRANCH  18  23
ENDBRANCH  13  17
BRANCH  15  29
ATOM     29  C   UNL A   1      32.711  27.318  26.192  1.00  0.00     0.000 A 
ATOM     30  C   UNL A   1      31.764  28.072  26.893  1.00  0.00     0.010 A 
ATOM     31  C   UNL A   1      34.031  27.776  26.108  1.00  0.00     0.010 A 
ATOM     32  C   UNL A   1      32.131  29.278  27.492  1.00  0.00     0.001 A 
ATOM     33  C   UNL A   1      34.395  28.985  26.703  1.00  0.00     0.001 A 
ATOM     34  C   UNL A   1      33.445  29.734  27.395  1.00  0.00     0.000 A 
ENDBRANCH  15  29
ENDBRANCH   9  12
ENDBRANCH   7   8
ENDBRANCH   6   7
ENDBRANCH   5   6
ENDBRANCH   4   5
ENDBRANCH   3   4
ENDBRANCH   2   3
ENDBRANCH   1   2
BRANCH   1  35
ATOM     35  C   UNL A   1      40.999  24.807  26.471  1.00  0.00     0.001 C 
BRANCH  35  36
ATOM     36  C   UNL A   1      40.779  26.284  26.185  1.00  0.00     0.010 C 
BRANCH  36  37
ATOM     37  C   UNL A   1      39.806  26.985  27.132  1.00  0.00     0.100 C 
BRANCH  37  38
ATOM     38  C   UNL A   1      39.892  28.498  27.081  1.00  0.00     0.219 C 
ATOM     39  O   UNL A   1      40.669  29.051  26.299  1.00  0.00    -0.275 OA
ATOM     40  N   UNL A   1      39.127  29.293  27.882  1.00  0.00    -0.356 N 
ATOM     41  H   UNL A   1      39.308  30.255  27.787  1.00  0.00     0.163 HD
BRANCH  40  42
ATOM     42  C   UNL A   1      38.087  28.975  28.857  1.00  0.00     0.117 C 
BRANCH  42  43
ATOM     43  C   UNL A   1      37.261  30.200  29.292  1.00  0.00     0.042 C 
BRANCH  43  44
ATOM     44  C   UNL A   1      36.344  29.949  30.466  1.00  0.00     0.118 C 
BRANCH  44  45
ATOM     45  N   UNL A   1      36.280  31.064  31.415  1.00  0.00    -0.352 N 
ATOM     46  C   UNL A   1      36.905  31.138  32.651  1.00  0.00     0.251 C 
ATOM     47  H   UNL A   1      35.737  31.840  31.147  1.00  0.00     0.163 HD
ATOM     48  O   UNL A   1      36.502  31.889  33.529  1.00  0.00    -0.269 OA
BRANCH  46  49
ATOM     49  C   UNL A   1      38.070  30.267  32.879  1.00  0.00     0.039 A 
ATOM     50  C   UNL A   1      38.019  28.880  32.739  1.00  0.00     0.014 A 
ATOM     51  C   UNL A   1      39.273  30.913  33.121  1.00  0.00     0.014 A 
ATOM     52  C   UNL A   1      39.219  28.170  32.751  1.00  0.00     0.010 A 
ATOM     53  C   UNL A   1      40.436  30.260  32.843  1.00  0.00     0.010 A 
ATOM     54  C   UNL A   1      40.433  28.878  32.773  1.00  0.00    -0.014 A 
BRANCH  54  55
ATOM     55  C   UNL A   1      41.724  28.211  32.670  1.00  0.00     0.031 A 
ATOM     56  C   UNL A   1      42.308  27.771  33.964  1.00  0.00     0.074 A 
ATOM     57  C   UNL A   1      42.261  27.831  31.488  1.00  0.00     0.049 A 
ATOM     58  N   UNL A   1      43.368  28.226  34.543  1.00  0.00    -0.248 NA
ATOM     59  C   UNL A   1      41.557  26.797  34.773  1.00  0.00     0.031 C 
ATOM     60  C   UNL A   1      41.677  27.883  30.140  1.00  0.00     0.029 A 
ATOM     61  N   UNL A   1      43.447  27.208  31.260  1.00  0.00    -0.354 N 
ATOM     62  C   UNL A   1      43.536  27.462  35.694  1.00  0.00     0.074 A 
ATOM     63  C   UNL A   1      42.307  26.732  35.875  1.00  0.00     0.031 C 
ATOM     64  C   UNL A   1      42.388  27.101  29.299  1.00  0.00     0.029 A 
ATOM     65  C   UNL A   1      43.582  26.661  29.989  1.00  0.00     0.049 A 
ATOM     66  H   UNL A   1      44.154  27.149  31.942  1.00  0.00     0.167 HD
ATOM     67  C   UNL A   1      44.767  27.308  36.254  1.00  0.00     0.037 A 
ATOM     68  C   UNL A   1      44.603  25.884  29.553  1.00  0.00     0.037 A 
ATOM     69  C   UNL A   1      45.677  28.332  35.798  1.00  0.00     0.049 A 
ATOM     70  C   UNL A   1      45.743  26.111  30.477  1.00  0.00     0.074 A 
ATOM     71  C   UNL A   1      45.659  29.716  35.820  1.00  0.00     0.029 A 
ATOM     72  N   UNL A   1      46.616  28.003  34.849  1.00  0.00    -0.354 N 
ATOM     73  N   UNL A   1      46.396  27.237  30.559  1.00  0.00    -0.248 NA
ATOM     74  C   UNL A   1      45.840  25.241  31.640  1.00  0.00     0.031 C 
ATOM     75  C   UNL A   1      46.161  30.109  34.542  1.00  0.00     0.029 A 
ATOM     76  C   UNL A   1      46.533  28.952  33.859  1.00  0.00     0.049 A 
ATOM     77  H   UNL A   1      47.230  27.234  34.874  1.00  0.00     0.167 HD
ATOM     78  C   UNL A   1      46.620  27.414  31.917  1.00  0.00     0.074 A 
ATOM     79  C   UNL A   1      46.321  26.118  32.525  1.00  0.00     0.031 C 
ATOM     80  C   UNL A   1      46.737  28.662  32.460  1.00  0.00     0.037 A 
BRANCH  67  81
ATOM     81  C   UNL A   1      45.243  26.032  36.909  1.00  0.00     0.064 A 
ATOM     82  C   UNL A   1      45.128  24.815  36.209  1.00  0.00     0.173 A 
ATOM     83  C   UNL A   1      45.528  25.912  38.288  1.00  0.00     0.173 A 
ATOM     84  F   UNL A   1      44.837  24.806  34.899  1.00  0.00    -0.203 F 
ATOM     85  C   UNL A   1      45.213  23.578  36.855  1.00  0.00     0.198 A 
ATOM     86  C   UNL A   1      45.668  24.676  38.918  1.00  0.00     0.198 A 
ATOM     87  F   UNL A   1      45.569  26.968  39.107  1.00  0.00    -0.203 F 
ATOM     88  F   UNL A   1      44.965  22.454  36.171  1.00  0.00    -0.200 F 
ATOM     89  C   UNL A   1      45.476  23.511  38.210  1.00  0.00     0.200 A 
ATOM     90  F   UNL A   1      45.905  24.635  40.237  1.00  0.00    -0.200 F 
ATOM     91  F   UNL A   1      45.497  22.331  38.844  1.00  0.00    -0.200 F 
ENDBRANCH  67  81
BRANCH  68  92
ATOM     92  C   UNL A   1      44.560  24.738  28.614  1.00  0.00     0.064 A 
ATOM     93  C   UNL A   1      43.821  23.586  28.930  1.00  0.00     0.173 A 
ATOM     94  C   UNL A   1      44.981  24.865  27.276  1.00  0.00     0.173 A 
ATOM     95  F   UNL A   1      43.356  23.405  30.175  1.00  0.00    -0.203 F 
ATOM     96  C   UNL A   1      43.479  22.644  27.956  1.00  0.00     0.198 A 
ATOM     97  C   UNL A   1      44.644  23.919  26.306  1.00  0.00     0.198 A 
ATOM     98  F   UNL A   1      45.639  25.957  26.861  1.00  0.00    -0.203 F 
ATOM     99  F   UNL A   1      42.704  21.599  28.281  1.00  0.00    -0.200 F 
ATOM    100  C   UNL A   1      43.876  22.820  26.641  1.00  0.00     0.200 A 
ATOM    101  F   UNL A   1      45.006  24.117  25.030  1.00  0.00    -0.200 F 
ATOM    102  F   UNL A   1      43.484  21.957  25.694  1.00  0.00    -0.200 F 
ENDBRANCH  68  92
BRANCH  80 103
ATOM    103  C   UNL A   1      46.859  29.835  31.522  1.00  0.00     0.064 A 
ATOM    104  C   UNL A   1      48.062  30.252  30.924  1.00  0.00     0.173 A 
ATOM    105  C   UNL A   1      45.686  30.482  31.113  1.00  0.00     0.173 A 
ATOM    106  F   UNL A   1      49.215  29.620  31.173  1.00  0.00    -0.203 F 
ATOM    107  C   UNL A   1      48.092  31.301  30.004  1.00  0.00     0.198 A 
ATOM    108  C   UNL A   1      45.711  31.504  30.166  1.00  0.00     0.198 A 
ATOM    109  F   UNL A   1      44.499  30.093  31.604  1.00  0.00    -0.203 F 
ATOM    110  F   UNL A   1      49.257  31.691  29.465  1.00  0.00    -0.200 F 
ATOM    111  C   UNL A   1      46.915  31.923  29.623  1.00  0.00     0.200 A 
ATOM    112  F   UNL A   1      44.564  32.067  29.764  1.00  0.00    -0.200 F 
ATOM    113  F   UNL A   1      46.937  32.907  28.714  1.00  0.00    -0.200 F 
ENDBRANCH  80 103
ENDBRANCH  54  55
ENDBRANCH  46  49
ENDBRANCH  44  45
ENDBRANCH  43  44
ENDBRANCH  42  43
ENDBRANCH  40  42
ENDBRANCH  37  38
ENDBRANCH  36  37
ENDBRANCH  35  36
ENDBRANCH   1  35
TORSDOF 25
ENDMDL
MODEL 3
REMARK VINA RESULT:     -10.9      1.929      3.005
REMARK SMILES NS(=O)(=O)c1ccc(-n2nc(C(=O)NCCCCCCCCCCC(=O)NCCCNC(=O)c3ccc(-c4c5nc(c(-c6c(F)c(F)c(F)c(F)c6F)c6ccc([nH]6)c(-c6c(F)c(F)c(F)c(F)c6F)c6nc(c(-c7c(F)c(F)c(F)c(F)c7F)c7ccc4[nH]7)C=C6)C=C5)cc3)cc2-c2ccccc2)cc1
REMARK SMILES IDX 21 1 20 2 19 3 18 4 17 5 16 6 15 7 14 8 12 9 13 10 11 12
REMARK SMILES IDX 9 13 10 14 98 15 97 16 8 17 5 18 6 19 106 20 7 21 105 22
REMARK SMILES IDX 2 23 3 24 4 25 1 26 99 29 100 30 104 31 101 32 103 33 102 34
REMARK SMILES IDX 22 35 23 36 24 37 25 38 26 39 27 40 28 42 29 43 30 44 31 45
REMARK SMILES IDX 32 46 33 48 34 49 35 50 96 51 36 52 95 53 37 54 38 55 39 56
REMARK SMILES IDX 89 57 40 58 94 59 88 60 90 61 41 62 93 63 87 64 86 65 42 67
REMARK SMILES IDX 74 68 54 69 73 70 55 71 58 72 72 73 91 74 56 75 57 76 71 78
REMARK SMILES IDX 92 79 59 80 43 81 44 82 52 83 45 84 46 85 50 86 53 87 47 88
REMARK SMILES IDX 48 89 51 90 49 91 75 92 76 93 84 94 77 95 78 96 82 97 85 98
REMARK SMILES IDX 79 99 80 100 83 101 81 102 60 103 61 104 69 105 62 106
REMARK SMILES IDX 63 107 67 108 70 109 64 110 65 111 68 112 66 113
REMARK H PARENT 14 11 1 27 1 28 27 41 31 47 90 66 58 77
REMARK Flexibility Score: inf
ROOT
ATOM      1  C   UNL A   1      30.772  31.162  25.364  1.00  0.00     0.000 C 
ENDROOT
BRANCH   1   2
ATOM      2  C   UNL A   1      29.516  31.353  24.530  1.00  0.00     0.000 C 
BRANCH   2   3
ATOM      3  C   UNL A   1      29.586  30.649  23.174  1.00  0.00     0.000 C 
BRANCH   3   4
ATOM      4  C   UNL A   1      28.508  29.576  22.969  1.00  0.00     0.000 C 
BRANCH   4   5
ATOM      5  C   UNL A   1      29.019  28.136  23.107  1.00  0.00     0.002 C 
BRANCH   5   6
ATOM      6  C   UNL A   1      30.502  27.974  22.751  1.00  0.00     0.021 C 
BRANCH   6   7
ATOM      7  C   UNL A   1      30.929  26.507  22.746  1.00  0.00     0.116 C 
BRANCH   7   8
ATOM      8  N   UNL A   1      31.741  26.236  21.587  1.00  0.00    -0.351 N 
ATOM      9  C   UNL A   1      32.731  25.313  21.359  1.00  0.00     0.271 C 
ATOM     10  O   UNL A   1      33.270  25.367  20.251  1.00  0.00    -0.267 OA
ATOM     11  H   UNL A   1      31.552  26.820  20.819  1.00  0.00     0.163 HD
BRANCH   9  12
ATOM     12  C   UNL A   1      33.068  24.279  22.359  1.00  0.00     0.151 A 
ATOM     13  N   UNL A   1      34.361  23.204  23.694  1.00  0.00    -0.232 N 
ATOM     14  N   UNL A   1      34.207  24.387  23.066  1.00  0.00    -0.162 NA
ATOM     15  C   UNL A   1      33.270  22.374  23.524  1.00  0.00     0.075 A 
ATOM     16  C   UNL A   1      32.379  23.112  22.772  1.00  0.00     0.065 A 
BRANCH  13  17
ATOM     17  C   UNL A   1      35.528  22.956  24.449  1.00  0.00     0.065 A 
ATOM     18  C   UNL A   1      37.936  22.544  25.748  1.00  0.00     0.082 A 
ATOM     19  C   UNL A   1      37.184  23.686  26.040  1.00  0.00     0.024 A 
ATOM     20  C   UNL A   1      37.472  21.586  24.839  1.00  0.00     0.024 A 
ATOM     21  C   UNL A   1      35.982  23.903  25.374  1.00  0.00     0.030 A 
ATOM     22  C   UNL A   1      36.243  21.776  24.211  1.00  0.00     0.030 A 
BRANCH  18  23
ATOM     23  S   UNL A   1      39.532  22.340  26.472  1.00  0.00     0.238 S 
ATOM     24  O   UNL A   1      39.941  20.968  26.333  1.00  0.00    -0.207 OA
ATOM     25  O   UNL A   1      39.556  23.049  27.736  1.00  0.00    -0.207 OA
BRANCH  23  26
ATOM     26  N   UNL A   1      40.538  23.204  25.435  1.00  0.00    -0.225 NA
ATOM     27  H   UNL A   1      40.163  24.143  25.303  1.00  0.00     0.137 HD
ATOM     28  H   UNL A   1      40.588  22.728  24.535  1.00  0.00     0.137 HD
ENDBRANCH  23  26
ENDBRANCH  18  23
ENDBRANCH  13  17
BRANCH  15  29
ATOM     29  C   UNL A   1      33.063  21.071  24.142  1.00  0.00     0.000 A 
ATOM     30  C   UNL A   1      33.154  20.922  25.530  1.00  0.00     0.010 A 
ATOM     31  C   UNL A   1      32.754  19.960  23.349  1.00  0.00     0.010 A 
ATOM     32  C   UNL A   1      32.951  19.672  26.117  1.00  0.00     0.001 A 
ATOM     33  C   UNL A   1      32.557  18.709  23.937  1.00  0.00     0.001 A 
ATOM     34  C   UNL A   1      32.654  18.567  25.320  1.00  0.00     0.000 A 
ENDBRANCH  15  29
ENDBRANCH   9  12
ENDBRANCH   7   8
ENDBRANCH   6   7
ENDBRANCH   5   6
ENDBRANCH   4   5
ENDBRANCH   3   4
ENDBRANCH   2   3
ENDBRANCH   1   2
BRANCH   1  35
ATOM     35  C   UNL A   1      31.408  29.779  25.175  1.00  0.00     0.001 C 
BRANCH  35  36
ATOM     36  C   UNL A   1      31.460  28.952  26.450  1.00  0.00     0.010 C 
BRANCH  36  37
ATOM     37  C   UNL A   1      32.524  27.856  26.463  1.00  0.00     0.100 C 
BRANCH  37  38
ATOM     38  C   UNL A   1      33.733  28.172  25.603  1.00  0.00     0.219 C 
ATOM     39  O   UNL A   1      33.804  27.743  24.449  1.00  0.00    -0.275 OA
ATOM     40  N   UNL A   1      34.769  28.928  26.065  1.00  0.00    -0.356 N 
ATOM     41  H   UNL A   1      35.513  29.023  25.428  1.00  0.00     0.163 HD
BRANCH  40  42
ATOM     42  C   UNL A   1      34.975  29.624  27.332  1.00  0.00     0.117 C 
BRANCH  42  43
ATOM     43  C   UNL A   1      34.298  31.006  27.388  1.00  0.00     0.042 C 
BRANCH  43  44
ATOM     44  C   UNL A   1      35.160  32.100  27.974  1.00  0.00     0.118 C 
BRANCH  44  45
ATOM     45  N   UNL A   1      34.960  32.302  29.412  1.00  0.00    -0.352 N 
ATOM     46  C   UNL A   1      35.666  31.695  30.441  1.00  0.00     0.251 C 
ATOM     47  H   UNL A   1      34.252  32.933  29.675  1.00  0.00     0.163 HD
ATOM     48  O   UNL A   1      35.201  31.602  31.569  1.00  0.00    -0.269 OA
BRANCH  46  49
ATOM     49  C   UNL A   1      36.996  31.149  30.125  1.00  0.00     0.039 A 
ATOM     50  C   UNL A   1      38.146  31.938  30.067  1.00  0.00     0.014 A 
ATOM     51  C   UNL A   1      37.075  29.768  30.013  1.00  0.00     0.014 A 
ATOM     52  C   UNL A   1      39.382  31.299  29.989  1.00  0.00     0.010 A 
ATOM     53  C   UNL A   1      38.275  29.160  30.230  1.00  0.00     0.010 A 
ATOM     54  C   UNL A   1      39.438  29.899  30.103  1.00  0.00    -0.014 A 
BRANCH  54  55
ATOM     55  C   UNL A   1      40.700  29.172  30.148  1.00  0.00     0.031 A 
ATOM     56  C   UNL A   1      41.251  28.956  31.511  1.00  0.00     0.074 A 
ATOM     57  C   UNL A   1      41.231  28.557  29.066  1.00  0.00     0.049 A 
ATOM     58  N   UNL A   1      42.325  29.466  32.013  1.00  0.00    -0.248 NA
ATOM     59  C   UNL A   1      40.450  28.182  32.473  1.00  0.00     0.031 C 
ATOM     60  C   UNL A   1      40.662  28.381  27.721  1.00  0.00     0.029 A 
ATOM     61  N   UNL A   1      42.390  27.853  28.978  1.00  0.00    -0.354 N 
ATOM     62  C   UNL A   1      42.448  28.923  33.289  1.00  0.00     0.074 A 
ATOM     63  C   UNL A   1      41.186  28.291  33.581  1.00  0.00     0.031 C 
ATOM     64  C   UNL A   1      41.347  27.428  27.053  1.00  0.00     0.029 A 
ATOM     65  C   UNL A   1      42.513  27.075  27.833  1.00  0.00     0.049 A 
ATOM     66  H   UNL A   1      43.087  27.893  29.671  1.00  0.00     0.167 HD
ATOM     67  C   UNL A   1      43.666  28.825  33.890  1.00  0.00     0.037 A 
ATOM     68  C   UNL A   1      43.503  26.188  27.566  1.00  0.00     0.037 A 
ATOM     69  C   UNL A   1      44.624  29.708  33.268  1.00  0.00     0.049 A 
ATOM     70  C   UNL A   1      44.643  26.536  28.452  1.00  0.00     0.074 A 
ATOM     71  C   UNL A   1      44.667  31.071  33.033  1.00  0.00     0.029 A 
ATOM     72  N   UNL A   1      45.557  29.169  32.413  1.00  0.00    -0.354 N 
ATOM     73  N   UNL A   1      45.344  27.629  28.336  1.00  0.00    -0.248 NA
ATOM     74  C   UNL A   1      44.691  25.894  29.757  1.00  0.00     0.031 C 
ATOM     75  C   UNL A   1      45.198  31.199  31.713  1.00  0.00     0.029 A 
ATOM     76  C   UNL A   1      45.525  29.920  31.263  1.00  0.00     0.049 A 
ATOM     77  H   UNL A   1      46.136  28.394  32.591  1.00  0.00     0.167 HD
ATOM     78  C   UNL A   1      45.562  28.046  29.641  1.00  0.00     0.074 A 
ATOM     79  C   UNL A   1      45.201  26.899  30.473  1.00  0.00     0.031 C 
ATOM     80  C   UNL A   1      45.730  29.367  29.945  1.00  0.00     0.037 A 
BRANCH  67  81
ATOM     81  C   UNL A   1      44.078  27.675  34.778  1.00  0.00     0.064 A 
ATOM     82  C   UNL A   1      44.670  27.948  36.027  1.00  0.00     0.173 A 
ATOM     83  C   UNL A   1      44.188  26.336  34.337  1.00  0.00     0.173 A 
ATOM     84  F   UNL A   1      44.647  29.189  36.536  1.00  0.00    -0.203 F 
ATOM     85  C   UNL A   1      45.384  26.977  36.737  1.00  0.00     0.198 A 
ATOM     86  C   UNL A   1      44.851  25.358  35.075  1.00  0.00     0.198 A 
ATOM     87  F   UNL A   1      43.766  25.942  33.132  1.00  0.00    -0.203 F 
ATOM     88  F   UNL A   1      46.040  27.319  37.853  1.00  0.00    -0.200 F 
ATOM     89  C   UNL A   1      45.479  25.685  36.257  1.00  0.00     0.200 A 
ATOM     90  F   UNL A   1      44.948  24.115  34.581  1.00  0.00    -0.200 F 
ATOM     91  F   UNL A   1      46.212  24.769  36.902  1.00  0.00    -0.200 F 
ENDBRANCH  67  81
BRANCH  68  92
ATOM     92  C   UNL A   1      43.419  24.891  26.855  1.00  0.00     0.064 A 
ATOM     93  C   UNL A   1      44.021  24.728  25.597  1.00  0.00     0.173 A 
ATOM     94  C   UNL A   1      43.021  23.712  27.516  1.00  0.00     0.173 A 
ATOM     95  F   UNL A   1      44.458  25.798  24.916  1.00  0.00    -0.203 F 
ATOM     96  C   UNL A   1      44.258  23.462  25.055  1.00  0.00     0.198 A 
ATOM     97  C   UNL A   1      43.252  22.449  26.970  1.00  0.00     0.198 A 
ATOM     98  F   UNL A   1      42.493  23.758  28.747  1.00  0.00    -0.203 F 
ATOM     99  F   UNL A   1      44.908  23.346  23.888  1.00  0.00    -0.200 F 
ATOM    100  C   UNL A   1      43.888  22.322  25.750  1.00  0.00     0.200 A 
ATOM    101  F   UNL A   1      42.919  21.352  27.666  1.00  0.00    -0.200 F 
ATOM    102  F   UNL A   1      44.183  21.108  25.265  1.00  0.00    -0.200 F 
ENDBRANCH  68  92
BRANCH  80 103
ATOM    103  C   UNL A   1      45.912  30.339  28.809  1.00  0.00     0.064 A 
ATOM    104  C   UNL A   1      44.856  30.984  28.137  1.00  0.00     0.173 A 
ATOM    105  C   UNL A   1      47.214  30.732  28.474  1.00  0.00     0.173 A 
ATOM    106  F   UNL A   1      43.581  30.750  28.467  1.00  0.00    -0.203 F 
ATOM    107  C   UNL A   1      45.098  31.932  27.143  1.00  0.00     0.198 A 
ATOM    108  C   UNL A   1      47.454  31.707  27.509  1.00  0.00     0.198 A 
ATOM    109  F   UNL A   1      48.263  30.198  29.118  1.00  0.00    -0.203 F 
ATOM    110  F   UNL A   1      44.072  32.514  26.505  1.00  0.00    -0.200 F 
ATOM    111  C   UNL A   1      46.397  32.296  26.833  1.00  0.00     0.200 A 
ATOM    112  F   UNL A   1      48.710  32.092  27.249  1.00  0.00    -0.200 F 
ATOM    113  F   UNL A   1      46.631  33.232  25.903  1.00  0.00    -0.200 F 
ENDBRANCH  80 103
ENDBRANCH  54  55
ENDBRANCH  46  49
ENDBRANCH  44  45
ENDBRANCH  43  44
ENDBRANCH  42  43
ENDBRANCH  40  42
ENDBRANCH  37  38
ENDBRANCH  36  37
ENDBRANCH  35  36
ENDBRANCH   1  35
TORSDOF 25
ENDMDL
