MODEL 1
REMARK VINA RESULT:     -12.7      0.000      0.000
REMARK SMILES Cc1cc(C(=O)N[C@H]2C=C[C@@H](C(=O)NCCCNC(=O)c3ccc(-c4c5nc(c(-c6c(F)c(F)c(F)c(F)c6F)c6ccc([nH]6)c(-c6c(F)c(F)c(F)c(F)c6F)c6nc(c(-c7c(F)c(F)c(F)c(F)c7F)c7ccc4[nH]7)C=C6)C=C5)cc3)C2)no1
REMARK SMILES IDX 16 1 15 2 14 3 12 4 13 5 11 7 8 8 9 9 84 10 10 11 7 12 5 13
REMARK SMILES IDX 6 14 4 16 1 17 2 18 3 19 86 20 85 21 17 22 18 23 19 24 20 26
REMARK SMILES IDX 21 27 22 28 83 29 23 30 82 31 24 32 25 33 26 34 76 35 27 36
REMARK SMILES IDX 81 37 75 38 77 39 28 40 80 41 74 42 73 43 29 45 61 46 41 47
REMARK SMILES IDX 60 48 42 49 45 50 59 51 78 52 43 53 44 54 58 56 79 57 46 58
REMARK SMILES IDX 30 59 31 60 39 61 32 62 33 63 37 64 40 65 34 66 35 67 38 68
REMARK SMILES IDX 36 69 62 70 63 71 71 72 64 73 65 74 69 75 72 76 66 77 67 78
REMARK SMILES IDX 70 79 68 80 47 81 48 82 56 83 49 84 50 85 54 86 57 87 51 88
REMARK SMILES IDX 52 89 55 90 53 91
REMARK H PARENT 14 6 7 15 18 25 77 44 45 55
REMARK Flexibility Score: inf
ROOT
ATOM      1  C   UNL A   1      31.403  32.221  26.521  1.00  0.00     0.042 C 
ENDROOT
BRANCH   1   2
ATOM      2  C   UNL A   1      31.565  30.737  26.223  1.00  0.00     0.117 C 
BRANCH   2   3
ATOM      3  N   UNL A   1      31.091  30.401  24.891  1.00  0.00    -0.356 N 
ATOM      4  C   UNL A   1      31.114  29.234  24.192  1.00  0.00     0.227 C 
ATOM      5  O   UNL A   1      30.655  29.254  23.046  1.00  0.00    -0.274 OA
ATOM      6  H   UNL A   1      30.678  31.153  24.407  1.00  0.00     0.163 HD
BRANCH   4   7
ATOM      7  C   UNL A   1      31.658  27.931  24.778  1.00  0.00     0.103 C 
ATOM      8  C   UNL A   1      32.584  25.815  23.937  1.00  0.00     0.106 C 
ATOM      9  C   UNL A   1      33.651  26.798  24.305  1.00  0.00    -0.006 C 
ATOM     10  C   UNL A   1      31.299  26.661  23.999  1.00  0.00     0.047 C 
ATOM     11  C   UNL A   1      33.152  27.928  24.811  1.00  0.00    -0.016 C 
BRANCH   8  12
ATOM     12  N   UNL A   1      32.800  25.234  22.628  1.00  0.00    -0.344 N 
ATOM     13  C   UNL A   1      33.288  23.993  22.266  1.00  0.00     0.273 C 
ATOM     14  O   UNL A   1      33.278  23.708  21.068  1.00  0.00    -0.267 OA
ATOM     15  H   UNL A   1      32.561  25.819  21.873  1.00  0.00     0.164 HD
BRANCH  13  16
ATOM     16  C   UNL A   1      33.859  23.118  23.291  1.00  0.00     0.171 A 
ATOM     17  C   UNL A   1      36.331  21.057  25.039  1.00  0.00     0.091 C 
ATOM     18  C   UNL A   1      35.235  21.865  24.475  1.00  0.00     0.134 A 
ATOM     19  C   UNL A   1      35.185  23.056  23.796  1.00  0.00     0.082 A 
ATOM     20  O   UNL A   1      33.986  21.341  24.546  1.00  0.00    -0.361 OA
ATOM     21  N   UNL A   1      33.115  22.134  23.825  1.00  0.00    -0.074 NA
ENDBRANCH  13  16
ENDBRANCH   8  12
ENDBRANCH   4   7
ENDBRANCH   2   3
ENDBRANCH   1   2
BRANCH   1  22
ATOM     22  C   UNL A   1      32.594  32.821  27.252  1.00  0.00     0.118 C 
BRANCH  22  23
ATOM     23  N   UNL A   1      32.377  34.211  27.626  1.00  0.00    -0.352 N 
ATOM     24  C   UNL A   1      32.969  34.952  28.618  1.00  0.00     0.251 C 
ATOM     25  H   UNL A   1      31.706  34.690  27.088  1.00  0.00     0.163 HD
ATOM     26  O   UNL A   1      32.528  36.061  28.903  1.00  0.00    -0.269 OA
BRANCH  24  27
ATOM     27  C   UNL A   1      34.127  34.408  29.356  1.00  0.00     0.039 A 
ATOM     28  C   UNL A   1      33.912  33.768  30.579  1.00  0.00     0.014 A 
ATOM     29  C   UNL A   1      35.423  34.535  28.848  1.00  0.00     0.014 A 
ATOM     30  C   UNL A   1      34.990  33.204  31.264  1.00  0.00     0.010 A 
ATOM     31  C   UNL A   1      36.482  33.899  29.486  1.00  0.00     0.010 A 
ATOM     32  C   UNL A   1      36.278  33.237  30.707  1.00  0.00    -0.014 A 
BRANCH  32  33
ATOM     33  C   UNL A   1      37.437  32.609  31.388  1.00  0.00     0.031 A 
ATOM     34  C   UNL A   1      38.162  31.469  30.729  1.00  0.00     0.074 A 
ATOM     35  C   UNL A   1      37.783  33.009  32.626  1.00  0.00     0.049 A 
ATOM     36  N   UNL A   1      39.121  30.713  31.199  1.00  0.00    -0.248 NA
ATOM     37  C   UNL A   1      37.728  31.111  29.369  1.00  0.00     0.031 C 
ATOM     38  C   UNL A   1      37.128  34.073  33.387  1.00  0.00     0.029 A 
ATOM     39  N   UNL A   1      38.766  32.554  33.469  1.00  0.00    -0.354 N 
ATOM     40  C   UNL A   1      39.383  29.776  30.208  1.00  0.00     0.074 A 
ATOM     41  C   UNL A   1      38.451  30.027  29.129  1.00  0.00     0.031 C 
ATOM     42  C   UNL A   1      37.740  34.204  34.576  1.00  0.00     0.029 A 
ATOM     43  C   UNL A   1      38.803  33.208  34.676  1.00  0.00     0.049 A 
ATOM     44  H   UNL A   1      39.386  31.827  33.231  1.00  0.00     0.167 HD
ATOM     45  C   UNL A   1      40.330  28.809  30.189  1.00  0.00     0.037 A 
ATOM     46  C   UNL A   1      39.599  33.018  35.745  1.00  0.00     0.037 A 
ATOM     47  C   UNL A   1      41.283  28.592  31.245  1.00  0.00     0.049 A 
ATOM     48  C   UNL A   1      40.651  31.944  35.694  1.00  0.00     0.074 A 
ATOM     49  C   UNL A   1      42.326  27.685  31.294  1.00  0.00     0.029 A 
ATOM     50  N   UNL A   1      41.307  29.297  32.440  1.00  0.00    -0.354 N 
ATOM     51  N   UNL A   1      40.930  31.104  34.727  1.00  0.00    -0.248 NA
ATOM     52  C   UNL A   1      41.504  31.796  36.882  1.00  0.00     0.031 C 
ATOM     53  C   UNL A   1      42.959  27.815  32.534  1.00  0.00     0.029 A 
ATOM     54  C   UNL A   1      42.339  28.833  33.240  1.00  0.00     0.049 A 
ATOM     55  H   UNL A   1      40.684  30.019  32.683  1.00  0.00     0.167 HD
ATOM     56  C   UNL A   1      42.006  30.350  35.176  1.00  0.00     0.074 A 
ATOM     57  C   UNL A   1      42.336  30.839  36.498  1.00  0.00     0.031 C 
ATOM     58  C   UNL A   1      42.662  29.343  34.547  1.00  0.00     0.037 A 
BRANCH  45  59
ATOM     59  C   UNL A   1      40.387  27.915  28.985  1.00  0.00     0.064 A 
ATOM     60  C   UNL A   1      39.651  26.722  28.919  1.00  0.00     0.173 A 
ATOM     61  C   UNL A   1      41.162  28.271  27.872  1.00  0.00     0.173 A 
ATOM     62  F   UNL A   1      38.904  26.329  29.962  1.00  0.00    -0.203 F 
ATOM     63  C   UNL A   1      39.713  25.904  27.794  1.00  0.00     0.198 A 
ATOM     64  C   UNL A   1      41.198  27.465  26.736  1.00  0.00     0.198 A 
ATOM     65  F   UNL A   1      41.882  29.403  27.881  1.00  0.00    -0.203 F 
ATOM     66  F   UNL A   1      39.041  24.744  27.773  1.00  0.00    -0.200 F 
ATOM     67  C   UNL A   1      40.480  26.279  26.701  1.00  0.00     0.200 A 
ATOM     68  F   UNL A   1      41.930  27.834  25.677  1.00  0.00    -0.200 F 
ATOM     69  F   UNL A   1      40.534  25.493  25.617  1.00  0.00    -0.200 F 
ENDBRANCH  45  59
BRANCH  46  70
ATOM     70  C   UNL A   1      39.452  33.884  36.943  1.00  0.00     0.064 A 
ATOM     71  C   UNL A   1      38.706  33.456  38.049  1.00  0.00     0.173 A 
ATOM     72  C   UNL A   1      40.048  35.152  37.008  1.00  0.00     0.173 A 
ATOM     73  F   UNL A   1      38.100  32.259  38.023  1.00  0.00    -0.203 F 
ATOM     74  C   UNL A   1      38.545  34.270  39.168  1.00  0.00     0.198 A 
ATOM     75  C   UNL A   1      39.908  35.955  38.138  1.00  0.00     0.198 A 
ATOM     76  F   UNL A   1      40.775  35.607  35.978  1.00  0.00    -0.203 F 
ATOM     77  F   UNL A   1      37.789  33.853  40.193  1.00  0.00    -0.200 F 
ATOM     78  C   UNL A   1      39.149  35.516  39.213  1.00  0.00     0.200 A 
ATOM     79  F   UNL A   1      40.503  37.154  38.184  1.00  0.00    -0.200 F 
ATOM     80  F   UNL A   1      38.995  36.299  40.291  1.00  0.00    -0.200 F 
ENDBRANCH  46  70
BRANCH  58  81
ATOM     81  C   UNL A   1      43.829  28.731  35.263  1.00  0.00     0.064 A 
ATOM     82  C   UNL A   1      45.134  29.216  35.093  1.00  0.00     0.173 A 
ATOM     83  C   UNL A   1      43.630  27.677  36.167  1.00  0.00     0.173 A 
ATOM     84  F   UNL A   1      45.376  30.212  34.227  1.00  0.00    -0.203 F 
ATOM     85  C   UNL A   1      46.201  28.654  35.787  1.00  0.00     0.198 A 
ATOM     86  C   UNL A   1      44.695  27.136  36.881  1.00  0.00     0.198 A 
ATOM     87  F   UNL A   1      42.400  27.182  36.370  1.00  0.00    -0.203 F 
ATOM     88  F   UNL A   1      47.445  29.105  35.579  1.00  0.00    -0.200 F 
ATOM     89  C   UNL A   1      45.980  27.620  36.686  1.00  0.00     0.200 A 
ATOM     90  F   UNL A   1      44.478  26.146  37.758  1.00  0.00    -0.200 F 
ATOM     91  F   UNL A   1      47.008  27.087  37.361  1.00  0.00    -0.200 F 
ENDBRANCH  58  81
ENDBRANCH  32  33
ENDBRANCH  24  27
ENDBRANCH  22  23
ENDBRANCH   1  22
TORSDOF 12
ENDMDL
MODEL 2
REMARK VINA RESULT:     -12.7      0.161      1.628
REMARK SMILES Cc1cc(C(=O)N[C@H]2C=C[C@@H](C(=O)NCCCNC(=O)c3ccc(-c4c5nc(c(-c6c(F)c(F)c(F)c(F)c6F)c6ccc([nH]6)c(-c6c(F)c(F)c(F)c(F)c6F)c6nc(c(-c7c(F)c(F)c(F)c(F)c7F)c7ccc4[nH]7)C=C6)C=C5)cc3)C2)no1
REMARK SMILES IDX 16 1 15 2 14 3 12 4 13 5 11 7 8 8 9 9 84 10 10 11 7 12 5 13
REMARK SMILES IDX 6 14 4 16 1 17 2 18 3 19 86 20 85 21 17 22 18 23 19 24 20 26
REMARK SMILES IDX 21 27 22 28 83 29 23 30 82 31 24 32 25 33 26 34 76 35 27 36
REMARK SMILES IDX 81 37 75 38 77 39 28 40 80 41 74 42 73 43 29 45 61 46 41 47
REMARK SMILES IDX 60 48 42 49 45 50 59 51 78 52 43 53 44 54 58 56 79 57 46 58
REMARK SMILES IDX 30 59 31 60 39 61 32 62 33 63 37 64 40 65 34 66 35 67 38 68
REMARK SMILES IDX 36 69 62 70 63 71 71 72 64 73 65 74 69 75 72 76 66 77 67 78
REMARK SMILES IDX 70 79 68 80 47 81 48 82 56 83 49 84 50 85 54 86 57 87 51 88
REMARK SMILES IDX 52 89 55 90 53 91
REMARK H PARENT 14 6 7 15 18 25 77 44 45 55
REMARK Flexibility Score: inf
ROOT
ATOM      1  C   UNL A   1      31.422  32.154  26.632  1.00  0.00     0.042 C 
ENDROOT
BRANCH   1   2
ATOM      2  C   UNL A   1      31.632  30.683  26.302  1.00  0.00     0.117 C 
BRANCH   2   3
ATOM      3  N   UNL A   1      31.188  30.365  24.954  1.00  0.00    -0.356 N 
ATOM      4  C   UNL A   1      31.242  29.211  24.235  1.00  0.00     0.227 C 
ATOM      5  O   UNL A   1      30.805  29.246  23.081  1.00  0.00    -0.274 OA
ATOM      6  H   UNL A   1      30.774  31.120  24.477  1.00  0.00     0.163 HD
BRANCH   4   7
ATOM      7  C   UNL A   1      31.793  27.906  24.807  1.00  0.00     0.103 C 
ATOM      8  C   UNL A   1      32.698  25.789  23.944  1.00  0.00     0.106 C 
ATOM      9  C   UNL A   1      33.775  26.768  24.293  1.00  0.00    -0.006 C 
ATOM     10  C   UNL A   1      31.417  26.639  24.032  1.00  0.00     0.047 C 
ATOM     11  C   UNL A   1      33.288  27.899  24.811  1.00  0.00    -0.016 C 
BRANCH   8  12
ATOM     12  N   UNL A   1      32.887  25.211  22.629  1.00  0.00    -0.344 N 
ATOM     13  C   UNL A   1      33.402  23.985  22.254  1.00  0.00     0.273 C 
ATOM     14  O   UNL A   1      33.360  23.695  21.058  1.00  0.00    -0.267 OA
ATOM     15  H   UNL A   1      32.603  25.785  21.882  1.00  0.00     0.164 HD
BRANCH  13  16
ATOM     16  C   UNL A   1      34.037  23.133  23.261  1.00  0.00     0.171 A 
ATOM     17  C   UNL A   1      36.640  21.177  24.937  1.00  0.00     0.091 C 
ATOM     18  C   UNL A   1      35.497  21.938  24.404  1.00  0.00     0.134 A 
ATOM     19  C   UNL A   1      35.377  23.128  23.732  1.00  0.00     0.082 A 
ATOM     20  O   UNL A   1      34.274  21.359  24.504  1.00  0.00    -0.361 OA
ATOM     21  N   UNL A   1      33.351  22.115  23.809  1.00  0.00    -0.074 NA
ENDBRANCH  13  16
ENDBRANCH   8  12
ENDBRANCH   4   7
ENDBRANCH   2   3
ENDBRANCH   1   2
BRANCH   1  22
ATOM     22  C   UNL A   1      32.665  32.827  27.195  1.00  0.00     0.118 C 
BRANCH  22  23
ATOM     23  N   UNL A   1      32.421  34.206  27.591  1.00  0.00    -0.352 N 
ATOM     24  C   UNL A   1      32.998  34.942  28.596  1.00  0.00     0.251 C 
ATOM     25  H   UNL A   1      31.741  34.681  27.061  1.00  0.00     0.163 HD
ATOM     26  O   UNL A   1      32.536  36.037  28.899  1.00  0.00    -0.269 OA
BRANCH  24  27
ATOM     27  C   UNL A   1      34.166  34.407  29.326  1.00  0.00     0.039 A 
ATOM     28  C   UNL A   1      33.962  33.742  30.537  1.00  0.00     0.014 A 
ATOM     29  C   UNL A   1      35.460  34.569  28.822  1.00  0.00     0.014 A 
ATOM     30  C   UNL A   1      35.051  33.187  31.213  1.00  0.00     0.010 A 
ATOM     31  C   UNL A   1      36.530  33.943  29.450  1.00  0.00     0.010 A 
ATOM     32  C   UNL A   1      36.338  33.255  30.659  1.00  0.00    -0.014 A 
BRANCH  32  33
ATOM     33  C   UNL A   1      37.508  32.638  31.330  1.00  0.00     0.031 A 
ATOM     34  C   UNL A   1      38.238  31.505  30.665  1.00  0.00     0.074 A 
ATOM     35  C   UNL A   1      37.862  33.042  32.565  1.00  0.00     0.049 A 
ATOM     36  N   UNL A   1      39.208  30.757  31.128  1.00  0.00    -0.248 NA
ATOM     37  C   UNL A   1      37.796  31.142  29.310  1.00  0.00     0.031 C 
ATOM     38  C   UNL A   1      37.203  34.101  33.331  1.00  0.00     0.029 A 
ATOM     39  N   UNL A   1      38.856  32.597  33.400  1.00  0.00    -0.354 N 
ATOM     40  C   UNL A   1      39.470  29.823  30.135  1.00  0.00     0.074 A 
ATOM     41  C   UNL A   1      38.527  30.064  29.065  1.00  0.00     0.031 C 
ATOM     42  C   UNL A   1      37.825  34.238  34.514  1.00  0.00     0.029 A 
ATOM     43  C   UNL A   1      38.897  33.251  34.606  1.00  0.00     0.049 A 
ATOM     44  H   UNL A   1      39.481  31.875  33.157  1.00  0.00     0.167 HD
ATOM     45  C   UNL A   1      40.426  28.864  30.109  1.00  0.00     0.037 A 
ATOM     46  C   UNL A   1      39.704  33.070  35.668  1.00  0.00     0.037 A 
ATOM     47  C   UNL A   1      41.390  28.657  31.157  1.00  0.00     0.049 A 
ATOM     48  C   UNL A   1      40.765  32.005  35.609  1.00  0.00     0.074 A 
ATOM     49  C   UNL A   1      42.442  27.760  31.197  1.00  0.00     0.029 A 
ATOM     50  N   UNL A   1      41.418  29.362  32.351  1.00  0.00    -0.354 N 
ATOM     51  N   UNL A   1      41.044  31.167  34.640  1.00  0.00    -0.248 NA
ATOM     52  C   UNL A   1      41.629  31.865  36.790  1.00  0.00     0.031 C 
ATOM     53  C   UNL A   1      43.084  27.895  32.431  1.00  0.00     0.029 A 
ATOM     54  C   UNL A   1      42.461  28.908  33.142  1.00  0.00     0.049 A 
ATOM     55  H   UNL A   1      40.790  30.079  32.599  1.00  0.00     0.167 HD
ATOM     56  C   UNL A   1      42.130  30.423  35.080  1.00  0.00     0.074 A 
ATOM     57  C   UNL A   1      42.467  30.916  36.399  1.00  0.00     0.031 C 
ATOM     58  C   UNL A   1      42.790  29.422  34.446  1.00  0.00     0.037 A 
BRANCH  45  59
ATOM     59  C   UNL A   1      40.481  27.970  28.905  1.00  0.00     0.064 A 
ATOM     60  C   UNL A   1      41.265  28.290  27.786  1.00  0.00     0.173 A 
ATOM     61  C   UNL A   1      39.764  26.765  28.881  1.00  0.00     0.173 A 
ATOM     62  F   UNL A   1      41.959  29.438  27.752  1.00  0.00    -0.203 F 
ATOM     63  C   UNL A   1      41.306  27.449  26.677  1.00  0.00     0.198 A 
ATOM     64  C   UNL A   1      39.831  25.912  27.782  1.00  0.00     0.198 A 
ATOM     65  F   UNL A   1      39.002  26.409  29.926  1.00  0.00    -0.203 F 
ATOM     66  F   UNL A   1      42.023  27.799  25.599  1.00  0.00    -0.200 F 
ATOM     67  C   UNL A   1      40.596  26.258  26.678  1.00  0.00     0.200 A 
ATOM     68  F   UNL A   1      39.154  24.756  27.790  1.00  0.00    -0.200 F 
ATOM     69  F   UNL A   1      40.642  25.448  25.612  1.00  0.00    -0.200 F 
ENDBRANCH  45  59
BRANCH  46  70
ATOM     70  C   UNL A   1      39.560  33.935  36.867  1.00  0.00     0.064 A 
ATOM     71  C   UNL A   1      40.193  35.184  36.929  1.00  0.00     0.173 A 
ATOM     72  C   UNL A   1      38.793  33.535  37.972  1.00  0.00     0.173 A 
ATOM     73  F   UNL A   1      40.954  35.599  35.905  1.00  0.00    -0.203 F 
ATOM     74  C   UNL A   1      40.081  35.993  38.058  1.00  0.00     0.198 A 
ATOM     75  C   UNL A   1      38.661  34.357  39.090  1.00  0.00     0.198 A 
ATOM     76  F   UNL A   1      38.164  32.352  37.960  1.00  0.00    -0.203 F 
ATOM     77  F   UNL A   1      40.734  37.162  38.109  1.00  0.00    -0.200 F 
ATOM     78  C   UNL A   1      39.311  35.581  39.134  1.00  0.00     0.200 A 
ATOM     79  F   UNL A   1      37.906  33.961  40.123  1.00  0.00    -0.200 F 
ATOM     80  F   UNL A   1      39.203  36.360  40.220  1.00  0.00    -0.200 F 
ENDBRANCH  46  70
BRANCH  58  81
ATOM     81  C   UNL A   1      43.969  28.822  35.152  1.00  0.00     0.064 A 
ATOM     82  C   UNL A   1      45.267  29.322  34.975  1.00  0.00     0.173 A 
ATOM     83  C   UNL A   1      43.788  27.762  36.054  1.00  0.00     0.173 A 
ATOM     84  F   UNL A   1      45.492  30.324  34.112  1.00  0.00    -0.203 F 
ATOM     85  C   UNL A   1      46.345  28.770  35.660  1.00  0.00     0.198 A 
ATOM     86  C   UNL A   1      44.864  27.231  36.759  1.00  0.00     0.198 A 
ATOM     87  F   UNL A   1      42.565  27.253  36.264  1.00  0.00    -0.203 F 
ATOM     88  F   UNL A   1      47.583  29.235  35.446  1.00  0.00    -0.200 F 
ATOM     89  C   UNL A   1      46.142  27.730  36.558  1.00  0.00     0.200 A 
ATOM     90  F   UNL A   1      44.664  26.236  37.635  1.00  0.00    -0.200 F 
ATOM     91  F   UNL A   1      47.180  27.207  37.224  1.00  0.00    -0.200 F 
ENDBRANCH  58  81
ENDBRANCH  32  33
ENDBRANCH  24  27
ENDBRANCH  22  23
ENDBRANCH   1  22
TORSDOF 12
ENDMDL
MODEL 3
REMARK VINA RESULT:     -12.6      0.146      1.627
REMARK SMILES Cc1cc(C(=O)N[C@H]2C=C[C@@H](C(=O)NCCCNC(=O)c3ccc(-c4c5nc(c(-c6c(F)c(F)c(F)c(F)c6F)c6ccc([nH]6)c(-c6c(F)c(F)c(F)c(F)c6F)c6nc(c(-c7c(F)c(F)c(F)c(F)c7F)c7ccc4[nH]7)C=C6)C=C5)cc3)C2)no1
REMARK SMILES IDX 16 1 15 2 14 3 12 4 13 5 11 7 8 8 9 9 84 10 10 11 7 12 5 13
REMARK SMILES IDX 6 14 4 16 1 17 2 18 3 19 86 20 85 21 17 22 18 23 19 24 20 26
REMARK SMILES IDX 21 27 22 28 83 29 23 30 82 31 24 32 25 33 26 34 76 35 27 36
REMARK SMILES IDX 81 37 75 38 77 39 28 40 80 41 74 42 73 43 29 45 61 46 41 47
REMARK SMILES IDX 60 48 42 49 45 50 59 51 78 52 43 53 44 54 58 56 79 57 46 58
REMARK SMILES IDX 30 59 31 60 39 61 32 62 33 63 37 64 40 65 34 66 35 67 38 68
REMARK SMILES IDX 36 69 62 70 63 71 71 72 64 73 65 74 69 75 72 76 66 77 67 78
REMARK SMILES IDX 70 79 68 80 47 81 48 82 56 83 49 84 50 85 54 86 57 87 51 88
REMARK SMILES IDX 52 89 55 90 53 91
REMARK H PARENT 14 6 7 15 18 25 77 44 45 55
REMARK Flexibility Score: inf
ROOT
ATOM      1  C   UNL A   1      31.394  32.268  26.514  1.00  0.00     0.042 C 
ENDROOT
BRANCH   1   2
ATOM      2  C   UNL A   1      31.550  30.782  26.221  1.00  0.00     0.117 C 
BRANCH   2   3
ATOM      3  N   UNL A   1      31.122  30.453  24.870  1.00  0.00    -0.356 N 
ATOM      4  C   UNL A   1      31.165  29.288  24.169  1.00  0.00     0.227 C 
ATOM      5  O   UNL A   1      30.748  29.314  23.007  1.00  0.00    -0.274 OA
ATOM      6  H   UNL A   1      30.732  31.209  24.374  1.00  0.00     0.163 HD
BRANCH   4   7
ATOM      7  C   UNL A   1      31.678  27.980  24.770  1.00  0.00     0.103 C 
ATOM      8  C   UNL A   1      32.598  25.851  23.956  1.00  0.00     0.106 C 
ATOM      9  C   UNL A   1      33.668  26.821  24.346  1.00  0.00    -0.006 C 
ATOM     10  C   UNL A   1      31.322  26.713  23.986  1.00  0.00     0.047 C 
ATOM     11  C   UNL A   1      33.171  27.959  24.838  1.00  0.00    -0.016 C 
BRANCH   8  12
ATOM     12  N   UNL A   1      32.836  25.264  22.653  1.00  0.00    -0.344 N 
ATOM     13  C   UNL A   1      33.255  23.995  22.305  1.00  0.00     0.273 C 
ATOM     14  O   UNL A   1      33.284  23.717  21.105  1.00  0.00    -0.267 OA
ATOM     15  H   UNL A   1      32.674  25.868  21.893  1.00  0.00     0.164 HD
BRANCH  13  16
ATOM     16  C   UNL A   1      33.716  23.077  23.348  1.00  0.00     0.171 A 
ATOM     17  C   UNL A   1      36.018  21.040  25.339  1.00  0.00     0.091 C 
ATOM     18  C   UNL A   1      34.971  21.821  24.657  1.00  0.00     0.134 A 
ATOM     19  C   UNL A   1      34.943  23.057  24.064  1.00  0.00     0.082 A 
ATOM     20  O   UNL A   1      33.770  21.215  24.480  1.00  0.00    -0.361 OA
ATOM     21  N   UNL A   1      32.971  22.008  23.679  1.00  0.00    -0.074 NA
ENDBRANCH  13  16
ENDBRANCH   8  12
ENDBRANCH   4   7
ENDBRANCH   2   3
ENDBRANCH   1   2
BRANCH   1  22
ATOM     22  C   UNL A   1      32.593  32.867  27.233  1.00  0.00     0.118 C 
BRANCH  22  23
ATOM     23  N   UNL A   1      32.372  34.251  27.627  1.00  0.00    -0.352 N 
ATOM     24  C   UNL A   1      32.964  34.980  28.628  1.00  0.00     0.251 C 
ATOM     25  H   UNL A   1      31.698  34.736  27.098  1.00  0.00     0.163 HD
ATOM     26  O   UNL A   1      32.521  36.083  28.930  1.00  0.00    -0.269 OA
BRANCH  24  27
ATOM     27  C   UNL A   1      34.126  34.428  29.356  1.00  0.00     0.039 A 
ATOM     28  C   UNL A   1      33.916  33.777  30.573  1.00  0.00     0.014 A 
ATOM     29  C   UNL A   1      35.420  34.562  28.844  1.00  0.00     0.014 A 
ATOM     30  C   UNL A   1      34.998  33.206  31.248  1.00  0.00     0.010 A 
ATOM     31  C   UNL A   1      36.481  33.920  29.470  1.00  0.00     0.010 A 
ATOM     32  C   UNL A   1      36.283  33.245  30.685  1.00  0.00    -0.014 A 
BRANCH  32  33
ATOM     33  C   UNL A   1      37.445  32.611  31.355  1.00  0.00     0.031 A 
ATOM     34  C   UNL A   1      38.155  31.465  30.691  1.00  0.00     0.074 A 
ATOM     35  C   UNL A   1      37.809  33.012  32.588  1.00  0.00     0.049 A 
ATOM     36  N   UNL A   1      39.114  30.703  31.152  1.00  0.00    -0.248 NA
ATOM     37  C   UNL A   1      37.703  31.106  29.337  1.00  0.00     0.031 C 
ATOM     38  C   UNL A   1      37.169  34.083  33.354  1.00  0.00     0.029 A 
ATOM     39  N   UNL A   1      38.797  32.552  33.421  1.00  0.00    -0.354 N 
ATOM     40  C   UNL A   1      39.358  29.762  30.160  1.00  0.00     0.074 A 
ATOM     41  C   UNL A   1      38.416  30.016  29.092  1.00  0.00     0.031 C 
ATOM     42  C   UNL A   1      37.796  34.212  34.535  1.00  0.00     0.029 A 
ATOM     43  C   UNL A   1      38.852  33.209  34.626  1.00  0.00     0.049 A 
ATOM     44  H   UNL A   1      39.410  31.820  33.178  1.00  0.00     0.167 HD
ATOM     45  C   UNL A   1      40.299  28.788  30.134  1.00  0.00     0.037 A 
ATOM     46  C   UNL A   1      39.659  33.016  35.686  1.00  0.00     0.037 A 
ATOM     47  C   UNL A   1      41.261  28.567  31.180  1.00  0.00     0.049 A 
ATOM     48  C   UNL A   1      40.703  31.935  35.626  1.00  0.00     0.074 A 
ATOM     49  C   UNL A   1      42.299  27.654  31.219  1.00  0.00     0.029 A 
ATOM     50  N   UNL A   1      41.304  29.275  32.372  1.00  0.00    -0.354 N 
ATOM     51  N   UNL A   1      40.966  31.090  34.658  1.00  0.00    -0.248 NA
ATOM     52  C   UNL A   1      41.568  31.784  36.805  1.00  0.00     0.031 C 
ATOM     53  C   UNL A   1      42.947  27.782  32.451  1.00  0.00     0.029 A 
ATOM     54  C   UNL A   1      42.342  28.806  33.162  1.00  0.00     0.049 A 
ATOM     55  H   UNL A   1      40.689  30.003  32.620  1.00  0.00     0.167 HD
ATOM     56  C   UNL A   1      42.041  30.330  35.097  1.00  0.00     0.074 A 
ATOM     57  C   UNL A   1      42.389  30.820  36.414  1.00  0.00     0.031 C 
ATOM     58  C   UNL A   1      42.683  29.318  34.464  1.00  0.00     0.037 A 
BRANCH  45  59
ATOM     59  C   UNL A   1      40.335  27.891  28.932  1.00  0.00     0.064 A 
ATOM     60  C   UNL A   1      41.086  28.218  27.792  1.00  0.00     0.173 A 
ATOM     61  C   UNL A   1      39.636  26.675  28.930  1.00  0.00     0.173 A 
ATOM     62  F   UNL A   1      41.762  29.376  27.737  1.00  0.00    -0.203 F 
ATOM     63  C   UNL A   1      41.112  27.374  26.684  1.00  0.00     0.198 A 
ATOM     64  C   UNL A   1      39.688  25.819  27.832  1.00  0.00     0.198 A 
ATOM     65  F   UNL A   1      38.907  26.312  29.996  1.00  0.00    -0.203 F 
ATOM     66  F   UNL A   1      41.795  27.731  25.588  1.00  0.00    -0.200 F 
ATOM     67  C   UNL A   1      40.419  26.173  26.708  1.00  0.00     0.200 A 
ATOM     68  F   UNL A   1      39.028  24.654  27.861  1.00  0.00    -0.200 F 
ATOM     69  F   UNL A   1      40.449  25.359  25.644  1.00  0.00    -0.200 F 
ENDBRANCH  45  59
BRANCH  46  70
ATOM     70  C   UNL A   1      39.532  33.887  36.884  1.00  0.00     0.064 A 
ATOM     71  C   UNL A   1      38.787  33.470  37.995  1.00  0.00     0.173 A 
ATOM     72  C   UNL A   1      40.145  35.147  36.942  1.00  0.00     0.173 A 
ATOM     73  F   UNL A   1      38.165  32.282  37.975  1.00  0.00    -0.203 F 
ATOM     74  C   UNL A   1      38.644  34.289  39.114  1.00  0.00     0.198 A 
ATOM     75  C   UNL A   1      40.023  35.954  38.072  1.00  0.00     0.198 A 
ATOM     76  F   UNL A   1      40.872  35.590  35.907  1.00  0.00    -0.203 F 
ATOM     77  F   UNL A   1      37.889  33.885  40.144  1.00  0.00    -0.200 F 
ATOM     78  C   UNL A   1      39.266  35.527  39.153  1.00  0.00     0.200 A 
ATOM     79  F   UNL A   1      40.636  37.144  38.111  1.00  0.00    -0.200 F 
ATOM     80  F   UNL A   1      39.129  36.314  40.229  1.00  0.00    -0.200 F 
ENDBRANCH  46  70
BRANCH  58  81
ATOM     81  C   UNL A   1      43.854  28.699  35.167  1.00  0.00     0.064 A 
ATOM     82  C   UNL A   1      43.702  27.602  36.026  1.00  0.00     0.173 A 
ATOM     83  C   UNL A   1      45.152  29.183  34.939  1.00  0.00     0.173 A 
ATOM     84  F   UNL A   1      42.480  27.114  36.288  1.00  0.00    -0.203 F 
ATOM     85  C   UNL A   1      44.804  27.023  36.648  1.00  0.00     0.198 A 
ATOM     86  C   UNL A   1      46.254  28.584  35.541  1.00  0.00     0.198 A 
ATOM     87  F   UNL A   1      45.351  30.227  34.120  1.00  0.00    -0.203 F 
ATOM     88  F   UNL A   1      44.632  26.001  37.498  1.00  0.00    -0.200 F 
ATOM     89  C   UNL A   1      46.080  27.509  36.399  1.00  0.00     0.200 A 
ATOM     90  F   UNL A   1      47.487  29.047  35.289  1.00  0.00    -0.200 F 
ATOM     91  F   UNL A   1      47.141  26.944  36.991  1.00  0.00    -0.200 F 
ENDBRANCH  58  81
ENDBRANCH  32  33
ENDBRANCH  24  27
ENDBRANCH  22  23
ENDBRANCH   1  22
TORSDOF 12
ENDMDL
