MODEL 1
REMARK VINA RESULT:     -11.0      0.000      0.000
REMARK SMILES CC(C)[C@H](NC(=O)CC[NH3+])C(=O)NCCCNC(=O)c1ccc(-c2c3nc(c(-c4c(F)c(F)c(F)c(F)c4F)c4ccc([nH]4)c(-c4c(F)c(F)c(F)c(F)c4F)c4nc(c(-c5c(F)c(F)c(F)c(F)c5F)c5ccc2[nH]5)C=C4)C=C3)cc1
REMARK SMILES IDX 14 1 13 2 11 3 12 4 4 6 2 7 1 8 3 9 5 10 6 11 7 13 8 14 9 15
REMARK SMILES IDX 10 16 15 20 16 21 17 22 18 23 19 25 20 26 21 27 82 28 22 29
REMARK SMILES IDX 81 30 23 31 24 32 25 33 75 34 26 35 80 36 74 37 76 38 27 39
REMARK SMILES IDX 79 40 73 41 72 42 28 44 60 45 40 46 59 47 41 48 44 49 58 50
REMARK SMILES IDX 77 51 42 52 43 53 57 55 78 56 45 57 29 58 30 59 38 60 31 61
REMARK SMILES IDX 32 62 36 63 39 64 33 65 34 66 37 67 35 68 61 69 62 70 70 71
REMARK SMILES IDX 63 72 64 73 68 74 71 75 65 76 66 77 69 78 67 79 46 80 47 81
REMARK SMILES IDX 55 82 48 83 49 84 53 85 56 86 50 87 51 88 54 89 52 90
REMARK H PARENT 13 5 5 12 10 17 10 18 10 19 17 24 76 43 44 54
REMARK Flexibility Score: inf
ROOT
ATOM      1  C   UNL A   1      33.179  28.649  23.757  1.00  0.00     0.117 C 
ENDROOT
BRANCH   1   2
ATOM      2  N   UNL A   1      32.027  29.188  23.058  1.00  0.00    -0.354 N 
ATOM      3  C   UNL A   1      30.939  28.561  22.506  1.00  0.00     0.242 C 
ATOM      4  O   UNL A   1      30.105  29.322  22.003  1.00  0.00    -0.273 OA
ATOM      5  H   UNL A   1      32.025  30.168  22.964  1.00  0.00     0.163 HD
BRANCH   3   6
ATOM      6  C   UNL A   1      30.789  26.999  22.403  1.00  0.00     0.173 C 
BRANCH   6   7
ATOM      7  C   UNL A   1      30.834  26.185  23.728  1.00  0.00     0.015 C 
ATOM      8  C   UNL A   1      30.220  26.863  24.954  1.00  0.00     0.010 C 
ATOM      9  C   UNL A   1      30.154  24.816  23.544  1.00  0.00     0.010 C 
ENDBRANCH   6   7
BRANCH   6  10
ATOM     10  N   UNL A   1      31.548  26.369  21.311  1.00  0.00    -0.344 N 
ATOM     11  C   UNL A   1      32.744  25.734  21.226  1.00  0.00     0.226 C 
ATOM     12  H   UNL A   1      31.082  26.422  20.444  1.00  0.00     0.164 HD
ATOM     13  O   UNL A   1      33.168  25.530  20.081  1.00  0.00    -0.275 OA
BRANCH  11  14
ATOM     14  C   UNL A   1      33.550  25.271  22.423  1.00  0.00     0.161 C 
BRANCH  14  15
ATOM     15  C   UNL A   1      33.676  23.769  22.681  1.00  0.00     0.268 C 
BRANCH  15  16
ATOM     16  N   UNL A   1      32.946  22.911  21.752  1.00  0.00    -0.357 N 
ATOM     17  H   UNL A   1      32.107  22.553  22.208  1.00  0.00     0.344 HD
ATOM     18  H   UNL A   1      33.540  22.131  21.470  1.00  0.00     0.344 HD
ATOM     19  H   UNL A   1      32.681  23.450  20.928  1.00  0.00     0.344 HD
ENDBRANCH  15  16
ENDBRANCH  14  15
ENDBRANCH  11  14
ENDBRANCH   6  10
ENDBRANCH   3   6
ENDBRANCH   1   2
BRANCH   1  20
ATOM     20  C   UNL A   1      33.660  29.437  24.967  1.00  0.00     0.042 C 
BRANCH  20  21
ATOM     21  C   UNL A   1      32.622  29.629  26.067  1.00  0.00     0.118 C 
BRANCH  21  22
ATOM     22  N   UNL A   1      32.480  30.990  26.577  1.00  0.00    -0.352 N 
ATOM     23  C   UNL A   1      33.293  31.827  27.307  1.00  0.00     0.251 C 
ATOM     24  H   UNL A   1      31.615  31.398  26.346  1.00  0.00     0.163 HD
ATOM     25  O   UNL A   1      32.868  32.947  27.596  1.00  0.00    -0.269 OA
BRANCH  23  26
ATOM     26  C   UNL A   1      34.621  31.408  27.818  1.00  0.00     0.039 A 
ATOM     27  C   UNL A   1      35.651  32.356  27.899  1.00  0.00     0.014 A 
ATOM     28  C   UNL A   1      34.883  30.106  28.224  1.00  0.00     0.014 A 
ATOM     29  C   UNL A   1      36.872  32.025  28.502  1.00  0.00     0.010 A 
ATOM     30  C   UNL A   1      36.028  29.819  28.957  1.00  0.00     0.010 A 
ATOM     31  C   UNL A   1      37.042  30.773  29.112  1.00  0.00    -0.014 A 
BRANCH  31  32
ATOM     32  C   UNL A   1      38.245  30.418  29.916  1.00  0.00     0.031 A 
ATOM     33  C   UNL A   1      39.274  29.465  29.360  1.00  0.00     0.074 A 
ATOM     34  C   UNL A   1      38.354  30.843  31.191  1.00  0.00     0.049 A 
ATOM     35  N   UNL A   1      40.273  28.870  29.964  1.00  0.00    -0.248 NA
ATOM     36  C   UNL A   1      39.120  29.081  27.948  1.00  0.00     0.031 C 
ATOM     37  C   UNL A   1      37.406  31.717  31.882  1.00  0.00     0.029 A 
ATOM     38  N   UNL A   1      39.310  30.580  32.143  1.00  0.00    -0.354 N 
ATOM     39  C   UNL A   1      40.827  28.011  29.023  1.00  0.00     0.074 A 
ATOM     40  C   UNL A   1      40.009  28.107  27.834  1.00  0.00     0.031 C 
ATOM     41  C   UNL A   1      37.849  31.956  33.126  1.00  0.00     0.029 A 
ATOM     42  C   UNL A   1      39.083  31.209  33.343  1.00  0.00     0.049 A 
ATOM     43  H   UNL A   1      40.086  29.995  31.980  1.00  0.00     0.167 HD
ATOM     44  C   UNL A   1      41.936  27.239  29.122  1.00  0.00     0.037 A 
ATOM     45  C   UNL A   1      39.786  31.184  34.490  1.00  0.00     0.037 A 
ATOM     46  C   UNL A   1      42.785  27.194  30.282  1.00  0.00     0.049 A 
ATOM     47  C   UNL A   1      41.029  30.339  34.572  1.00  0.00     0.074 A 
ATOM     48  C   UNL A   1      43.972  26.505  30.461  1.00  0.00     0.029 A 
ATOM     49  N   UNL A   1      42.541  27.883  31.462  1.00  0.00    -0.354 N 
ATOM     50  N   UNL A   1      41.570  29.571  33.659  1.00  0.00    -0.248 NA
ATOM     51  C   UNL A   1      41.757  30.362  35.847  1.00  0.00     0.031 C 
ATOM     52  C   UNL A   1      44.429  26.750  31.760  1.00  0.00     0.029 A 
ATOM     53  C   UNL A   1      43.550  27.628  32.376  1.00  0.00     0.049 A 
ATOM     54  H   UNL A   1      41.766  28.467  31.626  1.00  0.00     0.167 HD
ATOM     55  C   UNL A   1      42.719  29.047  34.234  1.00  0.00     0.074 A 
ATOM     56  C   UNL A   1      42.801  29.591  35.573  1.00  0.00     0.031 C 
ATOM     57  C   UNL A   1      43.626  28.192  33.700  1.00  0.00     0.037 A 
BRANCH  44  58
ATOM     58  C   UNL A   1      42.296  26.395  27.930  1.00  0.00     0.064 A 
ATOM     59  C   UNL A   1      43.210  26.839  26.961  1.00  0.00     0.173 A 
ATOM     60  C   UNL A   1      41.717  25.130  27.749  1.00  0.00     0.173 A 
ATOM     61  F   UNL A   1      43.786  28.044  27.079  1.00  0.00    -0.203 F 
ATOM     62  C   UNL A   1      43.485  26.076  25.828  1.00  0.00     0.198 A 
ATOM     63  C   UNL A   1      42.024  24.353  26.634  1.00  0.00     0.198 A 
ATOM     64  F   UNL A   1      40.845  24.648  28.647  1.00  0.00    -0.203 F 
ATOM     65  F   UNL A   1      44.298  26.561  24.880  1.00  0.00    -0.200 F 
ATOM     66  C   UNL A   1      42.895  24.832  25.668  1.00  0.00     0.200 A 
ATOM     67  F   UNL A   1      41.466  23.143  26.486  1.00  0.00    -0.200 F 
ATOM     68  F   UNL A   1      43.157  24.102  24.575  1.00  0.00    -0.200 F 
ENDBRANCH  44  58
BRANCH  45  69
ATOM     69  C   UNL A   1      39.367  32.031  35.636  1.00  0.00     0.064 A 
ATOM     70  C   UNL A   1      39.861  33.337  35.767  1.00  0.00     0.173 A 
ATOM     71  C   UNL A   1      38.468  31.572  36.609  1.00  0.00     0.173 A 
ATOM     72  F   UNL A   1      40.737  33.813  34.872  1.00  0.00    -0.203 F 
ATOM     73  C   UNL A   1      39.484  34.146  36.837  1.00  0.00     0.198 A 
ATOM     74  C   UNL A   1      38.072  32.392  37.666  1.00  0.00     0.198 A 
ATOM     75  F   UNL A   1      37.964  30.332  36.526  1.00  0.00    -0.203 F 
ATOM     76  F   UNL A   1      40.003  35.376  36.958  1.00  0.00    -0.200 F 
ATOM     77  C   UNL A   1      38.586  33.675  37.782  1.00  0.00     0.200 A 
ATOM     78  F   UNL A   1      37.195  31.937  38.571  1.00  0.00    -0.200 F 
ATOM     79  F   UNL A   1      38.220  34.455  38.809  1.00  0.00    -0.200 F 
ENDBRANCH  45  69
BRANCH  57  80
ATOM     80  C   UNL A   1      44.812  27.832  34.545  1.00  0.00     0.064 A 
ATOM     81  C   UNL A   1      44.812  26.704  35.376  1.00  0.00     0.173 A 
ATOM     82  C   UNL A   1      45.981  28.609  34.489  1.00  0.00     0.173 A 
ATOM     83  F   UNL A   1      43.714  25.940  35.476  1.00  0.00    -0.203 F 
ATOM     84  C   UNL A   1      45.930  26.378  36.140  1.00  0.00     0.198 A 
ATOM     85  C   UNL A   1      47.106  28.263  35.230  1.00  0.00     0.198 A 
ATOM     86  F   UNL A   1      46.034  29.696  33.704  1.00  0.00    -0.203 F 
ATOM     87  F   UNL A   1      45.892  25.321  36.962  1.00  0.00    -0.200 F 
ATOM     88  C   UNL A   1      47.078  27.153  36.060  1.00  0.00     0.200 A 
ATOM     89  F   UNL A   1      48.219  29.005  35.143  1.00  0.00    -0.200 F 
ATOM     90  F   UNL A   1      48.155  26.833  36.790  1.00  0.00    -0.200 F 
ENDBRANCH  57  80
ENDBRANCH  31  32
ENDBRANCH  23  26
ENDBRANCH  21  22
ENDBRANCH  20  21
ENDBRANCH   1  20
TORSDOF 15
ENDMDL
MODEL 2
REMARK VINA RESULT:     -11.0      2.068      3.499
REMARK SMILES CC(C)[C@H](NC(=O)CC[NH3+])C(=O)NCCCNC(=O)c1ccc(-c2c3nc(c(-c4c(F)c(F)c(F)c(F)c4F)c4ccc([nH]4)c(-c4c(F)c(F)c(F)c(F)c4F)c4nc(c(-c5c(F)c(F)c(F)c(F)c5F)c5ccc2[nH]5)C=C4)C=C3)cc1
REMARK SMILES IDX 14 1 13 2 11 3 12 4 4 6 2 7 1 8 3 9 5 10 6 11 7 13 8 14 9 15
REMARK SMILES IDX 10 16 15 20 16 21 17 22 18 23 19 25 20 26 21 27 82 28 22 29
REMARK SMILES IDX 81 30 23 31 24 32 25 33 75 34 26 35 80 36 74 37 76 38 27 39
REMARK SMILES IDX 79 40 73 41 72 42 28 44 60 45 40 46 59 47 41 48 44 49 58 50
REMARK SMILES IDX 77 51 42 52 43 53 57 55 78 56 45 57 29 58 30 59 38 60 31 61
REMARK SMILES IDX 32 62 36 63 39 64 33 65 34 66 37 67 35 68 61 69 62 70 70 71
REMARK SMILES IDX 63 72 64 73 68 74 71 75 65 76 66 77 69 78 67 79 46 80 47 81
REMARK SMILES IDX 55 82 48 83 49 84 53 85 56 86 50 87 51 88 54 89 52 90
REMARK H PARENT 13 5 5 12 10 17 10 18 10 19 17 24 76 43 44 54
REMARK Flexibility Score: inf
ROOT
ATOM      1  C   UNL A   1      31.814  30.226  26.262  1.00  0.00     0.117 C 
ENDROOT
BRANCH   1   2
ATOM      2  N   UNL A   1      32.676  29.863  25.153  1.00  0.00    -0.354 N 
ATOM      3  C   UNL A   1      32.381  29.324  23.927  1.00  0.00     0.242 C 
ATOM      4  O   UNL A   1      33.357  29.161  23.186  1.00  0.00    -0.273 OA
ATOM      5  H   UNL A   1      33.635  30.032  25.305  1.00  0.00     0.163 HD
BRANCH   3   6
ATOM      6  C   UNL A   1      30.946  28.834  23.510  1.00  0.00     0.173 C 
BRANCH   6   7
ATOM      7  C   UNL A   1      30.662  27.306  23.575  1.00  0.00     0.015 C 
ATOM      8  C   UNL A   1      31.290  26.459  22.467  1.00  0.00     0.010 C 
ATOM      9  C   UNL A   1      31.107  26.731  24.932  1.00  0.00     0.010 C 
ENDBRANCH   6   7
BRANCH   6  10
ATOM     10  N   UNL A   1      30.391  29.476  22.308  1.00  0.00    -0.344 N 
ATOM     11  C   UNL A   1      29.333  30.290  22.066  1.00  0.00     0.226 C 
ATOM     12  H   UNL A   1      30.904  29.265  21.494  1.00  0.00     0.164 HD
ATOM     13  O   UNL A   1      29.037  30.452  20.876  1.00  0.00    -0.275 OA
BRANCH  11  14
ATOM     14  C   UNL A   1      28.532  30.990  23.145  1.00  0.00     0.161 C 
BRANCH  14  15
ATOM     15  C   UNL A   1      28.319  32.500  23.031  1.00  0.00     0.268 C 
BRANCH  15  16
ATOM     16  N   UNL A   1      29.528  33.312  23.127  1.00  0.00    -0.357 N 
ATOM     17  H   UNL A   1      30.222  32.823  23.692  1.00  0.00     0.344 HD
ATOM     18  H   UNL A   1      29.303  34.206  23.564  1.00  0.00     0.344 HD
ATOM     19  H   UNL A   1      29.903  33.476  22.194  1.00  0.00     0.344 HD
ENDBRANCH  15  16
ENDBRANCH  14  15
ENDBRANCH  11  14
ENDBRANCH   6  10
ENDBRANCH   3   6
ENDBRANCH   1   2
BRANCH   1  20
ATOM     20  C   UNL A   1      31.589  31.717  26.479  1.00  0.00     0.042 C 
BRANCH  20  21
ATOM     21  C   UNL A   1      32.682  32.425  27.272  1.00  0.00     0.118 C 
BRANCH  21  22
ATOM     22  N   UNL A   1      32.411  33.814  27.627  1.00  0.00    -0.352 N 
ATOM     23  C   UNL A   1      33.022  34.727  28.457  1.00  0.00     0.251 C 
ATOM     24  H   UNL A   1      31.618  34.179  27.172  1.00  0.00     0.163 HD
ATOM     25  O   UNL A   1      32.530  35.852  28.551  1.00  0.00    -0.269 OA
BRANCH  23  26
ATOM     26  C   UNL A   1      34.201  34.386  29.292  1.00  0.00     0.039 A 
ATOM     27  C   UNL A   1      33.998  33.849  30.571  1.00  0.00     0.014 A 
ATOM     28  C   UNL A   1      35.503  34.576  28.850  1.00  0.00     0.014 A 
ATOM     29  C   UNL A   1      35.086  33.392  31.328  1.00  0.00     0.010 A 
ATOM     30  C   UNL A   1      36.564  33.987  29.526  1.00  0.00     0.010 A 
ATOM     31  C   UNL A   1      36.375  33.382  30.775  1.00  0.00    -0.014 A 
BRANCH  31  32
ATOM     32  C   UNL A   1      37.544  32.755  31.455  1.00  0.00     0.031 A 
ATOM     33  C   UNL A   1      38.278  31.611  30.799  1.00  0.00     0.074 A 
ATOM     34  C   UNL A   1      37.869  33.119  32.712  1.00  0.00     0.049 A 
ATOM     35  N   UNL A   1      39.176  30.800  31.301  1.00  0.00    -0.248 NA
ATOM     36  C   UNL A   1      37.905  31.300  29.410  1.00  0.00     0.031 C 
ATOM     37  C   UNL A   1      37.209  34.165  33.493  1.00  0.00     0.029 A 
ATOM     38  N   UNL A   1      38.833  32.634  33.563  1.00  0.00    -0.354 N 
ATOM     39  C   UNL A   1      39.432  29.861  30.310  1.00  0.00     0.074 A 
ATOM     40  C   UNL A   1      38.542  30.158  29.209  1.00  0.00     0.031 C 
ATOM     41  C   UNL A   1      37.814  34.276  34.686  1.00  0.00     0.029 A 
ATOM     42  C   UNL A   1      38.869  33.273  34.778  1.00  0.00     0.049 A 
ATOM     43  H   UNL A   1      39.440  31.897  33.323  1.00  0.00     0.167 HD
ATOM     44  C   UNL A   1      40.349  28.862  30.298  1.00  0.00     0.037 A 
ATOM     45  C   UNL A   1      39.658  33.070  35.849  1.00  0.00     0.037 A 
ATOM     46  C   UNL A   1      41.277  28.608  31.367  1.00  0.00     0.049 A 
ATOM     47  C   UNL A   1      40.686  31.972  35.807  1.00  0.00     0.074 A 
ATOM     48  C   UNL A   1      42.294  27.672  31.427  1.00  0.00     0.029 A 
ATOM     49  N   UNL A   1      41.308  29.309  32.565  1.00  0.00    -0.354 N 
ATOM     50  N   UNL A   1      40.953  31.124  34.845  1.00  0.00    -0.248 NA
ATOM     51  C   UNL A   1      41.524  31.809  37.003  1.00  0.00     0.031 C 
ATOM     52  C   UNL A   1      42.920  27.784  32.673  1.00  0.00     0.029 A 
ATOM     53  C   UNL A   1      42.321  28.820  33.373  1.00  0.00     0.049 A 
ATOM     54  H   UNL A   1      40.700  30.045  32.804  1.00  0.00     0.167 HD
ATOM     55  C   UNL A   1      42.010  30.349  35.303  1.00  0.00     0.074 A 
ATOM     56  C   UNL A   1      42.341  30.834  36.626  1.00  0.00     0.031 C 
ATOM     57  C   UNL A   1      42.649  29.327  34.681  1.00  0.00     0.037 A 
BRANCH  44  58
ATOM     58  C   UNL A   1      40.395  27.984  29.078  1.00  0.00     0.064 A 
ATOM     59  C   UNL A   1      41.169  28.322  27.956  1.00  0.00     0.173 A 
ATOM     60  C   UNL A   1      39.652  26.795  29.023  1.00  0.00     0.173 A 
ATOM     61  F   UNL A   1      41.890  29.453  27.949  1.00  0.00    -0.203 F 
ATOM     62  C   UNL A   1      41.152  27.535  26.806  1.00  0.00     0.198 A 
ATOM     63  C   UNL A   1      39.668  25.990  27.886  1.00  0.00     0.198 A 
ATOM     64  F   UNL A   1      38.903  26.415  30.069  1.00  0.00    -0.203 F 
ATOM     65  F   UNL A   1      41.835  27.924  25.722  1.00  0.00    -0.200 F 
ATOM     66  C   UNL A   1      40.405  26.368  26.775  1.00  0.00     0.200 A 
ATOM     67  F   UNL A   1      38.959  24.853  27.861  1.00  0.00    -0.200 F 
ATOM     68  F   UNL A   1      40.386  25.614  25.666  1.00  0.00    -0.200 F 
ENDBRANCH  44  58
BRANCH  45  69
ATOM     69  C   UNL A   1      39.551  33.965  37.030  1.00  0.00     0.064 A 
ATOM     70  C   UNL A   1      40.223  35.195  37.049  1.00  0.00     0.173 A 
ATOM     71  C   UNL A   1      38.777  33.627  38.150  1.00  0.00     0.173 A 
ATOM     72  F   UNL A   1      40.990  35.553  36.009  1.00  0.00    -0.203 F 
ATOM     73  C   UNL A   1      40.140  36.047  38.148  1.00  0.00     0.198 A 
ATOM     74  C   UNL A   1      38.674  34.491  39.239  1.00  0.00     0.198 A 
ATOM     75  F   UNL A   1      38.111  32.463  38.180  1.00  0.00    -0.203 F 
ATOM     76  F   UNL A   1      40.825  37.198  38.154  1.00  0.00    -0.200 F 
ATOM     77  C   UNL A   1      39.360  35.697  39.240  1.00  0.00     0.200 A 
ATOM     78  F   UNL A   1      37.911  34.155  40.288  1.00  0.00    -0.200 F 
ATOM     79  F   UNL A   1      39.276  36.517  40.296  1.00  0.00    -0.200 F 
ENDBRANCH  45  69
BRANCH  57  80
ATOM     80  C   UNL A   1      43.805  28.699  35.404  1.00  0.00     0.064 A 
ATOM     81  C   UNL A   1      45.116  29.164  35.243  1.00  0.00     0.173 A 
ATOM     82  C   UNL A   1      43.585  27.641  36.300  1.00  0.00     0.173 A 
ATOM     83  F   UNL A   1      45.379  30.162  34.386  1.00  0.00    -0.203 F 
ATOM     84  C   UNL A   1      46.172  28.577  35.937  1.00  0.00     0.198 A 
ATOM     85  C   UNL A   1      44.639  27.077  37.014  1.00  0.00     0.198 A 
ATOM     86  F   UNL A   1      42.346  27.163  36.494  1.00  0.00    -0.203 F 
ATOM     87  F   UNL A   1      47.425  29.008  35.734  1.00  0.00    -0.200 F 
ATOM     88  C   UNL A   1      45.932  27.540  36.826  1.00  0.00     0.200 A 
ATOM     89  F   UNL A   1      44.403  26.085  37.883  1.00  0.00    -0.200 F 
ATOM     90  F   UNL A   1      46.948  26.984  37.498  1.00  0.00    -0.200 F 
ENDBRANCH  57  80
ENDBRANCH  31  32
ENDBRANCH  23  26
ENDBRANCH  21  22
ENDBRANCH  20  21
ENDBRANCH   1  20
TORSDOF 15
ENDMDL
MODEL 3
REMARK VINA RESULT:     -10.9      5.314     10.426
REMARK SMILES CC(C)[C@H](NC(=O)CC[NH3+])C(=O)NCCCNC(=O)c1ccc(-c2c3nc(c(-c4c(F)c(F)c(F)c(F)c4F)c4ccc([nH]4)c(-c4c(F)c(F)c(F)c(F)c4F)c4nc(c(-c5c(F)c(F)c(F)c(F)c5F)c5ccc2[nH]5)C=C4)C=C3)cc1
REMARK SMILES IDX 14 1 13 2 11 3 12 4 4 6 2 7 1 8 3 9 5 10 6 11 7 13 8 14 9 15
REMARK SMILES IDX 10 16 15 20 16 21 17 22 18 23 19 25 20 26 21 27 82 28 22 29
REMARK SMILES IDX 81 30 23 31 24 32 25 33 75 34 26 35 80 36 74 37 76 38 27 39
REMARK SMILES IDX 79 40 73 41 72 42 28 44 60 45 40 46 59 47 41 48 44 49 58 50
REMARK SMILES IDX 77 51 42 52 43 53 57 55 78 56 45 57 29 58 30 59 38 60 31 61
REMARK SMILES IDX 32 62 36 63 39 64 33 65 34 66 37 67 35 68 61 69 62 70 70 71
REMARK SMILES IDX 63 72 64 73 68 74 71 75 65 76 66 77 69 78 67 79 46 80 47 81
REMARK SMILES IDX 55 82 48 83 49 84 53 85 56 86 50 87 51 88 54 89 52 90
REMARK H PARENT 13 5 5 12 10 17 10 18 10 19 17 24 76 43 44 54
REMARK Flexibility Score: inf
ROOT
ATOM      1  C   UNL A   1      37.492  21.557  24.848  1.00  0.00     0.117 C 
ENDROOT
BRANCH   1   2
ATOM      2  N   UNL A   1      36.623  21.819  25.981  1.00  0.00    -0.354 N 
ATOM      3  C   UNL A   1      35.269  21.666  26.127  1.00  0.00     0.242 C 
ATOM      4  O   UNL A   1      34.834  21.954  27.247  1.00  0.00    -0.273 OA
ATOM      5  H   UNL A   1      37.084  22.166  26.780  1.00  0.00     0.163 HD
BRANCH   3   6
ATOM      6  C   UNL A   1      34.303  21.268  24.951  1.00  0.00     0.173 C 
BRANCH   6   7
ATOM      7  C   UNL A   1      33.690  22.421  24.105  1.00  0.00     0.015 C 
ATOM      8  C   UNL A   1      33.020  23.548  24.892  1.00  0.00     0.010 C 
ATOM      9  C   UNL A   1      34.757  23.043  23.186  1.00  0.00     0.010 C 
ENDBRANCH   6   7
BRANCH   6  10
ATOM     10  N   UNL A   1      33.335  20.206  25.270  1.00  0.00    -0.344 N 
ATOM     11  C   UNL A   1      33.228  18.891  24.952  1.00  0.00     0.226 C 
ATOM     12  H   UNL A   1      32.598  20.521  25.842  1.00  0.00     0.164 HD
ATOM     13  O   UNL A   1      32.144  18.357  25.217  1.00  0.00    -0.275 OA
BRANCH  11  14
ATOM     14  C   UNL A   1      34.336  18.074  24.319  1.00  0.00     0.161 C 
BRANCH  14  15
ATOM     15  C   UNL A   1      33.964  16.785  23.585  1.00  0.00     0.268 C 
BRANCH  15  16
ATOM     16  N   UNL A   1      32.954  15.960  24.242  1.00  0.00    -0.357 N 
ATOM     17  H   UNL A   1      32.568  15.295  23.571  1.00  0.00     0.344 HD
ATOM     18  H   UNL A   1      32.207  16.556  24.599  1.00  0.00     0.344 HD
ATOM     19  H   UNL A   1      33.382  15.452  25.016  1.00  0.00     0.344 HD
ENDBRANCH  15  16
ENDBRANCH  14  15
ENDBRANCH  11  14
ENDBRANCH   6  10
ENDBRANCH   3   6
ENDBRANCH   1   2
BRANCH   1  20
ATOM     20  C   UNL A   1      37.989  20.125  24.699  1.00  0.00     0.042 C 
BRANCH  20  21
ATOM     21  C   UNL A   1      38.644  19.538  25.944  1.00  0.00     0.118 C 
BRANCH  21  22
ATOM     22  N   UNL A   1      39.975  18.969  25.753  1.00  0.00    -0.352 N 
ATOM     23  C   UNL A   1      41.253  19.429  25.976  1.00  0.00     0.251 C 
ATOM     24  H   UNL A   1      39.953  18.056  25.386  1.00  0.00     0.163 HD
ATOM     25  O   UNL A   1      42.197  18.689  25.695  1.00  0.00    -0.269 OA
BRANCH  23  26
ATOM     26  C   UNL A   1      41.536  20.799  26.472  1.00  0.00     0.039 A 
ATOM     27  C   UNL A   1      42.182  20.958  27.705  1.00  0.00     0.014 A 
ATOM     28  C   UNL A   1      41.184  21.934  25.754  1.00  0.00     0.014 A 
ATOM     29  C   UNL A   1      42.583  22.230  28.135  1.00  0.00     0.010 A 
ATOM     30  C   UNL A   1      41.713  23.172  26.100  1.00  0.00     0.010 A 
ATOM     31  C   UNL A   1      42.424  23.342  27.295  1.00  0.00    -0.014 A 
BRANCH  31  32
ATOM     32  C   UNL A   1      42.979  24.687  27.615  1.00  0.00     0.031 A 
ATOM     33  C   UNL A   1      42.094  25.748  28.220  1.00  0.00     0.074 A 
ATOM     34  C   UNL A   1      44.237  25.004  27.244  1.00  0.00     0.049 A 
ATOM     35  N   UNL A   1      42.317  27.029  28.382  1.00  0.00    -0.248 NA
ATOM     36  C   UNL A   1      40.752  25.320  28.646  1.00  0.00     0.031 C 
ATOM     37  C   UNL A   1      45.186  24.101  26.593  1.00  0.00     0.029 A 
ATOM     38  N   UNL A   1      44.929  26.187  27.349  1.00  0.00    -0.354 N 
ATOM     39  C   UNL A   1      41.132  27.560  28.876  1.00  0.00     0.074 A 
ATOM     40  C   UNL A   1      40.172  26.479  28.916  1.00  0.00     0.031 C 
ATOM     41  C   UNL A   1      46.349  24.744  26.400  1.00  0.00     0.029 A 
ATOM     42  C   UNL A   1      46.212  26.121  26.862  1.00  0.00     0.049 A 
ATOM     43  H   UNL A   1      44.541  27.005  27.737  1.00  0.00     0.167 HD
ATOM     44  C   UNL A   1      40.873  28.823  29.293  1.00  0.00     0.037 A 
ATOM     45  C   UNL A   1      47.169  27.065  26.789  1.00  0.00     0.037 A 
ATOM     46  C   UNL A   1      41.847  29.881  29.312  1.00  0.00     0.049 A 
ATOM     47  C   UNL A   1      46.869  28.455  27.280  1.00  0.00     0.074 A 
ATOM     48  C   UNL A   1      41.711  31.175  29.784  1.00  0.00     0.029 A 
ATOM     49  N   UNL A   1      43.150  29.759  28.850  1.00  0.00    -0.354 N 
ATOM     50  N   UNL A   1      45.760  28.932  27.792  1.00  0.00    -0.248 NA
ATOM     51  C   UNL A   1      47.957  29.436  27.184  1.00  0.00     0.031 C 
ATOM     52  C   UNL A   1      42.921  31.846  29.576  1.00  0.00     0.029 A 
ATOM     53  C   UNL A   1      43.825  30.957  29.016  1.00  0.00     0.049 A 
ATOM     54  H   UNL A   1      43.537  28.942  28.461  1.00  0.00     0.167 HD
ATOM     55  C   UNL A   1      46.027  30.256  28.110  1.00  0.00     0.074 A 
ATOM     56  C   UNL A   1      47.405  30.505  27.742  1.00  0.00     0.031 C 
ATOM     57  C   UNL A   1      45.203  31.182  28.660  1.00  0.00     0.037 A 
BRANCH  44  58
ATOM     58  C   UNL A   1      39.479  29.116  29.776  1.00  0.00     0.064 A 
ATOM     59  C   UNL A   1      38.493  29.628  28.917  1.00  0.00     0.173 A 
ATOM     60  C   UNL A   1      39.123  28.889  31.115  1.00  0.00     0.173 A 
ATOM     61  F   UNL A   1      38.781  29.872  27.630  1.00  0.00    -0.203 F 
ATOM     62  C   UNL A   1      37.225  29.956  29.392  1.00  0.00     0.198 A 
ATOM     63  C   UNL A   1      37.842  29.183  31.577  1.00  0.00     0.198 A 
ATOM     64  F   UNL A   1      40.019  28.391  31.980  1.00  0.00    -0.203 F 
ATOM     65  F   UNL A   1      36.331  30.520  28.569  1.00  0.00    -0.200 F 
ATOM     66  C   UNL A   1      36.900  29.730  30.720  1.00  0.00     0.200 A 
ATOM     67  F   UNL A   1      37.522  28.950  32.857  1.00  0.00    -0.200 F 
ATOM     68  F   UNL A   1      35.681  30.052  31.176  1.00  0.00    -0.200 F 
ENDBRANCH  44  58
BRANCH  45  69
ATOM     69  C   UNL A   1      48.521  26.712  26.287  1.00  0.00     0.064 A 
ATOM     70  C   UNL A   1      48.866  26.961  24.950  1.00  0.00     0.173 A 
ATOM     71  C   UNL A   1      49.496  26.138  27.115  1.00  0.00     0.173 A 
ATOM     72  F   UNL A   1      47.961  27.492  24.115  1.00  0.00    -0.203 F 
ATOM     73  C   UNL A   1      50.127  26.634  24.457  1.00  0.00     0.198 A 
ATOM     74  C   UNL A   1      50.766  25.834  26.628  1.00  0.00     0.198 A 
ATOM     75  F   UNL A   1      49.217  25.885  28.403  1.00  0.00    -0.203 F 
ATOM     76  F   UNL A   1      50.415  26.847  23.166  1.00  0.00    -0.200 F 
ATOM     77  C   UNL A   1      51.078  26.077  25.298  1.00  0.00     0.200 A 
ATOM     78  F   UNL A   1      51.687  25.306  27.446  1.00  0.00    -0.200 F 
ATOM     79  F   UNL A   1      52.293  25.766  24.825  1.00  0.00    -0.200 F 
ENDBRANCH  45  69
BRANCH  57  80
ATOM     80  C   UNL A   1      45.785  32.536  28.944  1.00  0.00     0.064 A 
ATOM     81  C   UNL A   1      45.707  33.582  28.015  1.00  0.00     0.173 A 
ATOM     82  C   UNL A   1      46.392  32.798  30.183  1.00  0.00     0.173 A 
ATOM     83  F   UNL A   1      45.151  33.378  26.812  1.00  0.00    -0.203 F 
ATOM     84  C   UNL A   1      46.238  34.837  28.306  1.00  0.00     0.198 A 
ATOM     85  C   UNL A   1      46.894  34.061  30.481  1.00  0.00     0.198 A 
ATOM     86  F   UNL A   1      46.485  31.831  31.108  1.00  0.00    -0.203 F 
ATOM     87  F   UNL A   1      46.194  35.810  27.386  1.00  0.00    -0.200 F 
ATOM     88  C   UNL A   1      46.824  35.077  29.541  1.00  0.00     0.200 A 
ATOM     89  F   UNL A   1      47.448  34.295  31.679  1.00  0.00    -0.200 F 
ATOM     90  F   UNL A   1      47.327  36.287  29.821  1.00  0.00    -0.200 F 
ENDBRANCH  57  80
ENDBRANCH  31  32
ENDBRANCH  23  26
ENDBRANCH  21  22
ENDBRANCH  20  21
ENDBRANCH   1  20
TORSDOF 15
ENDMDL
