MODEL 1
REMARK VINA RESULT:     -12.3      0.000      0.000
REMARK SMILES C[NH2+][C@]1(C(=O)NCCCNC(=O)c2ccc(-c3c4nc(c(-c5c(F)c(F)c(F)c(F)c5F)c5ccc([nH]5)c(-c5c(F)c(F)c(F)c(F)c5F)c5nc(c(-c6c(F)c(F)c(F)c(F)c6F)c6ccc3[nH]6)C=C5)C=C4)cc2)CCC[C@H]1CCOC1C[C@@H](C)C[C@H](C)C1
REMARK SMILES IDX 7 1 6 2 4 3 5 4 3 6 76 7 79 8 77 9 78 10 2 11 1 12 80 15
REMARK SMILES IDX 81 16 82 17 83 18 84 19 90 20 85 21 88 22 86 23 87 24 89 25
REMARK SMILES IDX 8 26 9 27 10 28 11 29 12 31 13 32 14 33 75 34 15 35 74 36
REMARK SMILES IDX 16 37 17 38 18 39 68 40 19 41 73 42 67 43 69 44 20 45 72 46
REMARK SMILES IDX 66 47 65 48 21 50 53 51 33 52 52 53 34 54 37 55 51 56 70 57
REMARK SMILES IDX 35 58 36 59 50 61 71 62 38 63 22 64 23 65 31 66 24 67 25 68
REMARK SMILES IDX 29 69 32 70 26 71 27 72 30 73 28 74 54 75 55 76 63 77 56 78
REMARK SMILES IDX 57 79 61 80 64 81 58 82 59 83 62 84 60 85 39 86 40 87 48 88
REMARK SMILES IDX 41 89 42 90 46 91 49 92 43 93 44 94 47 95 45 96
REMARK H PARENT 6 5 2 13 2 14 10 30 69 49 37 60
REMARK Flexibility Score: inf
ROOT
ATOM      1  C   UNL A   1      32.254  27.891  27.250  1.00  0.00     0.118 C 
ENDROOT
BRANCH   1   2
ATOM      2  N   UNL A   1      31.192  26.924  27.153  1.00  0.00    -0.351 N 
ATOM      3  C   UNL A   1      30.863  25.993  26.241  1.00  0.00     0.281 C 
ATOM      4  O   UNL A   1      29.778  25.461  26.504  1.00  0.00    -0.268 OA
ATOM      5  H   UNL A   1      30.574  26.949  27.919  1.00  0.00     0.163 HD
BRANCH   3   6
ATOM      6  C   UNL A   1      31.736  25.671  24.997  1.00  0.00     0.178 C 
ATOM      7  C   UNL A   1      31.204  24.335  24.398  1.00  0.00     0.079 C 
ATOM      8  C   UNL A   1      31.794  26.706  23.734  1.00  0.00     0.063 C 
ATOM      9  C   UNL A   1      31.662  24.355  22.955  1.00  0.00     0.008 C 
ATOM     10  C   UNL A   1      31.375  25.782  22.538  1.00  0.00     0.011 C 
BRANCH   6  11
ATOM     11  N   UNL A   1      33.134  25.220  25.331  1.00  0.00    -0.336 N 
ATOM     12  C   UNL A   1      33.386  24.095  26.208  1.00  0.00     0.331 C 
ATOM     13  H   UNL A   1      33.581  24.996  24.443  1.00  0.00     0.346 HD
ATOM     14  H   UNL A   1      33.487  26.004  25.879  1.00  0.00     0.346 HD
ENDBRANCH   6  11
BRANCH   8  15
ATOM     15  C   UNL A   1      31.071  28.115  23.434  1.00  0.00     0.039 C 
BRANCH  15  16
ATOM     16  C   UNL A   1      31.166  29.209  22.279  1.00  0.00     0.161 C 
BRANCH  16  17
ATOM     17  O   UNL A   1      30.004  29.706  21.614  1.00  0.00    -0.378 OA
BRANCH  17  18
ATOM     18  C   UNL A   1      28.622  29.657  22.010  1.00  0.00     0.118 C 
ATOM     19  C   UNL A   1      28.092  30.104  23.374  1.00  0.00     0.035 C 
ATOM     20  C   UNL A   1      27.856  30.454  20.955  1.00  0.00     0.035 C 
ATOM     21  C   UNL A   1      28.330  31.572  23.679  1.00  0.00    -0.011 C 
ATOM     22  C   UNL A   1      28.404  31.869  21.019  1.00  0.00    -0.011 C 
ATOM     23  C   UNL A   1      29.623  31.669  24.474  1.00  0.00     0.008 C 
ATOM     24  C   UNL A   1      28.147  32.480  22.421  1.00  0.00     0.006 C 
ATOM     25  C   UNL A   1      27.969  32.725  19.833  1.00  0.00     0.008 C 
ENDBRANCH  17  18
ENDBRANCH  16  17
ENDBRANCH  15  16
ENDBRANCH   8  15
ENDBRANCH   3   6
ENDBRANCH   1   2
BRANCH   1  26
ATOM     26  C   UNL A   1      31.733  29.258  26.860  1.00  0.00     0.042 C 
BRANCH  26  27
ATOM     27  C   UNL A   1      32.856  30.138  26.329  1.00  0.00     0.118 C 
BRANCH  27  28
ATOM     28  N   UNL A   1      32.699  31.533  26.728  1.00  0.00    -0.352 N 
ATOM     29  C   UNL A   1      33.493  32.272  27.570  1.00  0.00     0.251 C 
ATOM     30  H   UNL A   1      31.924  32.004  26.345  1.00  0.00     0.163 HD
ATOM     31  O   UNL A   1      33.128  33.361  28.003  1.00  0.00    -0.269 OA
BRANCH  29  32
ATOM     32  C   UNL A   1      34.787  31.695  27.968  1.00  0.00     0.039 A 
ATOM     33  C   UNL A   1      35.899  32.522  28.118  1.00  0.00     0.014 A 
ATOM     34  C   UNL A   1      34.837  30.350  28.336  1.00  0.00     0.014 A 
ATOM     35  C   UNL A   1      37.042  32.011  28.732  1.00  0.00     0.010 A 
ATOM     36  C   UNL A   1      35.910  29.898  29.083  1.00  0.00     0.010 A 
ATOM     37  C   UNL A   1      37.035  30.713  29.271  1.00  0.00    -0.014 A 
BRANCH  37  38
ATOM     38  C   UNL A   1      38.200  30.160  30.008  1.00  0.00     0.031 A 
ATOM     39  C   UNL A   1      38.442  30.590  31.431  1.00  0.00     0.074 A 
ATOM     40  C   UNL A   1      39.082  29.355  29.382  1.00  0.00     0.049 A 
ATOM     41  N   UNL A   1      39.456  30.332  32.216  1.00  0.00    -0.248 NA
ATOM     42  C   UNL A   1      37.435  31.480  32.035  1.00  0.00     0.031 C 
ATOM     43  C   UNL A   1      39.005  28.930  27.982  1.00  0.00     0.029 A 
ATOM     44  N   UNL A   1      40.225  28.754  29.844  1.00  0.00    -0.354 N 
ATOM     45  C   UNL A   1      39.226  31.060  33.375  1.00  0.00     0.074 A 
ATOM     46  C   UNL A   1      38.025  31.834  33.163  1.00  0.00     0.031 C 
ATOM     47  C   UNL A   1      40.027  28.101  27.715  1.00  0.00     0.029 A 
ATOM     48  C   UNL A   1      40.856  27.969  28.909  1.00  0.00     0.049 A 
ATOM     49  H   UNL A   1      40.563  28.872  30.762  1.00  0.00     0.167 HD
ATOM     50  C   UNL A   1      39.927  31.053  34.534  1.00  0.00     0.037 A 
ATOM     51  C   UNL A   1      41.974  27.226  29.008  1.00  0.00     0.037 A 
ATOM     52  C   UNL A   1      41.077  30.224  34.763  1.00  0.00     0.049 A 
ATOM     53  C   UNL A   1      42.711  27.195  30.321  1.00  0.00     0.074 A 
ATOM     54  C   UNL A   1      41.808  30.065  35.925  1.00  0.00     0.029 A 
ATOM     55  N   UNL A   1      41.655  29.403  33.806  1.00  0.00    -0.354 N 
ATOM     56  N   UNL A   1      42.439  27.825  31.439  1.00  0.00    -0.248 NA
ATOM     57  C   UNL A   1      43.906  26.344  30.389  1.00  0.00     0.031 C 
ATOM     58  C   UNL A   1      42.855  29.176  35.660  1.00  0.00     0.029 A 
ATOM     59  C   UNL A   1      42.745  28.743  34.347  1.00  0.00     0.049 A 
ATOM     60  H   UNL A   1      41.337  29.302  32.880  1.00  0.00     0.167 HD
ATOM     61  C   UNL A   1      43.406  27.424  32.350  1.00  0.00     0.074 A 
ATOM     62  C   UNL A   1      44.265  26.485  31.658  1.00  0.00     0.031 C 
ATOM     63  C   UNL A   1      43.574  27.801  33.642  1.00  0.00     0.037 A 
BRANCH  50  64
ATOM     64  C   UNL A   1      39.447  31.949  35.639  1.00  0.00     0.064 A 
ATOM     65  C   UNL A   1      39.940  33.255  35.798  1.00  0.00     0.173 A 
ATOM     66  C   UNL A   1      38.479  31.501  36.549  1.00  0.00     0.173 A 
ATOM     67  F   UNL A   1      40.879  33.728  34.964  1.00  0.00    -0.203 F 
ATOM     68  C   UNL A   1      39.516  34.059  36.852  1.00  0.00     0.198 A 
ATOM     69  C   UNL A   1      38.029  32.322  37.580  1.00  0.00     0.198 A 
ATOM     70  F   UNL A   1      37.971  30.265  36.443  1.00  0.00    -0.203 F 
ATOM     71  F   UNL A   1      40.054  35.275  37.023  1.00  0.00    -0.200 F 
ATOM     72  C   UNL A   1      38.556  33.596  37.738  1.00  0.00     0.200 A 
ATOM     73  F   UNL A   1      37.092  31.877  38.429  1.00  0.00    -0.200 F 
ATOM     74  F   UNL A   1      38.147  34.371  38.750  1.00  0.00    -0.200 F 
ENDBRANCH  50  64
BRANCH  51  75
ATOM     75  C   UNL A   1      42.440  26.415  27.853  1.00  0.00     0.064 A 
ATOM     76  C   UNL A   1      43.402  26.920  26.965  1.00  0.00     0.173 A 
ATOM     77  C   UNL A   1      41.937  25.130  27.605  1.00  0.00     0.173 A 
ATOM     78  F   UNL A   1      43.899  28.152  27.149  1.00  0.00    -0.203 F 
ATOM     79  C   UNL A   1      43.825  26.181  25.862  1.00  0.00     0.198 A 
ATOM     80  C   UNL A   1      42.383  24.380  26.518  1.00  0.00     0.198 A 
ATOM     81  F   UNL A   1      41.023  24.596  28.427  1.00  0.00    -0.203 F 
ATOM     82  F   UNL A   1      44.711  26.708  25.005  1.00  0.00    -0.200 F 
ATOM     83  C   UNL A   1      43.320  24.910  25.642  1.00  0.00     0.200 A 
ATOM     84  F   UNL A   1      41.904  23.145  26.317  1.00  0.00    -0.200 F 
ATOM     85  F   UNL A   1      43.729  24.197  24.584  1.00  0.00    -0.200 F 
ENDBRANCH  51  75
BRANCH  63  86
ATOM     86  C   UNL A   1      44.701  27.167  34.402  1.00  0.00     0.064 A 
ATOM     87  C   UNL A   1      44.539  25.948  35.076  1.00  0.00     0.173 A 
ATOM     88  C   UNL A   1      45.971  27.763  34.411  1.00  0.00     0.173 A 
ATOM     89  F   UNL A   1      43.340  25.348  35.108  1.00  0.00    -0.203 F 
ATOM     90  C   UNL A   1      45.604  25.360  35.751  1.00  0.00     0.198 A 
ATOM     91  C   UNL A   1      47.041  27.156  35.060  1.00  0.00     0.198 A 
ATOM     92  F   UNL A   1      46.177  28.925  33.773  1.00  0.00    -0.203 F 
ATOM     93  F   UNL A   1      45.417  24.218  36.426  1.00  0.00    -0.200 F 
ATOM     94  C   UNL A   1      46.855  25.958  35.735  1.00  0.00     0.200 A 
ATOM     95  F   UNL A   1      48.252  27.727  35.031  1.00  0.00    -0.200 F 
ATOM     96  F   UNL A   1      47.882  25.384  36.377  1.00  0.00    -0.200 F 
ENDBRANCH  63  86
ENDBRANCH  37  38
ENDBRANCH  29  32
ENDBRANCH  27  28
ENDBRANCH  26  27
ENDBRANCH   1  26
TORSDOF 15
ENDMDL
MODEL 2
REMARK VINA RESULT:     -12.2      2.331      4.867
REMARK SMILES C[NH2+][C@]1(C(=O)NCCCNC(=O)c2ccc(-c3c4nc(c(-c5c(F)c(F)c(F)c(F)c5F)c5ccc([nH]5)c(-c5c(F)c(F)c(F)c(F)c5F)c5nc(c(-c6c(F)c(F)c(F)c(F)c6F)c6ccc3[nH]6)C=C5)C=C4)cc2)CCC[C@H]1CCOC1C[C@@H](C)C[C@H](C)C1
REMARK SMILES IDX 7 1 6 2 4 3 5 4 3 6 76 7 79 8 77 9 78 10 2 11 1 12 80 15
REMARK SMILES IDX 81 16 82 17 83 18 84 19 90 20 85 21 88 22 86 23 87 24 89 25
REMARK SMILES IDX 8 26 9 27 10 28 11 29 12 31 13 32 14 33 75 34 15 35 74 36
REMARK SMILES IDX 16 37 17 38 18 39 68 40 19 41 73 42 67 43 69 44 20 45 72 46
REMARK SMILES IDX 66 47 65 48 21 50 53 51 33 52 52 53 34 54 37 55 51 56 70 57
REMARK SMILES IDX 35 58 36 59 50 61 71 62 38 63 22 64 23 65 31 66 24 67 25 68
REMARK SMILES IDX 29 69 32 70 26 71 27 72 30 73 28 74 54 75 55 76 63 77 56 78
REMARK SMILES IDX 57 79 61 80 64 81 58 82 59 83 62 84 60 85 39 86 40 87 48 88
REMARK SMILES IDX 41 89 42 90 46 91 49 92 43 93 44 94 47 95 45 96
REMARK H PARENT 6 5 2 13 2 14 10 30 69 49 37 60
REMARK Flexibility Score: inf
ROOT
ATOM      1  C   UNL A   1      32.013  30.771  26.238  1.00  0.00     0.118 C 
ENDROOT
BRANCH   1   2
ATOM      2  N   UNL A   1      31.800  29.681  27.155  1.00  0.00    -0.351 N 
ATOM      3  C   UNL A   1      31.736  28.346  27.014  1.00  0.00     0.281 C 
ATOM      4  O   UNL A   1      31.403  27.792  28.067  1.00  0.00    -0.268 OA
ATOM      5  H   UNL A   1      31.674  29.978  28.085  1.00  0.00     0.163 HD
BRANCH   3   6
ATOM      6  C   UNL A   1      32.015  27.616  25.671  1.00  0.00     0.178 C 
ATOM      7  C   UNL A   1      33.507  27.880  25.308  1.00  0.00     0.079 C 
ATOM      8  C   UNL A   1      31.833  25.997  25.555  1.00  0.00     0.063 C 
ATOM      9  C   UNL A   1      33.876  26.751  24.369  1.00  0.00     0.008 C 
ATOM     10  C   UNL A   1      33.242  25.548  25.035  1.00  0.00     0.011 C 
BRANCH   6  11
ATOM     11  N   UNL A   1      31.379  28.272  24.474  1.00  0.00    -0.336 N 
ATOM     12  C   UNL A   1      30.198  27.723  23.838  1.00  0.00     0.331 C 
ATOM     13  H   UNL A   1      31.133  29.217  24.764  1.00  0.00     0.346 HD
ATOM     14  H   UNL A   1      32.090  28.143  23.755  1.00  0.00     0.346 HD
ENDBRANCH   6  11
BRANCH   8  15
ATOM     15  C   UNL A   1      31.409  24.859  26.616  1.00  0.00     0.039 C 
BRANCH  15  16
ATOM     16  C   UNL A   1      31.726  23.308  26.795  1.00  0.00     0.161 C 
BRANCH  16  17
ATOM     17  O   UNL A   1      33.064  22.820  26.904  1.00  0.00    -0.378 OA
BRANCH  17  18
ATOM     18  C   UNL A   1      33.618  21.551  26.513  1.00  0.00     0.118 C 
ATOM     19  C   UNL A   1      33.256  20.802  25.229  1.00  0.00     0.035 C 
ATOM     20  C   UNL A   1      35.134  21.742  26.501  1.00  0.00     0.035 C 
ATOM     21  C   UNL A   1      33.590  21.559  23.957  1.00  0.00    -0.011 C 
ATOM     22  C   UNL A   1      35.413  22.814  25.463  1.00  0.00    -0.011 C 
ATOM     23  C   UNL A   1      32.336  22.307  23.529  1.00  0.00     0.008 C 
ATOM     24  C   UNL A   1      34.937  22.342  24.065  1.00  0.00     0.006 C 
ATOM     25  C   UNL A   1      36.842  23.346  25.533  1.00  0.00     0.008 C 
ENDBRANCH  17  18
ENDBRANCH  16  17
ENDBRANCH  15  16
ENDBRANCH   8  15
ENDBRANCH   3   6
ENDBRANCH   1   2
BRANCH   1  26
ATOM     26  C   UNL A   1      31.576  32.070  26.882  1.00  0.00     0.042 C 
BRANCH  26  27
ATOM     27  C   UNL A   1      32.769  32.818  27.460  1.00  0.00     0.118 C 
BRANCH  27  28
ATOM     28  N   UNL A   1      32.481  34.233  27.673  1.00  0.00    -0.352 N 
ATOM     29  C   UNL A   1      32.992  35.071  28.633  1.00  0.00     0.251 C 
ATOM     30  H   UNL A   1      31.839  34.639  27.047  1.00  0.00     0.163 HD
ATOM     31  O   UNL A   1      32.500  36.175  28.848  1.00  0.00    -0.269 OA
BRANCH  29  32
ATOM     32  C   UNL A   1      34.130  34.582  29.429  1.00  0.00     0.039 A 
ATOM     33  C   UNL A   1      33.899  33.896  30.620  1.00  0.00     0.014 A 
ATOM     34  C   UNL A   1      35.415  34.683  28.894  1.00  0.00     0.014 A 
ATOM     35  C   UNL A   1      34.960  33.225  31.228  1.00  0.00     0.010 A 
ATOM     36  C   UNL A   1      36.421  33.889  29.414  1.00  0.00     0.010 A 
ATOM     37  C   UNL A   1      36.215  33.169  30.599  1.00  0.00    -0.014 A 
BRANCH  37  38
ATOM     38  C   UNL A   1      37.348  32.395  31.168  1.00  0.00     0.031 A 
ATOM     39  C   UNL A   1      37.846  32.728  32.551  1.00  0.00     0.074 A 
ATOM     40  C   UNL A   1      37.984  31.470  30.422  1.00  0.00     0.049 A 
ATOM     41  N   UNL A   1      38.890  32.270  33.190  1.00  0.00    -0.248 NA
ATOM     42  C   UNL A   1      37.100  33.761  33.292  1.00  0.00     0.031 C 
ATOM     43  C   UNL A   1      37.651  31.111  29.042  1.00  0.00     0.029 A 
ATOM     44  N   UNL A   1      39.052  30.662  30.722  1.00  0.00    -0.354 N 
ATOM     45  C   UNL A   1      38.946  32.989  34.377  1.00  0.00     0.074 A 
ATOM     46  C   UNL A   1      37.886  33.968  34.334  1.00  0.00     0.031 C 
ATOM     47  C   UNL A   1      38.465  30.125  28.632  1.00  0.00     0.029 A 
ATOM     48  C   UNL A   1      39.405  29.810  29.703  1.00  0.00     0.049 A 
ATOM     49  H   UNL A   1      39.521  30.689  31.587  1.00  0.00     0.167 HD
ATOM     50  C   UNL A   1      39.779  32.820  35.431  1.00  0.00     0.037 A 
ATOM     51  C   UNL A   1      40.377  28.880  29.645  1.00  0.00     0.037 A 
ATOM     52  C   UNL A   1      40.782  31.796  35.497  1.00  0.00     0.049 A 
ATOM     53  C   UNL A   1      41.260  28.676  30.848  1.00  0.00     0.074 A 
ATOM     54  C   UNL A   1      41.618  31.473  36.549  1.00  0.00     0.029 A 
ATOM     55  N   UNL A   1      41.076  30.918  34.463  1.00  0.00    -0.354 N 
ATOM     56  N   UNL A   1      41.252  29.306  31.998  1.00  0.00    -0.248 NA
ATOM     57  C   UNL A   1      42.283  27.627  30.747  1.00  0.00     0.031 C 
ATOM     58  C   UNL A   1      42.446  30.422  36.139  1.00  0.00     0.029 A 
ATOM     59  C   UNL A   1      42.092  30.060  34.848  1.00  0.00     0.049 A 
ATOM     60  H   UNL A   1      40.627  30.906  33.587  1.00  0.00     0.167 HD
ATOM     61  C   UNL A   1      42.242  28.712  32.767  1.00  0.00     0.074 A 
ATOM     62  C   UNL A   1      42.823  27.660  31.958  1.00  0.00     0.031 C 
ATOM     63  C   UNL A   1      42.641  29.010  34.029  1.00  0.00     0.037 A 
BRANCH  50  64
ATOM     64  C   UNL A   1      39.614  33.750  36.599  1.00  0.00     0.064 A 
ATOM     65  C   UNL A   1      38.834  33.405  37.715  1.00  0.00     0.173 A 
ATOM     66  C   UNL A   1      40.247  35.001  36.607  1.00  0.00     0.173 A 
ATOM     67  F   UNL A   1      38.194  32.226  37.752  1.00  0.00    -0.203 F 
ATOM     68  C   UNL A   1      38.658  34.293  38.771  1.00  0.00     0.198 A 
ATOM     69  C   UNL A   1      40.099  35.873  37.682  1.00  0.00     0.198 A 
ATOM     70  F   UNL A   1      41.007  35.382  35.569  1.00  0.00    -0.203 F 
ATOM     71  F   UNL A   1      37.852  33.968  39.791  1.00  0.00    -0.200 F 
ATOM     72  C   UNL A   1      39.296  35.524  38.758  1.00  0.00     0.200 A 
ATOM     73  F   UNL A   1      40.727  37.058  37.674  1.00  0.00    -0.200 F 
ATOM     74  F   UNL A   1      39.128  36.379  39.776  1.00  0.00    -0.200 F 
ENDBRANCH  50  64
BRANCH  51  75
ATOM     75  C   UNL A   1      40.536  28.039  28.430  1.00  0.00     0.064 A 
ATOM     76  C   UNL A   1      39.911  26.786  28.339  1.00  0.00     0.173 A 
ATOM     77  C   UNL A   1      41.312  28.459  27.340  1.00  0.00     0.173 A 
ATOM     78  F   UNL A   1      39.172  26.332  29.363  1.00  0.00    -0.203 F 
ATOM     79  C   UNL A   1      40.075  25.976  27.217  1.00  0.00     0.198 A 
ATOM     80  C   UNL A   1      41.453  27.660  26.206  1.00  0.00     0.198 A 
ATOM     81  F   UNL A   1      41.924  29.651  27.371  1.00  0.00    -0.203 F 
ATOM     82  F   UNL A   1      39.504  24.764  27.178  1.00  0.00    -0.200 F 
ATOM     83  C   UNL A   1      40.842  26.416  26.149  1.00  0.00     0.200 A 
ATOM     84  F   UNL A   1      42.181  28.094  25.169  1.00  0.00    -0.200 F 
ATOM     85  F   UNL A   1      40.998  25.639  25.069  1.00  0.00    -0.200 F 
ENDBRANCH  51  75
BRANCH  63  86
ATOM     86  C   UNL A   1      43.725  28.164  34.626  1.00  0.00     0.064 A 
ATOM     87  C   UNL A   1      45.075  28.536  34.550  1.00  0.00     0.173 A 
ATOM     88  C   UNL A   1      43.401  26.993  35.328  1.00  0.00     0.173 A 
ATOM     89  F   UNL A   1      45.434  29.639  33.877  1.00  0.00    -0.203 F 
ATOM     90  C   UNL A   1      46.064  27.754  35.138  1.00  0.00     0.198 A 
ATOM     91  C   UNL A   1      44.390  26.230  35.941  1.00  0.00     0.198 A 
ATOM     92  F   UNL A   1      42.123  26.600  35.436  1.00  0.00    -0.203 F 
ATOM     93  F   UNL A   1      47.352  28.103  35.015  1.00  0.00    -0.200 F 
ATOM     94  C   UNL A   1      45.721  26.607  35.839  1.00  0.00     0.200 A 
ATOM     95  F   UNL A   1      44.056  25.132  36.632  1.00  0.00    -0.200 F 
ATOM     96  F   UNL A   1      46.675  25.861  36.413  1.00  0.00    -0.200 F 
ENDBRANCH  63  86
ENDBRANCH  37  38
ENDBRANCH  29  32
ENDBRANCH  27  28
ENDBRANCH  26  27
ENDBRANCH   1  26
TORSDOF 15
ENDMDL
MODEL 3
REMARK VINA RESULT:     -12.2      1.919      4.117
REMARK SMILES C[NH2+][C@]1(C(=O)NCCCNC(=O)c2ccc(-c3c4nc(c(-c5c(F)c(F)c(F)c(F)c5F)c5ccc([nH]5)c(-c5c(F)c(F)c(F)c(F)c5F)c5nc(c(-c6c(F)c(F)c(F)c(F)c6F)c6ccc3[nH]6)C=C5)C=C4)cc2)CCC[C@H]1CCOC1C[C@@H](C)C[C@H](C)C1
REMARK SMILES IDX 7 1 6 2 4 3 5 4 3 6 76 7 79 8 77 9 78 10 2 11 1 12 80 15
REMARK SMILES IDX 81 16 82 17 83 18 84 19 90 20 85 21 88 22 86 23 87 24 89 25
REMARK SMILES IDX 8 26 9 27 10 28 11 29 12 31 13 32 14 33 75 34 15 35 74 36
REMARK SMILES IDX 16 37 17 38 18 39 68 40 19 41 73 42 67 43 69 44 20 45 72 46
REMARK SMILES IDX 66 47 65 48 21 50 53 51 33 52 52 53 34 54 37 55 51 56 70 57
REMARK SMILES IDX 35 58 36 59 50 61 71 62 38 63 22 64 23 65 31 66 24 67 25 68
REMARK SMILES IDX 29 69 32 70 26 71 27 72 30 73 28 74 54 75 55 76 63 77 56 78
REMARK SMILES IDX 57 79 61 80 64 81 58 82 59 83 62 84 60 85 39 86 40 87 48 88
REMARK SMILES IDX 41 89 42 90 46 91 49 92 43 93 44 94 47 95 45 96
REMARK H PARENT 6 5 2 13 2 14 10 30 69 49 37 60
REMARK Flexibility Score: inf
ROOT
ATOM      1  C   UNL A   1      31.962  29.969  26.732  1.00  0.00     0.118 C 
ENDROOT
BRANCH   1   2
ATOM      2  N   UNL A   1      33.045  29.539  25.886  1.00  0.00    -0.351 N 
ATOM      3  C   UNL A   1      33.107  28.873  24.720  1.00  0.00     0.281 C 
ATOM      4  O   UNL A   1      34.273  28.604  24.411  1.00  0.00    -0.268 OA
ATOM      5  H   UNL A   1      33.931  29.787  26.237  1.00  0.00     0.163 HD
BRANCH   3   6
ATOM      6  C   UNL A   1      31.850  28.471  23.900  1.00  0.00     0.178 C 
ATOM      7  C   UNL A   1      32.354  27.888  22.547  1.00  0.00     0.079 C 
ATOM      8  C   UNL A   1      30.807  27.354  24.478  1.00  0.00     0.063 C 
ATOM      9  C   UNL A   1      31.211  27.026  22.053  1.00  0.00     0.008 C 
ATOM     10  C   UNL A   1      30.774  26.307  23.312  1.00  0.00     0.011 C 
BRANCH   6  11
ATOM     11  N   UNL A   1      31.072  29.641  23.359  1.00  0.00    -0.336 N 
ATOM     12  C   UNL A   1      29.670  29.837  23.669  1.00  0.00     0.331 C 
ATOM     13  H   UNL A   1      31.555  30.478  23.681  1.00  0.00     0.346 HD
ATOM     14  H   UNL A   1      31.045  29.437  22.360  1.00  0.00     0.346 HD
ENDBRANCH   6  11
BRANCH   8  15
ATOM     15  C   UNL A   1      30.779  26.467  25.824  1.00  0.00     0.039 C 
BRANCH  15  16
ATOM     16  C   UNL A   1      31.799  25.476  26.543  1.00  0.00     0.161 C 
BRANCH  16  17
ATOM     17  O   UNL A   1      32.721  24.674  25.803  1.00  0.00    -0.378 OA
BRANCH  17  18
ATOM     18  C   UNL A   1      34.056  24.975  25.360  1.00  0.00     0.118 C 
ATOM     19  C   UNL A   1      35.305  24.191  25.766  1.00  0.00     0.035 C 
ATOM     20  C   UNL A   1      34.003  24.963  23.833  1.00  0.00     0.035 C 
ATOM     21  C   UNL A   1      35.283  22.733  25.343  1.00  0.00    -0.011 C 
ATOM     22  C   UNL A   1      33.590  23.556  23.440  1.00  0.00    -0.011 C 
ATOM     23  C   UNL A   1      34.749  21.925  26.516  1.00  0.00     0.008 C 
ATOM     24  C   UNL A   1      34.645  22.531  23.932  1.00  0.00     0.006 C 
ATOM     25  C   UNL A   1      33.194  23.445  21.970  1.00  0.00     0.008 C 
ENDBRANCH  17  18
ENDBRANCH  16  17
ENDBRANCH  15  16
ENDBRANCH   8  15
ENDBRANCH   3   6
ENDBRANCH   1   2
BRANCH   1  26
ATOM     26  C   UNL A   1      31.763  31.463  26.583  1.00  0.00     0.042 C 
BRANCH  26  27
ATOM     27  C   UNL A   1      32.880  32.232  27.273  1.00  0.00     0.118 C 
BRANCH  27  28
ATOM     28  N   UNL A   1      32.548  33.642  27.455  1.00  0.00    -0.352 N 
ATOM     29  C   UNL A   1      33.025  34.513  28.403  1.00  0.00     0.251 C 
ATOM     30  H   UNL A   1      31.898  34.016  26.816  1.00  0.00     0.163 HD
ATOM     31  O   UNL A   1      32.498  35.605  28.592  1.00  0.00    -0.269 OA
BRANCH  29  32
ATOM     32  C   UNL A   1      34.171  34.074  29.217  1.00  0.00     0.039 A 
ATOM     33  C   UNL A   1      33.956  33.309  30.362  1.00  0.00     0.014 A 
ATOM     34  C   UNL A   1      35.461  34.307  28.739  1.00  0.00     0.014 A 
ATOM     35  C   UNL A   1      35.046  32.693  30.976  1.00  0.00     0.010 A 
ATOM     36  C   UNL A   1      36.510  33.569  29.256  1.00  0.00     0.010 A 
ATOM     37  C   UNL A   1      36.323  32.771  30.394  1.00  0.00    -0.014 A 
BRANCH  37  38
ATOM     38  C   UNL A   1      37.495  32.062  30.967  1.00  0.00     0.031 A 
ATOM     39  C   UNL A   1      37.978  32.432  32.345  1.00  0.00     0.074 A 
ATOM     40  C   UNL A   1      38.175  31.163  30.228  1.00  0.00     0.049 A 
ATOM     41  N   UNL A   1      39.046  32.034  32.986  1.00  0.00    -0.248 NA
ATOM     42  C   UNL A   1      37.183  33.432  33.079  1.00  0.00     0.031 C 
ATOM     43  C   UNL A   1      37.857  30.776  28.851  1.00  0.00     0.029 A 
ATOM     44  N   UNL A   1      39.283  30.413  30.532  1.00  0.00    -0.354 N 
ATOM     45  C   UNL A   1      39.068  32.765  34.166  1.00  0.00     0.074 A 
ATOM     46  C   UNL A   1      37.959  33.689  34.118  1.00  0.00     0.031 C 
ATOM     47  C   UNL A   1      38.720  29.828  28.448  1.00  0.00     0.029 A 
ATOM     48  C   UNL A   1      39.677  29.571  29.520  1.00  0.00     0.049 A 
ATOM     49  H   UNL A   1      39.752  30.471  31.396  1.00  0.00     0.167 HD
ATOM     50  C   UNL A   1      39.910  32.648  35.220  1.00  0.00     0.037 A 
ATOM     51  C   UNL A   1      40.694  28.691  29.468  1.00  0.00     0.037 A 
ATOM     52  C   UNL A   1      40.965  31.676  35.292  1.00  0.00     0.049 A 
ATOM     53  C   UNL A   1      41.590  28.543  30.669  1.00  0.00     0.074 A 
ATOM     54  C   UNL A   1      41.819  31.406  36.344  1.00  0.00     0.029 A 
ATOM     55  N   UNL A   1      41.300  30.805  34.265  1.00  0.00    -0.354 N 
ATOM     56  N   UNL A   1      41.552  29.182  31.814  1.00  0.00    -0.248 NA
ATOM     57  C   UNL A   1      42.664  27.546  30.575  1.00  0.00     0.031 C 
ATOM     58  C   UNL A   1      42.698  30.395  35.941  1.00  0.00     0.029 A 
ATOM     59  C   UNL A   1      42.359  30.003  34.655  1.00  0.00     0.049 A 
ATOM     60  H   UNL A   1      40.851  30.762  33.390  1.00  0.00     0.167 HD
ATOM     61  C   UNL A   1      42.573  28.646  32.586  1.00  0.00     0.074 A 
ATOM     62  C   UNL A   1      43.204  27.618  31.785  1.00  0.00     0.031 C 
ATOM     63  C   UNL A   1      42.959  28.975  33.843  1.00  0.00     0.037 A 
BRANCH  50  64
ATOM     64  C   UNL A   1      39.702  33.579  36.379  1.00  0.00     0.064 A 
ATOM     65  C   UNL A   1      40.325  34.836  36.440  1.00  0.00     0.173 A 
ATOM     66  C   UNL A   1      38.865  33.213  37.444  1.00  0.00     0.173 A 
ATOM     67  F   UNL A   1      41.148  35.230  35.456  1.00  0.00    -0.203 F 
ATOM     68  C   UNL A   1      40.154  35.670  37.541  1.00  0.00     0.198 A 
ATOM     69  C   UNL A   1      38.666  34.066  38.526  1.00  0.00     0.198 A 
ATOM     70  F   UNL A   1      38.241  32.025  37.437  1.00  0.00    -0.203 F 
ATOM     71  F   UNL A   1      40.816  36.834  37.607  1.00  0.00    -0.200 F 
ATOM     72  C   UNL A   1      39.320  35.288  38.580  1.00  0.00     0.200 A 
ATOM     73  F   UNL A   1      37.850  33.700  39.525  1.00  0.00    -0.200 F 
ATOM     74  F   UNL A   1      39.154  36.093  39.638  1.00  0.00    -0.200 F 
ENDBRANCH  50  64
BRANCH  51  75
ATOM     75  C   UNL A   1      40.893  27.848  28.259  1.00  0.00     0.064 A 
ATOM     76  C   UNL A   1      40.300  26.579  28.166  1.00  0.00     0.173 A 
ATOM     77  C   UNL A   1      41.676  28.281  27.180  1.00  0.00     0.173 A 
ATOM     78  F   UNL A   1      39.557  26.113  29.180  1.00  0.00    -0.203 F 
ATOM     79  C   UNL A   1      40.502  25.769  27.051  1.00  0.00     0.198 A 
ATOM     80  C   UNL A   1      41.854  27.480  26.053  1.00  0.00     0.198 A 
ATOM     81  F   UNL A   1      42.259  29.488  27.214  1.00  0.00    -0.203 F 
ATOM     82  F   UNL A   1      39.961  24.543  27.009  1.00  0.00    -0.200 F 
ATOM     83  C   UNL A   1      41.274  26.221  25.993  1.00  0.00     0.200 A 
ATOM     84  F   UNL A   1      42.588  27.927  25.025  1.00  0.00    -0.200 F 
ATOM     85  F   UNL A   1      41.466  25.443  24.919  1.00  0.00    -0.200 F 
ENDBRANCH  51  75
BRANCH  63  86
ATOM     86  C   UNL A   1      44.086  28.190  34.445  1.00  0.00     0.064 A 
ATOM     87  C   UNL A   1      43.862  26.984  35.125  1.00  0.00     0.173 A 
ATOM     88  C   UNL A   1      45.411  28.626  34.293  1.00  0.00     0.173 A 
ATOM     89  F   UNL A   1      42.611  26.535  35.308  1.00  0.00    -0.203 F 
ATOM     90  C   UNL A   1      44.923  26.254  35.649  1.00  0.00     0.198 A 
ATOM     91  C   UNL A   1      46.472  27.877  34.791  1.00  0.00     0.198 A 
ATOM     92  F   UNL A   1      45.677  29.769  33.643  1.00  0.00    -0.203 F 
ATOM     93  F   UNL A   1      44.685  25.128  36.334  1.00  0.00    -0.200 F 
ATOM     94  C   UNL A   1      46.227  26.695  35.476  1.00  0.00     0.200 A 
ATOM     95  F   UNL A   1      47.730  28.297  34.609  1.00  0.00    -0.200 F 
ATOM     96  F   UNL A   1      47.249  25.985  35.973  1.00  0.00    -0.200 F 
ENDBRANCH  63  86
ENDBRANCH  37  38
ENDBRANCH  29  32
ENDBRANCH  27  28
ENDBRANCH  26  27
ENDBRANCH   1  26
TORSDOF 15
ENDMDL
