MODEL 1
REMARK VINA RESULT:     -13.0      0.000      0.000
REMARK SMILES O=C(NCCCNC(=O)[C@]12CCC[NH2+][C@@H]1CCN(C(=O)Cc1c(F)cccc1Cl)C2)c1ccc(-c2c3nc(c(-c4c(F)c(F)c(F)c(F)c4F)c4ccc([nH]4)c(-c4c(F)c(F)c(F)c(F)c4F)c4nc(c(-c5c(F)c(F)c(F)c(F)c5F)c5ccc2[nH]5)C=C4)C=C3)cc1
REMARK SMILES IDX 5 1 4 2 3 3 1 4 2 5 31 7 32 8 93 9 33 10 92 11 34 12 35 13
REMARK SMILES IDX 36 14 86 15 37 16 91 17 85 18 87 19 38 20 90 21 84 22 83 23
REMARK SMILES IDX 39 25 71 26 51 27 70 28 52 29 55 30 69 31 88 32 53 33 54 34
REMARK SMILES IDX 68 36 89 37 56 38 40 39 41 40 49 41 42 42 43 43 47 44 50 45
REMARK SMILES IDX 44 46 45 47 48 48 46 49 72 50 73 51 81 52 74 53 75 54 79 55
REMARK SMILES IDX 82 56 76 57 77 58 80 59 78 60 57 61 58 62 66 63 59 64 60 65
REMARK SMILES IDX 64 66 67 67 61 68 62 69 65 70 63 71 6 72 7 73 8 74 9 76
REMARK SMILES IDX 10 77 11 78 15 79 30 80 12 81 14 82 16 83 18 84 13 85 17 88
REMARK SMILES IDX 19 89 20 90 21 91 22 92 23 93 28 94 24 95 25 96 27 97 29 98
REMARK SMILES IDX 26 99
REMARK H PARENT 3 6 87 24 55 35 7 75 14 86 14 87
REMARK Flexibility Score: inf
ROOT
ATOM      1  C   UNL A   1      32.955  29.309  24.628  1.00  0.00     0.042 C 
ENDROOT
BRANCH   1   2
ATOM      2  C   UNL A   1      33.445  29.661  26.030  1.00  0.00     0.118 C 
BRANCH   2   3
ATOM      3  N   UNL A   1      33.148  31.028  26.419  1.00  0.00    -0.352 N 
ATOM      4  O   UNL A   1      33.287  32.930  27.626  1.00  0.00    -0.269 OA
ATOM      5  C   UNL A   1      33.762  31.836  27.345  1.00  0.00     0.251 C 
ATOM      6  H   UNL A   1      32.390  31.440  25.945  1.00  0.00     0.163 HD
BRANCH   5   7
ATOM      7  C   UNL A   1      34.971  31.358  28.047  1.00  0.00     0.039 A 
ATOM      8  C   UNL A   1      36.087  32.179  28.201  1.00  0.00     0.014 A 
ATOM      9  C   UNL A   1      34.973  30.067  28.584  1.00  0.00     0.014 A 
ATOM     10  C   UNL A   1      37.259  31.663  28.732  1.00  0.00     0.010 A 
ATOM     11  C   UNL A   1      36.114  29.581  29.219  1.00  0.00     0.010 A 
ATOM     12  C   UNL A   1      37.266  30.373  29.280  1.00  0.00    -0.014 A 
BRANCH  12  13
ATOM     13  C   UNL A   1      38.427  29.956  30.088  1.00  0.00     0.031 A 
ATOM     14  C   UNL A   1      38.630  30.450  31.483  1.00  0.00     0.074 A 
ATOM     15  C   UNL A   1      39.305  29.118  29.505  1.00  0.00     0.049 A 
ATOM     16  N   UNL A   1      39.594  30.167  32.320  1.00  0.00    -0.248 NA
ATOM     17  C   UNL A   1      37.633  31.396  32.006  1.00  0.00     0.031 C 
ATOM     18  C   UNL A   1      39.196  28.625  28.129  1.00  0.00     0.029 A 
ATOM     19  N   UNL A   1      40.444  28.530  29.979  1.00  0.00    -0.354 N 
ATOM     20  C   UNL A   1      39.333  30.908  33.462  1.00  0.00     0.074 A 
ATOM     21  C   UNL A   1      38.130  31.673  33.205  1.00  0.00     0.031 C 
ATOM     22  C   UNL A   1      40.205  27.782  27.881  1.00  0.00     0.029 A 
ATOM     23  C   UNL A   1      41.063  27.727  29.057  1.00  0.00     0.049 A 
ATOM     24  H   UNL A   1      40.785  28.670  30.892  1.00  0.00     0.167 HD
ATOM     25  C   UNL A   1      40.045  30.938  34.614  1.00  0.00     0.037 A 
ATOM     26  C   UNL A   1      42.214  27.038  29.139  1.00  0.00     0.037 A 
ATOM     27  C   UNL A   1      41.240  30.162  34.836  1.00  0.00     0.049 A 
ATOM     28  C   UNL A   1      42.974  27.080  30.427  1.00  0.00     0.074 A 
ATOM     29  C   UNL A   1      42.012  30.070  35.980  1.00  0.00     0.029 A 
ATOM     30  N   UNL A   1      41.841  29.349  33.882  1.00  0.00    -0.354 N 
ATOM     31  N   UNL A   1      42.688  27.735  31.526  1.00  0.00    -0.248 NA
ATOM     32  C   UNL A   1      44.209  26.292  30.494  1.00  0.00     0.031 C 
ATOM     33  C   UNL A   1      43.106  29.243  35.702  1.00  0.00     0.029 A 
ATOM     34  C   UNL A   1      42.991  28.778  34.400  1.00  0.00     0.049 A 
ATOM     35  H   UNL A   1      41.499  29.202  32.970  1.00  0.00     0.167 HD
ATOM     36  C   UNL A   1      43.701  27.438  32.421  1.00  0.00     0.074 A 
ATOM     37  C   UNL A   1      44.601  26.526  31.740  1.00  0.00     0.031 C 
ATOM     38  C   UNL A   1      43.870  27.880  33.692  1.00  0.00     0.037 A 
BRANCH  25  39
ATOM     39  C   UNL A   1      39.569  31.858  35.702  1.00  0.00     0.064 A 
ATOM     40  C   UNL A   1      38.585  31.471  36.623  1.00  0.00     0.173 A 
ATOM     41  C   UNL A   1      40.124  33.140  35.839  1.00  0.00     0.173 A 
ATOM     42  F   UNL A   1      38.016  30.259  36.533  1.00  0.00    -0.203 F 
ATOM     43  C   UNL A   1      38.150  32.343  37.620  1.00  0.00     0.198 A 
ATOM     44  C   UNL A   1      39.706  34.001  36.851  1.00  0.00     0.198 A 
ATOM     45  F   UNL A   1      41.074  33.560  34.990  1.00  0.00    -0.203 F 
ATOM     46  F   UNL A   1      37.174  31.968  38.458  1.00  0.00    -0.200 F 
ATOM     47  C   UNL A   1      38.714  33.605  37.734  1.00  0.00     0.200 A 
ATOM     48  F   UNL A   1      40.260  35.215  36.968  1.00  0.00    -0.200 F 
ATOM     49  F   UNL A   1      38.294  34.443  38.693  1.00  0.00    -0.200 F 
ENDBRANCH  25  39
BRANCH  26  50
ATOM     50  C   UNL A   1      42.673  26.269  27.957  1.00  0.00     0.064 A 
ATOM     51  C   UNL A   1      42.250  24.953  27.742  1.00  0.00     0.173 A 
ATOM     52  C   UNL A   1      43.452  26.880  26.960  1.00  0.00     0.173 A 
ATOM     53  F   UNL A   1      41.508  24.328  28.667  1.00  0.00    -0.203 F 
ATOM     54  C   UNL A   1      42.583  24.276  26.570  1.00  0.00     0.198 A 
ATOM     55  C   UNL A   1      43.761  26.212  25.779  1.00  0.00     0.198 A 
ATOM     56  F   UNL A   1      43.861  28.148  27.112  1.00  0.00    -0.203 F 
ATOM     57  F   UNL A   1      42.173  23.013  26.389  1.00  0.00    -0.200 F 
ATOM     58  C   UNL A   1      43.327  24.909  25.585  1.00  0.00     0.200 A 
ATOM     59  F   UNL A   1      44.455  26.838  24.819  1.00  0.00    -0.200 F 
ATOM     60  F   UNL A   1      43.619  24.268  24.446  1.00  0.00    -0.200 F 
ENDBRANCH  26  50
BRANCH  38  61
ATOM     61  C   UNL A   1      45.074  27.373  34.425  1.00  0.00     0.064 A 
ATOM     62  C   UNL A   1      45.020  26.199  35.191  1.00  0.00     0.173 A 
ATOM     63  C   UNL A   1      46.301  28.040  34.319  1.00  0.00     0.173 A 
ATOM     64  F   UNL A   1      43.861  25.540  35.336  1.00  0.00    -0.203 F 
ATOM     65  C   UNL A   1      46.156  25.718  35.834  1.00  0.00     0.198 A 
ATOM     66  C   UNL A   1      47.440  27.542  34.943  1.00  0.00     0.198 A 
ATOM     67  F   UNL A   1      46.399  29.166  33.596  1.00  0.00    -0.203 F 
ATOM     68  F   UNL A   1      46.078  24.612  36.588  1.00  0.00    -0.200 F 
ATOM     69  C   UNL A   1      47.366  26.384  35.703  1.00  0.00     0.200 A 
ATOM     70  F   UNL A   1      48.610  28.182  34.809  1.00  0.00    -0.200 F 
ATOM     71  F   UNL A   1      48.461  25.912  36.315  1.00  0.00    -0.200 F 
ENDBRANCH  38  61
ENDBRANCH  12  13
ENDBRANCH   5   7
ENDBRANCH   2   3
ENDBRANCH   1   2
BRANCH   1  72
ATOM     72  C   UNL A   1      33.829  28.254  23.960  1.00  0.00     0.117 C 
BRANCH  72  73
ATOM     73  N   UNL A   1      33.763  27.002  24.694  1.00  0.00    -0.355 N 
ATOM     74  C   UNL A   1      32.648  26.244  24.823  1.00  0.00     0.234 C 
ATOM     75  H   UNL A   1      34.587  26.681  25.127  1.00  0.00     0.163 HD
ATOM     76  O   UNL A   1      32.145  26.244  25.952  1.00  0.00    -0.274 OA
BRANCH  74  77
ATOM     77  C   UNL A   1      32.075  25.423  23.651  1.00  0.00     0.118 C 
ATOM     78  C   UNL A   1      31.476  26.477  22.662  1.00  0.00     0.031 C 
ATOM     79  C   UNL A   1      30.879  24.502  23.995  1.00  0.00     0.201 C 
ATOM     80  C   UNL A   1      33.218  24.639  22.972  1.00  0.00     0.142 C 
ATOM     81  C   UNL A   1      30.255  27.200  23.271  1.00  0.00     0.063 C 
ATOM     82  N   UNL A   1      29.836  25.215  24.743  1.00  0.00    -0.343 N 
ATOM     83  C   UNL A   1      31.271  23.182  24.648  1.00  0.00     0.087 C 
ATOM     84  N   UNL A   1      33.463  23.288  23.521  1.00  0.00    -0.341 N 
ATOM     85  C   UNL A   1      29.230  26.250  23.898  1.00  0.00     0.260 C 
ATOM     86  H   UNL A   1      29.116  24.553  25.035  1.00  0.00     0.346 HD
ATOM     87  H   UNL A   1      30.254  25.655  25.563  1.00  0.00     0.346 HD
ATOM     88  C   UNL A   1      32.276  22.476  23.745  1.00  0.00     0.125 C 
BRANCH  84  89
ATOM     89  C   UNL A   1      34.775  22.819  23.572  1.00  0.00     0.227 C 
ATOM     90  O   UNL A   1      35.585  23.122  22.689  1.00  0.00    -0.275 OA
BRANCH  89  91
ATOM     91  C   UNL A   1      35.238  21.935  24.735  1.00  0.00     0.140 C 
BRANCH  91  92
ATOM     92  C   UNL A   1      36.560  22.357  25.339  1.00  0.00     0.016 A 
ATOM     93  C   UNL A   1      36.688  23.668  25.827  1.00  0.00     0.128 A 
ATOM     94  C   UNL A   1      37.695  21.534  25.423  1.00  0.00     0.047 A 
ATOM     95  F   UNL A   1      35.661  24.523  25.722  1.00  0.00    -0.207 F 
ATOM     96  C   UNL A   1      37.869  24.143  26.392  1.00  0.00     0.039 A 
ATOM     97  C   UNL A   1      38.879  21.999  26.011  1.00  0.00     0.021 A 
ATOM     98  Cl  UNL A   1      37.758  19.940  24.767  1.00  0.00    -0.084 Cl
ATOM     99  C   UNL A   1      38.968  23.303  26.486  1.00  0.00     0.005 A 
ENDBRANCH  91  92
ENDBRANCH  89  91
ENDBRANCH  84  89
ENDBRANCH  74  77
ENDBRANCH  72  73
ENDBRANCH   1  72
TORSDOF 13
ENDMDL
MODEL 2
REMARK VINA RESULT:     -13.0      0.113      1.561
REMARK SMILES O=C(NCCCNC(=O)[C@]12CCC[NH2+][C@@H]1CCN(C(=O)Cc1c(F)cccc1Cl)C2)c1ccc(-c2c3nc(c(-c4c(F)c(F)c(F)c(F)c4F)c4ccc([nH]4)c(-c4c(F)c(F)c(F)c(F)c4F)c4nc(c(-c5c(F)c(F)c(F)c(F)c5F)c5ccc2[nH]5)C=C4)C=C3)cc1
REMARK SMILES IDX 5 1 4 2 3 3 1 4 2 5 31 7 32 8 93 9 33 10 92 11 34 12 35 13
REMARK SMILES IDX 36 14 86 15 37 16 91 17 85 18 87 19 38 20 90 21 84 22 83 23
REMARK SMILES IDX 39 25 71 26 51 27 70 28 52 29 55 30 69 31 88 32 53 33 54 34
REMARK SMILES IDX 68 36 89 37 56 38 40 39 41 40 49 41 42 42 43 43 47 44 50 45
REMARK SMILES IDX 44 46 45 47 48 48 46 49 72 50 73 51 81 52 74 53 75 54 79 55
REMARK SMILES IDX 82 56 76 57 77 58 80 59 78 60 57 61 58 62 66 63 59 64 60 65
REMARK SMILES IDX 64 66 67 67 61 68 62 69 65 70 63 71 6 72 7 73 8 74 9 76
REMARK SMILES IDX 10 77 11 78 15 79 30 80 12 81 14 82 16 83 18 84 13 85 17 88
REMARK SMILES IDX 19 89 20 90 21 91 22 92 23 93 28 94 24 95 25 96 27 97 29 98
REMARK SMILES IDX 26 99
REMARK H PARENT 3 6 87 24 55 35 7 75 14 86 14 87
REMARK Flexibility Score: inf
ROOT
ATOM      1  C   UNL A   1      32.940  29.297  24.730  1.00  0.00     0.042 C 
ENDROOT
BRANCH   1   2
ATOM      2  C   UNL A   1      33.449  29.669  26.120  1.00  0.00     0.118 C 
BRANCH   2   3
ATOM      3  N   UNL A   1      33.167  31.045  26.488  1.00  0.00    -0.352 N 
ATOM      4  O   UNL A   1      33.331  32.964  27.665  1.00  0.00    -0.269 OA
ATOM      5  C   UNL A   1      33.793  31.862  27.398  1.00  0.00     0.251 C 
ATOM      6  H   UNL A   1      32.410  31.457  26.012  1.00  0.00     0.163 HD
BRANCH   5   7
ATOM      7  C   UNL A   1      35.002  31.383  28.102  1.00  0.00     0.039 A 
ATOM      8  C   UNL A   1      36.121  32.202  28.251  1.00  0.00     0.014 A 
ATOM      9  C   UNL A   1      35.001  30.095  28.644  1.00  0.00     0.014 A 
ATOM     10  C   UNL A   1      37.291  31.685  28.783  1.00  0.00     0.010 A 
ATOM     11  C   UNL A   1      36.141  29.607  29.280  1.00  0.00     0.010 A 
ATOM     12  C   UNL A   1      37.296  30.397  29.336  1.00  0.00    -0.014 A 
BRANCH  12  13
ATOM     13  C   UNL A   1      38.457  29.980  30.146  1.00  0.00     0.031 A 
ATOM     14  C   UNL A   1      38.653  30.467  31.544  1.00  0.00     0.074 A 
ATOM     15  C   UNL A   1      39.339  29.150  29.560  1.00  0.00     0.049 A 
ATOM     16  N   UNL A   1      39.616  30.183  32.382  1.00  0.00    -0.248 NA
ATOM     17  C   UNL A   1      37.651  31.405  32.070  1.00  0.00     0.031 C 
ATOM     18  C   UNL A   1      39.236  28.663  28.180  1.00  0.00     0.029 A 
ATOM     19  N   UNL A   1      40.479  28.564  30.034  1.00  0.00    -0.354 N 
ATOM     20  C   UNL A   1      39.349  30.916  33.528  1.00  0.00     0.074 A 
ATOM     21  C   UNL A   1      38.144  31.677  33.272  1.00  0.00     0.031 C 
ATOM     22  C   UNL A   1      40.250  27.826  27.931  1.00  0.00     0.029 A 
ATOM     23  C   UNL A   1      41.105  27.769  29.108  1.00  0.00     0.049 A 
ATOM     24  H   UNL A   1      40.818  28.700  30.949  1.00  0.00     0.167 HD
ATOM     25  C   UNL A   1      40.058  30.942  34.682  1.00  0.00     0.037 A 
ATOM     26  C   UNL A   1      42.259  27.084  29.190  1.00  0.00     0.037 A 
ATOM     27  C   UNL A   1      41.255  30.170  34.902  1.00  0.00     0.049 A 
ATOM     28  C   UNL A   1      43.015  27.122  30.480  1.00  0.00     0.074 A 
ATOM     29  C   UNL A   1      42.025  30.075  36.048  1.00  0.00     0.029 A 
ATOM     30  N   UNL A   1      41.862  29.366  33.946  1.00  0.00    -0.354 N 
ATOM     31  N   UNL A   1      42.722  27.769  31.582  1.00  0.00    -0.248 NA
ATOM     32  C   UNL A   1      44.253  26.339  30.546  1.00  0.00     0.031 C 
ATOM     33  C   UNL A   1      43.123  29.254  35.768  1.00  0.00     0.029 A 
ATOM     34  C   UNL A   1      43.014  28.796  34.463  1.00  0.00     0.049 A 
ATOM     35  H   UNL A   1      41.523  29.222  33.032  1.00  0.00     0.167 HD
ATOM     36  C   UNL A   1      43.734  27.471  32.479  1.00  0.00     0.074 A 
ATOM     37  C   UNL A   1      44.640  26.567  31.794  1.00  0.00     0.031 C 
ATOM     38  C   UNL A   1      43.899  27.906  33.752  1.00  0.00     0.037 A 
BRANCH  25  39
ATOM     39  C   UNL A   1      39.575  31.853  35.774  1.00  0.00     0.064 A 
ATOM     40  C   UNL A   1      40.098  33.143  35.950  1.00  0.00     0.173 A 
ATOM     41  C   UNL A   1      38.556  31.437  36.645  1.00  0.00     0.173 A 
ATOM     42  F   UNL A   1      41.079  33.589  35.150  1.00  0.00    -0.203 F 
ATOM     43  C   UNL A   1      39.642  33.969  36.976  1.00  0.00     0.198 A 
ATOM     44  C   UNL A   1      38.085  32.274  37.654  1.00  0.00     0.198 A 
ATOM     45  F   UNL A   1      38.015  30.216  36.518  1.00  0.00    -0.203 F 
ATOM     46  F   UNL A   1      40.191  35.179  37.155  1.00  0.00    -0.200 F 
ATOM     47  C   UNL A   1      38.635  33.535  37.824  1.00  0.00     0.200 A 
ATOM     48  F   UNL A   1      37.103  31.858  38.465  1.00  0.00    -0.200 F 
ATOM     49  F   UNL A   1      38.198  34.331  38.811  1.00  0.00    -0.200 F 
ENDBRANCH  25  39
BRANCH  26  50
ATOM     50  C   UNL A   1      42.724  26.324  28.005  1.00  0.00     0.064 A 
ATOM     51  C   UNL A   1      42.276  25.021  27.759  1.00  0.00     0.173 A 
ATOM     52  C   UNL A   1      43.536  26.934  27.034  1.00  0.00     0.173 A 
ATOM     53  F   UNL A   1      41.503  24.399  28.660  1.00  0.00    -0.203 F 
ATOM     54  C   UNL A   1      42.618  24.356  26.584  1.00  0.00     0.198 A 
ATOM     55  C   UNL A   1      43.854  26.278  25.848  1.00  0.00     0.198 A 
ATOM     56  F   UNL A   1      43.970  28.190  27.214  1.00  0.00    -0.203 F 
ATOM     57  F   UNL A   1      42.184  23.106  26.374  1.00  0.00    -0.200 F 
ATOM     58  C   UNL A   1      43.395  24.988  25.624  1.00  0.00     0.200 A 
ATOM     59  F   UNL A   1      44.581  26.903  24.912  1.00  0.00    -0.200 F 
ATOM     60  F   UNL A   1      43.696  24.358  24.480  1.00  0.00    -0.200 F 
ENDBRANCH  26  50
BRANCH  38  61
ATOM     61  C   UNL A   1      45.102  27.400  34.486  1.00  0.00     0.064 A 
ATOM     62  C   UNL A   1      46.308  28.117  34.492  1.00  0.00     0.173 A 
ATOM     63  C   UNL A   1      45.031  26.215  35.230  1.00  0.00     0.173 A 
ATOM     64  F   UNL A   1      46.426  29.245  33.777  1.00  0.00    -0.203 F 
ATOM     65  C   UNL A   1      47.405  27.655  35.211  1.00  0.00     0.198 A 
ATOM     66  C   UNL A   1      46.123  25.770  35.968  1.00  0.00     0.198 A 
ATOM     67  F   UNL A   1      43.898  25.497  35.254  1.00  0.00    -0.203 F 
ATOM     68  F   UNL A   1      48.559  28.336  35.178  1.00  0.00    -0.200 F 
ATOM     69  C   UNL A   1      47.310  26.487  35.955  1.00  0.00     0.200 A 
ATOM     70  F   UNL A   1      46.027  24.646  36.693  1.00  0.00    -0.200 F 
ATOM     71  F   UNL A   1      48.365  26.051  36.656  1.00  0.00    -0.200 F 
ENDBRANCH  38  61
ENDBRANCH  12  13
ENDBRANCH   5   7
ENDBRANCH   2   3
ENDBRANCH   1   2
BRANCH   1  72
ATOM     72  C   UNL A   1      33.827  28.262  24.049  1.00  0.00     0.117 C 
BRANCH  72  73
ATOM     73  N   UNL A   1      33.752  26.990  24.749  1.00  0.00    -0.355 N 
ATOM     74  C   UNL A   1      32.637  26.227  24.841  1.00  0.00     0.234 C 
ATOM     75  H   UNL A   1      34.570  26.660  25.187  1.00  0.00     0.163 HD
ATOM     76  O   UNL A   1      32.115  26.197  25.961  1.00  0.00    -0.274 OA
BRANCH  74  77
ATOM     77  C   UNL A   1      32.085  25.436  23.638  1.00  0.00     0.118 C 
ATOM     78  C   UNL A   1      31.505  26.515  22.664  1.00  0.00     0.031 C 
ATOM     79  C   UNL A   1      30.882  24.508  23.937  1.00  0.00     0.201 C 
ATOM     80  C   UNL A   1      33.239  24.667  22.962  1.00  0.00     0.142 C 
ATOM     81  C   UNL A   1      30.274  27.224  23.269  1.00  0.00     0.063 C 
ATOM     82  N   UNL A   1      29.826  25.204  24.683  1.00  0.00    -0.343 N 
ATOM     83  C   UNL A   1      31.261  23.172  24.565  1.00  0.00     0.087 C 
ATOM     84  N   UNL A   1      33.473  23.303  23.481  1.00  0.00    -0.341 N 
ATOM     85  C   UNL A   1      29.237  26.260  23.853  1.00  0.00     0.260 C 
ATOM     86  H   UNL A   1      29.101  24.536  24.946  1.00  0.00     0.346 HD
ATOM     87  H   UNL A   1      30.229  25.624  25.522  1.00  0.00     0.346 HD
ATOM     88  C   UNL A   1      32.282  22.488  23.664  1.00  0.00     0.125 C 
BRANCH  84  89
ATOM     89  C   UNL A   1      34.784  22.831  23.545  1.00  0.00     0.227 C 
ATOM     90  O   UNL A   1      35.603  23.132  22.670  1.00  0.00    -0.275 OA
BRANCH  89  91
ATOM     91  C   UNL A   1      35.234  21.947  24.713  1.00  0.00     0.140 C 
BRANCH  91  92
ATOM     92  C   UNL A   1      36.557  22.358  25.322  1.00  0.00     0.016 A 
ATOM     93  C   UNL A   1      36.694  23.669  25.809  1.00  0.00     0.128 A 
ATOM     94  C   UNL A   1      37.684  21.526  25.411  1.00  0.00     0.047 A 
ATOM     95  F   UNL A   1      35.673  24.532  25.698  1.00  0.00    -0.207 F 
ATOM     96  C   UNL A   1      37.876  24.135  26.378  1.00  0.00     0.039 A 
ATOM     97  C   UNL A   1      38.870  21.982  26.003  1.00  0.00     0.021 A 
ATOM     98  Cl  UNL A   1      37.738  19.931  24.756  1.00  0.00    -0.084 Cl
ATOM     99  C   UNL A   1      38.968  23.286  26.477  1.00  0.00     0.005 A 
ENDBRANCH  91  92
ENDBRANCH  89  91
ENDBRANCH  84  89
ENDBRANCH  74  77
ENDBRANCH  72  73
ENDBRANCH   1  72
TORSDOF 13
ENDMDL
MODEL 3
REMARK VINA RESULT:     -12.9      0.468      7.346
REMARK SMILES O=C(NCCCNC(=O)[C@]12CCC[NH2+][C@@H]1CCN(C(=O)Cc1c(F)cccc1Cl)C2)c1ccc(-c2c3nc(c(-c4c(F)c(F)c(F)c(F)c4F)c4ccc([nH]4)c(-c4c(F)c(F)c(F)c(F)c4F)c4nc(c(-c5c(F)c(F)c(F)c(F)c5F)c5ccc2[nH]5)C=C4)C=C3)cc1
REMARK SMILES IDX 5 1 4 2 3 3 1 4 2 5 31 7 32 8 93 9 33 10 92 11 34 12 35 13
REMARK SMILES IDX 36 14 86 15 37 16 91 17 85 18 87 19 38 20 90 21 84 22 83 23
REMARK SMILES IDX 39 25 71 26 51 27 70 28 52 29 55 30 69 31 88 32 53 33 54 34
REMARK SMILES IDX 68 36 89 37 56 38 40 39 41 40 49 41 42 42 43 43 47 44 50 45
REMARK SMILES IDX 44 46 45 47 48 48 46 49 72 50 73 51 81 52 74 53 75 54 79 55
REMARK SMILES IDX 82 56 76 57 77 58 80 59 78 60 57 61 58 62 66 63 59 64 60 65
REMARK SMILES IDX 64 66 67 67 61 68 62 69 65 70 63 71 6 72 7 73 8 74 9 76
REMARK SMILES IDX 10 77 11 78 15 79 30 80 12 81 14 82 16 83 18 84 13 85 17 88
REMARK SMILES IDX 19 89 20 90 21 91 22 92 23 93 28 94 24 95 25 96 27 97 29 98
REMARK SMILES IDX 26 99
REMARK H PARENT 3 6 87 24 55 35 7 75 14 86 14 87
REMARK Flexibility Score: inf
ROOT
ATOM      1  C   UNL A   1      32.998  29.342  24.604  1.00  0.00     0.042 C 
ENDROOT
BRANCH   1   2
ATOM      2  C   UNL A   1      33.532  29.623  26.006  1.00  0.00     0.118 C 
BRANCH   2   3
ATOM      3  N   UNL A   1      33.214  30.956  26.487  1.00  0.00    -0.352 N 
ATOM      4  O   UNL A   1      33.347  32.784  27.803  1.00  0.00    -0.269 OA
ATOM      5  C   UNL A   1      33.840  31.724  27.438  1.00  0.00     0.251 C 
ATOM      6  H   UNL A   1      32.427  31.373  26.068  1.00  0.00     0.163 HD
BRANCH   5   7
ATOM      7  C   UNL A   1      35.087  31.240  28.067  1.00  0.00     0.039 A 
ATOM      8  C   UNL A   1      36.241  32.022  28.073  1.00  0.00     0.014 A 
ATOM      9  C   UNL A   1      35.089  29.986  28.684  1.00  0.00     0.014 A 
ATOM     10  C   UNL A   1      37.435  31.492  28.536  1.00  0.00     0.010 A 
ATOM     11  C   UNL A   1      36.262  29.492  29.251  1.00  0.00     0.010 A 
ATOM     12  C   UNL A   1      37.443  30.238  29.163  1.00  0.00    -0.014 A 
BRANCH  12  13
ATOM     13  C   UNL A   1      38.654  29.824  29.897  1.00  0.00     0.031 A 
ATOM     14  C   UNL A   1      39.625  28.847  29.320  1.00  0.00     0.074 A 
ATOM     15  C   UNL A   1      38.836  30.357  31.119  1.00  0.00     0.049 A 
ATOM     16  N   UNL A   1      40.736  28.394  29.839  1.00  0.00    -0.248 NA
ATOM     17  C   UNL A   1      39.305  28.293  27.996  1.00  0.00     0.031 C 
ATOM     18  C   UNL A   1      37.907  31.288  31.769  1.00  0.00     0.029 A 
ATOM     19  N   UNL A   1      39.847  30.210  32.027  1.00  0.00    -0.354 N 
ATOM     20  C   UNL A   1      41.243  27.491  28.917  1.00  0.00     0.074 A 
ATOM     21  C   UNL A   1      40.308  27.442  27.813  1.00  0.00     0.031 C 
ATOM     22  C   UNL A   1      38.408  31.656  32.954  1.00  0.00     0.029 A 
ATOM     23  C   UNL A   1      39.657  30.939  33.173  1.00  0.00     0.049 A 
ATOM     24  H   UNL A   1      40.633  29.637  31.874  1.00  0.00     0.167 HD
ATOM     25  C   UNL A   1      42.389  26.772  29.001  1.00  0.00     0.037 A 
ATOM     26  C   UNL A   1      40.398  31.006  34.293  1.00  0.00     0.037 A 
ATOM     27  C   UNL A   1      43.299  26.846  30.116  1.00  0.00     0.049 A 
ATOM     28  C   UNL A   1      41.663  30.211  34.353  1.00  0.00     0.074 A 
ATOM     29  C   UNL A   1      44.515  26.208  30.285  1.00  0.00     0.029 A 
ATOM     30  N   UNL A   1      43.082  27.602  31.263  1.00  0.00    -0.354 N 
ATOM     31  N   UNL A   1      42.168  29.406  33.450  1.00  0.00    -0.248 NA
ATOM     32  C   UNL A   1      42.463  30.331  35.576  1.00  0.00     0.031 C 
ATOM     33  C   UNL A   1      45.007  26.537  31.553  1.00  0.00     0.029 A 
ATOM     34  C   UNL A   1      44.125  27.421  32.157  1.00  0.00     0.049 A 
ATOM     35  H   UNL A   1      42.301  28.181  31.417  1.00  0.00     0.167 HD
ATOM     36  C   UNL A   1      43.349  28.924  33.988  1.00  0.00     0.074 A 
ATOM     37  C   UNL A   1      43.493  29.544  35.292  1.00  0.00     0.031 C 
ATOM     38  C   UNL A   1      44.233  28.047  33.451  1.00  0.00     0.037 A 
BRANCH  25  39
ATOM     39  C   UNL A   1      42.702  25.829  27.875  1.00  0.00     0.064 A 
ATOM     40  C   UNL A   1      43.508  26.207  26.791  1.00  0.00     0.173 A 
ATOM     41  C   UNL A   1      42.204  24.517  27.892  1.00  0.00     0.173 A 
ATOM     42  F   UNL A   1      44.003  27.452  26.721  1.00  0.00    -0.203 F 
ATOM     43  C   UNL A   1      43.778  25.319  25.752  1.00  0.00     0.198 A 
ATOM     44  C   UNL A   1      42.496  23.623  26.864  1.00  0.00     0.198 A 
ATOM     45  F   UNL A   1      41.433  24.098  28.907  1.00  0.00    -0.203 F 
ATOM     46  F   UNL A   1      44.511  25.719  24.704  1.00  0.00    -0.200 F 
ATOM     47  C   UNL A   1      43.275  24.027  25.792  1.00  0.00     0.200 A 
ATOM     48  F   UNL A   1      42.020  22.371  26.910  1.00  0.00    -0.200 F 
ATOM     49  F   UNL A   1      43.536  23.174  24.791  1.00  0.00    -0.200 F 
ENDBRANCH  25  39
BRANCH  26  50
ATOM     50  C   UNL A   1      39.929  31.862  35.409  1.00  0.00     0.064 A 
ATOM     51  C   UNL A   1      40.382  33.179  35.550  1.00  0.00     0.173 A 
ATOM     52  C   UNL A   1      38.929  31.414  36.288  1.00  0.00     0.173 A 
ATOM     53  F   UNL A   1      41.339  33.648  34.736  1.00  0.00    -0.203 F 
ATOM     54  C   UNL A   1      39.849  34.019  36.525  1.00  0.00     0.198 A 
ATOM     55  C   UNL A   1      38.378  32.263  37.244  1.00  0.00     0.198 A 
ATOM     56  F   UNL A   1      38.446  30.168  36.176  1.00  0.00    -0.203 F 
ATOM     57  F   UNL A   1      40.305  35.273  36.647  1.00  0.00    -0.200 F 
ATOM     58  C   UNL A   1      38.840  33.566  37.363  1.00  0.00     0.200 A 
ATOM     59  F   UNL A   1      37.384  31.829  38.031  1.00  0.00    -0.200 F 
ATOM     60  F   UNL A   1      38.307  34.385  38.278  1.00  0.00    -0.200 F 
ENDBRANCH  26  50
BRANCH  38  61
ATOM     61  C   UNL A   1      45.438  27.716  34.278  1.00  0.00     0.064 A 
ATOM     62  C   UNL A   1      46.606  28.490  34.206  1.00  0.00     0.173 A 
ATOM     63  C   UNL A   1      45.404  26.649  35.184  1.00  0.00     0.173 A 
ATOM     64  F   UNL A   1      46.689  29.509  33.338  1.00  0.00    -0.203 F 
ATOM     65  C   UNL A   1      47.703  28.195  35.009  1.00  0.00     0.198 A 
ATOM     66  C   UNL A   1      46.494  26.373  36.002  1.00  0.00     0.198 A 
ATOM     67  F   UNL A   1      44.307  25.883  35.287  1.00  0.00    -0.203 F 
ATOM     68  F   UNL A   1      48.823  28.925  34.903  1.00  0.00    -0.200 F 
ATOM     69  C   UNL A   1      47.644  27.143  35.912  1.00  0.00     0.200 A 
ATOM     70  F   UNL A   1      46.433  25.362  36.881  1.00  0.00    -0.200 F 
ATOM     71  F   UNL A   1      48.699  26.869  36.691  1.00  0.00    -0.200 F 
ENDBRANCH  38  61
ENDBRANCH  12  13
ENDBRANCH   5   7
ENDBRANCH   2   3
ENDBRANCH   1   2
BRANCH   1  72
ATOM     72  C   UNL A   1      33.794  28.253  23.893  1.00  0.00     0.117 C 
BRANCH  72  73
ATOM     73  N   UNL A   1      33.722  27.005  24.634  1.00  0.00    -0.355 N 
ATOM     74  C   UNL A   1      32.602  26.256  24.772  1.00  0.00     0.234 C 
ATOM     75  H   UNL A   1      34.545  26.681  25.065  1.00  0.00     0.163 HD
ATOM     76  O   UNL A   1      32.103  26.266  25.903  1.00  0.00    -0.274 OA
BRANCH  74  77
ATOM     77  C   UNL A   1      32.018  25.433  23.607  1.00  0.00     0.118 C 
ATOM     78  C   UNL A   1      31.421  26.486  22.615  1.00  0.00     0.031 C 
ATOM     79  C   UNL A   1      30.818  24.521  23.962  1.00  0.00     0.201 C 
ATOM     80  C   UNL A   1      33.152  24.638  22.927  1.00  0.00     0.142 C 
ATOM     81  C   UNL A   1      30.207  27.220  23.227  1.00  0.00     0.063 C 
ATOM     82  N   UNL A   1      29.783  25.245  24.711  1.00  0.00    -0.343 N 
ATOM     83  C   UNL A   1      31.205  23.202  24.619  1.00  0.00     0.087 C 
ATOM     84  N   UNL A   1      33.391  23.289  23.481  1.00  0.00    -0.341 N 
ATOM     85  C   UNL A   1      29.179  26.280  23.863  1.00  0.00     0.260 C 
ATOM     86  H   UNL A   1      29.060  24.589  25.010  1.00  0.00     0.346 HD
ATOM     87  H   UNL A   1      30.208  25.687  25.527  1.00  0.00     0.346 HD
ATOM     88  C   UNL A   1      32.201  22.486  23.716  1.00  0.00     0.125 C 
BRANCH  84  89
ATOM     89  C   UNL A   1      34.701  22.811  23.528  1.00  0.00     0.227 C 
ATOM     90  O   UNL A   1      35.506  23.099  22.636  1.00  0.00    -0.275 OA
BRANCH  89  91
ATOM     91  C   UNL A   1      35.166  21.938  24.699  1.00  0.00     0.140 C 
BRANCH  91  92
ATOM     92  C   UNL A   1      36.483  22.374  25.306  1.00  0.00     0.016 A 
ATOM     93  C   UNL A   1      36.598  23.691  25.783  1.00  0.00     0.128 A 
ATOM     94  C   UNL A   1      37.622  21.560  25.402  1.00  0.00     0.047 A 
ATOM     95  F   UNL A   1      35.565  24.537  25.666  1.00  0.00    -0.207 F 
ATOM     96  C   UNL A   1      37.773  24.179  26.350  1.00  0.00     0.039 A 
ATOM     97  C   UNL A   1      38.800  22.039  25.991  1.00  0.00     0.021 A 
ATOM     98  Cl  UNL A   1      37.701  19.962  24.759  1.00  0.00    -0.084 Cl
ATOM     99  C   UNL A   1      38.878  23.347  26.456  1.00  0.00     0.005 A 
ENDBRANCH  91  92
ENDBRANCH  89  91
ENDBRANCH  84  89
ENDBRANCH  74  77
ENDBRANCH  72  73
ENDBRANCH   1  72
TORSDOF 13
ENDMDL
