MODEL 1
REMARK VINA RESULT:     -11.2      0.000      0.000
REMARK SMILES CN(CCOCC1CC1)C(=O)N1CC[C@](C)(C(=O)NCCCNC(=O)c2ccc(-c3c4nc(c(-c5c(F)c(F)c(F)c(F)c5F)c5ccc([nH]5)c(-c5c(F)c(F)c(F)c(F)c5F)c5nc(c(-c6c(F)c(F)c(F)c(F)c6F)c6ccc3[nH]6)C=C5)C=C4)cc2)C1
REMARK SMILES IDX 12 1 13 2 14 3 15 4 16 5 89 6 10 7 11 8 2 9 1 10 3 11 4 12
REMARK SMILES IDX 5 13 6 14 7 15 8 16 9 17 17 18 18 19 19 20 20 22 21 23 22 24
REMARK SMILES IDX 23 25 24 26 25 28 26 29 27 30 88 31 28 32 87 33 29 34 30 35
REMARK SMILES IDX 31 36 81 37 32 38 86 39 80 40 82 41 33 42 85 43 79 44 78 45
REMARK SMILES IDX 34 47 66 48 46 49 65 50 47 51 50 52 64 53 83 54 48 55 49 56
REMARK SMILES IDX 63 58 84 59 51 60 35 61 36 62 44 63 37 64 38 65 42 66 45 67
REMARK SMILES IDX 39 68 40 69 43 70 41 71 67 72 68 73 76 74 69 75 70 76 74 77
REMARK SMILES IDX 77 78 71 79 72 80 75 81 73 82 52 83 53 84 61 85 54 86 55 87
REMARK SMILES IDX 59 88 62 89 56 90 57 91 60 92 58 93
REMARK H PARENT 19 21 23 27 82 46 50 57
REMARK Flexibility Score: inf
ROOT
ATOM      1  N   UNL A   1      32.813  24.893  23.429  1.00  0.00    -0.324 N 
ATOM      2  C   UNL A   1      31.916  23.858  22.945  1.00  0.00     0.122 C 
ATOM      3  C   UNL A   1      31.196  23.380  24.188  1.00  0.00     0.040 C 
ATOM      4  C   UNL A   1      32.238  23.503  25.329  1.00  0.00     0.066 C 
ATOM      5  C   UNL A   1      32.876  22.129  25.571  1.00  0.00     0.024 C 
ATOM      6  C   UNL A   1      33.240  24.539  24.779  1.00  0.00     0.138 C 
ENDROOT
BRANCH   1   7
ATOM      7  C   UNL A   1      33.042  25.979  22.622  1.00  0.00     0.319 C 
ATOM      8  O   UNL A   1      33.977  25.926  21.812  1.00  0.00    -0.248 OA
BRANCH   7   9
ATOM      9  N   UNL A   1      32.255  27.114  22.659  1.00  0.00    -0.325 N 
ATOM     10  C   UNL A   1      32.941  28.364  23.003  1.00  0.00     0.148 C 
BRANCH   9  11
ATOM     11  C   UNL A   1      30.828  27.275  22.375  1.00  0.00     0.149 C 
BRANCH  11  12
ATOM     12  C   UNL A   1      30.261  28.660  22.737  1.00  0.00     0.181 C 
BRANCH  12  13
ATOM     13  O   UNL A   1      29.898  29.451  21.610  1.00  0.00    -0.379 OA
BRANCH  13  14
ATOM     14  C   UNL A   1      28.657  30.144  21.734  1.00  0.00     0.163 C 
BRANCH  14  15
ATOM     15  C   UNL A   1      28.486  30.607  23.146  1.00  0.00     0.015 C 
ATOM     16  C   UNL A   1      28.827  32.033  23.507  1.00  0.00     0.006 C 
ATOM     17  C   UNL A   1      27.398  31.578  23.541  1.00  0.00     0.006 C 
ENDBRANCH  14  15
ENDBRANCH  13  14
ENDBRANCH  12  13
ENDBRANCH  11  12
ENDBRANCH   9  11
ENDBRANCH   7   9
ENDBRANCH   1   7
BRANCH   4  18
ATOM     18  C   UNL A   1      31.554  24.005  26.612  1.00  0.00     0.227 C 
ATOM     19  O   UNL A   1      31.183  23.228  27.497  1.00  0.00    -0.274 OA
ATOM     20  N   UNL A   1      31.349  25.323  26.876  1.00  0.00    -0.356 N 
ATOM     21  H   UNL A   1      30.861  25.484  27.716  1.00  0.00     0.163 HD
BRANCH  20  22
ATOM     22  C   UNL A   1      31.704  26.541  26.170  1.00  0.00     0.117 C 
BRANCH  22  23
ATOM     23  C   UNL A   1      32.040  27.703  27.102  1.00  0.00     0.042 C 
BRANCH  23  24
ATOM     24  C   UNL A   1      33.401  28.360  26.884  1.00  0.00     0.118 C 
BRANCH  24  25
ATOM     25  N   UNL A   1      33.368  29.799  27.082  1.00  0.00    -0.352 N 
ATOM     26  C   UNL A   1      34.278  30.636  27.680  1.00  0.00     0.251 C 
ATOM     27  H   UNL A   1      32.564  30.246  26.729  1.00  0.00     0.163 HD
ATOM     28  O   UNL A   1      33.958  31.802  27.899  1.00  0.00    -0.269 OA
BRANCH  26  29
ATOM     29  C   UNL A   1      35.628  30.169  28.083  1.00  0.00     0.039 A 
ATOM     30  C   UNL A   1      35.796  29.671  29.381  1.00  0.00     0.014 A 
ATOM     31  C   UNL A   1      36.742  30.287  27.247  1.00  0.00     0.014 A 
ATOM     32  C   UNL A   1      37.058  29.262  29.824  1.00  0.00     0.010 A 
ATOM     33  C   UNL A   1      37.990  29.814  27.666  1.00  0.00     0.010 A 
ATOM     34  C   UNL A   1      38.167  29.312  28.964  1.00  0.00    -0.014 A 
BRANCH  34  35
ATOM     35  C   UNL A   1      39.511  28.874  29.429  1.00  0.00     0.031 A 
ATOM     36  C   UNL A   1      40.285  29.705  30.418  1.00  0.00     0.074 A 
ATOM     37  C   UNL A   1      40.054  27.739  28.947  1.00  0.00     0.049 A 
ATOM     38  N   UNL A   1      41.475  29.494  30.928  1.00  0.00    -0.248 NA
ATOM     39  C   UNL A   1      39.650  30.948  30.880  1.00  0.00     0.031 C 
ATOM     40  C   UNL A   1      39.433  26.861  27.955  1.00  0.00     0.029 A 
ATOM     41  N   UNL A   1      41.254  27.131  29.225  1.00  0.00    -0.354 N 
ATOM     42  C   UNL A   1      41.733  30.582  31.754  1.00  0.00     0.074 A 
ATOM     43  C   UNL A   1      40.599  31.474  31.641  1.00  0.00     0.031 C 
ATOM     44  C   UNL A   1      40.243  25.815  27.726  1.00  0.00     0.029 A 
ATOM     45  C   UNL A   1      41.453  25.961  28.532  1.00  0.00     0.049 A 
ATOM     46  H   UNL A   1      41.910  27.498  29.861  1.00  0.00     0.167 HD
ATOM     47  C   UNL A   1      42.804  30.807  32.553  1.00  0.00     0.037 A 
ATOM     48  C   UNL A   1      42.489  25.101  28.548  1.00  0.00     0.037 A 
ATOM     49  C   UNL A   1      43.922  29.909  32.693  1.00  0.00     0.049 A 
ATOM     50  C   UNL A   1      43.660  25.366  29.456  1.00  0.00     0.074 A 
ATOM     51  C   UNL A   1      45.029  30.029  33.516  1.00  0.00     0.029 A 
ATOM     52  N   UNL A   1      44.072  28.721  31.993  1.00  0.00    -0.354 N 
ATOM     53  N   UNL A   1      43.860  26.366  30.278  1.00  0.00    -0.248 NA
ATOM     54  C   UNL A   1      44.742  24.371  29.446  1.00  0.00     0.031 C 
ATOM     55  C   UNL A   1      45.867  28.932  33.287  1.00  0.00     0.029 A 
ATOM     56  C   UNL A   1      45.260  28.106  32.355  1.00  0.00     0.049 A 
ATOM     57  H   UNL A   1      43.431  28.369  31.335  1.00  0.00     0.167 HD
ATOM     58  C   UNL A   1      45.072  26.107  30.905  1.00  0.00     0.074 A 
ATOM     59  C   UNL A   1      45.555  24.848  30.378  1.00  0.00     0.031 C 
ATOM     60  C   UNL A   1      45.725  26.846  31.835  1.00  0.00     0.037 A 
BRANCH  47  61
ATOM     61  C   UNL A   1      42.819  32.080  33.349  1.00  0.00     0.064 A 
ATOM     62  C   UNL A   1      43.400  33.254  32.844  1.00  0.00     0.173 A 
ATOM     63  C   UNL A   1      42.213  32.139  34.612  1.00  0.00     0.173 A 
ATOM     64  F   UNL A   1      44.001  33.248  31.645  1.00  0.00    -0.203 F 
ATOM     65  C   UNL A   1      43.400  34.430  33.589  1.00  0.00     0.198 A 
ATOM     66  C   UNL A   1      42.189  33.325  35.341  1.00  0.00     0.198 A 
ATOM     67  F   UNL A   1      41.636  31.049  35.137  1.00  0.00    -0.203 F 
ATOM     68  F   UNL A   1      44.004  35.526  33.107  1.00  0.00    -0.200 F 
ATOM     69  C   UNL A   1      42.790  34.468  34.833  1.00  0.00     0.200 A 
ATOM     70  F   UNL A   1      41.587  33.364  36.539  1.00  0.00    -0.200 F 
ATOM     71  F   UNL A   1      42.786  35.603  35.546  1.00  0.00    -0.200 F 
ENDBRANCH  47  61
BRANCH  48  72
ATOM     72  C   UNL A   1      42.452  23.881  27.699  1.00  0.00     0.064 A 
ATOM     73  C   UNL A   1      42.061  22.647  28.235  1.00  0.00     0.173 A 
ATOM     74  C   UNL A   1      42.812  23.923  26.345  1.00  0.00     0.173 A 
ATOM     75  F   UNL A   1      41.729  22.554  29.531  1.00  0.00    -0.203 F 
ATOM     76  C   UNL A   1      42.052  21.494  27.452  1.00  0.00     0.198 A 
ATOM     77  C   UNL A   1      42.777  22.775  25.557  1.00  0.00     0.198 A 
ATOM     78  F   UNL A   1      43.189  25.081  25.785  1.00  0.00    -0.203 F 
ATOM     79  F   UNL A   1      41.717  20.318  28.001  1.00  0.00    -0.200 F 
ATOM     80  C   UNL A   1      42.405  21.560  26.113  1.00  0.00     0.200 A 
ATOM     81  F   UNL A   1      43.105  22.844  24.260  1.00  0.00    -0.200 F 
ATOM     82  F   UNL A   1      42.393  20.452  25.360  1.00  0.00    -0.200 F 
ENDBRANCH  48  72
BRANCH  60  83
ATOM     83  C   UNL A   1      47.010  26.292  32.374  1.00  0.00     0.064 A 
ATOM     84  C   UNL A   1      48.251  26.617  31.805  1.00  0.00     0.173 A 
ATOM     85  C   UNL A   1      47.003  25.444  33.493  1.00  0.00     0.173 A 
ATOM     86  F   UNL A   1      48.310  27.411  30.726  1.00  0.00    -0.203 F 
ATOM     87  C   UNL A   1      49.433  26.088  32.318  1.00  0.00     0.198 A 
ATOM     88  C   UNL A   1      48.189  24.940  34.020  1.00  0.00     0.198 A 
ATOM     89  F   UNL A   1      45.843  25.108  34.078  1.00  0.00    -0.203 F 
ATOM     90  F   UNL A   1      50.602  26.371  31.726  1.00  0.00    -0.200 F 
ATOM     91  C   UNL A   1      49.402  25.255  33.426  1.00  0.00     0.200 A 
ATOM     92  F   UNL A   1      48.158  24.145  35.097  1.00  0.00    -0.200 F 
ATOM     93  F   UNL A   1      50.541  24.749  33.918  1.00  0.00    -0.200 F 
ENDBRANCH  60  83
ENDBRANCH  34  35
ENDBRANCH  26  29
ENDBRANCH  24  25
ENDBRANCH  23  24
ENDBRANCH  22  23
ENDBRANCH  20  22
ENDBRANCH   4  18
TORSDOF 17
ENDMDL
MODEL 2
REMARK VINA RESULT:     -11.2      2.983      5.509
REMARK SMILES CN(CCOCC1CC1)C(=O)N1CC[C@](C)(C(=O)NCCCNC(=O)c2ccc(-c3c4nc(c(-c5c(F)c(F)c(F)c(F)c5F)c5ccc([nH]5)c(-c5c(F)c(F)c(F)c(F)c5F)c5nc(c(-c6c(F)c(F)c(F)c(F)c6F)c6ccc3[nH]6)C=C5)C=C4)cc2)C1
REMARK SMILES IDX 12 1 13 2 14 3 15 4 16 5 89 6 10 7 11 8 2 9 1 10 3 11 4 12
REMARK SMILES IDX 5 13 6 14 7 15 8 16 9 17 17 18 18 19 19 20 20 22 21 23 22 24
REMARK SMILES IDX 23 25 24 26 25 28 26 29 27 30 88 31 28 32 87 33 29 34 30 35
REMARK SMILES IDX 31 36 81 37 32 38 86 39 80 40 82 41 33 42 85 43 79 44 78 45
REMARK SMILES IDX 34 47 66 48 46 49 65 50 47 51 50 52 64 53 83 54 48 55 49 56
REMARK SMILES IDX 63 58 84 59 51 60 35 61 36 62 44 63 37 64 38 65 42 66 45 67
REMARK SMILES IDX 39 68 40 69 43 70 41 71 67 72 68 73 76 74 69 75 70 76 74 77
REMARK SMILES IDX 77 78 71 79 72 80 75 81 73 82 52 83 53 84 61 85 54 86 55 87
REMARK SMILES IDX 59 88 62 89 56 90 57 91 60 92 58 93
REMARK H PARENT 19 21 23 27 82 46 50 57
REMARK Flexibility Score: inf
ROOT
ATOM      1  N   UNL A   1      31.964  25.417  25.514  1.00  0.00    -0.324 N 
ATOM      2  C   UNL A   1      30.613  25.927  25.359  1.00  0.00     0.122 C 
ATOM      3  C   UNL A   1      30.789  27.428  25.277  1.00  0.00     0.040 C 
ATOM      4  C   UNL A   1      31.996  27.743  26.197  1.00  0.00     0.066 C 
ATOM      5  C   UNL A   1      31.475  28.210  27.562  1.00  0.00     0.024 C 
ATOM      6  C   UNL A   1      32.741  26.393  26.271  1.00  0.00     0.138 C 
ENDROOT
BRANCH   1   7
ATOM      7  C   UNL A   1      32.278  24.224  24.913  1.00  0.00     0.319 C 
ATOM      8  O   UNL A   1      32.323  24.179  23.676  1.00  0.00    -0.248 OA
BRANCH   7   9
ATOM      9  N   UNL A   1      32.574  23.083  25.633  1.00  0.00    -0.325 N 
ATOM     10  C   UNL A   1      31.918  22.955  26.939  1.00  0.00     0.148 C 
BRANCH   9  11
ATOM     11  C   UNL A   1      33.427  21.946  25.280  1.00  0.00     0.149 C 
BRANCH  11  12
ATOM     12  C   UNL A   1      32.705  20.825  24.511  1.00  0.00     0.181 C 
BRANCH  12  13
ATOM     13  O   UNL A   1      32.152  19.811  25.345  1.00  0.00    -0.379 OA
BRANCH  13  14
ATOM     14  C   UNL A   1      32.775  18.533  25.233  1.00  0.00     0.163 C 
BRANCH  14  15
ATOM     15  C   UNL A   1      33.476  18.436  23.915  1.00  0.00     0.015 C 
ATOM     16  C   UNL A   1      34.068  17.116  23.482  1.00  0.00     0.006 C 
ATOM     17  C   UNL A   1      32.885  17.677  22.751  1.00  0.00     0.006 C 
ENDBRANCH  14  15
ENDBRANCH  13  14
ENDBRANCH  12  13
ENDBRANCH  11  12
ENDBRANCH   9  11
ENDBRANCH   7   9
ENDBRANCH   1   7
BRANCH   4  18
ATOM     18  C   UNL A   1      32.871  28.836  25.558  1.00  0.00     0.227 C 
ATOM     19  O   UNL A   1      34.036  28.615  25.213  1.00  0.00    -0.274 OA
ATOM     20  N   UNL A   1      32.417  30.090  25.296  1.00  0.00    -0.356 N 
ATOM     21  H   UNL A   1      33.106  30.687  24.926  1.00  0.00     0.163 HD
BRANCH  20  22
ATOM     22  C   UNL A   1      31.120  30.726  25.450  1.00  0.00     0.117 C 
BRANCH  22  23
ATOM     23  C   UNL A   1      31.113  31.831  26.504  1.00  0.00     0.042 C 
BRANCH  23  24
ATOM     24  C   UNL A   1      32.476  32.414  26.868  1.00  0.00     0.118 C 
BRANCH  24  25
ATOM     25  N   UNL A   1      32.390  33.776  27.365  1.00  0.00    -0.352 N 
ATOM     26  C   UNL A   1      33.072  34.397  28.383  1.00  0.00     0.251 C 
ATOM     27  H   UNL A   1      31.739  34.347  26.895  1.00  0.00     0.163 HD
ATOM     28  O   UNL A   1      32.705  35.511  28.750  1.00  0.00    -0.269 OA
BRANCH  26  29
ATOM     29  C   UNL A   1      34.226  33.756  29.060  1.00  0.00     0.039 A 
ATOM     30  C   UNL A   1      35.517  34.132  28.670  1.00  0.00     0.014 A 
ATOM     31  C   UNL A   1      34.068  32.738  30.007  1.00  0.00     0.014 A 
ATOM     32  C   UNL A   1      36.636  33.523  29.246  1.00  0.00     0.010 A 
ATOM     33  C   UNL A   1      35.187  32.179  30.632  1.00  0.00     0.010 A 
ATOM     34  C   UNL A   1      36.484  32.551  30.247  1.00  0.00    -0.014 A 
BRANCH  34  35
ATOM     35  C   UNL A   1      37.672  31.903  30.866  1.00  0.00     0.031 A 
ATOM     36  C   UNL A   1      38.117  32.288  32.253  1.00  0.00     0.074 A 
ATOM     37  C   UNL A   1      38.372  30.981  30.176  1.00  0.00     0.049 A 
ATOM     38  N   UNL A   1      39.135  31.846  32.950  1.00  0.00    -0.248 NA
ATOM     39  C   UNL A   1      37.329  33.324  32.938  1.00  0.00     0.031 C 
ATOM     40  C   UNL A   1      38.077  30.544  28.812  1.00  0.00     0.029 A 
ATOM     41  N   UNL A   1      39.478  30.248  30.529  1.00  0.00    -0.354 N 
ATOM     42  C   UNL A   1      39.115  32.557  34.144  1.00  0.00     0.074 A 
ATOM     43  C   UNL A   1      38.016  33.494  34.058  1.00  0.00     0.031 C 
ATOM     44  C   UNL A   1      38.963  29.602  28.451  1.00  0.00     0.029 A 
ATOM     45  C   UNL A   1      39.905  29.386  29.547  1.00  0.00     0.049 A 
ATOM     46  H   UNL A   1      39.924  30.330  31.403  1.00  0.00     0.167 HD
ATOM     47  C   UNL A   1      39.923  32.426  35.225  1.00  0.00     0.037 A 
ATOM     48  C   UNL A   1      40.935  28.519  29.532  1.00  0.00     0.037 A 
ATOM     49  C   UNL A   1      41.000  31.475  35.329  1.00  0.00     0.049 A 
ATOM     50  C   UNL A   1      41.808  28.382  30.750  1.00  0.00     0.074 A 
ATOM     51  C   UNL A   1      41.840  31.236  36.403  1.00  0.00     0.029 A 
ATOM     52  N   UNL A   1      41.383  30.603  34.321  1.00  0.00    -0.354 N 
ATOM     53  N   UNL A   1      41.738  29.016  31.894  1.00  0.00    -0.248 NA
ATOM     54  C   UNL A   1      42.894  27.394  30.677  1.00  0.00     0.031 C 
ATOM     55  C   UNL A   1      42.755  30.243  36.033  1.00  0.00     0.029 A 
ATOM     56  C   UNL A   1      42.455  29.833  34.744  1.00  0.00     0.049 A 
ATOM     57  H   UNL A   1      40.957  30.540  33.437  1.00  0.00     0.167 HD
ATOM     58  C   UNL A   1      42.748  28.485  32.686  1.00  0.00     0.074 A 
ATOM     59  C   UNL A   1      43.408  27.467  31.897  1.00  0.00     0.031 C 
ATOM     60  C   UNL A   1      43.096  28.812  33.955  1.00  0.00     0.037 A 
BRANCH  47  61
ATOM     61  C   UNL A   1      39.670  33.336  36.392  1.00  0.00     0.064 A 
ATOM     62  C   UNL A   1      40.295  34.588  36.496  1.00  0.00     0.173 A 
ATOM     63  C   UNL A   1      38.765  32.970  37.399  1.00  0.00     0.173 A 
ATOM     64  F   UNL A   1      41.178  34.980  35.565  1.00  0.00    -0.203 F 
ATOM     65  C   UNL A   1      40.047  35.425  37.580  1.00  0.00     0.198 A 
ATOM     66  C   UNL A   1      38.496  33.823  38.466  1.00  0.00     0.198 A 
ATOM     67  F   UNL A   1      38.133  31.788  37.344  1.00  0.00    -0.203 F 
ATOM     68  F   UNL A   1      40.692  36.595  37.682  1.00  0.00    -0.200 F 
ATOM     69  C   UNL A   1      39.143  35.046  38.561  1.00  0.00     0.200 A 
ATOM     70  F   UNL A   1      37.612  33.461  39.407  1.00  0.00    -0.200 F 
ATOM     71  F   UNL A   1      38.900  35.856  39.600  1.00  0.00    -0.200 F 
ENDBRANCH  47  61
BRANCH  48  72
ATOM     72  C   UNL A   1      41.179  27.679  28.330  1.00  0.00     0.064 A 
ATOM     73  C   UNL A   1      40.526  26.450  28.170  1.00  0.00     0.173 A 
ATOM     74  C   UNL A   1      42.070  28.083  27.325  1.00  0.00     0.173 A 
ATOM     75  F   UNL A   1      39.682  26.012  29.115  1.00  0.00    -0.203 F 
ATOM     76  C   UNL A   1      40.772  25.644  27.059  1.00  0.00     0.198 A 
ATOM     77  C   UNL A   1      42.294  27.289  26.203  1.00  0.00     0.198 A 
ATOM     78  F   UNL A   1      42.715  29.254  27.430  1.00  0.00    -0.203 F 
ATOM     79  F   UNL A   1      40.169  24.452  26.954  1.00  0.00    -0.200 F 
ATOM     80  C   UNL A   1      41.651  26.067  26.075  1.00  0.00     0.200 A 
ATOM     81  F   UNL A   1      43.134  27.707  25.247  1.00  0.00    -0.200 F 
ATOM     82  F   UNL A   1      41.885  25.294  25.006  1.00  0.00    -0.200 F 
ENDBRANCH  48  72
BRANCH  60  83
ATOM     83  C   UNL A   1      44.213  28.033  34.584  1.00  0.00     0.064 A 
ATOM     84  C   UNL A   1      43.978  26.835  35.276  1.00  0.00     0.173 A 
ATOM     85  C   UNL A   1      45.539  28.477  34.472  1.00  0.00     0.173 A 
ATOM     86  F   UNL A   1      42.727  26.375  35.424  1.00  0.00    -0.203 F 
ATOM     87  C   UNL A   1      45.028  26.128  35.858  1.00  0.00     0.198 A 
ATOM     88  C   UNL A   1      46.589  27.753  35.030  1.00  0.00     0.198 A 
ATOM     89  F   UNL A   1      45.818  29.614  33.815  1.00  0.00    -0.203 F 
ATOM     90  F   UNL A   1      44.775  25.013  36.558  1.00  0.00    -0.200 F 
ATOM     91  C   UNL A   1      46.331  26.584  35.730  1.00  0.00     0.200 A 
ATOM     92  F   UNL A   1      47.848  28.190  34.897  1.00  0.00    -0.200 F 
ATOM     93  F   UNL A   1      47.339  25.902  36.290  1.00  0.00    -0.200 F 
ENDBRANCH  60  83
ENDBRANCH  34  35
ENDBRANCH  26  29
ENDBRANCH  24  25
ENDBRANCH  23  24
ENDBRANCH  22  23
ENDBRANCH  20  22
ENDBRANCH   4  18
TORSDOF 17
ENDMDL
MODEL 3
REMARK VINA RESULT:     -10.9      3.016      5.580
REMARK SMILES CN(CCOCC1CC1)C(=O)N1CC[C@](C)(C(=O)NCCCNC(=O)c2ccc(-c3c4nc(c(-c5c(F)c(F)c(F)c(F)c5F)c5ccc([nH]5)c(-c5c(F)c(F)c(F)c(F)c5F)c5nc(c(-c6c(F)c(F)c(F)c(F)c6F)c6ccc3[nH]6)C=C5)C=C4)cc2)C1
REMARK SMILES IDX 12 1 13 2 14 3 15 4 16 5 89 6 10 7 11 8 2 9 1 10 3 11 4 12
REMARK SMILES IDX 5 13 6 14 7 15 8 16 9 17 17 18 18 19 19 20 20 22 21 23 22 24
REMARK SMILES IDX 23 25 24 26 25 28 26 29 27 30 88 31 28 32 87 33 29 34 30 35
REMARK SMILES IDX 31 36 81 37 32 38 86 39 80 40 82 41 33 42 85 43 79 44 78 45
REMARK SMILES IDX 34 47 66 48 46 49 65 50 47 51 50 52 64 53 83 54 48 55 49 56
REMARK SMILES IDX 63 58 84 59 51 60 35 61 36 62 44 63 37 64 38 65 42 66 45 67
REMARK SMILES IDX 39 68 40 69 43 70 41 71 67 72 68 73 76 74 69 75 70 76 74 77
REMARK SMILES IDX 77 78 71 79 72 80 75 81 73 82 52 83 53 84 61 85 54 86 55 87
REMARK SMILES IDX 59 88 62 89 56 90 57 91 60 92 58 93
REMARK H PARENT 19 21 23 27 82 46 50 57
REMARK Flexibility Score: inf
ROOT
ATOM      1  N   UNL A   1      33.134  25.388  24.834  1.00  0.00    -0.324 N 
ATOM      2  C   UNL A   1      33.619  26.432  23.948  1.00  0.00     0.122 C 
ATOM      3  C   UNL A   1      33.115  27.715  24.574  1.00  0.00     0.040 C 
ATOM      4  C   UNL A   1      31.752  27.343  25.211  1.00  0.00     0.066 C 
ATOM      5  C   UNL A   1      30.626  27.756  24.255  1.00  0.00     0.024 C 
ATOM      6  C   UNL A   1      31.854  25.814  25.390  1.00  0.00     0.138 C 
ENDROOT
BRANCH   1   7
ATOM      7  C   UNL A   1      33.930  24.288  25.034  1.00  0.00     0.319 C 
ATOM      8  O   UNL A   1      35.000  24.436  25.639  1.00  0.00    -0.248 OA
BRANCH   7   9
ATOM      9  N   UNL A   1      33.571  23.023  24.612  1.00  0.00    -0.325 N 
ATOM     10  C   UNL A   1      33.473  22.829  23.162  1.00  0.00     0.148 C 
BRANCH   9  11
ATOM     11  C   UNL A   1      33.299  21.816  25.395  1.00  0.00     0.149 C 
BRANCH  11  12
ATOM     12  C   UNL A   1      33.183  20.529  24.558  1.00  0.00     0.181 C 
BRANCH  12  13
ATOM     13  O   UNL A   1      32.150  19.647  24.989  1.00  0.00    -0.379 OA
BRANCH  13  14
ATOM     14  C   UNL A   1      32.534  18.277  25.097  1.00  0.00     0.163 C 
BRANCH  14  15
ATOM     15  C   UNL A   1      33.643  17.995  24.133  1.00  0.00     0.015 C 
ATOM     16  C   UNL A   1      34.781  17.095  24.552  1.00  0.00     0.006 C 
ATOM     17  C   UNL A   1      33.820  16.638  23.496  1.00  0.00     0.006 C 
ENDBRANCH  14  15
ENDBRANCH  13  14
ENDBRANCH  12  13
ENDBRANCH  11  12
ENDBRANCH   9  11
ENDBRANCH   7   9
ENDBRANCH   1   7
BRANCH   4  18
ATOM     18  C   UNL A   1      31.592  28.060  26.563  1.00  0.00     0.227 C 
ATOM     19  O   UNL A   1      31.660  27.449  27.634  1.00  0.00    -0.274 OA
ATOM     20  N   UNL A   1      31.407  29.402  26.673  1.00  0.00    -0.356 N 
ATOM     21  H   UNL A   1      31.279  29.706  27.601  1.00  0.00     0.163 HD
BRANCH  20  22
ATOM     22  C   UNL A   1      31.361  30.479  25.700  1.00  0.00     0.117 C 
BRANCH  22  23
ATOM     23  C   UNL A   1      31.340  31.867  26.336  1.00  0.00     0.042 C 
BRANCH  23  24
ATOM     24  C   UNL A   1      32.676  32.373  26.875  1.00  0.00     0.118 C 
BRANCH  24  25
ATOM     25  N   UNL A   1      32.599  33.731  27.383  1.00  0.00    -0.352 N 
ATOM     26  C   UNL A   1      33.274  34.335  28.416  1.00  0.00     0.251 C 
ATOM     27  H   UNL A   1      31.960  34.313  26.910  1.00  0.00     0.163 HD
ATOM     28  O   UNL A   1      32.915  35.450  28.789  1.00  0.00    -0.269 OA
BRANCH  26  29
ATOM     29  C   UNL A   1      34.412  33.675  29.102  1.00  0.00     0.039 A 
ATOM     30  C   UNL A   1      35.706  34.139  28.837  1.00  0.00     0.014 A 
ATOM     31  C   UNL A   1      34.243  32.562  29.932  1.00  0.00     0.014 A 
ATOM     32  C   UNL A   1      36.814  33.520  29.424  1.00  0.00     0.010 A 
ATOM     33  C   UNL A   1      35.344  31.987  30.572  1.00  0.00     0.010 A 
ATOM     34  C   UNL A   1      36.644  32.447  30.312  1.00  0.00    -0.014 A 
BRANCH  34  35
ATOM     35  C   UNL A   1      37.821  31.787  30.942  1.00  0.00     0.031 A 
ATOM     36  C   UNL A   1      38.246  32.155  32.339  1.00  0.00     0.074 A 
ATOM     37  C   UNL A   1      38.527  30.870  30.253  1.00  0.00     0.049 A 
ATOM     38  N   UNL A   1      39.251  31.701  33.048  1.00  0.00    -0.248 NA
ATOM     39  C   UNL A   1      37.452  33.186  33.024  1.00  0.00     0.031 C 
ATOM     40  C   UNL A   1      38.252  30.449  28.879  1.00  0.00     0.029 A 
ATOM     41  N   UNL A   1      39.625  30.128  30.614  1.00  0.00    -0.354 N 
ATOM     42  C   UNL A   1      39.216  32.398  34.249  1.00  0.00     0.074 A 
ATOM     43  C   UNL A   1      38.122  33.341  34.156  1.00  0.00     0.031 C 
ATOM     44  C   UNL A   1      39.139  29.507  28.522  1.00  0.00     0.029 A 
ATOM     45  C   UNL A   1      40.064  29.276  29.629  1.00  0.00     0.049 A 
ATOM     46  H   UNL A   1      40.058  30.199  31.495  1.00  0.00     0.167 HD
ATOM     47  C   UNL A   1      40.007  32.253  35.340  1.00  0.00     0.037 A 
ATOM     48  C   UNL A   1      41.091  28.404  29.620  1.00  0.00     0.037 A 
ATOM     49  C   UNL A   1      41.079  31.296  35.450  1.00  0.00     0.049 A 
ATOM     50  C   UNL A   1      41.944  28.250  30.850  1.00  0.00     0.074 A 
ATOM     51  C   UNL A   1      41.901  31.042  36.534  1.00  0.00     0.029 A 
ATOM     52  N   UNL A   1      41.473  30.433  34.439  1.00  0.00    -0.354 N 
ATOM     53  N   UNL A   1      41.859  28.872  32.000  1.00  0.00    -0.248 NA
ATOM     54  C   UNL A   1      43.027  27.259  30.783  1.00  0.00     0.031 C 
ATOM     55  C   UNL A   1      42.818  30.049  36.167  1.00  0.00     0.029 A 
ATOM     56  C   UNL A   1      42.536  29.655  34.869  1.00  0.00     0.049 A 
ATOM     57  H   UNL A   1      41.060  30.383  33.547  1.00  0.00     0.167 HD
ATOM     58  C   UNL A   1      42.854  28.328  32.801  1.00  0.00     0.074 A 
ATOM     59  C   UNL A   1      43.522  27.316  32.011  1.00  0.00     0.031 C 
ATOM     60  C   UNL A   1      43.185  28.640  34.079  1.00  0.00     0.037 A 
BRANCH  47  61
ATOM     61  C   UNL A   1      39.740  33.150  36.513  1.00  0.00     0.064 A 
ATOM     62  C   UNL A   1      38.800  32.810  37.499  1.00  0.00     0.173 A 
ATOM     63  C   UNL A   1      40.456  34.345  36.676  1.00  0.00     0.173 A 
ATOM     64  F   UNL A   1      38.081  31.683  37.384  1.00  0.00    -0.203 F 
ATOM     65  C   UNL A   1      38.565  33.647  38.586  1.00  0.00     0.198 A 
ATOM     66  C   UNL A   1      40.240  35.166  37.780  1.00  0.00     0.198 A 
ATOM     67  F   UNL A   1      41.372  34.713  35.769  1.00  0.00    -0.203 F 
ATOM     68  F   UNL A   1      37.628  33.325  39.488  1.00  0.00    -0.200 F 
ATOM     69  C   UNL A   1      39.290  34.821  38.730  1.00  0.00     0.200 A 
ATOM     70  F   UNL A   1      40.951  36.293  37.926  1.00  0.00    -0.200 F 
ATOM     71  F   UNL A   1      39.067  35.623  39.780  1.00  0.00    -0.200 F 
ENDBRANCH  47  61
BRANCH  48  72
ATOM     72  C   UNL A   1      41.349  27.577  28.413  1.00  0.00     0.064 A 
ATOM     73  C   UNL A   1      42.260  27.999  27.436  1.00  0.00     0.173 A 
ATOM     74  C   UNL A   1      40.688  26.357  28.209  1.00  0.00     0.173 A 
ATOM     75  F   UNL A   1      42.900  29.170  27.578  1.00  0.00    -0.203 F 
ATOM     76  C   UNL A   1      42.486  27.243  26.287  1.00  0.00     0.198 A 
ATOM     77  C   UNL A   1      40.935  25.589  27.073  1.00  0.00     0.198 A 
ATOM     78  F   UNL A   1      39.810  25.908  29.116  1.00  0.00    -0.203 F 
ATOM     79  F   UNL A   1      43.329  27.692  25.347  1.00  0.00    -0.200 F 
ATOM     80  C   UNL A   1      41.827  26.036  26.110  1.00  0.00     0.200 A 
ATOM     81  F   UNL A   1      40.307  24.417  26.911  1.00  0.00    -0.200 F 
ATOM     82  F   UNL A   1      42.046  25.307  25.007  1.00  0.00    -0.200 F 
ENDBRANCH  48  72
BRANCH  60  83
ATOM     83  C   UNL A   1      44.288  27.849  34.716  1.00  0.00     0.064 A 
ATOM     84  C   UNL A   1      45.625  28.273  34.666  1.00  0.00     0.173 A 
ATOM     85  C   UNL A   1      44.002  26.663  35.409  1.00  0.00     0.173 A 
ATOM     86  F   UNL A   1      45.953  29.391  34.002  1.00  0.00    -0.203 F 
ATOM     87  C   UNL A   1      46.636  27.522  35.259  1.00  0.00     0.198 A 
ATOM     88  C   UNL A   1      45.011  25.930  36.026  1.00  0.00     0.198 A 
ATOM     89  F   UNL A   1      42.739  26.217  35.493  1.00  0.00    -0.203 F 
ATOM     90  F   UNL A   1      47.912  27.918  35.154  1.00  0.00    -0.200 F 
ATOM     91  C   UNL A   1      46.329  26.354  35.943  1.00  0.00     0.200 A 
ATOM     92  F   UNL A   1      44.712  24.808  36.695  1.00  0.00    -0.200 F 
ATOM     93  F   UNL A   1      47.304  25.635  36.514  1.00  0.00    -0.200 F 
ENDBRANCH  60  83
ENDBRANCH  34  35
ENDBRANCH  26  29
ENDBRANCH  24  25
ENDBRANCH  23  24
ENDBRANCH  22  23
ENDBRANCH  20  22
ENDBRANCH   4  18
TORSDOF 17
ENDMDL
