MODEL 1
REMARK VINA RESULT:     -10.2      0.000      0.000
REMARK SMILES CC(C)(Cn1ccnc1C(N)=S)C(=O)NCCCNC(=O)c1ccc(-c2c3nc(c(-c4c(F)c(F)c(F)c(F)c4F)c4ccc([nH]4)c(-c4c(F)c(F)c(F)c(F)c4F)c4nc(c(-c5c(F)c(F)c(F)c(F)c5F)c5ccc2[nH]5)C=C4)C=C3)cc1
REMARK SMILES IDX 16 1 15 2 13 3 14 4 2 6 1 7 3 8 4 9 5 10 6 11 9 12 7 13 8 14
REMARK SMILES IDX 10 15 12 16 11 17 17 20 18 21 19 22 20 23 21 25 22 26 23 27
REMARK SMILES IDX 84 28 24 29 83 30 25 31 26 32 27 33 77 34 28 35 82 36 76 37
REMARK SMILES IDX 78 38 29 39 81 40 75 41 74 42 30 44 62 45 42 46 61 47 43 48
REMARK SMILES IDX 46 49 60 50 79 51 44 52 45 53 59 55 80 56 47 57 31 58 32 59
REMARK SMILES IDX 40 60 33 61 34 62 38 63 41 64 35 65 36 66 39 67 37 68 63 69
REMARK SMILES IDX 64 70 72 71 65 72 66 73 70 74 73 75 67 76 68 77 71 78 69 79
REMARK SMILES IDX 48 80 49 81 57 82 50 83 51 84 55 85 58 86 52 87 53 88 56 89
REMARK SMILES IDX 54 90
REMARK H PARENT 15 5 11 18 11 19 19 24 78 43 46 54
REMARK Flexibility Score: inf
ROOT
ATOM      1  C   UNL A   1      45.410  22.705  25.957  1.00  0.00     0.117 C 
ENDROOT
BRANCH   1   2
ATOM      2  N   UNL A   1      45.283  23.030  27.373  1.00  0.00    -0.356 N 
ATOM      3  C   UNL A   1      45.317  24.202  28.069  1.00  0.00     0.227 C 
ATOM      4  O   UNL A   1      45.080  24.117  29.278  1.00  0.00    -0.274 OA
ATOM      5  H   UNL A   1      45.145  22.241  27.945  1.00  0.00     0.163 HD
BRANCH   3   6
ATOM      6  C   UNL A   1      45.651  25.553  27.412  1.00  0.00     0.061 C 
ATOM      7  C   UNL A   1      45.450  26.691  28.443  1.00  0.00     0.023 C 
ATOM      8  C   UNL A   1      44.645  25.868  26.285  1.00  0.00     0.023 C 
BRANCH   6   9
ATOM      9  C   UNL A   1      47.112  25.541  26.896  1.00  0.00     0.140 C 
BRANCH   9  10
ATOM     10  N   UNL A   1      47.773  26.837  26.825  1.00  0.00    -0.328 N 
ATOM     11  C   UNL A   1      48.339  27.457  27.916  1.00  0.00     0.108 A 
ATOM     12  C   UNL A   1      47.921  27.689  25.740  1.00  0.00     0.167 A 
ATOM     13  C   UNL A   1      48.747  28.688  27.476  1.00  0.00     0.131 A 
ATOM     14  N   UNL A   1      48.469  28.831  26.148  1.00  0.00    -0.235 NA
BRANCH  12  15
ATOM     15  C   UNL A   1      47.517  27.567  24.351  1.00  0.00     0.140 C 
ATOM     16  S   UNL A   1      48.496  27.075  23.102  1.00  0.00    -0.057 S 
BRANCH  15  17
ATOM     17  N   UNL A   1      46.232  27.956  24.091  1.00  0.00    -0.387 N 
ATOM     18  H   UNL A   1      45.495  27.638  24.660  1.00  0.00     0.157 HD
ATOM     19  H   UNL A   1      46.044  28.556  23.332  1.00  0.00     0.157 HD
ENDBRANCH  15  17
ENDBRANCH  12  15
ENDBRANCH   9  10
ENDBRANCH   6   9
ENDBRANCH   3   6
ENDBRANCH   1   2
BRANCH   1  20
ATOM     20  C   UNL A   1      44.213  21.949  25.376  1.00  0.00     0.042 C 
BRANCH  20  21
ATOM     21  C   UNL A   1      43.015  22.839  25.138  1.00  0.00     0.118 C 
BRANCH  21  22
ATOM     22  N   UNL A   1      41.760  22.272  25.638  1.00  0.00    -0.352 N 
ATOM     23  C   UNL A   1      40.933  22.788  26.627  1.00  0.00     0.251 C 
ATOM     24  H   UNL A   1      41.469  21.427  25.226  1.00  0.00     0.163 HD
ATOM     25  O   UNL A   1      40.109  22.098  27.195  1.00  0.00    -0.269 OA
BRANCH  23  26
ATOM     26  C   UNL A   1      41.083  24.216  26.959  1.00  0.00     0.039 A 
ATOM     27  C   UNL A   1      40.520  25.232  26.185  1.00  0.00     0.014 A 
ATOM     28  C   UNL A   1      41.756  24.505  28.139  1.00  0.00     0.014 A 
ATOM     29  C   UNL A   1      40.585  26.538  26.662  1.00  0.00     0.010 A 
ATOM     30  C   UNL A   1      41.591  25.726  28.720  1.00  0.00     0.010 A 
ATOM     31  C   UNL A   1      41.110  26.768  27.945  1.00  0.00    -0.014 A 
BRANCH  31  32
ATOM     32  C   UNL A   1      41.119  28.082  28.563  1.00  0.00     0.031 A 
ATOM     33  C   UNL A   1      42.232  28.956  28.124  1.00  0.00     0.074 A 
ATOM     34  C   UNL A   1      40.081  28.532  29.300  1.00  0.00     0.049 A 
ATOM     35  N   UNL A   1      43.232  29.344  28.837  1.00  0.00    -0.248 NA
ATOM     36  C   UNL A   1      42.337  29.320  26.702  1.00  0.00     0.031 C 
ATOM     37  C   UNL A   1      38.790  27.886  29.578  1.00  0.00     0.029 A 
ATOM     38  N   UNL A   1      39.931  29.744  29.894  1.00  0.00    -0.354 N 
ATOM     39  C   UNL A   1      44.000  30.162  28.019  1.00  0.00     0.074 A 
ATOM     40  C   UNL A   1      43.506  29.967  26.680  1.00  0.00     0.031 C 
ATOM     41  C   UNL A   1      37.922  28.792  30.078  1.00  0.00     0.029 A 
ATOM     42  C   UNL A   1      38.637  30.031  30.316  1.00  0.00     0.049 A 
ATOM     43  H   UNL A   1      40.680  30.371  30.018  1.00  0.00     0.167 HD
ATOM     44  C   UNL A   1      44.823  31.102  28.560  1.00  0.00     0.037 A 
ATOM     45  C   UNL A   1      38.196  31.216  30.808  1.00  0.00     0.037 A 
ATOM     46  C   UNL A   1      45.000  30.872  29.974  1.00  0.00     0.049 A 
ATOM     47  C   UNL A   1      39.396  31.957  31.282  1.00  0.00     0.074 A 
ATOM     48  C   UNL A   1      45.512  29.830  30.722  1.00  0.00     0.029 A 
ATOM     49  N   UNL A   1      44.234  31.615  30.841  1.00  0.00    -0.354 N 
ATOM     50  N   UNL A   1      40.108  31.577  32.309  1.00  0.00    -0.248 NA
ATOM     51  C   UNL A   1      40.091  32.799  30.317  1.00  0.00     0.031 C 
ATOM     52  C   UNL A   1      44.637  29.719  31.843  1.00  0.00     0.029 A 
ATOM     53  C   UNL A   1      43.702  30.753  31.766  1.00  0.00     0.049 A 
ATOM     54  H   UNL A   1      44.092  32.589  30.806  1.00  0.00     0.167 HD
ATOM     55  C   UNL A   1      41.425  31.747  31.905  1.00  0.00     0.074 A 
ATOM     56  C   UNL A   1      41.353  32.574  30.700  1.00  0.00     0.031 C 
ATOM     57  C   UNL A   1      42.420  30.952  32.398  1.00  0.00     0.037 A 
BRANCH  44  58
ATOM     58  C   UNL A   1      45.169  32.424  27.926  1.00  0.00     0.064 A 
ATOM     59  C   UNL A   1      46.507  32.674  27.564  1.00  0.00     0.173 A 
ATOM     60  C   UNL A   1      44.321  33.551  27.945  1.00  0.00     0.173 A 
ATOM     61  F   UNL A   1      47.403  31.675  27.519  1.00  0.00    -0.203 F 
ATOM     62  C   UNL A   1      46.980  33.968  27.334  1.00  0.00     0.198 A 
ATOM     63  C   UNL A   1      44.785  34.834  27.663  1.00  0.00     0.198 A 
ATOM     64  F   UNL A   1      43.047  33.479  28.347  1.00  0.00    -0.203 F 
ATOM     65  F   UNL A   1      48.288  34.171  27.126  1.00  0.00    -0.200 F 
ATOM     66  C   UNL A   1      46.119  35.048  27.393  1.00  0.00     0.200 A 
ATOM     67  F   UNL A   1      43.938  35.871  27.740  1.00  0.00    -0.200 F 
ATOM     68  F   UNL A   1      46.581  36.296  27.241  1.00  0.00    -0.200 F 
ENDBRANCH  44  58
BRANCH  45  69
ATOM     69  C   UNL A   1      36.865  31.850  30.650  1.00  0.00     0.064 A 
ATOM     70  C   UNL A   1      35.970  31.952  31.727  1.00  0.00     0.173 A 
ATOM     71  C   UNL A   1      36.555  32.616  29.508  1.00  0.00     0.173 A 
ATOM     72  F   UNL A   1      36.212  31.293  32.869  1.00  0.00    -0.203 F 
ATOM     73  C   UNL A   1      34.848  32.790  31.675  1.00  0.00     0.198 A 
ATOM     74  C   UNL A   1      35.435  33.448  29.455  1.00  0.00     0.198 A 
ATOM     75  F   UNL A   1      37.386  32.648  28.456  1.00  0.00    -0.203 F 
ATOM     76  F   UNL A   1      34.050  32.906  32.745  1.00  0.00    -0.200 F 
ATOM     77  C   UNL A   1      34.588  33.544  30.543  1.00  0.00     0.200 A 
ATOM     78  F   UNL A   1      35.216  34.202  28.369  1.00  0.00    -0.200 F 
ATOM     79  F   UNL A   1      33.551  34.394  30.517  1.00  0.00    -0.200 F 
ENDBRANCH  45  69
BRANCH  57  80
ATOM     80  C   UNL A   1      42.090  30.046  33.555  1.00  0.00     0.064 A 
ATOM     81  C   UNL A   1      41.662  28.713  33.416  1.00  0.00     0.173 A 
ATOM     82  C   UNL A   1      42.371  30.496  34.850  1.00  0.00     0.173 A 
ATOM     83  F   UNL A   1      41.472  28.170  32.209  1.00  0.00    -0.203 F 
ATOM     84  C   UNL A   1      41.480  27.889  34.526  1.00  0.00     0.198 A 
ATOM     85  C   UNL A   1      42.225  29.661  35.955  1.00  0.00     0.198 A 
ATOM     86  F   UNL A   1      42.841  31.739  35.041  1.00  0.00    -0.203 F 
ATOM     87  F   UNL A   1      41.061  26.625  34.364  1.00  0.00    -0.200 F 
ATOM     88  C   UNL A   1      41.769  28.363  35.794  1.00  0.00     0.200 A 
ATOM     89  F   UNL A   1      42.557  30.108  37.173  1.00  0.00    -0.200 F 
ATOM     90  F   UNL A   1      41.635  27.559  36.858  1.00  0.00    -0.200 F 
ENDBRANCH  57  80
ENDBRANCH  31  32
ENDBRANCH  23  26
ENDBRANCH  21  22
ENDBRANCH  20  21
ENDBRANCH   1  20
TORSDOF 14
ENDMDL
MODEL 2
REMARK VINA RESULT:     -10.0      3.872      6.530
REMARK SMILES CC(C)(Cn1ccnc1C(N)=S)C(=O)NCCCNC(=O)c1ccc(-c2c3nc(c(-c4c(F)c(F)c(F)c(F)c4F)c4ccc([nH]4)c(-c4c(F)c(F)c(F)c(F)c4F)c4nc(c(-c5c(F)c(F)c(F)c(F)c5F)c5ccc2[nH]5)C=C4)C=C3)cc1
REMARK SMILES IDX 16 1 15 2 13 3 14 4 2 6 1 7 3 8 4 9 5 10 6 11 9 12 7 13 8 14
REMARK SMILES IDX 10 15 12 16 11 17 17 20 18 21 19 22 20 23 21 25 22 26 23 27
REMARK SMILES IDX 84 28 24 29 83 30 25 31 26 32 27 33 77 34 28 35 82 36 76 37
REMARK SMILES IDX 78 38 29 39 81 40 75 41 74 42 30 44 62 45 42 46 61 47 43 48
REMARK SMILES IDX 46 49 60 50 79 51 44 52 45 53 59 55 80 56 47 57 31 58 32 59
REMARK SMILES IDX 40 60 33 61 34 62 38 63 41 64 35 65 36 66 39 67 37 68 63 69
REMARK SMILES IDX 64 70 72 71 65 72 66 73 70 74 73 75 67 76 68 77 71 78 69 79
REMARK SMILES IDX 48 80 49 81 57 82 50 83 51 84 55 85 58 86 52 87 53 88 56 89
REMARK SMILES IDX 54 90
REMARK H PARENT 15 5 11 18 11 19 19 24 78 43 46 54
REMARK Flexibility Score: inf
ROOT
ATOM      1  C   UNL A   1      37.740  22.695  25.550  1.00  0.00     0.117 C 
ENDROOT
BRANCH   1   2
ATOM      2  N   UNL A   1      36.662  22.149  26.368  1.00  0.00    -0.356 N 
ATOM      3  C   UNL A   1      35.304  22.154  26.248  1.00  0.00     0.227 C 
ATOM      4  O   UNL A   1      34.686  21.504  27.096  1.00  0.00    -0.274 OA
ATOM      5  H   UNL A   1      36.981  21.681  27.173  1.00  0.00     0.163 HD
BRANCH   3   6
ATOM      6  C   UNL A   1      34.567  22.935  25.146  1.00  0.00     0.061 C 
ATOM      7  C   UNL A   1      35.252  22.672  23.781  1.00  0.00     0.023 C 
ATOM      8  C   UNL A   1      34.718  24.455  25.369  1.00  0.00     0.023 C 
BRANCH   6   9
ATOM      9  C   UNL A   1      33.080  22.504  25.098  1.00  0.00     0.140 C 
BRANCH   9  10
ATOM     10  N   UNL A   1      32.704  21.631  23.993  1.00  0.00    -0.328 N 
ATOM     11  C   UNL A   1      32.159  22.094  22.817  1.00  0.00     0.108 A 
ATOM     12  C   UNL A   1      32.761  20.248  23.909  1.00  0.00     0.167 A 
ATOM     13  C   UNL A   1      31.839  20.979  22.090  1.00  0.00     0.131 A 
ATOM     14  N   UNL A   1      32.191  19.852  22.773  1.00  0.00    -0.235 NA
BRANCH  12  15
ATOM     15  C   UNL A   1      33.231  19.240  24.841  1.00  0.00     0.140 C 
ATOM     16  S   UNL A   1      34.106  17.886  24.438  1.00  0.00    -0.057 S 
BRANCH  15  17
ATOM     17  N   UNL A   1      32.846  19.435  26.140  1.00  0.00    -0.387 N 
ATOM     18  H   UNL A   1      32.943  20.322  26.555  1.00  0.00     0.157 HD
ATOM     19  H   UNL A   1      32.472  18.686  26.659  1.00  0.00     0.157 HD
ENDBRANCH  15  17
ENDBRANCH  12  15
ENDBRANCH   9  10
ENDBRANCH   6   9
ENDBRANCH   3   6
ENDBRANCH   1   2
BRANCH   1  20
ATOM     20  C   UNL A   1      38.553  23.795  26.234  1.00  0.00     0.042 C 
BRANCH  20  21
ATOM     21  C   UNL A   1      39.523  23.258  27.261  1.00  0.00     0.118 C 
BRANCH  21  22
ATOM     22  N   UNL A   1      40.790  22.801  26.683  1.00  0.00    -0.352 N 
ATOM     23  C   UNL A   1      41.829  23.583  26.198  1.00  0.00     0.251 C 
ATOM     24  H   UNL A   1      40.919  21.826  26.632  1.00  0.00     0.163 HD
ATOM     25  O   UNL A   1      42.674  23.131  25.450  1.00  0.00    -0.269 OA
BRANCH  23  26
ATOM     26  C   UNL A   1      41.877  24.991  26.631  1.00  0.00     0.039 A 
ATOM     27  C   UNL A   1      41.297  26.026  25.894  1.00  0.00     0.014 A 
ATOM     28  C   UNL A   1      42.466  25.235  27.865  1.00  0.00     0.014 A 
ATOM     29  C   UNL A   1      41.259  27.297  26.460  1.00  0.00     0.010 A 
ATOM     30  C   UNL A   1      42.198  26.402  28.514  1.00  0.00     0.010 A 
ATOM     31  C   UNL A   1      41.699  27.466  27.783  1.00  0.00    -0.014 A 
BRANCH  31  32
ATOM     32  C   UNL A   1      41.597  28.733  28.486  1.00  0.00     0.031 A 
ATOM     33  C   UNL A   1      42.684  29.692  28.179  1.00  0.00     0.074 A 
ATOM     34  C   UNL A   1      40.491  29.077  29.182  1.00  0.00     0.049 A 
ATOM     35  N   UNL A   1      43.616  30.080  28.981  1.00  0.00    -0.248 NA
ATOM     36  C   UNL A   1      42.856  30.159  26.794  1.00  0.00     0.031 C 
ATOM     37  C   UNL A   1      39.225  28.348  29.331  1.00  0.00     0.029 A 
ATOM     38  N   UNL A   1      40.238  30.236  29.843  1.00  0.00    -0.354 N 
ATOM     39  C   UNL A   1      44.386  30.991  28.270  1.00  0.00     0.074 A 
ATOM     40  C   UNL A   1      43.987  30.864  26.891  1.00  0.00     0.031 C 
ATOM     41  C   UNL A   1      38.278  29.172  29.833  1.00  0.00     0.029 A 
ATOM     42  C   UNL A   1      38.907  30.426  30.198  1.00  0.00     0.049 A 
ATOM     43  H   UNL A   1      40.942  30.890  30.057  1.00  0.00     0.167 HD
ATOM     44  C   UNL A   1      45.121  31.932  28.924  1.00  0.00     0.037 A 
ATOM     45  C   UNL A   1      38.372  31.550  30.737  1.00  0.00     0.037 A 
ATOM     46  C   UNL A   1      45.222  31.614  30.329  1.00  0.00     0.049 A 
ATOM     47  C   UNL A   1      39.497  32.317  31.336  1.00  0.00     0.074 A 
ATOM     48  C   UNL A   1      45.744  30.551  31.039  1.00  0.00     0.029 A 
ATOM     49  N   UNL A   1      44.364  32.255  31.191  1.00  0.00    -0.354 N 
ATOM     50  N   UNL A   1      40.164  31.903  32.380  1.00  0.00    -0.248 NA
ATOM     51  C   UNL A   1      40.202  33.259  30.477  1.00  0.00     0.031 C 
ATOM     52  C   UNL A   1      44.809  30.317  32.090  1.00  0.00     0.029 A 
ATOM     53  C   UNL A   1      43.825  31.304  32.020  1.00  0.00     0.049 A 
ATOM     54  H   UNL A   1      44.171  33.221  31.211  1.00  0.00     0.167 HD
ATOM     55  C   UNL A   1      41.491  32.168  32.075  1.00  0.00     0.074 A 
ATOM     56  C   UNL A   1      41.448  33.072  30.926  1.00  0.00     0.031 C 
ATOM     57  C   UNL A   1      42.497  31.394  32.579  1.00  0.00     0.037 A 
BRANCH  44  58
ATOM     58  C   UNL A   1      45.431  33.311  28.403  1.00  0.00     0.064 A 
ATOM     59  C   UNL A   1      44.364  34.151  28.027  1.00  0.00     0.173 A 
ATOM     60  C   UNL A   1      46.710  33.719  27.970  1.00  0.00     0.173 A 
ATOM     61  F   UNL A   1      43.103  33.855  28.379  1.00  0.00    -0.203 F 
ATOM     62  C   UNL A   1      44.554  35.260  27.200  1.00  0.00     0.198 A 
ATOM     63  C   UNL A   1      46.903  34.856  27.189  1.00  0.00     0.198 A 
ATOM     64  F   UNL A   1      47.805  32.979  28.183  1.00  0.00    -0.203 F 
ATOM     65  F   UNL A   1      43.494  35.950  26.759  1.00  0.00    -0.200 F 
ATOM     66  C   UNL A   1      45.823  35.606  26.774  1.00  0.00     0.200 A 
ATOM     67  F   UNL A   1      48.139  35.167  26.773  1.00  0.00    -0.200 F 
ATOM     68  F   UNL A   1      46.002  36.628  25.926  1.00  0.00    -0.200 F 
ENDBRANCH  44  58
BRANCH  45  69
ATOM     69  C   UNL A   1      37.020  32.124  30.535  1.00  0.00     0.064 A 
ATOM     70  C   UNL A   1      36.041  32.067  31.540  1.00  0.00     0.173 A 
ATOM     71  C   UNL A   1      36.750  32.986  29.452  1.00  0.00     0.173 A 
ATOM     72  F   UNL A   1      36.236  31.307  32.627  1.00  0.00    -0.203 F 
ATOM     73  C   UNL A   1      34.877  32.843  31.480  1.00  0.00     0.198 A 
ATOM     74  C   UNL A   1      35.587  33.757  29.391  1.00  0.00     0.198 A 
ATOM     75  F   UNL A   1      37.654  33.171  28.479  1.00  0.00    -0.203 F 
ATOM     76  F   UNL A   1      33.995  32.806  32.488  1.00  0.00    -0.200 F 
ATOM     77  C   UNL A   1      34.656  33.695  30.410  1.00  0.00     0.200 A 
ATOM     78  F   UNL A   1      35.405  34.607  28.370  1.00  0.00    -0.200 F 
ATOM     79  F   UNL A   1      33.574  34.486  30.384  1.00  0.00    -0.200 F 
ENDBRANCH  45  69
BRANCH  57  80
ATOM     80  C   UNL A   1      42.147  30.393  33.649  1.00  0.00     0.064 A 
ATOM     81  C   UNL A   1      41.735  29.073  33.391  1.00  0.00     0.173 A 
ATOM     82  C   UNL A   1      42.391  30.738  34.984  1.00  0.00     0.173 A 
ATOM     83  F   UNL A   1      41.582  28.628  32.140  1.00  0.00    -0.203 F 
ATOM     84  C   UNL A   1      41.534  28.160  34.426  1.00  0.00     0.198 A 
ATOM     85  C   UNL A   1      42.225  29.815  36.012  1.00  0.00     0.198 A 
ATOM     86  F   UNL A   1      42.844  31.965  35.287  1.00  0.00    -0.203 F 
ATOM     87  F   UNL A   1      41.132  26.909  34.151  1.00  0.00    -0.200 F 
ATOM     88  C   UNL A   1      41.786  28.530  35.735  1.00  0.00     0.200 A 
ATOM     89  F   UNL A   1      42.523  30.163  37.271  1.00  0.00    -0.200 F 
ATOM     90  F   UNL A   1      41.634  27.642  36.727  1.00  0.00    -0.200 F 
ENDBRANCH  57  80
ENDBRANCH  31  32
ENDBRANCH  23  26
ENDBRANCH  21  22
ENDBRANCH  20  21
ENDBRANCH   1  20
TORSDOF 14
ENDMDL
MODEL 3
REMARK VINA RESULT:     -10.0      3.677      6.166
REMARK SMILES CC(C)(Cn1ccnc1C(N)=S)C(=O)NCCCNC(=O)c1ccc(-c2c3nc(c(-c4c(F)c(F)c(F)c(F)c4F)c4ccc([nH]4)c(-c4c(F)c(F)c(F)c(F)c4F)c4nc(c(-c5c(F)c(F)c(F)c(F)c5F)c5ccc2[nH]5)C=C4)C=C3)cc1
REMARK SMILES IDX 16 1 15 2 13 3 14 4 2 6 1 7 3 8 4 9 5 10 6 11 9 12 7 13 8 14
REMARK SMILES IDX 10 15 12 16 11 17 17 20 18 21 19 22 20 23 21 25 22 26 23 27
REMARK SMILES IDX 84 28 24 29 83 30 25 31 26 32 27 33 77 34 28 35 82 36 76 37
REMARK SMILES IDX 78 38 29 39 81 40 75 41 74 42 30 44 62 45 42 46 61 47 43 48
REMARK SMILES IDX 46 49 60 50 79 51 44 52 45 53 59 55 80 56 47 57 31 58 32 59
REMARK SMILES IDX 40 60 33 61 34 62 38 63 41 64 35 65 36 66 39 67 37 68 63 69
REMARK SMILES IDX 64 70 72 71 65 72 66 73 70 74 73 75 67 76 68 77 71 78 69 79
REMARK SMILES IDX 48 80 49 81 57 82 50 83 51 84 55 85 58 86 52 87 53 88 56 89
REMARK SMILES IDX 54 90
REMARK H PARENT 15 5 11 18 11 19 19 24 78 43 46 54
REMARK Flexibility Score: inf
ROOT
ATOM      1  C   UNL A   1      37.807  22.157  25.727  1.00  0.00     0.117 C 
ENDROOT
BRANCH   1   2
ATOM      2  N   UNL A   1      37.577  22.422  24.311  1.00  0.00    -0.356 N 
ATOM      3  C   UNL A   1      36.469  22.760  23.591  1.00  0.00     0.227 C 
ATOM      4  O   UNL A   1      36.658  23.001  22.395  1.00  0.00    -0.274 OA
ATOM      5  H   UNL A   1      38.389  22.339  23.761  1.00  0.00     0.163 HD
BRANCH   3   6
ATOM      6  C   UNL A   1      35.061  22.818  24.207  1.00  0.00     0.061 C 
ATOM      7  C   UNL A   1      34.676  21.419  24.749  1.00  0.00     0.023 C 
ATOM      8  C   UNL A   1      34.008  23.116  23.118  1.00  0.00     0.023 C 
BRANCH   6   9
ATOM      9  C   UNL A   1      35.026  23.869  25.346  1.00  0.00     0.140 C 
BRANCH   9  10
ATOM     10  N   UNL A   1      33.785  24.620  25.482  1.00  0.00    -0.328 N 
ATOM     11  C   UNL A   1      33.611  25.890  24.979  1.00  0.00     0.108 A 
ATOM     12  C   UNL A   1      32.615  24.270  26.141  1.00  0.00     0.167 A 
ATOM     13  C   UNL A   1      32.375  26.294  25.407  1.00  0.00     0.131 A 
ATOM     14  N   UNL A   1      31.780  25.306  26.135  1.00  0.00    -0.235 NA
BRANCH  12  15
ATOM     15  C   UNL A   1      32.231  23.068  26.858  1.00  0.00     0.140 C 
ATOM     16  S   UNL A   1      33.159  22.281  27.988  1.00  0.00    -0.057 S 
BRANCH  15  17
ATOM     17  N   UNL A   1      31.019  22.546  26.495  1.00  0.00    -0.387 N 
ATOM     18  H   UNL A   1      30.556  21.915  27.092  1.00  0.00     0.157 HD
ATOM     19  H   UNL A   1      30.611  22.801  25.636  1.00  0.00     0.157 HD
ENDBRANCH  15  17
ENDBRANCH  12  15
ENDBRANCH   9  10
ENDBRANCH   6   9
ENDBRANCH   3   6
ENDBRANCH   1   2
BRANCH   1  20
ATOM     20  C   UNL A   1      38.904  21.129  26.004  1.00  0.00     0.042 C 
BRANCH  20  21
ATOM     21  C   UNL A   1      40.031  21.684  26.847  1.00  0.00     0.118 C 
BRANCH  21  22
ATOM     22  N   UNL A   1      41.316  21.729  26.144  1.00  0.00    -0.352 N 
ATOM     23  C   UNL A   1      42.124  22.837  25.929  1.00  0.00     0.251 C 
ATOM     24  H   UNL A   1      41.644  20.874  25.781  1.00  0.00     0.163 HD
ATOM     25  O   UNL A   1      42.985  22.843  25.070  1.00  0.00    -0.269 OA
BRANCH  23  26
ATOM     26  C   UNL A   1      41.907  24.012  26.792  1.00  0.00     0.039 A 
ATOM     27  C   UNL A   1      42.494  24.139  28.052  1.00  0.00     0.014 A 
ATOM     28  C   UNL A   1      41.141  25.038  26.253  1.00  0.00     0.014 A 
ATOM     29  C   UNL A   1      42.355  25.349  28.726  1.00  0.00     0.010 A 
ATOM     30  C   UNL A   1      41.226  26.287  26.789  1.00  0.00     0.010 A 
ATOM     31  C   UNL A   1      41.731  26.424  28.071  1.00  0.00    -0.014 A 
BRANCH  31  32
ATOM     32  C   UNL A   1      41.638  27.749  28.657  1.00  0.00     0.031 A 
ATOM     33  C   UNL A   1      42.722  28.674  28.252  1.00  0.00     0.074 A 
ATOM     34  C   UNL A   1      40.540  28.156  29.332  1.00  0.00     0.049 A 
ATOM     35  N   UNL A   1      43.663  29.132  29.005  1.00  0.00    -0.248 NA
ATOM     36  C   UNL A   1      42.878  29.014  26.829  1.00  0.00     0.031 C 
ATOM     37  C   UNL A   1      39.275  27.446  29.561  1.00  0.00     0.029 A 
ATOM     38  N   UNL A   1      40.296  29.370  29.889  1.00  0.00    -0.354 N 
ATOM     39  C   UNL A   1      44.425  29.974  28.206  1.00  0.00     0.074 A 
ATOM     40  C   UNL A   1      44.010  29.724  26.849  1.00  0.00     0.031 C 
ATOM     41  C   UNL A   1      38.335  28.313  29.997  1.00  0.00     0.029 A 
ATOM     42  C   UNL A   1      38.968  29.593  30.240  1.00  0.00     0.049 A 
ATOM     43  H   UNL A   1      41.002  30.040  30.034  1.00  0.00     0.167 HD
ATOM     44  C   UNL A   1      45.168  30.970  28.764  1.00  0.00     0.037 A 
ATOM     45  C   UNL A   1      38.440  30.762  30.683  1.00  0.00     0.037 A 
ATOM     46  C   UNL A   1      45.286  30.779  30.191  1.00  0.00     0.049 A 
ATOM     47  C   UNL A   1      39.573  31.579  31.197  1.00  0.00     0.074 A 
ATOM     48  C   UNL A   1      45.815  29.783  30.987  1.00  0.00     0.029 A 
ATOM     49  N   UNL A   1      44.437  31.496  31.001  1.00  0.00    -0.354 N 
ATOM     50  N   UNL A   1      40.252  31.260  32.266  1.00  0.00    -0.248 NA
ATOM     51  C   UNL A   1      40.268  32.438  30.248  1.00  0.00     0.031 C 
ATOM     52  C   UNL A   1      44.892  29.647  32.066  1.00  0.00     0.029 A 
ATOM     53  C   UNL A   1      43.908  30.625  31.919  1.00  0.00     0.049 A 
ATOM     54  H   UNL A   1      44.246  32.460  30.936  1.00  0.00     0.167 HD
ATOM     55  C   UNL A   1      41.576  31.494  31.923  1.00  0.00     0.074 A 
ATOM     56  C   UNL A   1      41.519  32.291  30.697  1.00  0.00     0.031 C 
ATOM     57  C   UNL A   1      42.586  30.766  32.483  1.00  0.00     0.037 A 
BRANCH  44  58
ATOM     58  C   UNL A   1      45.473  32.295  28.117  1.00  0.00     0.064 A 
ATOM     59  C   UNL A   1      44.403  33.143  27.769  1.00  0.00     0.173 A 
ATOM     60  C   UNL A   1      46.722  32.625  27.551  1.00  0.00     0.173 A 
ATOM     61  F   UNL A   1      43.168  32.918  28.246  1.00  0.00    -0.203 F 
ATOM     62  C   UNL A   1      44.554  34.182  26.849  1.00  0.00     0.198 A 
ATOM     63  C   UNL A   1      46.880  33.695  26.673  1.00  0.00     0.198 A 
ATOM     64  F   UNL A   1      47.808  31.864  27.726  1.00  0.00    -0.203 F 
ATOM     65  F   UNL A   1      43.481  34.876  26.446  1.00  0.00    -0.200 F 
ATOM     66  C   UNL A   1      45.791  34.451  26.294  1.00  0.00     0.200 A 
ATOM     67  F   UNL A   1      48.085  33.931  26.134  1.00  0.00    -0.200 F 
ATOM     68  F   UNL A   1      45.927  35.402  25.360  1.00  0.00    -0.200 F 
ENDBRANCH  44  58
BRANCH  45  69
ATOM     69  C   UNL A   1      37.086  31.318  30.445  1.00  0.00     0.064 A 
ATOM     70  C   UNL A   1      36.217  31.609  31.508  1.00  0.00     0.173 A 
ATOM     71  C   UNL A   1      36.723  31.835  29.184  1.00  0.00     0.173 A 
ATOM     72  F   UNL A   1      36.508  31.194  32.749  1.00  0.00    -0.203 F 
ATOM     73  C   UNL A   1      35.068  32.390  31.328  1.00  0.00     0.198 A 
ATOM     74  C   UNL A   1      35.576  32.611  29.005  1.00  0.00     0.198 A 
ATOM     75  F   UNL A   1      37.525  31.680  28.121  1.00  0.00    -0.203 F 
ATOM     76  F   UNL A   1      34.295  32.695  32.379  1.00  0.00    -0.200 F 
ATOM     77  C   UNL A   1      34.755  32.899  30.078  1.00  0.00     0.200 A 
ATOM     78  F   UNL A   1      35.305  33.130  27.798  1.00  0.00    -0.200 F 
ATOM     79  F   UNL A   1      33.691  33.700  29.918  1.00  0.00    -0.200 F 
ENDBRANCH  45  69
BRANCH  57  80
ATOM     80  C   UNL A   1      42.249  29.867  33.643  1.00  0.00     0.064 A 
ATOM     81  C   UNL A   1      41.838  28.529  33.510  1.00  0.00     0.173 A 
ATOM     82  C   UNL A   1      42.504  30.333  34.938  1.00  0.00     0.173 A 
ATOM     83  F   UNL A   1      41.673  27.972  32.306  1.00  0.00    -0.203 F 
ATOM     84  C   UNL A   1      41.648  27.713  34.625  1.00  0.00     0.198 A 
ATOM     85  C   UNL A   1      42.350  29.506  36.048  1.00  0.00     0.198 A 
ATOM     86  F   UNL A   1      42.958  31.583  35.124  1.00  0.00    -0.203 F 
ATOM     87  F   UNL A   1      41.245  26.442  34.469  1.00  0.00    -0.200 F 
ATOM     88  C   UNL A   1      41.912  28.202  35.893  1.00  0.00     0.200 A 
ATOM     89  F   UNL A   1      42.659  29.968  37.267  1.00  0.00    -0.200 F 
ATOM     90  F   UNL A   1      41.770  27.407  36.963  1.00  0.00    -0.200 F 
ENDBRANCH  57  80
ENDBRANCH  31  32
ENDBRANCH  23  26
ENDBRANCH  21  22
ENDBRANCH  20  21
ENDBRANCH   1  20
TORSDOF 14
ENDMDL
