MODEL 1
REMARK VINA RESULT:     -12.2      0.000      0.000
REMARK SMILES CC(C)(C)CN1C(=O)CC[C@@H](C(=O)NCCCNC(=O)c2ccc(-c3c4nc(c(-c5c(F)c(F)c(F)c(F)c5F)c5ccc([nH]5)c(-c5c(F)c(F)c(F)c(F)c5F)c5nc(c(-c6c(F)c(F)c(F)c(F)c6F)c6ccc3[nH]6)C=C5)C=C4)cc2)[C@H]1c1cccc2c1OCO2
REMARK SMILES IDX 16 1 15 2 14 3 12 4 13 5 11 7 6 8 7 9 84 10 8 11 9 12 10 13
REMARK SMILES IDX 5 14 2 15 1 16 3 17 4 18 85 19 86 20 90 21 87 22 89 23 91 24
REMARK SMILES IDX 88 25 93 26 92 27 17 28 18 29 19 30 20 32 21 33 22 34 83 35
REMARK SMILES IDX 23 36 82 37 24 38 25 39 26 40 76 41 27 42 81 43 75 44 77 45
REMARK SMILES IDX 28 46 80 47 74 48 73 49 29 51 61 52 41 53 60 54 42 55 45 56
REMARK SMILES IDX 59 57 78 58 43 59 44 60 58 62 79 63 46 64 30 65 31 66 39 67
REMARK SMILES IDX 32 68 33 69 37 70 40 71 34 72 35 73 38 74 36 75 62 76 63 77
REMARK SMILES IDX 71 78 64 79 65 80 69 81 72 82 66 83 67 84 70 85 68 86 47 87
REMARK SMILES IDX 48 88 56 89 49 90 50 91 54 92 57 93 51 94 52 95 55 96 53 97
REMARK H PARENT 14 6 18 31 77 50 45 61
REMARK Flexibility Score: inf
ROOT
ATOM      1  C   UNL A   1      31.578  29.117  26.090  1.00  0.00     0.042 C 
ENDROOT
BRANCH   1   2
ATOM      2  C   UNL A   1      31.417  28.240  27.321  1.00  0.00     0.117 C 
BRANCH   2   3
ATOM      3  N   UNL A   1      32.207  27.035  27.168  1.00  0.00    -0.356 N 
ATOM      4  C   UNL A   1      31.866  25.799  26.724  1.00  0.00     0.225 C 
ATOM      5  O   UNL A   1      32.719  24.921  26.834  1.00  0.00    -0.275 OA
ATOM      6  H   UNL A   1      33.152  27.128  27.433  1.00  0.00     0.163 HD
BRANCH   4   7
ATOM      7  C   UNL A   1      30.521  25.578  26.044  1.00  0.00     0.106 C 
ATOM      8  N   UNL A   1      31.061  23.647  24.458  1.00  0.00    -0.334 N 
ATOM      9  C   UNL A   1      30.836  22.740  25.494  1.00  0.00     0.223 C 
ATOM     10  C   UNL A   1      30.689  25.080  24.592  1.00  0.00     0.132 C 
ATOM     11  O   UNL A   1      31.108  21.542  25.427  1.00  0.00    -0.275 OA
ATOM     12  C   UNL A   1      30.241  23.208  26.805  1.00  0.00     0.101 C 
ATOM     13  C   UNL A   1      29.664  24.600  26.827  1.00  0.00     0.026 C 
BRANCH   8  14
ATOM     14  C   UNL A   1      31.212  23.143  23.066  1.00  0.00     0.126 C 
BRANCH  14  15
ATOM     15  C   UNL A   1      32.470  22.336  22.622  1.00  0.00    -0.021 C 
ATOM     16  C   UNL A   1      33.591  22.348  23.677  1.00  0.00     0.012 C 
ATOM     17  C   UNL A   1      33.056  23.016  21.355  1.00  0.00     0.012 C 
ATOM     18  C   UNL A   1      32.090  20.906  22.172  1.00  0.00     0.012 C 
ENDBRANCH  14  15
ENDBRANCH   8  14
BRANCH  10  19
ATOM     19  C   UNL A   1      31.575  26.037  23.796  1.00  0.00     0.021 A 
ATOM     20  C   UNL A   1      32.956  25.806  23.629  1.00  0.00     0.010 A 
ATOM     21  C   UNL A   1      31.082  27.212  23.246  1.00  0.00     0.171 A 
ATOM     22  C   UNL A   1      33.789  26.745  22.995  1.00  0.00     0.004 A 
ATOM     23  C   UNL A   1      31.900  28.119  22.603  1.00  0.00     0.166 A 
ATOM     24  O   UNL A   1      29.785  27.633  23.267  1.00  0.00    -0.453 OA
ATOM     25  C   UNL A   1      33.257  27.924  22.476  1.00  0.00     0.050 A 
ATOM     26  O   UNL A   1      31.220  29.201  22.135  1.00  0.00    -0.454 OA
ATOM     27  C   UNL A   1      29.868  28.835  22.469  1.00  0.00     0.468 C 
ENDBRANCH  10  19
ENDBRANCH   4   7
ENDBRANCH   2   3
ENDBRANCH   1   2
BRANCH   1  28
ATOM     28  C   UNL A   1      32.889  29.893  26.086  1.00  0.00     0.118 C 
BRANCH  28  29
ATOM     29  N   UNL A   1      32.704  31.293  26.439  1.00  0.00    -0.352 N 
ATOM     30  C   UNL A   1      33.406  32.059  27.337  1.00  0.00     0.251 C 
ATOM     31  H   UNL A   1      31.973  31.756  25.968  1.00  0.00     0.163 HD
ATOM     32  O   UNL A   1      32.989  33.158  27.677  1.00  0.00    -0.269 OA
BRANCH  30  33
ATOM     33  C   UNL A   1      34.660  31.528  27.905  1.00  0.00     0.039 A 
ATOM     34  C   UNL A   1      35.767  32.371  28.010  1.00  0.00     0.014 A 
ATOM     35  C   UNL A   1      34.728  30.207  28.355  1.00  0.00     0.014 A 
ATOM     36  C   UNL A   1      36.926  31.904  28.629  1.00  0.00     0.010 A 
ATOM     37  C   UNL A   1      35.847  29.775  29.053  1.00  0.00     0.010 A 
ATOM     38  C   UNL A   1      36.961  30.615  29.189  1.00  0.00    -0.014 A 
BRANCH  38  39
ATOM     39  C   UNL A   1      38.159  30.124  29.912  1.00  0.00     0.031 A 
ATOM     40  C   UNL A   1      38.450  30.616  31.302  1.00  0.00     0.074 A 
ATOM     41  C   UNL A   1      39.012  29.284  29.296  1.00  0.00     0.049 A 
ATOM     42  N   UNL A   1      39.472  30.353  32.077  1.00  0.00    -0.248 NA
ATOM     43  C   UNL A   1      37.478  31.552  31.889  1.00  0.00     0.031 C 
ATOM     44  C   UNL A   1      38.859  28.772  27.933  1.00  0.00     0.029 A 
ATOM     45  N   UNL A   1      40.181  28.718  29.735  1.00  0.00    -0.354 N 
ATOM     46  C   UNL A   1      39.267  31.095  33.233  1.00  0.00     0.074 A 
ATOM     47  C   UNL A   1      38.064  31.872  33.032  1.00  0.00     0.031 C 
ATOM     48  C   UNL A   1      39.876  27.939  27.661  1.00  0.00     0.029 A 
ATOM     49  C   UNL A   1      40.775  27.894  28.810  1.00  0.00     0.049 A 
ATOM     50  H   UNL A   1      40.560  28.886  30.628  1.00  0.00     0.167 HD
ATOM     51  C   UNL A   1      39.999  31.104  34.373  1.00  0.00     0.037 A 
ATOM     52  C   UNL A   1      41.918  27.187  28.882  1.00  0.00     0.037 A 
ATOM     53  C   UNL A   1      41.191  30.321  34.570  1.00  0.00     0.049 A 
ATOM     54  C   UNL A   1      42.736  27.245  30.145  1.00  0.00     0.074 A 
ATOM     55  C   UNL A   1      41.982  30.225  35.700  1.00  0.00     0.029 A 
ATOM     56  N   UNL A   1      41.765  29.503  33.608  1.00  0.00    -0.354 N 
ATOM     57  N   UNL A   1      42.498  27.895  31.257  1.00  0.00    -0.248 NA
ATOM     58  C   UNL A   1      43.979  26.463  30.160  1.00  0.00     0.031 C 
ATOM     59  C   UNL A   1      43.066  29.391  35.403  1.00  0.00     0.029 A 
ATOM     60  C   UNL A   1      42.917  28.918  34.110  1.00  0.00     0.049 A 
ATOM     61  H   UNL A   1      41.406  29.358  32.702  1.00  0.00     0.167 HD
ATOM     62  C   UNL A   1      43.540  27.577  32.116  1.00  0.00     0.074 A 
ATOM     63  C   UNL A   1      44.406  26.663  31.399  1.00  0.00     0.031 C 
ATOM     64  C   UNL A   1      43.762  28.003  33.385  1.00  0.00     0.037 A 
BRANCH  51  65
ATOM     65  C   UNL A   1      39.526  31.992  35.489  1.00  0.00     0.064 A 
ATOM     66  C   UNL A   1      38.644  31.526  36.477  1.00  0.00     0.173 A 
ATOM     67  C   UNL A   1      39.967  33.320  35.581  1.00  0.00     0.173 A 
ATOM     68  F   UNL A   1      38.182  30.267  36.431  1.00  0.00    -0.203 F 
ATOM     69  C   UNL A   1      38.190  32.367  37.489  1.00  0.00     0.198 A 
ATOM     70  C   UNL A   1      39.539  34.148  36.616  1.00  0.00     0.198 A 
ATOM     71  F   UNL A   1      40.815  33.818  34.668  1.00  0.00    -0.203 F 
ATOM     72  F   UNL A   1      37.298  31.916  38.383  1.00  0.00    -0.200 F 
ATOM     73  C   UNL A   1      38.643  33.675  37.562  1.00  0.00     0.200 A 
ATOM     74  F   UNL A   1      39.989  35.409  36.693  1.00  0.00    -0.200 F 
ATOM     75  F   UNL A   1      38.207  34.484  38.538  1.00  0.00    -0.200 F 
ENDBRANCH  51  65
BRANCH  52  76
ATOM     76  C   UNL A   1      42.341  26.336  27.739  1.00  0.00     0.064 A 
ATOM     77  C   UNL A   1      41.809  25.051  27.566  1.00  0.00     0.173 A 
ATOM     78  C   UNL A   1      43.283  26.783  26.800  1.00  0.00     0.173 A 
ATOM     79  F   UNL A   1      40.919  24.571  28.447  1.00  0.00    -0.203 F 
ATOM     80  C   UNL A   1      42.219  24.235  26.514  1.00  0.00     0.198 A 
ATOM     81  C   UNL A   1      43.670  25.978  25.730  1.00  0.00     0.198 A 
ATOM     82  F   UNL A   1      43.818  28.007  26.914  1.00  0.00    -0.203 F 
ATOM     83  F   UNL A   1      41.730  22.993  26.401  1.00  0.00    -0.200 F 
ATOM     84  C   UNL A   1      43.145  24.702  25.593  1.00  0.00     0.200 A 
ATOM     85  F   UNL A   1      44.552  26.438  24.833  1.00  0.00    -0.200 F 
ATOM     86  F   UNL A   1      43.537  23.919  24.578  1.00  0.00    -0.200 F 
ENDBRANCH  52  76
BRANCH  64  87
ATOM     87  C   UNL A   1      44.965  27.450  34.096  1.00  0.00     0.064 A 
ATOM     88  C   UNL A   1      46.201  28.111  34.081  1.00  0.00     0.173 A 
ATOM     89  C   UNL A   1      44.866  26.259  34.832  1.00  0.00     0.173 A 
ATOM     90  F   UNL A   1      46.354  29.244  33.380  1.00  0.00    -0.203 F 
ATOM     91  C   UNL A   1      47.302  27.584  34.753  1.00  0.00     0.198 A 
ATOM     92  C   UNL A   1      45.958  25.754  35.531  1.00  0.00     0.198 A 
ATOM     93  F   UNL A   1      43.704  25.590  34.884  1.00  0.00    -0.203 F 
ATOM     94  F   UNL A   1      48.488  28.205  34.680  1.00  0.00    -0.200 F 
ATOM     95  C   UNL A   1      47.177  26.412  35.484  1.00  0.00     0.200 A 
ATOM     96  F   UNL A   1      45.831  24.629  36.250  1.00  0.00    -0.200 F 
ATOM     97  F   UNL A   1      48.235  25.912  36.137  1.00  0.00    -0.200 F 
ENDBRANCH  64  87
ENDBRANCH  38  39
ENDBRANCH  30  33
ENDBRANCH  28  29
ENDBRANCH   1  28
TORSDOF 13
ENDMDL
MODEL 2
REMARK VINA RESULT:     -12.2      0.106      1.561
REMARK SMILES CC(C)(C)CN1C(=O)CC[C@@H](C(=O)NCCCNC(=O)c2ccc(-c3c4nc(c(-c5c(F)c(F)c(F)c(F)c5F)c5ccc([nH]5)c(-c5c(F)c(F)c(F)c(F)c5F)c5nc(c(-c6c(F)c(F)c(F)c(F)c6F)c6ccc3[nH]6)C=C5)C=C4)cc2)[C@H]1c1cccc2c1OCO2
REMARK SMILES IDX 16 1 15 2 14 3 12 4 13 5 11 7 6 8 7 9 84 10 8 11 9 12 10 13
REMARK SMILES IDX 5 14 2 15 1 16 3 17 4 18 85 19 86 20 90 21 87 22 89 23 91 24
REMARK SMILES IDX 88 25 93 26 92 27 17 28 18 29 19 30 20 32 21 33 22 34 83 35
REMARK SMILES IDX 23 36 82 37 24 38 25 39 26 40 76 41 27 42 81 43 75 44 77 45
REMARK SMILES IDX 28 46 80 47 74 48 73 49 29 51 61 52 41 53 60 54 42 55 45 56
REMARK SMILES IDX 59 57 78 58 43 59 44 60 58 62 79 63 46 64 30 65 31 66 39 67
REMARK SMILES IDX 32 68 33 69 37 70 40 71 34 72 35 73 38 74 36 75 62 76 63 77
REMARK SMILES IDX 71 78 64 79 65 80 69 81 72 82 66 83 67 84 70 85 68 86 47 87
REMARK SMILES IDX 48 88 56 89 49 90 50 91 54 92 57 93 51 94 52 95 55 96 53 97
REMARK H PARENT 14 6 18 31 77 50 45 61
REMARK Flexibility Score: inf
ROOT
ATOM      1  C   UNL A   1      31.661  29.096  25.992  1.00  0.00     0.042 C 
ENDROOT
BRANCH   1   2
ATOM      2  C   UNL A   1      31.430  28.212  27.206  1.00  0.00     0.117 C 
BRANCH   2   3
ATOM      3  N   UNL A   1      32.222  27.004  27.088  1.00  0.00    -0.356 N 
ATOM      4  C   UNL A   1      31.878  25.751  26.700  1.00  0.00     0.225 C 
ATOM      5  O   UNL A   1      32.736  24.880  26.829  1.00  0.00    -0.275 OA
ATOM      6  H   UNL A   1      33.171  27.111  27.331  1.00  0.00     0.163 HD
BRANCH   4   7
ATOM      7  C   UNL A   1      30.522  25.498  26.054  1.00  0.00     0.106 C 
ATOM      8  N   UNL A   1      31.067  23.581  24.451  1.00  0.00    -0.334 N 
ATOM      9  C   UNL A   1      30.890  22.668  25.491  1.00  0.00     0.223 C 
ATOM     10  C   UNL A   1      30.665  25.005  24.597  1.00  0.00     0.132 C 
ATOM     11  O   UNL A   1      31.189  21.477  25.416  1.00  0.00    -0.275 OA
ATOM     12  C   UNL A   1      30.317  23.121  26.818  1.00  0.00     0.101 C 
ATOM     13  C   UNL A   1      29.708  24.499  26.857  1.00  0.00     0.026 C 
BRANCH   8  14
ATOM     14  C   UNL A   1      31.195  23.083  23.055  1.00  0.00     0.126 C 
BRANCH  14  15
ATOM     15  C   UNL A   1      32.463  22.312  22.576  1.00  0.00    -0.021 C 
ATOM     16  C   UNL A   1      33.612  22.359  23.599  1.00  0.00     0.012 C 
ATOM     17  C   UNL A   1      32.991  23.005  21.292  1.00  0.00     0.012 C 
ATOM     18  C   UNL A   1      32.112  20.869  22.141  1.00  0.00     0.012 C 
ENDBRANCH  14  15
ENDBRANCH   8  14
BRANCH  10  19
ATOM     19  C   UNL A   1      31.507  25.983  23.781  1.00  0.00     0.021 A 
ATOM     20  C   UNL A   1      32.886  25.779  23.567  1.00  0.00     0.010 A 
ATOM     21  C   UNL A   1      30.976  27.154  23.255  1.00  0.00     0.171 A 
ATOM     22  C   UNL A   1      33.681  26.737  22.913  1.00  0.00     0.004 A 
ATOM     23  C   UNL A   1      31.756  28.080  22.593  1.00  0.00     0.166 A 
ATOM     24  O   UNL A   1      29.673  27.551  23.322  1.00  0.00    -0.453 OA
ATOM     25  C   UNL A   1      33.112  27.910  22.421  1.00  0.00     0.050 A 
ATOM     26  O   UNL A   1      31.042  29.152  22.156  1.00  0.00    -0.454 OA
ATOM     27  C   UNL A   1      29.709  28.760  22.531  1.00  0.00     0.468 C 
ENDBRANCH  10  19
ENDBRANCH   4   7
ENDBRANCH   2   3
ENDBRANCH   1   2
BRANCH   1  28
ATOM     28  C   UNL A   1      32.968  29.876  26.070  1.00  0.00     0.118 C 
BRANCH  28  29
ATOM     29  N   UNL A   1      32.760  31.268  26.443  1.00  0.00    -0.352 N 
ATOM     30  C   UNL A   1      33.441  32.029  27.360  1.00  0.00     0.251 C 
ATOM     31  H   UNL A   1      32.026  31.728  25.972  1.00  0.00     0.163 HD
ATOM     32  O   UNL A   1      33.006  33.117  27.712  1.00  0.00    -0.269 OA
BRANCH  30  33
ATOM     33  C   UNL A   1      34.697  31.507  27.932  1.00  0.00     0.039 A 
ATOM     34  C   UNL A   1      35.794  32.359  28.051  1.00  0.00     0.014 A 
ATOM     35  C   UNL A   1      34.775  30.183  28.373  1.00  0.00     0.014 A 
ATOM     36  C   UNL A   1      36.955  31.900  28.674  1.00  0.00     0.010 A 
ATOM     37  C   UNL A   1      35.894  29.756  29.076  1.00  0.00     0.010 A 
ATOM     38  C   UNL A   1      36.999  30.607  29.225  1.00  0.00    -0.014 A 
BRANCH  38  39
ATOM     39  C   UNL A   1      38.196  30.123  29.953  1.00  0.00     0.031 A 
ATOM     40  C   UNL A   1      38.474  30.609  31.348  1.00  0.00     0.074 A 
ATOM     41  C   UNL A   1      39.061  29.295  29.337  1.00  0.00     0.049 A 
ATOM     42  N   UNL A   1      39.494  30.351  32.127  1.00  0.00    -0.248 NA
ATOM     43  C   UNL A   1      37.490  31.532  31.934  1.00  0.00     0.031 C 
ATOM     44  C   UNL A   1      38.921  28.789  27.970  1.00  0.00     0.029 A 
ATOM     45  N   UNL A   1      40.233  28.736  29.779  1.00  0.00    -0.354 N 
ATOM     46  C   UNL A   1      39.275  31.083  33.287  1.00  0.00     0.074 A 
ATOM     47  C   UNL A   1      38.066  31.850  33.082  1.00  0.00     0.031 C 
ATOM     48  C   UNL A   1      39.947  27.967  27.700  1.00  0.00     0.029 A 
ATOM     49  C   UNL A   1      40.839  27.924  28.853  1.00  0.00     0.049 A 
ATOM     50  H   UNL A   1      40.604  28.902  30.676  1.00  0.00     0.167 HD
ATOM     51  C   UNL A   1      40.000  31.093  34.431  1.00  0.00     0.037 A 
ATOM     52  C   UNL A   1      41.989  27.227  28.928  1.00  0.00     0.037 A 
ATOM     53  C   UNL A   1      41.198  30.319  34.631  1.00  0.00     0.049 A 
ATOM     54  C   UNL A   1      42.798  27.285  30.196  1.00  0.00     0.074 A 
ATOM     55  C   UNL A   1      41.983  30.223  35.765  1.00  0.00     0.029 A 
ATOM     56  N   UNL A   1      41.785  29.512  33.667  1.00  0.00    -0.354 N 
ATOM     57  N   UNL A   1      42.547  27.926  31.311  1.00  0.00    -0.248 NA
ATOM     58  C   UNL A   1      44.049  26.515  30.215  1.00  0.00     0.031 C 
ATOM     59  C   UNL A   1      43.076  29.401  35.470  1.00  0.00     0.029 A 
ATOM     60  C   UNL A   1      42.939  28.935  34.173  1.00  0.00     0.049 A 
ATOM     61  H   UNL A   1      41.434  29.370  32.758  1.00  0.00     0.167 HD
ATOM     62  C   UNL A   1      43.588  27.612  32.175  1.00  0.00     0.074 A 
ATOM     63  C   UNL A   1      44.466  26.711  31.458  1.00  0.00     0.031 C 
ATOM     64  C   UNL A   1      43.798  28.032  33.447  1.00  0.00     0.037 A 
BRANCH  51  65
ATOM     65  C   UNL A   1      39.511  31.969  35.549  1.00  0.00     0.064 A 
ATOM     66  C   UNL A   1      39.948  33.296  35.690  1.00  0.00     0.173 A 
ATOM     67  C   UNL A   1      38.587  31.483  36.486  1.00  0.00     0.173 A 
ATOM     68  F   UNL A   1      40.842  33.808  34.829  1.00  0.00    -0.203 F 
ATOM     69  C   UNL A   1      39.511  34.088  36.748  1.00  0.00     0.198 A 
ATOM     70  C   UNL A   1      38.123  32.290  37.521  1.00  0.00     0.198 A 
ATOM     71  F   UNL A   1      38.130  30.224  36.397  1.00  0.00    -0.203 F 
ATOM     72  F   UNL A   1      39.993  35.330  36.896  1.00  0.00    -0.200 F 
ATOM     73  C   UNL A   1      38.594  33.587  37.658  1.00  0.00     0.200 A 
ATOM     74  F   UNL A   1      37.225  31.810  38.393  1.00  0.00    -0.200 F 
ATOM     75  F   UNL A   1      38.171  34.351  38.675  1.00  0.00    -0.200 F 
ENDBRANCH  51  65
BRANCH  52  76
ATOM     76  C   UNL A   1      42.427  26.387  27.782  1.00  0.00     0.064 A 
ATOM     77  C   UNL A   1      43.355  26.874  26.851  1.00  0.00     0.173 A 
ATOM     78  C   UNL A   1      41.931  25.090  27.591  1.00  0.00     0.173 A 
ATOM     79  F   UNL A   1      43.844  28.116  26.981  1.00  0.00    -0.203 F 
ATOM     80  C   UNL A   1      43.751  26.106  25.759  1.00  0.00     0.198 A 
ATOM     81  C   UNL A   1      42.352  24.310  26.515  1.00  0.00     0.198 A 
ATOM     82  F   UNL A   1      41.047  24.572  28.456  1.00  0.00    -0.203 F 
ATOM     83  F   UNL A   1      44.602  26.615  24.857  1.00  0.00    -0.200 F 
ATOM     84  C   UNL A   1      43.254  24.822  25.594  1.00  0.00     0.200 A 
ATOM     85  F   UNL A   1      41.882  23.064  26.368  1.00  0.00    -0.200 F 
ATOM     86  F   UNL A   1      43.639  24.081  24.546  1.00  0.00    -0.200 F 
ENDBRANCH  52  76
BRANCH  64  87
ATOM     87  C   UNL A   1      45.001  27.486  34.163  1.00  0.00     0.064 A 
ATOM     88  C   UNL A   1      46.233  28.155  34.154  1.00  0.00     0.173 A 
ATOM     89  C   UNL A   1      44.907  26.294  34.897  1.00  0.00     0.173 A 
ATOM     90  F   UNL A   1      46.381  29.290  33.455  1.00  0.00    -0.203 F 
ATOM     91  C   UNL A   1      47.334  27.635  34.830  1.00  0.00     0.198 A 
ATOM     92  C   UNL A   1      46.000  25.795  35.600  1.00  0.00     0.198 A 
ATOM     93  F   UNL A   1      43.749  25.616  34.943  1.00  0.00    -0.203 F 
ATOM     94  F   UNL A   1      48.517  28.263  34.763  1.00  0.00    -0.200 F 
ATOM     95  C   UNL A   1      47.214  26.461  35.558  1.00  0.00     0.200 A 
ATOM     96  F   UNL A   1      45.877  24.668  36.316  1.00  0.00    -0.200 F 
ATOM     97  F   UNL A   1      48.273  25.966  36.215  1.00  0.00    -0.200 F 
ENDBRANCH  64  87
ENDBRANCH  38  39
ENDBRANCH  30  33
ENDBRANCH  28  29
ENDBRANCH   1  28
TORSDOF 13
ENDMDL
MODEL 3
REMARK VINA RESULT:     -11.9      2.032      7.714
REMARK SMILES CC(C)(C)CN1C(=O)CC[C@@H](C(=O)NCCCNC(=O)c2ccc(-c3c4nc(c(-c5c(F)c(F)c(F)c(F)c5F)c5ccc([nH]5)c(-c5c(F)c(F)c(F)c(F)c5F)c5nc(c(-c6c(F)c(F)c(F)c(F)c6F)c6ccc3[nH]6)C=C5)C=C4)cc2)[C@H]1c1cccc2c1OCO2
REMARK SMILES IDX 16 1 15 2 14 3 12 4 13 5 11 7 6 8 7 9 84 10 8 11 9 12 10 13
REMARK SMILES IDX 5 14 2 15 1 16 3 17 4 18 85 19 86 20 90 21 87 22 89 23 91 24
REMARK SMILES IDX 88 25 93 26 92 27 17 28 18 29 19 30 20 32 21 33 22 34 83 35
REMARK SMILES IDX 23 36 82 37 24 38 25 39 26 40 76 41 27 42 81 43 75 44 77 45
REMARK SMILES IDX 28 46 80 47 74 48 73 49 29 51 61 52 41 53 60 54 42 55 45 56
REMARK SMILES IDX 59 57 78 58 43 59 44 60 58 62 79 63 46 64 30 65 31 66 39 67
REMARK SMILES IDX 32 68 33 69 37 70 40 71 34 72 35 73 38 74 36 75 62 76 63 77
REMARK SMILES IDX 71 78 64 79 65 80 69 81 72 82 66 83 67 84 70 85 68 86 47 87
REMARK SMILES IDX 48 88 56 89 49 90 50 91 54 92 57 93 51 94 52 95 55 96 53 97
REMARK H PARENT 14 6 18 31 77 50 45 61
REMARK Flexibility Score: inf
ROOT
ATOM      1  C   UNL A   1      31.476  32.147  26.622  1.00  0.00     0.042 C 
ENDROOT
BRANCH   1   2
ATOM      2  C   UNL A   1      31.420  30.646  26.846  1.00  0.00     0.117 C 
BRANCH   2   3
ATOM      3  N   UNL A   1      32.433  29.993  26.042  1.00  0.00    -0.356 N 
ATOM      4  C   UNL A   1      32.587  28.692  25.690  1.00  0.00     0.225 C 
ATOM      5  O   UNL A   1      33.629  28.400  25.108  1.00  0.00    -0.275 OA
ATOM      6  H   UNL A   1      33.129  30.597  25.692  1.00  0.00     0.163 HD
BRANCH   4   7
ATOM      7  C   UNL A   1      31.460  27.698  25.938  1.00  0.00     0.106 C 
ATOM      8  N   UNL A   1      31.971  25.900  24.192  1.00  0.00    -0.334 N 
ATOM      9  C   UNL A   1      32.870  25.304  25.077  1.00  0.00     0.223 C 
ATOM     10  C   UNL A   1      31.043  26.972  24.640  1.00  0.00     0.132 C 
ATOM     11  O   UNL A   1      33.645  24.403  24.762  1.00  0.00    -0.275 OA
ATOM     12  C   UNL A   1      32.949  25.768  26.516  1.00  0.00     0.101 C 
ATOM     13  C   UNL A   1      31.848  26.680  26.994  1.00  0.00     0.026 C 
BRANCH   8  14
ATOM     14  C   UNL A   1      31.578  25.178  22.952  1.00  0.00     0.126 C 
BRANCH  14  15
ATOM     15  C   UNL A   1      32.508  25.137  21.702  1.00  0.00    -0.021 C 
ATOM     16  C   UNL A   1      33.116  23.745  21.455  1.00  0.00     0.012 C 
ATOM     17  C   UNL A   1      33.701  26.096  21.958  1.00  0.00     0.012 C 
ATOM     18  C   UNL A   1      31.794  25.705  20.452  1.00  0.00     0.012 C 
ENDBRANCH  14  15
ENDBRANCH   8  14
BRANCH  10  19
ATOM     19  C   UNL A   1      30.677  27.982  23.554  1.00  0.00     0.021 A 
ATOM     20  C   UNL A   1      31.663  28.660  22.808  1.00  0.00     0.010 A 
ATOM     21  C   UNL A   1      29.360  28.330  23.284  1.00  0.00     0.171 A 
ATOM     22  C   UNL A   1      31.327  29.672  21.890  1.00  0.00     0.004 A 
ATOM     23  C   UNL A   1      29.035  29.307  22.365  1.00  0.00     0.166 A 
ATOM     24  O   UNL A   1      28.248  27.798  23.866  1.00  0.00    -0.453 OA
ATOM     25  C   UNL A   1      29.993  30.007  21.666  1.00  0.00     0.050 A 
ATOM     26  O   UNL A   1      27.692  29.493  22.248  1.00  0.00    -0.454 OA
ATOM     27  C   UNL A   1      27.200  28.463  23.125  1.00  0.00     0.468 C 
ENDBRANCH  10  19
ENDBRANCH   4   7
ENDBRANCH   2   3
ENDBRANCH   1   2
BRANCH   1  28
ATOM     28  C   UNL A   1      32.660  32.804  27.319  1.00  0.00     0.118 C 
BRANCH  28  29
ATOM     29  N   UNL A   1      32.423  34.213  27.603  1.00  0.00    -0.352 N 
ATOM     30  C   UNL A   1      32.978  35.005  28.577  1.00  0.00     0.251 C 
ATOM     31  H   UNL A   1      31.771  34.660  27.014  1.00  0.00     0.163 HD
ATOM     32  O   UNL A   1      32.514  36.110  28.820  1.00  0.00    -0.269 OA
BRANCH  30  33
ATOM     33  C   UNL A   1      34.131  34.494  29.343  1.00  0.00     0.039 A 
ATOM     34  C   UNL A   1      33.907  33.867  30.569  1.00  0.00     0.014 A 
ATOM     35  C   UNL A   1      35.427  34.615  28.835  1.00  0.00     0.014 A 
ATOM     36  C   UNL A   1      34.981  33.301  31.256  1.00  0.00     0.010 A 
ATOM     37  C   UNL A   1      36.479  33.971  29.472  1.00  0.00     0.010 A 
ATOM     38  C   UNL A   1      36.269  33.316  30.693  1.00  0.00    -0.014 A 
BRANCH  38  39
ATOM     39  C   UNL A   1      37.411  32.660  31.373  1.00  0.00     0.031 A 
ATOM     40  C   UNL A   1      38.132  31.524  30.702  1.00  0.00     0.074 A 
ATOM     41  C   UNL A   1      37.760  33.046  32.615  1.00  0.00     0.049 A 
ATOM     42  N   UNL A   1      39.114  30.784  31.152  1.00  0.00    -0.248 NA
ATOM     43  C   UNL A   1      37.669  31.152  29.356  1.00  0.00     0.031 C 
ATOM     44  C   UNL A   1      37.107  34.106  33.386  1.00  0.00     0.029 A 
ATOM     45  N   UNL A   1      38.746  32.588  33.450  1.00  0.00    -0.354 N 
ATOM     46  C   UNL A   1      39.377  29.859  30.150  1.00  0.00     0.074 A 
ATOM     47  C   UNL A   1      38.407  30.083  29.101  1.00  0.00     0.031 C 
ATOM     48  C   UNL A   1      37.734  34.240  34.565  1.00  0.00     0.029 A 
ATOM     49  C   UNL A   1      38.801  33.248  34.652  1.00  0.00     0.049 A 
ATOM     50  H   UNL A   1      39.358  31.854  33.210  1.00  0.00     0.167 HD
ATOM     51  C   UNL A   1      40.357  28.927  30.096  1.00  0.00     0.037 A 
ATOM     52  C   UNL A   1      39.618  33.068  35.707  1.00  0.00     0.037 A 
ATOM     53  C   UNL A   1      41.325  28.716  31.141  1.00  0.00     0.049 A 
ATOM     54  C   UNL A   1      40.674  31.997  35.640  1.00  0.00     0.074 A 
ATOM     55  C   UNL A   1      42.385  27.828  31.168  1.00  0.00     0.029 A 
ATOM     56  N   UNL A   1      41.345  29.400  32.348  1.00  0.00    -0.354 N 
ATOM     57  N   UNL A   1      40.959  31.174  34.661  1.00  0.00    -0.248 NA
ATOM     58  C   UNL A   1      41.527  31.838  36.825  1.00  0.00     0.031 C 
ATOM     59  C   UNL A   1      43.013  27.936  32.414  1.00  0.00     0.029 A 
ATOM     60  C   UNL A   1      42.383  28.935  33.139  1.00  0.00     0.049 A 
ATOM     61  H   UNL A   1      40.714  30.112  32.604  1.00  0.00     0.167 HD
ATOM     62  C   UNL A   1      42.041  30.422  35.096  1.00  0.00     0.074 A 
ATOM     63  C   UNL A   1      42.371  30.899  36.423  1.00  0.00     0.031 C 
ATOM     64  C   UNL A   1      42.703  29.427  34.455  1.00  0.00     0.037 A 
BRANCH  51  65
ATOM     65  C   UNL A   1      40.425  28.068  28.865  1.00  0.00     0.064 A 
ATOM     66  C   UNL A   1      41.181  28.447  27.744  1.00  0.00     0.173 A 
ATOM     67  C   UNL A   1      39.738  26.847  28.807  1.00  0.00     0.173 A 
ATOM     68  F   UNL A   1      41.848  29.611  27.741  1.00  0.00    -0.203 F 
ATOM     69  C   UNL A   1      41.212  27.656  26.598  1.00  0.00     0.198 A 
ATOM     70  C   UNL A   1      39.802  26.041  27.673  1.00  0.00     0.198 A 
ATOM     71  F   UNL A   1      39.005  26.431  29.852  1.00  0.00    -0.203 F 
ATOM     72  F   UNL A   1      41.888  28.072  25.518  1.00  0.00    -0.200 F 
ATOM     73  C   UNL A   1      40.528  26.451  26.566  1.00  0.00     0.200 A 
ATOM     74  F   UNL A   1      39.151  24.868  27.649  1.00  0.00    -0.200 F 
ATOM     75  F   UNL A   1      40.560  25.690  25.464  1.00  0.00    -0.200 F 
ENDBRANCH  51  65
BRANCH  52  76
ATOM     76  C   UNL A   1      39.493  33.941  36.904  1.00  0.00     0.064 A 
ATOM     77  C   UNL A   1      38.750  33.527  38.019  1.00  0.00     0.173 A 
ATOM     78  C   UNL A   1      40.106  35.200  36.961  1.00  0.00     0.173 A 
ATOM     79  F   UNL A   1      38.129  32.338  38.005  1.00  0.00    -0.203 F 
ATOM     80  C   UNL A   1      38.604  34.349  39.133  1.00  0.00     0.198 A 
ATOM     81  C   UNL A   1      39.986  36.009  38.090  1.00  0.00     0.198 A 
ATOM     82  F   UNL A   1      40.835  35.642  35.925  1.00  0.00    -0.203 F 
ATOM     83  F   UNL A   1      37.847  33.948  40.164  1.00  0.00    -0.200 F 
ATOM     84  C   UNL A   1      39.227  35.587  39.171  1.00  0.00     0.200 A 
ATOM     85  F   UNL A   1      40.603  37.198  38.129  1.00  0.00    -0.200 F 
ATOM     86  F   UNL A   1      39.090  36.376  40.246  1.00  0.00    -0.200 F 
ENDBRANCH  52  76
BRANCH  64  87
ATOM     87  C   UNL A   1      43.880  28.816  35.162  1.00  0.00     0.064 A 
ATOM     88  C   UNL A   1      43.745  27.691  35.987  1.00  0.00     0.173 A 
ATOM     89  C   UNL A   1      45.167  29.346  34.981  1.00  0.00     0.173 A 
ATOM     90  F   UNL A   1      42.535  27.155  36.206  1.00  0.00    -0.203 F 
ATOM     91  C   UNL A   1      44.850  27.136  36.628  1.00  0.00     0.198 A 
ATOM     92  C   UNL A   1      46.275  28.768  35.595  1.00  0.00     0.198 A 
ATOM     93  F   UNL A   1      45.354  30.419  34.198  1.00  0.00    -0.203 F 
ATOM     94  F   UNL A   1      44.689  26.093  37.455  1.00  0.00    -0.200 F 
ATOM     95  C   UNL A   1      46.114  27.670  36.425  1.00  0.00     0.200 A 
ATOM     96  F   UNL A   1      47.497  29.276  35.384  1.00  0.00    -0.200 F 
ATOM     97  F   UNL A   1      47.178  27.130  37.035  1.00  0.00    -0.200 F 
ENDBRANCH  64  87
ENDBRANCH  38  39
ENDBRANCH  30  33
ENDBRANCH  28  29
ENDBRANCH   1  28
TORSDOF 13
ENDMDL
