MODEL 1
REMARK VINA RESULT:     -11.1      0.000      0.000
REMARK SMILES COc1ncccc1CS[C@@H](C)C(=O)NCCCNC(=O)c1ccc(-c2c3nc(c(-c4c(F)c(F)c(F)c(F)c4F)c4ccc([nH]4)c(-c4c(F)c(F)c(F)c(F)c4F)c4nc(c(-c5c(F)c(F)c(F)c(F)c5F)c5ccc2[nH]5)C=C4)C=C3)cc1
REMARK SMILES IDX 16 1 15 2 13 3 14 4 11 6 12 7 10 8 9 9 8 10 3 11 4 12 5 13
REMARK SMILES IDX 7 14 6 15 2 16 1 17 17 18 18 19 19 20 20 21 21 23 22 24
REMARK SMILES IDX 23 25 84 26 24 27 83 28 25 29 26 30 27 31 77 32 28 33 82 34
REMARK SMILES IDX 76 35 78 36 29 37 81 38 75 39 74 40 30 42 62 43 42 44 61 45
REMARK SMILES IDX 43 46 46 47 60 48 79 49 44 50 45 51 59 53 80 54 47 55 31 56
REMARK SMILES IDX 32 57 40 58 33 59 34 60 38 61 41 62 35 63 36 64 39 65 37 66
REMARK SMILES IDX 63 67 64 68 72 69 65 70 66 71 70 72 73 73 67 74 68 75 71 76
REMARK SMILES IDX 69 77 48 78 49 79 57 80 50 81 51 82 55 83 58 84 52 85 53 86
REMARK SMILES IDX 56 87 54 88
REMARK H PARENT 15 5 19 22 78 41 46 52
REMARK Flexibility Score: inf
ROOT
ATOM      1  C   UNL A   1      31.584  30.681  25.972  1.00  0.00     0.117 C 
ENDROOT
BRANCH   1   2
ATOM      2  N   UNL A   1      31.311  29.513  26.793  1.00  0.00    -0.355 N 
ATOM      3  C   UNL A   1      32.018  28.436  27.243  1.00  0.00     0.232 C 
ATOM      4  O   UNL A   1      31.435  27.763  28.106  1.00  0.00    -0.274 OA
ATOM      5  H   UNL A   1      30.378  29.494  27.106  1.00  0.00     0.163 HD
BRANCH   3   6
ATOM      6  C   UNL A   1      33.397  27.991  26.781  1.00  0.00     0.133 C 
ATOM      7  C   UNL A   1      34.509  29.018  26.955  1.00  0.00     0.030 C 
BRANCH   6   8
ATOM      8  S   UNL A   1      33.505  27.036  25.221  1.00  0.00    -0.144 SA
BRANCH   8   9
ATOM      9  C   UNL A   1      32.332  25.670  25.368  1.00  0.00     0.111 C 
BRANCH   9  10
ATOM     10  C   UNL A   1      32.740  24.429  26.116  1.00  0.00     0.024 A 
ATOM     11  C   UNL A   1      31.860  23.677  26.889  1.00  0.00     0.217 A 
ATOM     12  N   UNL A   1      32.245  22.669  27.711  1.00  0.00    -0.222 NA
ATOM     13  C   UNL A   1      33.560  22.368  27.768  1.00  0.00     0.115 A 
ATOM     14  C   UNL A   1      34.089  24.061  26.219  1.00  0.00     0.012 A 
ATOM     15  C   UNL A   1      34.518  23.034  27.044  1.00  0.00     0.021 A 
BRANCH  11  16
ATOM     16  O   UNL A   1      30.552  24.047  27.046  1.00  0.00    -0.481 OA
ATOM     17  C   UNL A   1      29.693  22.923  27.212  1.00  0.00     0.280 C 
ENDBRANCH  11  16
ENDBRANCH   9  10
ENDBRANCH   8   9
ENDBRANCH   6   8
ENDBRANCH   3   6
ENDBRANCH   1   2
BRANCH   1  18
ATOM     18  C   UNL A   1      31.440  32.102  26.565  1.00  0.00     0.042 C 
BRANCH  18  19
ATOM     19  C   UNL A   1      32.625  32.941  27.064  1.00  0.00     0.118 C 
BRANCH  19  20
ATOM     20  N   UNL A   1      32.307  34.239  27.614  1.00  0.00    -0.352 N 
ATOM     21  C   UNL A   1      32.972  34.899  28.629  1.00  0.00     0.251 C 
ATOM     22  H   UNL A   1      31.532  34.703  27.222  1.00  0.00     0.163 HD
ATOM     23  O   UNL A   1      32.575  35.986  29.026  1.00  0.00    -0.269 OA
BRANCH  21  24
ATOM     24  C   UNL A   1      34.165  34.288  29.266  1.00  0.00     0.039 A 
ATOM     25  C   UNL A   1      33.995  33.467  30.385  1.00  0.00     0.014 A 
ATOM     26  C   UNL A   1      35.452  34.590  28.814  1.00  0.00     0.014 A 
ATOM     27  C   UNL A   1      35.112  32.917  31.029  1.00  0.00     0.010 A 
ATOM     28  C   UNL A   1      36.568  34.022  29.449  1.00  0.00     0.010 A 
ATOM     29  C   UNL A   1      36.412  33.174  30.560  1.00  0.00    -0.014 A 
BRANCH  29  30
ATOM     30  C   UNL A   1      37.601  32.541  31.207  1.00  0.00     0.031 A 
ATOM     31  C   UNL A   1      38.336  31.407  30.541  1.00  0.00     0.074 A 
ATOM     32  C   UNL A   1      38.005  32.963  32.421  1.00  0.00     0.049 A 
ATOM     33  N   UNL A   1      39.359  30.709  30.976  1.00  0.00    -0.248 NA
ATOM     34  C   UNL A   1      37.855  30.999  29.214  1.00  0.00     0.031 C 
ATOM     35  C   UNL A   1      37.380  34.041  33.185  1.00  0.00     0.029 A 
ATOM     36  N   UNL A   1      39.028  32.530  33.235  1.00  0.00    -0.354 N 
ATOM     37  C   UNL A   1      39.636  29.777  29.983  1.00  0.00     0.074 A 
ATOM     38  C   UNL A   1      38.653  29.975  28.939  1.00  0.00     0.031 C 
ATOM     39  C   UNL A   1      38.031  34.190  34.351  1.00  0.00     0.029 A 
ATOM     40  C   UNL A   1      39.095  33.192  34.437  1.00  0.00     0.049 A 
ATOM     41  H   UNL A   1      39.652  31.814  32.979  1.00  0.00     0.167 HD
ATOM     42  C   UNL A   1      40.627  28.850  29.940  1.00  0.00     0.037 A 
ATOM     43  C   UNL A   1      39.904  33.007  35.500  1.00  0.00     0.037 A 
ATOM     44  C   UNL A   1      41.607  28.652  30.979  1.00  0.00     0.049 A 
ATOM     45  C   UNL A   1      40.963  31.936  35.449  1.00  0.00     0.074 A 
ATOM     46  C   UNL A   1      42.672  27.767  31.003  1.00  0.00     0.029 A 
ATOM     47  N   UNL A   1      41.633  29.338  32.184  1.00  0.00    -0.354 N 
ATOM     48  N   UNL A   1      41.255  31.107  34.477  1.00  0.00    -0.248 NA
ATOM     49  C   UNL A   1      41.809  31.778  36.642  1.00  0.00     0.031 C 
ATOM     50  C   UNL A   1      43.303  27.873  32.247  1.00  0.00     0.029 A 
ATOM     51  C   UNL A   1      42.677  28.873  32.971  1.00  0.00     0.049 A 
ATOM     52  H   UNL A   1      41.004  30.049  32.444  1.00  0.00     0.167 HD
ATOM     53  C   UNL A   1      42.336  30.357  34.925  1.00  0.00     0.074 A 
ATOM     54  C   UNL A   1      42.654  30.833  36.253  1.00  0.00     0.031 C 
ATOM     55  C   UNL A   1      43.003  29.365  34.286  1.00  0.00     0.037 A 
BRANCH  42  56
ATOM     56  C   UNL A   1      40.699  27.957  28.731  1.00  0.00     0.064 A 
ATOM     57  C   UNL A   1      39.979  26.755  28.658  1.00  0.00     0.173 A 
ATOM     58  C   UNL A   1      41.455  28.335  27.610  1.00  0.00     0.173 A 
ATOM     59  F   UNL A   1      39.240  26.347  29.700  1.00  0.00    -0.203 F 
ATOM     60  C   UNL A   1      40.040  25.948  27.524  1.00  0.00     0.198 A 
ATOM     61  C   UNL A   1      41.488  27.541  26.465  1.00  0.00     0.198 A 
ATOM     62  F   UNL A   1      42.151  29.481  27.616  1.00  0.00    -0.203 F 
ATOM     63  F   UNL A   1      39.383  24.781  27.498  1.00  0.00    -0.200 F 
ATOM     64  C   UNL A   1      40.789  26.345  26.427  1.00  0.00     0.200 A 
ATOM     65  F   UNL A   1      42.196  27.937  25.397  1.00  0.00    -0.200 F 
ATOM     66  F   UNL A   1      40.841  25.571  25.333  1.00  0.00    -0.200 F 
ENDBRANCH  42  56
BRANCH  43  67
ATOM     67  C   UNL A   1      39.749  33.859  36.711  1.00  0.00     0.064 A 
ATOM     68  C   UNL A   1      38.939  33.456  37.781  1.00  0.00     0.173 A 
ATOM     69  C   UNL A   1      40.395  35.100  36.817  1.00  0.00     0.173 A 
ATOM     70  F   UNL A   1      38.281  32.289  37.720  1.00  0.00    -0.203 F 
ATOM     71  C   UNL A   1      38.765  34.268  38.901  1.00  0.00     0.198 A 
ATOM     72  C   UNL A   1      40.247  35.897  37.952  1.00  0.00     0.198 A 
ATOM     73  F   UNL A   1      41.185  35.534  35.824  1.00  0.00    -0.203 F 
ATOM     74  F   UNL A   1      37.945  33.879  39.886  1.00  0.00    -0.200 F 
ATOM     75  C   UNL A   1      39.424  35.485  38.988  1.00  0.00     0.200 A 
ATOM     76  F   UNL A   1      40.900  37.064  38.038  1.00  0.00    -0.200 F 
ATOM     77  F   UNL A   1      39.261  36.262  40.067  1.00  0.00    -0.200 F 
ENDBRANCH  43  67
BRANCH  55  78
ATOM     78  C   UNL A   1      44.185  28.753  34.983  1.00  0.00     0.064 A 
ATOM     79  C   UNL A   1      44.063  27.613  35.791  1.00  0.00     0.173 A 
ATOM     80  C   UNL A   1      45.473  29.277  34.781  1.00  0.00     0.173 A 
ATOM     81  F   UNL A   1      42.854  27.081  36.031  1.00  0.00    -0.203 F 
ATOM     82  C   UNL A   1      45.183  27.029  36.379  1.00  0.00     0.198 A 
ATOM     83  C   UNL A   1      46.592  28.672  35.344  1.00  0.00     0.198 A 
ATOM     84  F   UNL A   1      45.647  30.365  34.014  1.00  0.00    -0.203 F 
ATOM     85  F   UNL A   1      45.038  25.961  37.177  1.00  0.00    -0.200 F 
ATOM     86  C   UNL A   1      46.446  27.551  36.146  1.00  0.00     0.200 A 
ATOM     87  F   UNL A   1      47.813  29.170  35.105  1.00  0.00    -0.200 F 
ATOM     88  F   UNL A   1      47.524  26.976  36.698  1.00  0.00    -0.200 F 
ENDBRANCH  55  78
ENDBRANCH  29  30
ENDBRANCH  21  24
ENDBRANCH  19  20
ENDBRANCH  18  19
ENDBRANCH   1  18
TORSDOF 14
ENDMDL
MODEL 2
REMARK VINA RESULT:     -11.0      1.018      1.671
REMARK SMILES COc1ncccc1CS[C@@H](C)C(=O)NCCCNC(=O)c1ccc(-c2c3nc(c(-c4c(F)c(F)c(F)c(F)c4F)c4ccc([nH]4)c(-c4c(F)c(F)c(F)c(F)c4F)c4nc(c(-c5c(F)c(F)c(F)c(F)c5F)c5ccc2[nH]5)C=C4)C=C3)cc1
REMARK SMILES IDX 16 1 15 2 13 3 14 4 11 6 12 7 10 8 9 9 8 10 3 11 4 12 5 13
REMARK SMILES IDX 7 14 6 15 2 16 1 17 17 18 18 19 19 20 20 21 21 23 22 24
REMARK SMILES IDX 23 25 84 26 24 27 83 28 25 29 26 30 27 31 77 32 28 33 82 34
REMARK SMILES IDX 76 35 78 36 29 37 81 38 75 39 74 40 30 42 62 43 42 44 61 45
REMARK SMILES IDX 43 46 46 47 60 48 79 49 44 50 45 51 59 53 80 54 47 55 31 56
REMARK SMILES IDX 32 57 40 58 33 59 34 60 38 61 41 62 35 63 36 64 39 65 37 66
REMARK SMILES IDX 63 67 64 68 72 69 65 70 66 71 70 72 73 73 67 74 68 75 71 76
REMARK SMILES IDX 69 77 48 78 49 79 57 80 50 81 51 82 55 83 58 84 52 85 53 86
REMARK SMILES IDX 56 87 54 88
REMARK H PARENT 15 5 19 22 78 41 46 52
REMARK Flexibility Score: inf
ROOT
ATOM      1  C   UNL A   1      31.414  30.707  25.927  1.00  0.00     0.117 C 
ENDROOT
BRANCH   1   2
ATOM      2  N   UNL A   1      30.901  30.423  24.598  1.00  0.00    -0.355 N 
ATOM      3  C   UNL A   1      30.793  29.325  23.795  1.00  0.00     0.232 C 
ATOM      4  O   UNL A   1      30.092  29.492  22.787  1.00  0.00    -0.274 OA
ATOM      5  H   UNL A   1      30.537  31.229  24.164  1.00  0.00     0.163 HD
BRANCH   3   6
ATOM      6  C   UNL A   1      31.451  27.970  24.008  1.00  0.00     0.133 C 
ATOM      7  C   UNL A   1      31.997  27.303  22.753  1.00  0.00     0.030 C 
BRANCH   6   8
ATOM      8  S   UNL A   1      30.648  26.809  25.178  1.00  0.00    -0.144 SA
BRANCH   8   9
ATOM      9  C   UNL A   1      31.904  26.343  26.389  1.00  0.00     0.111 C 
BRANCH   9  10
ATOM     10  C   UNL A   1      32.785  25.154  26.113  1.00  0.00     0.024 A 
ATOM     11  C   UNL A   1      32.521  23.877  26.599  1.00  0.00     0.217 A 
ATOM     12  N   UNL A   1      33.391  22.840  26.516  1.00  0.00    -0.222 NA
ATOM     13  C   UNL A   1      34.577  23.057  25.909  1.00  0.00     0.115 A 
ATOM     14  C   UNL A   1      34.032  25.310  25.492  1.00  0.00     0.012 A 
ATOM     15  C   UNL A   1      34.944  24.272  25.384  1.00  0.00     0.021 A 
BRANCH  11  16
ATOM     16  O   UNL A   1      31.441  23.627  27.401  1.00  0.00    -0.481 OA
ATOM     17  C   UNL A   1      30.380  22.994  26.692  1.00  0.00     0.280 C 
ENDBRANCH  11  16
ENDBRANCH   9  10
ENDBRANCH   8   9
ENDBRANCH   6   8
ENDBRANCH   3   6
ENDBRANCH   1   2
BRANCH   1  18
ATOM     18  C   UNL A   1      31.313  32.136  26.513  1.00  0.00     0.042 C 
BRANCH  18  19
ATOM     19  C   UNL A   1      32.498  32.886  27.136  1.00  0.00     0.118 C 
BRANCH  19  20
ATOM     20  N   UNL A   1      32.227  34.218  27.629  1.00  0.00    -0.352 N 
ATOM     21  C   UNL A   1      32.925  34.903  28.604  1.00  0.00     0.251 C 
ATOM     22  H   UNL A   1      31.461  34.688  27.225  1.00  0.00     0.163 HD
ATOM     23  O   UNL A   1      32.567  36.019  28.955  1.00  0.00    -0.269 OA
BRANCH  21  24
ATOM     24  C   UNL A   1      34.106  34.285  29.256  1.00  0.00     0.039 A 
ATOM     25  C   UNL A   1      33.926  33.519  30.411  1.00  0.00     0.014 A 
ATOM     26  C   UNL A   1      35.397  34.529  28.777  1.00  0.00     0.014 A 
ATOM     27  C   UNL A   1      35.034  32.964  31.067  1.00  0.00     0.010 A 
ATOM     28  C   UNL A   1      36.503  33.955  29.425  1.00  0.00     0.010 A 
ATOM     29  C   UNL A   1      36.335  33.161  30.573  1.00  0.00    -0.014 A 
BRANCH  29  30
ATOM     30  C   UNL A   1      37.512  32.522  31.235  1.00  0.00     0.031 A 
ATOM     31  C   UNL A   1      38.255  31.389  30.574  1.00  0.00     0.074 A 
ATOM     32  C   UNL A   1      37.899  32.936  32.457  1.00  0.00     0.049 A 
ATOM     33  N   UNL A   1      39.269  30.686  31.021  1.00  0.00    -0.248 NA
ATOM     34  C   UNL A   1      37.793  30.989  29.238  1.00  0.00     0.031 C 
ATOM     35  C   UNL A   1      37.265  34.013  33.217  1.00  0.00     0.029 A 
ATOM     36  N   UNL A   1      38.908  32.496  33.284  1.00  0.00    -0.354 N 
ATOM     37  C   UNL A   1      39.559  29.759  30.028  1.00  0.00     0.074 A 
ATOM     38  C   UNL A   1      38.592  29.965  28.970  1.00  0.00     0.031 C 
ATOM     39  C   UNL A   1      37.899  34.153  34.394  1.00  0.00     0.029 A 
ATOM     40  C   UNL A   1      38.958  33.152  34.491  1.00  0.00     0.049 A 
ATOM     41  H   UNL A   1      39.534  31.780  33.034  1.00  0.00     0.167 HD
ATOM     42  C   UNL A   1      40.547  28.830  29.995  1.00  0.00     0.037 A 
ATOM     43  C   UNL A   1      39.751  32.959  35.566  1.00  0.00     0.037 A 
ATOM     44  C   UNL A   1      41.511  28.623  31.048  1.00  0.00     0.049 A 
ATOM     45  C   UNL A   1      40.807  31.886  35.524  1.00  0.00     0.074 A 
ATOM     46  C   UNL A   1      42.573  27.735  31.084  1.00  0.00     0.029 A 
ATOM     47  N   UNL A   1      41.520  29.303  32.257  1.00  0.00    -0.354 N 
ATOM     48  N   UNL A   1      41.112  31.061  34.554  1.00  0.00    -0.248 NA
ATOM     49  C   UNL A   1      41.635  31.719  36.730  1.00  0.00     0.031 C 
ATOM     50  C   UNL A   1      43.186  27.833  32.338  1.00  0.00     0.029 A 
ATOM     51  C   UNL A   1      42.551  28.831  33.057  1.00  0.00     0.049 A 
ATOM     52  H   UNL A   1      40.889  30.014  32.511  1.00  0.00     0.167 HD
ATOM     53  C   UNL A   1      42.184  30.306  35.013  1.00  0.00     0.074 A 
ATOM     54  C   UNL A   1      42.483  30.774  36.349  1.00  0.00     0.031 C 
ATOM     55  C   UNL A   1      42.858  29.315  34.380  1.00  0.00     0.037 A 
BRANCH  42  56
ATOM     56  C   UNL A   1      40.636  27.943  28.783  1.00  0.00     0.064 A 
ATOM     57  C   UNL A   1      39.924  26.736  28.699  1.00  0.00     0.173 A 
ATOM     58  C   UNL A   1      41.399  28.330  27.670  1.00  0.00     0.173 A 
ATOM     59  F   UNL A   1      39.179  26.318  29.732  1.00  0.00    -0.203 F 
ATOM     60  C   UNL A   1      40.001  25.935  27.561  1.00  0.00     0.198 A 
ATOM     61  C   UNL A   1      41.447  27.542  26.522  1.00  0.00     0.198 A 
ATOM     62  F   UNL A   1      42.087  29.481  27.688  1.00  0.00    -0.203 F 
ATOM     63  F   UNL A   1      39.351  24.764  27.524  1.00  0.00    -0.200 F 
ATOM     64  C   UNL A   1      40.757  26.342  26.472  1.00  0.00     0.200 A 
ATOM     65  F   UNL A   1      42.162  27.947  25.462  1.00  0.00    -0.200 F 
ATOM     66  F   UNL A   1      40.823  25.573  25.375  1.00  0.00    -0.200 F 
ENDBRANCH  42  56
BRANCH  43  67
ATOM     67  C   UNL A   1      39.580  33.806  36.778  1.00  0.00     0.064 A 
ATOM     68  C   UNL A   1      38.774  33.386  37.846  1.00  0.00     0.173 A 
ATOM     69  C   UNL A   1      40.205  35.057  36.889  1.00  0.00     0.173 A 
ATOM     70  F   UNL A   1      38.135  32.209  37.780  1.00  0.00    -0.203 F 
ATOM     71  C   UNL A   1      38.584  34.193  38.967  1.00  0.00     0.198 A 
ATOM     72  C   UNL A   1      40.042  35.848  38.025  1.00  0.00     0.198 A 
ATOM     73  F   UNL A   1      40.990  35.506  35.898  1.00  0.00    -0.203 F 
ATOM     74  F   UNL A   1      37.769  33.787  39.950  1.00  0.00    -0.200 F 
ATOM     75  C   UNL A   1      39.223  35.420  39.058  1.00  0.00     0.200 A 
ATOM     76  F   UNL A   1      40.675  37.025  38.116  1.00  0.00    -0.200 F 
ATOM     77  F   UNL A   1      39.046  36.191  40.139  1.00  0.00    -0.200 F 
ENDBRANCH  43  67
BRANCH  55  78
ATOM     78  C   UNL A   1      44.028  28.697  35.092  1.00  0.00     0.064 A 
ATOM     79  C   UNL A   1      45.322  29.227  34.993  1.00  0.00     0.173 A 
ATOM     80  C   UNL A   1      43.834  27.596  35.944  1.00  0.00     0.173 A 
ATOM     81  F   UNL A   1      45.566  30.267  34.182  1.00  0.00    -0.203 F 
ATOM     82  C   UNL A   1      46.380  28.671  35.710  1.00  0.00     0.198 A 
ATOM     83  C   UNL A   1      44.887  27.064  36.682  1.00  0.00     0.198 A 
ATOM     84  F   UNL A   1      42.615  27.052  36.077  1.00  0.00    -0.203 F 
ATOM     85  F   UNL A   1      47.617  29.172  35.572  1.00  0.00    -0.200 F 
ATOM     86  C   UNL A   1      46.160  27.599  36.562  1.00  0.00     0.200 A 
ATOM     87  F   UNL A   1      44.668  26.038  37.516  1.00  0.00    -0.200 F 
ATOM     88  F   UNL A   1      47.175  27.078  37.264  1.00  0.00    -0.200 F 
ENDBRANCH  55  78
ENDBRANCH  29  30
ENDBRANCH  21  24
ENDBRANCH  19  20
ENDBRANCH  18  19
ENDBRANCH   1  18
TORSDOF 14
ENDMDL
MODEL 3
REMARK VINA RESULT:     -10.8      1.515      2.402
REMARK SMILES COc1ncccc1CS[C@@H](C)C(=O)NCCCNC(=O)c1ccc(-c2c3nc(c(-c4c(F)c(F)c(F)c(F)c4F)c4ccc([nH]4)c(-c4c(F)c(F)c(F)c(F)c4F)c4nc(c(-c5c(F)c(F)c(F)c(F)c5F)c5ccc2[nH]5)C=C4)C=C3)cc1
REMARK SMILES IDX 16 1 15 2 13 3 14 4 11 6 12 7 10 8 9 9 8 10 3 11 4 12 5 13
REMARK SMILES IDX 7 14 6 15 2 16 1 17 17 18 18 19 19 20 20 21 21 23 22 24
REMARK SMILES IDX 23 25 84 26 24 27 83 28 25 29 26 30 27 31 77 32 28 33 82 34
REMARK SMILES IDX 76 35 78 36 29 37 81 38 75 39 74 40 30 42 62 43 42 44 61 45
REMARK SMILES IDX 43 46 46 47 60 48 79 49 44 50 45 51 59 53 80 54 47 55 31 56
REMARK SMILES IDX 32 57 40 58 33 59 34 60 38 61 41 62 35 63 36 64 39 65 37 66
REMARK SMILES IDX 63 67 64 68 72 69 65 70 66 71 70 72 73 73 67 74 68 75 71 76
REMARK SMILES IDX 69 77 48 78 49 79 57 80 50 81 51 82 55 83 58 84 52 85 53 86
REMARK SMILES IDX 56 87 54 88
REMARK H PARENT 15 5 19 22 78 41 46 52
REMARK Flexibility Score: inf
ROOT
ATOM      1  C   UNL A   1      31.534  30.224  25.839  1.00  0.00     0.117 C 
ENDROOT
BRANCH   1   2
ATOM      2  N   UNL A   1      32.482  29.971  24.767  1.00  0.00    -0.355 N 
ATOM      3  C   UNL A   1      32.905  28.884  24.059  1.00  0.00     0.232 C 
ATOM      4  O   UNL A   1      33.603  29.153  23.071  1.00  0.00    -0.274 OA
ATOM      5  H   UNL A   1      32.934  30.795  24.475  1.00  0.00     0.163 HD
BRANCH   3   6
ATOM      6  C   UNL A   1      32.625  27.422  24.376  1.00  0.00     0.133 C 
ATOM      7  C   UNL A   1      31.211  26.946  24.071  1.00  0.00     0.030 C 
BRANCH   6   8
ATOM      8  S   UNL A   1      33.321  26.740  25.928  1.00  0.00    -0.144 SA
BRANCH   8   9
ATOM      9  C   UNL A   1      33.442  24.952  25.699  1.00  0.00     0.111 C 
BRANCH   9  10
ATOM     10  C   UNL A   1      34.577  24.392  24.883  1.00  0.00     0.024 A 
ATOM     11  C   UNL A   1      34.442  23.999  23.555  1.00  0.00     0.217 A 
ATOM     12  N   UNL A   1      35.397  23.326  22.864  1.00  0.00    -0.222 NA
ATOM     13  C   UNL A   1      36.553  23.040  23.499  1.00  0.00     0.115 A 
ATOM     14  C   UNL A   1      35.802  24.066  25.481  1.00  0.00     0.012 A 
ATOM     15  C   UNL A   1      36.802  23.385  24.804  1.00  0.00     0.021 A 
BRANCH  11  16
ATOM     16  O   UNL A   1      33.239  24.066  22.908  1.00  0.00    -0.481 OA
ATOM     17  C   UNL A   1      32.645  22.783  22.742  1.00  0.00     0.280 C 
ENDBRANCH  11  16
ENDBRANCH   9  10
ENDBRANCH   8   9
ENDBRANCH   6   8
ENDBRANCH   3   6
ENDBRANCH   1   2
BRANCH   1  18
ATOM     18  C   UNL A   1      31.426  31.633  26.467  1.00  0.00     0.042 C 
BRANCH  18  19
ATOM     19  C   UNL A   1      32.639  32.476  26.884  1.00  0.00     0.118 C 
BRANCH  19  20
ATOM     20  N   UNL A   1      32.358  33.801  27.388  1.00  0.00    -0.352 N 
ATOM     21  C   UNL A   1      33.046  34.479  28.375  1.00  0.00     0.251 C 
ATOM     22  H   UNL A   1      31.594  34.271  26.983  1.00  0.00     0.163 HD
ATOM     23  O   UNL A   1      32.680  35.591  28.734  1.00  0.00    -0.269 OA
BRANCH  21  24
ATOM     24  C   UNL A   1      34.225  33.861  29.029  1.00  0.00     0.039 A 
ATOM     25  C   UNL A   1      34.029  32.857  29.983  1.00  0.00     0.014 A 
ATOM     26  C   UNL A   1      35.517  34.326  28.766  1.00  0.00     0.014 A 
ATOM     27  C   UNL A   1      35.127  32.292  30.645  1.00  0.00     0.010 A 
ATOM     28  C   UNL A   1      36.617  33.744  29.416  1.00  0.00     0.010 A 
ATOM     29  C   UNL A   1      36.436  32.716  30.358  1.00  0.00    -0.014 A 
BRANCH  29  30
ATOM     30  C   UNL A   1      37.613  32.073  31.018  1.00  0.00     0.031 A 
ATOM     31  C   UNL A   1      38.406  31.000  30.318  1.00  0.00     0.074 A 
ATOM     32  C   UNL A   1      37.954  32.430  32.272  1.00  0.00     0.049 A 
ATOM     33  N   UNL A   1      39.428  30.302  30.755  1.00  0.00    -0.248 NA
ATOM     34  C   UNL A   1      37.994  30.663  28.949  1.00  0.00     0.031 C 
ATOM     35  C   UNL A   1      37.268  33.444  33.071  1.00  0.00     0.029 A 
ATOM     36  N   UNL A   1      38.952  31.972  33.102  1.00  0.00    -0.354 N 
ATOM     37  C   UNL A   1      39.773  29.440  29.721  1.00  0.00     0.074 A 
ATOM     38  C   UNL A   1      38.829  29.678  28.648  1.00  0.00     0.031 C 
ATOM     39  C   UNL A   1      37.865  33.536  34.271  1.00  0.00     0.029 A 
ATOM     40  C   UNL A   1      38.950  32.561  34.344  1.00  0.00     0.049 A 
ATOM     41  H   UNL A   1      39.606  31.289  32.832  1.00  0.00     0.167 HD
ATOM     42  C   UNL A   1      40.788  28.542  29.666  1.00  0.00     0.037 A 
ATOM     43  C   UNL A   1      39.718  32.331  35.429  1.00  0.00     0.037 A 
ATOM     44  C   UNL A   1      41.728  28.304  30.733  1.00  0.00     0.049 A 
ATOM     45  C   UNL A   1      40.807  31.292  35.360  1.00  0.00     0.074 A 
ATOM     46  C   UNL A   1      42.815  27.445  30.752  1.00  0.00     0.029 A 
ATOM     47  N   UNL A   1      41.685  28.915  31.978  1.00  0.00    -0.354 N 
ATOM     48  N   UNL A   1      41.162  30.530  34.354  1.00  0.00    -0.248 NA
ATOM     49  C   UNL A   1      41.605  31.081  36.577  1.00  0.00     0.031 C 
ATOM     50  C   UNL A   1      43.390  27.490  32.026  1.00  0.00     0.029 A 
ATOM     51  C   UNL A   1      42.706  28.428  32.780  1.00  0.00     0.049 A 
ATOM     52  H   UNL A   1      41.026  29.593  32.252  1.00  0.00     0.167 HD
ATOM     53  C   UNL A   1      42.242  29.781  34.803  1.00  0.00     0.074 A 
ATOM     54  C   UNL A   1      42.491  30.183  36.170  1.00  0.00     0.031 C 
ATOM     55  C   UNL A   1      42.963  28.846  34.136  1.00  0.00     0.037 A 
BRANCH  42  56
ATOM     56  C   UNL A   1      40.936  27.727  28.410  1.00  0.00     0.064 A 
ATOM     57  C   UNL A   1      41.768  28.138  27.357  1.00  0.00     0.173 A 
ATOM     58  C   UNL A   1      40.280  26.492  28.280  1.00  0.00     0.173 A 
ATOM     59  F   UNL A   1      42.419  29.309  27.429  1.00  0.00    -0.203 F 
ATOM     60  C   UNL A   1      41.910  27.363  26.209  1.00  0.00     0.198 A 
ATOM     61  C   UNL A   1      40.450  25.704  27.143  1.00  0.00     0.198 A 
ATOM     62  F   UNL A   1      39.485  26.040  29.261  1.00  0.00    -0.203 F 
ATOM     63  F   UNL A   1      42.671  27.800  25.197  1.00  0.00    -0.200 F 
ATOM     64  C   UNL A   1      41.257  26.144  26.106  1.00  0.00     0.200 A 
ATOM     65  F   UNL A   1      39.834  24.516  27.055  1.00  0.00    -0.200 F 
ATOM     66  F   UNL A   1      41.401  25.395  25.003  1.00  0.00    -0.200 F 
ENDBRANCH  42  56
BRANCH  43  67
ATOM     67  C   UNL A   1      39.489  33.103  36.681  1.00  0.00     0.064 A 
ATOM     68  C   UNL A   1      40.220  34.267  36.958  1.00  0.00     0.173 A 
ATOM     69  C   UNL A   1      38.546  32.687  37.633  1.00  0.00     0.173 A 
ATOM     70  F   UNL A   1      41.150  34.695  36.092  1.00  0.00    -0.203 F 
ATOM     71  C   UNL A   1      40.031  34.972  38.146  1.00  0.00     0.198 A 
ATOM     72  C   UNL A   1      38.334  33.411  38.805  1.00  0.00     0.198 A 
ATOM     73  F   UNL A   1      37.817  31.581  37.418  1.00  0.00    -0.203 F 
ATOM     74  F   UNL A   1      40.779  36.053  38.406  1.00  0.00    -0.200 F 
ATOM     75  C   UNL A   1      39.084  34.547  39.065  1.00  0.00     0.200 A 
ATOM     76  F   UNL A   1      37.406  33.006  39.682  1.00  0.00    -0.200 F 
ATOM     77  F   UNL A   1      38.899  35.229  40.203  1.00  0.00    -0.200 F 
ENDBRANCH  43  67
BRANCH  55  78
ATOM     78  C   UNL A   1      44.130  28.222  34.846  1.00  0.00     0.064 A 
ATOM     79  C   UNL A   1      44.011  27.017  35.555  1.00  0.00     0.173 A 
ATOM     80  C   UNL A   1      45.405  28.805  34.756  1.00  0.00     0.173 A 
ATOM     81  F   UNL A   1      42.813  26.427  35.686  1.00  0.00    -0.203 F 
ATOM     82  C   UNL A   1      45.121  26.427  36.156  1.00  0.00     0.198 A 
ATOM     83  C   UNL A   1      46.517  28.195  35.330  1.00  0.00     0.198 A 
ATOM     84  F   UNL A   1      45.576  29.956  34.088  1.00  0.00    -0.203 F 
ATOM     85  F   UNL A   1      44.976  25.294  36.858  1.00  0.00    -0.200 F 
ATOM     86  C   UNL A   1      46.373  27.009  36.033  1.00  0.00     0.200 A 
ATOM     87  F   UNL A   1      47.728  28.752  35.197  1.00  0.00    -0.200 F 
ATOM     88  F   UNL A   1      47.442  26.430  36.596  1.00  0.00    -0.200 F 
ENDBRANCH  55  78
ENDBRANCH  29  30
ENDBRANCH  21  24
ENDBRANCH  19  20
ENDBRANCH  18  19
ENDBRANCH   1  18
TORSDOF 14
ENDMDL
