MODEL 1
REMARK VINA RESULT:     -11.7      0.000      0.000
REMARK SMILES O=C(NCCCNC(=O)[C@@H](Cc1ccc(F)cc1)C[C@H](O)C(F)(F)F)c1ccc(-c2c3nc(c(-c4c(F)c(F)c(F)c(F)c4F)c4ccc([nH]4)c(-c4c(F)c(F)c(F)c(F)c4F)c4nc(c(-c5c(F)c(F)c(F)c(F)c5F)c5ccc2[nH]5)C=C4)C=C3)cc1
REMARK SMILES IDX 5 1 4 2 3 3 1 4 2 5 26 7 27 8 88 9 28 10 87 11 29 12 30 13
REMARK SMILES IDX 31 14 81 15 32 16 86 17 80 18 82 19 33 20 85 21 79 22 78 23
REMARK SMILES IDX 34 25 66 26 46 27 65 28 47 29 50 30 64 31 83 32 48 33 49 34
REMARK SMILES IDX 63 36 84 37 51 38 35 39 36 40 44 41 37 42 38 43 42 44 45 45
REMARK SMILES IDX 39 46 40 47 43 48 41 49 67 50 68 51 76 52 69 53 70 54 74 55
REMARK SMILES IDX 77 56 71 57 72 58 75 59 73 60 52 61 53 62 61 63 54 64 55 65
REMARK SMILES IDX 59 66 62 67 56 68 57 69 60 70 58 71 6 72 7 73 8 74 9 76
REMARK SMILES IDX 10 77 11 78 12 79 13 80 18 81 14 82 17 83 15 84 16 85 19 86
REMARK SMILES IDX 20 87 22 88 23 89 24 90 25 91 21 92
REMARK H PARENT 3 6 82 24 50 35 7 75 21 93
REMARK Flexibility Score: inf
ROOT
ATOM      1  C   UNL A   1      32.912  29.286  24.553  1.00  0.00     0.042 C 
ENDROOT
BRANCH   1   2
ATOM      2  C   UNL A   1      32.459  29.435  25.997  1.00  0.00     0.118 C 
BRANCH   2   3
ATOM      3  N   UNL A   1      32.440  30.824  26.434  1.00  0.00    -0.352 N 
ATOM      4  O   UNL A   1      32.828  32.755  27.449  1.00  0.00    -0.269 OA
ATOM      5  C   UNL A   1      33.257  31.622  27.193  1.00  0.00     0.251 C 
ATOM      6  H   UNL A   1      31.648  31.308  26.103  1.00  0.00     0.163 HD
BRANCH   5   7
ATOM      7  C   UNL A   1      34.591  31.237  27.742  1.00  0.00     0.039 A 
ATOM      8  C   UNL A   1      35.625  32.132  27.996  1.00  0.00     0.014 A 
ATOM      9  C   UNL A   1      34.783  29.894  28.121  1.00  0.00     0.014 A 
ATOM     10  C   UNL A   1      36.845  31.691  28.516  1.00  0.00     0.010 A 
ATOM     11  C   UNL A   1      35.967  29.470  28.750  1.00  0.00     0.010 A 
ATOM     12  C   UNL A   1      37.018  30.369  28.950  1.00  0.00    -0.014 A 
BRANCH  12  13
ATOM     13  C   UNL A   1      38.256  30.011  29.701  1.00  0.00     0.031 A 
ATOM     14  C   UNL A   1      38.506  30.504  31.098  1.00  0.00     0.074 A 
ATOM     15  C   UNL A   1      39.150  29.185  29.114  1.00  0.00     0.049 A 
ATOM     16  N   UNL A   1      39.512  30.241  31.896  1.00  0.00    -0.248 NA
ATOM     17  C   UNL A   1      37.508  31.414  31.677  1.00  0.00     0.031 C 
ATOM     18  C   UNL A   1      39.032  28.657  27.752  1.00  0.00     0.029 A 
ATOM     19  N   UNL A   1      40.307  28.613  29.585  1.00  0.00    -0.354 N 
ATOM     20  C   UNL A   1      39.279  30.963  33.058  1.00  0.00     0.074 A 
ATOM     21  C   UNL A   1      38.048  31.698  32.856  1.00  0.00     0.031 C 
ATOM     22  C   UNL A   1      40.022  27.784  27.527  1.00  0.00     0.029 A 
ATOM     23  C   UNL A   1      40.900  27.755  28.690  1.00  0.00     0.049 A 
ATOM     24  H   UNL A   1      40.676  28.801  30.479  1.00  0.00     0.167 HD
ATOM     25  C   UNL A   1      40.020  30.997  34.192  1.00  0.00     0.037 A 
ATOM     26  C   UNL A   1      42.035  27.035  28.777  1.00  0.00     0.037 A 
ATOM     27  C   UNL A   1      41.235  30.246  34.392  1.00  0.00     0.049 A 
ATOM     28  C   UNL A   1      42.852  27.114  30.034  1.00  0.00     0.074 A 
ATOM     29  C   UNL A   1      42.033  30.188  35.521  1.00  0.00     0.029 A 
ATOM     30  N   UNL A   1      41.830  29.429  33.441  1.00  0.00    -0.354 N 
ATOM     31  N   UNL A   1      42.601  27.779  31.136  1.00  0.00    -0.248 NA
ATOM     32  C   UNL A   1      44.109  26.358  30.060  1.00  0.00     0.031 C 
ATOM     33  C   UNL A   1      43.142  29.387  35.234  1.00  0.00     0.029 A 
ATOM     34  C   UNL A   1      43.002  28.888  33.948  1.00  0.00     0.049 A 
ATOM     35  H   UNL A   1      41.472  29.257  32.540  1.00  0.00     0.167 HD
ATOM     36  C   UNL A   1      43.661  27.516  31.990  1.00  0.00     0.074 A 
ATOM     37  C   UNL A   1      44.547  26.611  31.287  1.00  0.00     0.031 C 
ATOM     38  C   UNL A   1      43.879  27.988  33.240  1.00  0.00     0.037 A 
BRANCH  25  39
ATOM     39  C   UNL A   1      39.560  31.886  35.314  1.00  0.00     0.064 A 
ATOM     40  C   UNL A   1      38.630  31.414  36.254  1.00  0.00     0.173 A 
ATOM     41  C   UNL A   1      39.963  33.226  35.409  1.00  0.00     0.173 A 
ATOM     42  F   UNL A   1      38.202  30.145  36.204  1.00  0.00    -0.203 F 
ATOM     43  C   UNL A   1      38.112  32.255  37.237  1.00  0.00     0.198 A 
ATOM     44  C   UNL A   1      39.465  34.056  36.411  1.00  0.00     0.198 A 
ATOM     45  F   UNL A   1      40.853  33.726  34.538  1.00  0.00    -0.203 F 
ATOM     46  F   UNL A   1      37.196  31.791  38.099  1.00  0.00    -0.200 F 
ATOM     47  C   UNL A   1      38.532  33.573  37.317  1.00  0.00     0.200 A 
ATOM     48  F   UNL A   1      39.887  35.324  36.500  1.00  0.00    -0.200 F 
ATOM     49  F   UNL A   1      38.037  34.380  38.267  1.00  0.00    -0.200 F 
ENDBRANCH  25  39
BRANCH  26  50
ATOM     50  C   UNL A   1      42.456  26.191  27.627  1.00  0.00     0.064 A 
ATOM     51  C   UNL A   1      41.963  24.885  27.466  1.00  0.00     0.173 A 
ATOM     52  C   UNL A   1      43.400  26.647  26.698  1.00  0.00     0.173 A 
ATOM     53  F   UNL A   1      41.061  24.397  28.331  1.00  0.00    -0.203 F 
ATOM     54  C   UNL A   1      42.427  24.059  26.446  1.00  0.00     0.198 A 
ATOM     55  C   UNL A   1      43.838  25.830  25.656  1.00  0.00     0.198 A 
ATOM     56  F   UNL A   1      43.886  27.893  26.794  1.00  0.00    -0.203 F 
ATOM     57  F   UNL A   1      41.982  22.798  26.354  1.00  0.00    -0.200 F 
ATOM     58  C   UNL A   1      43.362  24.533  25.540  1.00  0.00     0.200 A 
ATOM     59  F   UNL A   1      44.724  26.299  24.766  1.00  0.00    -0.200 F 
ATOM     60  F   UNL A   1      43.805  23.739  24.555  1.00  0.00    -0.200 F 
ENDBRANCH  26  50
BRANCH  38  61
ATOM     61  C   UNL A   1      45.118  27.528  33.951  1.00  0.00     0.064 A 
ATOM     62  C   UNL A   1      45.087  26.383  34.760  1.00  0.00     0.173 A 
ATOM     63  C   UNL A   1      46.312  28.263  33.896  1.00  0.00     0.173 A 
ATOM     64  F   UNL A   1      43.968  25.647  34.851  1.00  0.00    -0.203 F 
ATOM     65  C   UNL A   1      46.199  26.002  35.506  1.00  0.00     0.198 A 
ATOM     66  C   UNL A   1      47.431  27.861  34.618  1.00  0.00     0.198 A 
ATOM     67  F   UNL A   1      46.396  29.357  33.124  1.00  0.00    -0.203 F 
ATOM     68  F   UNL A   1      46.133  24.928  36.304  1.00  0.00    -0.200 F 
ATOM     69  C   UNL A   1      47.372  26.740  35.431  1.00  0.00     0.200 A 
ATOM     70  F   UNL A   1      48.572  28.559  34.524  1.00  0.00    -0.200 F 
ATOM     71  F   UNL A   1      48.444  26.367  36.143  1.00  0.00    -0.200 F 
ENDBRANCH  38  61
ENDBRANCH  12  13
ENDBRANCH   5   7
ENDBRANCH   2   3
ENDBRANCH   1   2
BRANCH   1  72
ATOM     72  C   UNL A   1      31.840  28.742  23.592  1.00  0.00     0.117 C 
BRANCH  72  73
ATOM     73  N   UNL A   1      32.490  28.042  22.491  1.00  0.00    -0.356 N 
ATOM     74  C   UNL A   1      33.007  26.806  22.323  1.00  0.00     0.223 C 
ATOM     75  H   UNL A   1      32.572  28.599  21.685  1.00  0.00     0.163 HD
ATOM     76  O   UNL A   1      33.672  26.649  21.290  1.00  0.00    -0.275 OA
BRANCH  74  77
ATOM     77  C   UNL A   1      32.804  25.600  23.247  1.00  0.00     0.085 C 
BRANCH  77  78
ATOM     78  C   UNL A   1      33.726  25.555  24.489  1.00  0.00     0.049 C 
BRANCH  78  79
ATOM     79  C   UNL A   1      34.776  24.475  24.548  1.00  0.00    -0.047 A 
ATOM     80  C   UNL A   1      35.060  23.723  23.409  1.00  0.00     0.007 A 
ATOM     81  C   UNL A   1      35.478  24.189  25.728  1.00  0.00     0.007 A 
ATOM     82  C   UNL A   1      36.121  22.815  23.389  1.00  0.00     0.039 A 
ATOM     83  C   UNL A   1      36.504  23.236  25.731  1.00  0.00     0.039 A 
ATOM     84  C   UNL A   1      36.841  22.588  24.550  1.00  0.00     0.123 A 
ATOM     85  F   UNL A   1      37.861  21.721  24.533  1.00  0.00    -0.207 F 
ENDBRANCH  78  79
ENDBRANCH  77  78
BRANCH  77  86
ATOM     86  C   UNL A   1      31.355  25.132  23.455  1.00  0.00     0.055 C 
BRANCH  86  87
ATOM     87  C   UNL A   1      31.043  24.823  24.935  1.00  0.00     0.220 C 
BRANCH  87  88
ATOM     88  C   UNL A   1      30.155  25.903  25.577  1.00  0.00     0.414 C 
ATOM     89  F   UNL A   1      29.199  25.317  26.339  1.00  0.00    -0.168 F 
ATOM     90  F   UNL A   1      30.878  26.713  26.381  1.00  0.00    -0.168 F 
ATOM     91  F   UNL A   1      29.534  26.670  24.658  1.00  0.00    -0.168 F 
ENDBRANCH  87  88
BRANCH  87  92
ATOM     92  O   UNL A   1      30.454  23.509  25.000  1.00  0.00    -0.384 OA
ATOM     93  H   UNL A   1      29.767  23.429  24.321  1.00  0.00     0.211 HD
ENDBRANCH  87  92
ENDBRANCH  86  87
ENDBRANCH  77  86
ENDBRANCH  74  77
ENDBRANCH  72  73
ENDBRANCH   1  72
TORSDOF 16
ENDMDL
MODEL 2
REMARK VINA RESULT:     -11.7      0.330      1.750
REMARK SMILES O=C(NCCCNC(=O)[C@@H](Cc1ccc(F)cc1)C[C@H](O)C(F)(F)F)c1ccc(-c2c3nc(c(-c4c(F)c(F)c(F)c(F)c4F)c4ccc([nH]4)c(-c4c(F)c(F)c(F)c(F)c4F)c4nc(c(-c5c(F)c(F)c(F)c(F)c5F)c5ccc2[nH]5)C=C4)C=C3)cc1
REMARK SMILES IDX 5 1 4 2 3 3 1 4 2 5 26 7 27 8 88 9 28 10 87 11 29 12 30 13
REMARK SMILES IDX 31 14 81 15 32 16 86 17 80 18 82 19 33 20 85 21 79 22 78 23
REMARK SMILES IDX 34 25 66 26 46 27 65 28 47 29 50 30 64 31 83 32 48 33 49 34
REMARK SMILES IDX 63 36 84 37 51 38 35 39 36 40 44 41 37 42 38 43 42 44 45 45
REMARK SMILES IDX 39 46 40 47 43 48 41 49 67 50 68 51 76 52 69 53 70 54 74 55
REMARK SMILES IDX 77 56 71 57 72 58 75 59 73 60 52 61 53 62 61 63 54 64 55 65
REMARK SMILES IDX 59 66 62 67 56 68 57 69 60 70 58 71 6 72 7 73 8 74 9 76
REMARK SMILES IDX 10 77 11 78 12 79 13 80 18 81 14 82 17 83 15 84 16 85 19 86
REMARK SMILES IDX 20 87 22 88 23 89 24 90 25 91 21 92
REMARK H PARENT 3 6 82 24 50 35 7 75 21 93
REMARK Flexibility Score: inf
ROOT
ATOM      1  C   UNL A   1      32.907  29.205  24.379  1.00  0.00     0.042 C 
ENDROOT
BRANCH   1   2
ATOM      2  C   UNL A   1      32.438  29.328  25.821  1.00  0.00     0.118 C 
BRANCH   2   3
ATOM      3  N   UNL A   1      32.362  30.712  26.264  1.00  0.00    -0.352 N 
ATOM      4  O   UNL A   1      32.656  32.647  27.303  1.00  0.00    -0.269 OA
ATOM      5  C   UNL A   1      33.128  31.530  27.054  1.00  0.00     0.251 C 
ATOM      6  H   UNL A   1      31.565  31.173  25.912  1.00  0.00     0.163 HD
BRANCH   5   7
ATOM      7  C   UNL A   1      34.456  31.184  27.642  1.00  0.00     0.039 A 
ATOM      8  C   UNL A   1      35.473  32.102  27.885  1.00  0.00     0.014 A 
ATOM      9  C   UNL A   1      34.659  29.858  28.072  1.00  0.00     0.014 A 
ATOM     10  C   UNL A   1      36.688  31.698  28.444  1.00  0.00     0.010 A 
ATOM     11  C   UNL A   1      35.836  29.474  28.739  1.00  0.00     0.010 A 
ATOM     12  C   UNL A   1      36.870  30.394  28.928  1.00  0.00    -0.014 A 
BRANCH  12  13
ATOM     13  C   UNL A   1      38.098  30.080  29.715  1.00  0.00     0.031 A 
ATOM     14  C   UNL A   1      38.289  30.583  31.118  1.00  0.00     0.074 A 
ATOM     15  C   UNL A   1      39.037  29.286  29.156  1.00  0.00     0.049 A 
ATOM     16  N   UNL A   1      39.280  30.356  31.945  1.00  0.00    -0.248 NA
ATOM     17  C   UNL A   1      37.243  31.457  31.667  1.00  0.00     0.031 C 
ATOM     18  C   UNL A   1      38.977  28.753  27.792  1.00  0.00     0.029 A 
ATOM     19  N   UNL A   1      40.199  28.756  29.661  1.00  0.00    -0.354 N 
ATOM     20  C   UNL A   1      38.988  31.069  33.099  1.00  0.00     0.074 A 
ATOM     21  C   UNL A   1      37.738  31.760  32.860  1.00  0.00     0.031 C 
ATOM     22  C   UNL A   1      40.004  27.916  27.597  1.00  0.00     0.029 A 
ATOM     23  C   UNL A   1      40.848  27.919  28.785  1.00  0.00     0.049 A 
ATOM     24  H   UNL A   1      40.535  28.957  30.565  1.00  0.00     0.167 HD
ATOM     25  C   UNL A   1      39.694  31.130  34.254  1.00  0.00     0.037 A 
ATOM     26  C   UNL A   1      42.005  27.240  28.907  1.00  0.00     0.037 A 
ATOM     27  C   UNL A   1      40.928  30.422  34.491  1.00  0.00     0.049 A 
ATOM     28  C   UNL A   1      42.781  27.348  30.187  1.00  0.00     0.074 A 
ATOM     29  C   UNL A   1      41.694  30.394  35.643  1.00  0.00     0.029 A 
ATOM     30  N   UNL A   1      41.579  29.626  33.559  1.00  0.00    -0.354 N 
ATOM     31  N   UNL A   1      42.475  28.004  31.280  1.00  0.00    -0.248 NA
ATOM     32  C   UNL A   1      44.063  26.636  30.251  1.00  0.00     0.031 C 
ATOM     33  C   UNL A   1      42.839  29.632  35.389  1.00  0.00     0.029 A 
ATOM     34  C   UNL A   1      42.754  29.128  34.101  1.00  0.00     0.049 A 
ATOM     35  H   UNL A   1      41.254  29.442  32.648  1.00  0.00     0.167 HD
ATOM     36  C   UNL A   1      43.519  27.779  32.164  1.00  0.00     0.074 A 
ATOM     37  C   UNL A   1      44.456  26.905  31.489  1.00  0.00     0.031 C 
ATOM     38  C   UNL A   1      43.682  28.260  33.420  1.00  0.00     0.037 A 
BRANCH  25  39
ATOM     39  C   UNL A   1      39.170  32.003  35.361  1.00  0.00     0.064 A 
ATOM     40  C   UNL A   1      39.534  33.357  35.427  1.00  0.00     0.173 A 
ATOM     41  C   UNL A   1      38.385  31.486  36.402  1.00  0.00     0.173 A 
ATOM     42  F   UNL A   1      40.292  33.902  34.465  1.00  0.00    -0.203 F 
ATOM     43  C   UNL A   1      39.145  34.155  36.501  1.00  0.00     0.198 A 
ATOM     44  C   UNL A   1      37.973  32.293  37.459  1.00  0.00     0.198 A 
ATOM     45  F   UNL A   1      38.005  30.199  36.385  1.00  0.00    -0.203 F 
ATOM     46  F   UNL A   1      39.539  35.435  36.561  1.00  0.00    -0.200 F 
ATOM     47  C   UNL A   1      38.362  33.623  37.514  1.00  0.00     0.200 A 
ATOM     48  F   UNL A   1      37.199  31.784  38.427  1.00  0.00    -0.200 F 
ATOM     49  F   UNL A   1      37.983  34.394  38.544  1.00  0.00    -0.200 F 
ENDBRANCH  25  39
BRANCH  26  50
ATOM     50  C   UNL A   1      42.489  26.410  27.771  1.00  0.00     0.064 A 
ATOM     51  C   UNL A   1      43.430  26.909  26.856  1.00  0.00     0.173 A 
ATOM     52  C   UNL A   1      41.980  25.125  27.542  1.00  0.00     0.173 A 
ATOM     53  F   UNL A   1      43.946  28.136  27.025  1.00  0.00    -0.203 F 
ATOM     54  C   UNL A   1      43.812  26.172  25.738  1.00  0.00     0.198 A 
ATOM     55  C   UNL A   1      42.390  24.373  26.441  1.00  0.00     0.198 A 
ATOM     56  F   UNL A   1      41.094  24.593  28.397  1.00  0.00    -0.203 F 
ATOM     57  F   UNL A   1      44.668  26.699  24.851  1.00  0.00    -0.200 F 
ATOM     58  C   UNL A   1      43.294  24.903  25.533  1.00  0.00     0.200 A 
ATOM     59  F   UNL A   1      41.905  23.137  26.258  1.00  0.00    -0.200 F 
ATOM     60  F   UNL A   1      43.666  24.192  24.460  1.00  0.00    -0.200 F 
ENDBRANCH  26  50
BRANCH  38  61
ATOM     61  C   UNL A   1      44.916  27.844  34.167  1.00  0.00     0.064 A 
ATOM     62  C   UNL A   1      44.903  26.695  34.973  1.00  0.00     0.173 A 
ATOM     63  C   UNL A   1      46.082  28.623  34.151  1.00  0.00     0.173 A 
ATOM     64  F   UNL A   1      43.811  25.918  35.027  1.00  0.00    -0.203 F 
ATOM     65  C   UNL A   1      46.006  26.353  35.751  1.00  0.00     0.198 A 
ATOM     66  C   UNL A   1      47.193  28.261  34.907  1.00  0.00     0.198 A 
ATOM     67  F   UNL A   1      46.148  29.723  33.385  1.00  0.00    -0.203 F 
ATOM     68  F   UNL A   1      45.956  25.275  36.544  1.00  0.00    -0.200 F 
ATOM     69  C   UNL A   1      47.151  27.136  35.714  1.00  0.00     0.200 A 
ATOM     70  F   UNL A   1      48.309  29.003  34.850  1.00  0.00    -0.200 F 
ATOM     71  F   UNL A   1      48.215  26.801  36.458  1.00  0.00    -0.200 F 
ENDBRANCH  38  61
ENDBRANCH  12  13
ENDBRANCH   5   7
ENDBRANCH   2   3
ENDBRANCH   1   2
BRANCH   1  72
ATOM     72  C   UNL A   1      31.837  28.700  23.394  1.00  0.00     0.117 C 
BRANCH  72  73
ATOM     73  N   UNL A   1      32.483  27.941  22.329  1.00  0.00    -0.356 N 
ATOM     74  C   UNL A   1      32.975  26.689  22.218  1.00  0.00     0.223 C 
ATOM     75  H   UNL A   1      32.585  28.463  21.502  1.00  0.00     0.163 HD
ATOM     76  O   UNL A   1      33.646  26.475  21.199  1.00  0.00    -0.275 OA
BRANCH  74  77
ATOM     77  C   UNL A   1      32.736  25.526  23.188  1.00  0.00     0.085 C 
BRANCH  77  78
ATOM     78  C   UNL A   1      33.659  25.501  24.430  1.00  0.00     0.049 C 
BRANCH  78  79
ATOM     79  C   UNL A   1      34.728  24.440  24.492  1.00  0.00    -0.047 A 
ATOM     80  C   UNL A   1      35.335  24.140  25.712  1.00  0.00     0.007 A 
ATOM     81  C   UNL A   1      35.148  23.746  23.349  1.00  0.00     0.007 A 
ATOM     82  C   UNL A   1      36.224  23.070  25.830  1.00  0.00     0.039 A 
ATOM     83  C   UNL A   1      36.085  22.710  23.452  1.00  0.00     0.039 A 
ATOM     84  C   UNL A   1      36.583  22.357  24.699  1.00  0.00     0.123 A 
ATOM     85  F   UNL A   1      37.433  21.328  24.810  1.00  0.00    -0.207 F 
ENDBRANCH  78  79
ENDBRANCH  77  78
BRANCH  77  86
ATOM     86  C   UNL A   1      31.273  25.112  23.415  1.00  0.00     0.055 C 
BRANCH  86  87
ATOM     87  C   UNL A   1      30.987  24.750  24.888  1.00  0.00     0.220 C 
BRANCH  87  88
ATOM     88  C   UNL A   1      30.009  25.736  25.548  1.00  0.00     0.414 C 
ATOM     89  F   UNL A   1      29.154  26.227  24.617  1.00  0.00    -0.168 F 
ATOM     90  F   UNL A   1      29.269  25.127  26.499  1.00  0.00    -0.168 F 
ATOM     91  F   UNL A   1      30.641  26.784  26.115  1.00  0.00    -0.168 F 
ENDBRANCH  87  88
BRANCH  87  92
ATOM     92  O   UNL A   1      30.513  23.388  24.926  1.00  0.00    -0.384 OA
ATOM     93  H   UNL A   1      30.897  22.892  24.187  1.00  0.00     0.211 HD
ENDBRANCH  87  92
ENDBRANCH  86  87
ENDBRANCH  77  86
ENDBRANCH  74  77
ENDBRANCH  72  73
ENDBRANCH   1  72
TORSDOF 16
ENDMDL
MODEL 3
REMARK VINA RESULT:     -11.7      1.557      2.295
REMARK SMILES O=C(NCCCNC(=O)[C@@H](Cc1ccc(F)cc1)C[C@H](O)C(F)(F)F)c1ccc(-c2c3nc(c(-c4c(F)c(F)c(F)c(F)c4F)c4ccc([nH]4)c(-c4c(F)c(F)c(F)c(F)c4F)c4nc(c(-c5c(F)c(F)c(F)c(F)c5F)c5ccc2[nH]5)C=C4)C=C3)cc1
REMARK SMILES IDX 5 1 4 2 3 3 1 4 2 5 26 7 27 8 88 9 28 10 87 11 29 12 30 13
REMARK SMILES IDX 31 14 81 15 32 16 86 17 80 18 82 19 33 20 85 21 79 22 78 23
REMARK SMILES IDX 34 25 66 26 46 27 65 28 47 29 50 30 64 31 83 32 48 33 49 34
REMARK SMILES IDX 63 36 84 37 51 38 35 39 36 40 44 41 37 42 38 43 42 44 45 45
REMARK SMILES IDX 39 46 40 47 43 48 41 49 67 50 68 51 76 52 69 53 70 54 74 55
REMARK SMILES IDX 77 56 71 57 72 58 75 59 73 60 52 61 53 62 61 63 54 64 55 65
REMARK SMILES IDX 59 66 62 67 56 68 57 69 60 70 58 71 6 72 7 73 8 74 9 76
REMARK SMILES IDX 10 77 11 78 12 79 13 80 18 81 14 82 17 83 15 84 16 85 19 86
REMARK SMILES IDX 20 87 22 88 23 89 24 90 25 91 21 92
REMARK H PARENT 3 6 82 24 50 35 7 75 21 93
REMARK Flexibility Score: inf
ROOT
ATOM      1  C   UNL A   1      31.773  28.669  26.622  1.00  0.00     0.042 C 
ENDROOT
BRANCH   1   2
ATOM      2  C   UNL A   1      32.375  29.728  25.712  1.00  0.00     0.118 C 
BRANCH   2   3
ATOM      3  N   UNL A   1      32.270  31.068  26.272  1.00  0.00    -0.352 N 
ATOM      4  O   UNL A   1      32.522  32.911  27.476  1.00  0.00    -0.269 OA
ATOM      5  C   UNL A   1      33.016  31.827  27.137  1.00  0.00     0.251 C 
ATOM      6  H   UNL A   1      31.469  31.544  25.952  1.00  0.00     0.163 HD
BRANCH   5   7
ATOM      7  C   UNL A   1      34.344  31.454  27.707  1.00  0.00     0.039 A 
ATOM      8  C   UNL A   1      35.361  32.359  27.992  1.00  0.00     0.014 A 
ATOM      9  C   UNL A   1      34.547  30.109  28.075  1.00  0.00     0.014 A 
ATOM     10  C   UNL A   1      36.577  31.928  28.531  1.00  0.00     0.010 A 
ATOM     11  C   UNL A   1      35.724  29.693  28.722  1.00  0.00     0.010 A 
ATOM     12  C   UNL A   1      36.758  30.604  28.953  1.00  0.00    -0.014 A 
BRANCH  12  13
ATOM     13  C   UNL A   1      37.987  30.253  29.724  1.00  0.00     0.031 A 
ATOM     14  C   UNL A   1      38.194  30.718  31.137  1.00  0.00     0.074 A 
ATOM     15  C   UNL A   1      38.910  29.459  29.139  1.00  0.00     0.049 A 
ATOM     16  N   UNL A   1      39.188  30.457  31.952  1.00  0.00    -0.248 NA
ATOM     17  C   UNL A   1      37.165  31.594  31.715  1.00  0.00     0.031 C 
ATOM     18  C   UNL A   1      38.834  28.961  27.763  1.00  0.00     0.029 A 
ATOM     19  N   UNL A   1      40.068  28.900  29.624  1.00  0.00    -0.354 N 
ATOM     20  C   UNL A   1      38.913  31.146  33.125  1.00  0.00     0.074 A 
ATOM     21  C   UNL A   1      37.673  31.861  32.911  1.00  0.00     0.031 C 
ATOM     22  C   UNL A   1      39.847  28.114  27.541  1.00  0.00     0.029 A 
ATOM     23  C   UNL A   1      40.699  28.075  28.723  1.00  0.00     0.049 A 
ATOM     24  H   UNL A   1      40.413  29.074  30.529  1.00  0.00     0.167 HD
ATOM     25  C   UNL A   1      39.628  31.169  34.276  1.00  0.00     0.037 A 
ATOM     26  C   UNL A   1      41.847  27.377  28.819  1.00  0.00     0.037 A 
ATOM     27  C   UNL A   1      40.853  30.437  34.487  1.00  0.00     0.049 A 
ATOM     28  C   UNL A   1      42.632  27.443  30.096  1.00  0.00     0.074 A 
ATOM     29  C   UNL A   1      41.627  30.369  35.632  1.00  0.00     0.029 A 
ATOM     30  N   UNL A   1      41.486  29.655  33.531  1.00  0.00    -0.354 N 
ATOM     31  N   UNL A   1      42.343  28.076  31.207  1.00  0.00    -0.248 NA
ATOM     32  C   UNL A   1      43.905  26.711  30.134  1.00  0.00     0.031 C 
ATOM     33  C   UNL A   1      42.758  29.598  35.353  1.00  0.00     0.029 A 
ATOM     34  C   UNL A   1      42.657  29.127  34.053  1.00  0.00     0.049 A 
ATOM     35  H   UNL A   1      41.153  29.498  32.618  1.00  0.00     0.167 HD
ATOM     36  C   UNL A   1      43.389  27.815  32.079  1.00  0.00     0.074 A 
ATOM     37  C   UNL A   1      44.309  26.944  31.376  1.00  0.00     0.031 C 
ATOM     38  C   UNL A   1      43.568  28.262  33.345  1.00  0.00     0.037 A 
BRANCH  25  39
ATOM     39  C   UNL A   1      39.124  32.022  35.407  1.00  0.00     0.064 A 
ATOM     40  C   UNL A   1      39.489  33.375  35.491  1.00  0.00     0.173 A 
ATOM     41  C   UNL A   1      38.359  31.486  36.453  1.00  0.00     0.173 A 
ATOM     42  F   UNL A   1      40.229  33.937  34.524  1.00  0.00    -0.203 F 
ATOM     43  C   UNL A   1      39.119  34.154  36.585  1.00  0.00     0.198 A 
ATOM     44  C   UNL A   1      37.965  32.275  37.532  1.00  0.00     0.198 A 
ATOM     45  F   UNL A   1      37.979  30.199  36.421  1.00  0.00    -0.203 F 
ATOM     46  F   UNL A   1      39.514  35.432  36.661  1.00  0.00    -0.200 F 
ATOM     47  C   UNL A   1      38.355  33.604  37.603  1.00  0.00     0.200 A 
ATOM     48  F   UNL A   1      37.210  31.748  38.505  1.00  0.00    -0.200 F 
ATOM     49  F   UNL A   1      37.995  34.356  38.653  1.00  0.00    -0.200 F 
ENDBRANCH  25  39
BRANCH  26  50
ATOM     50  C   UNL A   1      42.310  26.568  27.660  1.00  0.00     0.064 A 
ATOM     51  C   UNL A   1      41.845  25.259  27.456  1.00  0.00     0.173 A 
ATOM     52  C   UNL A   1      43.269  27.063  26.767  1.00  0.00     0.173 A 
ATOM     53  F   UNL A   1      40.931  24.734  28.285  1.00  0.00    -0.203 F 
ATOM     54  C   UNL A   1      42.349  24.466  26.428  1.00  0.00     0.198 A 
ATOM     55  C   UNL A   1      43.747  26.280  25.716  1.00  0.00     0.198 A 
ATOM     56  F   UNL A   1      43.731  28.315  26.905  1.00  0.00    -0.203 F 
ATOM     57  F   UNL A   1      41.928  23.200  26.294  1.00  0.00    -0.200 F 
ATOM     58  C   UNL A   1      43.297  24.978  25.557  1.00  0.00     0.200 A 
ATOM     59  F   UNL A   1      44.646  26.786  24.861  1.00  0.00    -0.200 F 
ATOM     60  F   UNL A   1      43.778  24.216  24.565  1.00  0.00    -0.200 F 
ENDBRANCH  26  50
BRANCH  38  61
ATOM     61  C   UNL A   1      44.801  27.810  34.073  1.00  0.00     0.064 A 
ATOM     62  C   UNL A   1      44.786  26.625  34.823  1.00  0.00     0.173 A 
ATOM     63  C   UNL A   1      45.967  28.589  34.095  1.00  0.00     0.173 A 
ATOM     64  F   UNL A   1      43.693  25.847  34.839  1.00  0.00    -0.203 F 
ATOM     65  C   UNL A   1      45.887  26.246  35.586  1.00  0.00     0.198 A 
ATOM     66  C   UNL A   1      47.078  28.190  34.834  1.00  0.00     0.198 A 
ATOM     67  F   UNL A   1      46.035  29.723  33.382  1.00  0.00    -0.203 F 
ATOM     68  F   UNL A   1      45.835  25.131  36.327  1.00  0.00    -0.200 F 
ATOM     69  C   UNL A   1      47.033  27.028  35.588  1.00  0.00     0.200 A 
ATOM     70  F   UNL A   1      48.194  28.932  34.814  1.00  0.00    -0.200 F 
ATOM     71  F   UNL A   1      48.096  26.657  36.316  1.00  0.00    -0.200 F 
ENDBRANCH  38  61
ENDBRANCH  12  13
ENDBRANCH   5   7
ENDBRANCH   2   3
ENDBRANCH   1   2
BRANCH   1  72
ATOM     72  C   UNL A   1      32.433  27.281  26.522  1.00  0.00     0.117 C 
BRANCH  72  73
ATOM     73  N   UNL A   1      31.442  26.255  26.824  1.00  0.00    -0.356 N 
ATOM     74  C   UNL A   1      31.243  24.979  26.427  1.00  0.00     0.223 C 
ATOM     75  H   UNL A   1      30.761  26.563  27.463  1.00  0.00     0.163 HD
ATOM     76  O   UNL A   1      30.153  24.491  26.752  1.00  0.00    -0.275 OA
BRANCH  74  77
ATOM     77  C   UNL A   1      32.243  24.092  25.678  1.00  0.00     0.085 C 
BRANCH  77  78
ATOM     78  C   UNL A   1      33.105  23.166  26.570  1.00  0.00     0.049 C 
BRANCH  78  79
ATOM     79  C   UNL A   1      34.466  22.765  26.060  1.00  0.00    -0.047 A 
ATOM     80  C   UNL A   1      35.459  23.732  25.904  1.00  0.00     0.007 A 
ATOM     81  C   UNL A   1      34.768  21.438  25.722  1.00  0.00     0.007 A 
ATOM     82  C   UNL A   1      36.767  23.375  25.571  1.00  0.00     0.039 A 
ATOM     83  C   UNL A   1      36.064  21.084  25.329  1.00  0.00     0.039 A 
ATOM     84  C   UNL A   1      37.060  22.050  25.296  1.00  0.00     0.123 A 
ATOM     85  F   UNL A   1      38.315  21.705  24.980  1.00  0.00    -0.207 F 
ENDBRANCH  78  79
ENDBRANCH  77  78
BRANCH  77  86
ATOM     86  C   UNL A   1      31.767  23.502  24.340  1.00  0.00     0.055 C 
BRANCH  86  87
ATOM     87  C   UNL A   1      32.555  24.061  23.137  1.00  0.00     0.220 C 
BRANCH  87  88
ATOM     88  C   UNL A   1      33.392  22.977  22.437  1.00  0.00     0.414 C 
ATOM     89  F   UNL A   1      34.702  23.136  22.749  1.00  0.00    -0.168 F 
ATOM     90  F   UNL A   1      33.024  21.741  22.840  1.00  0.00    -0.168 F 
ATOM     91  F   UNL A   1      33.282  23.030  21.094  1.00  0.00    -0.168 F 
ENDBRANCH  87  88
BRANCH  87  92
ATOM     92  O   UNL A   1      31.615  24.698  22.248  1.00  0.00    -0.384 OA
ATOM     93  H   UNL A   1      31.255  25.491  22.673  1.00  0.00     0.211 HD
ENDBRANCH  87  92
ENDBRANCH  86  87
ENDBRANCH  77  86
ENDBRANCH  74  77
ENDBRANCH  72  73
ENDBRANCH   1  72
TORSDOF 16
ENDMDL
