MODEL 1
REMARK VINA RESULT:     -10.7      0.000      0.000
REMARK SMILES O=C(Cc1sc(N2N=C(c3cccs3)C[C@@H]2c2ccco2)nc1-c1ccccc1)NCCCNC(=O)c1ccc(-c2c3nc(c(-c4c(F)c(F)c(F)c(F)c4F)c4ccc([nH]4)c(-c4c(F)c(F)c(F)c(F)c4F)c4nc(c(-c5c(F)c(F)c(F)c(F)c5F)c5ccc2[nH]5)C=C4)C=C3)cc1
REMARK SMILES IDX 31 1 30 2 1 3 2 4 3 6 4 7 5 8 23 9 6 10 22 11 24 12 25 13
REMARK SMILES IDX 29 14 26 15 28 16 27 17 7 18 8 19 16 20 9 21 15 22 17 23
REMARK SMILES IDX 18 24 21 25 19 26 20 27 10 28 11 29 14 30 12 31 13 32 32 33
REMARK SMILES IDX 33 34 34 35 35 36 36 38 37 39 38 40 99 41 39 42 98 43 40 44
REMARK SMILES IDX 41 45 42 46 92 47 43 48 97 49 91 50 93 51 44 52 96 53 90 54
REMARK SMILES IDX 89 55 45 57 77 58 57 59 76 60 58 61 61 62 75 63 94 64 59 65
REMARK SMILES IDX 60 66 74 68 95 69 62 70 46 71 47 72 55 73 48 74 49 75 53 76
REMARK SMILES IDX 56 77 50 78 51 79 54 80 52 81 78 82 79 83 87 84 80 85 81 86
REMARK SMILES IDX 85 87 88 88 82 89 83 90 86 91 84 92 63 93 64 94 72 95 65 96
REMARK SMILES IDX 66 97 70 98 73 99 67 100 68 101 71 102 69 103
REMARK H PARENT 30 5 34 37 93 56 61 67
REMARK Flexibility Score: inf
ROOT
ATOM      1  C   UNL A   1      49.516  24.997  32.522  1.00  0.00     0.117 C 
ENDROOT
BRANCH   1   2
ATOM      2  N   UNL A   1      48.987  26.135  31.799  1.00  0.00    -0.356 N 
ATOM      3  O   UNL A   1      46.758  25.640  32.062  1.00  0.00    -0.275 OA
ATOM      4  C   UNL A   1      47.639  26.372  31.620  1.00  0.00     0.225 C 
ATOM      5  H   UNL A   1      49.626  26.776  31.411  1.00  0.00     0.163 HD
BRANCH   4   6
ATOM      6  C   UNL A   1      47.335  27.605  30.773  1.00  0.00     0.149 C 
BRANCH   6   7
ATOM      7  C   UNL A   1      46.863  27.186  29.417  1.00  0.00     0.044 A 
ATOM      8  S   UNL A   1      46.800  25.521  29.001  1.00  0.00    -0.099 S 
ATOM      9  C   UNL A   1      46.351  27.924  28.364  1.00  0.00     0.087 A 
ATOM     10  C   UNL A   1      46.350  25.932  27.383  1.00  0.00     0.207 A 
ATOM     11  N   UNL A   1      46.124  27.216  27.195  1.00  0.00    -0.218 NA
BRANCH   9  12
ATOM     12  C   UNL A   1      45.976  29.322  28.490  1.00  0.00     0.001 A 
ATOM     13  C   UNL A   1      44.891  29.721  29.277  1.00  0.00     0.010 A 
ATOM     14  C   UNL A   1      46.662  30.275  27.726  1.00  0.00     0.010 A 
ATOM     15  C   UNL A   1      44.477  31.057  29.270  1.00  0.00     0.001 A 
ATOM     16  C   UNL A   1      46.245  31.607  27.718  1.00  0.00     0.001 A 
ATOM     17  C   UNL A   1      45.148  31.995  28.485  1.00  0.00     0.000 A 
ENDBRANCH   9  12
BRANCH  10  18
ATOM     18  N   UNL A   1      46.279  24.967  26.429  1.00  0.00    -0.228 N 
ATOM     19  N   UNL A   1      45.907  23.666  26.655  1.00  0.00    -0.173 NA
ATOM     20  C   UNL A   1      46.531  25.273  25.021  1.00  0.00     0.183 C 
ATOM     21  C   UNL A   1      45.910  23.073  25.503  1.00  0.00     0.081 C 
ATOM     22  C   UNL A   1      46.335  23.911  24.341  1.00  0.00     0.095 C 
BRANCH  20  23
ATOM     23  C   UNL A   1      47.884  25.824  24.646  1.00  0.00     0.128 A 
ATOM     24  C   UNL A   1      49.106  25.832  25.293  1.00  0.00     0.048 A 
ATOM     25  O   UNL A   1      48.003  26.474  23.449  1.00  0.00    -0.467 OA
ATOM     26  C   UNL A   1      50.011  26.516  24.446  1.00  0.00     0.042 A 
ATOM     27  C   UNL A   1      49.293  26.872  23.329  1.00  0.00     0.195 A 
ENDBRANCH  20  23
BRANCH  21  28
ATOM     28  C   UNL A   1      45.543  21.696  25.324  1.00  0.00     0.050 A 
ATOM     29  C   UNL A   1      46.339  20.637  24.941  1.00  0.00     0.022 A 
ATOM     30  S   UNL A   1      43.917  21.220  25.556  1.00  0.00    -0.142 S 
ATOM     31  C   UNL A   1      45.601  19.422  24.836  1.00  0.00     0.012 A 
ATOM     32  C   UNL A   1      44.265  19.602  25.120  1.00  0.00     0.065 A 
ENDBRANCH  21  28
ENDBRANCH  10  18
ENDBRANCH   6   7
ENDBRANCH   4   6
ENDBRANCH   1   2
BRANCH   1  33
ATOM     33  C   UNL A   1      49.639  25.277  34.015  1.00  0.00     0.042 C 
BRANCH  33  34
ATOM     34  C   UNL A   1      48.574  24.607  34.881  1.00  0.00     0.118 C 
BRANCH  34  35
ATOM     35  N   UNL A   1      48.394  25.245  36.178  1.00  0.00    -0.352 N 
ATOM     36  C   UNL A   1      47.486  26.193  36.582  1.00  0.00     0.251 C 
ATOM     37  H   UNL A   1      49.023  24.950  36.875  1.00  0.00     0.163 HD
ATOM     38  O   UNL A   1      47.592  26.702  37.697  1.00  0.00    -0.269 OA
BRANCH  36  39
ATOM     39  C   UNL A   1      46.403  26.640  35.679  1.00  0.00     0.039 A 
ATOM     40  C   UNL A   1      45.229  25.882  35.616  1.00  0.00     0.014 A 
ATOM     41  C   UNL A   1      46.533  27.787  34.892  1.00  0.00     0.014 A 
ATOM     42  C   UNL A   1      44.156  26.322  34.837  1.00  0.00     0.010 A 
ATOM     43  C   UNL A   1      45.437  28.263  34.173  1.00  0.00     0.010 A 
ATOM     44  C   UNL A   1      44.231  27.545  34.150  1.00  0.00    -0.014 A 
BRANCH  44  45
ATOM     45  C   UNL A   1      43.048  28.107  33.447  1.00  0.00     0.031 A 
ATOM     46  C   UNL A   1      42.785  27.781  32.004  1.00  0.00     0.074 A 
ATOM     47  C   UNL A   1      42.246  28.976  34.095  1.00  0.00     0.049 A 
ATOM     48  N   UNL A   1      41.855  28.246  31.206  1.00  0.00    -0.248 NA
ATOM     49  C   UNL A   1      43.699  26.823  31.367  1.00  0.00     0.031 C 
ATOM     50  C   UNL A   1      42.414  29.404  35.485  1.00  0.00     0.029 A 
ATOM     51  N   UNL A   1      41.140  29.669  33.668  1.00  0.00    -0.354 N 
ATOM     52  C   UNL A   1      42.078  27.645  29.975  1.00  0.00     0.074 A 
ATOM     53  C   UNL A   1      43.259  26.820  30.116  1.00  0.00     0.031 C 
ATOM     54  C   UNL A   1      41.439  30.270  35.799  1.00  0.00     0.029 A 
ATOM     55  C   UNL A   1      40.606  30.499  34.623  1.00  0.00     0.049 A 
ATOM     56  H   UNL A   1      40.766  29.579  32.762  1.00  0.00     0.167 HD
ATOM     57  C   UNL A   1      41.352  27.757  28.836  1.00  0.00     0.037 A 
ATOM     58  C   UNL A   1      39.575  31.363  34.556  1.00  0.00     0.037 A 
ATOM     59  C   UNL A   1      40.172  28.572  28.700  1.00  0.00     0.049 A 
ATOM     60  C   UNL A   1      38.813  31.500  33.266  1.00  0.00     0.074 A 
ATOM     61  C   UNL A   1      39.337  28.706  27.603  1.00  0.00     0.029 A 
ATOM     62  N   UNL A   1      39.664  29.403  29.689  1.00  0.00    -0.354 N 
ATOM     63  N   UNL A   1      38.990  30.873  32.128  1.00  0.00    -0.248 NA
ATOM     64  C   UNL A   1      37.704  32.465  33.251  1.00  0.00     0.031 C 
ATOM     65  C   UNL A   1      38.363  29.663  27.907  1.00  0.00     0.029 A 
ATOM     66  C   UNL A   1      38.550  30.079  29.215  1.00  0.00     0.049 A 
ATOM     67  H   UNL A   1      40.040  29.498  30.594  1.00  0.00     0.167 HD
ATOM     68  C   UNL A   1      38.005  31.347  31.272  1.00  0.00     0.074 A 
ATOM     69  C   UNL A   1      37.218  32.299  32.029  1.00  0.00     0.031 C 
ATOM     70  C   UNL A   1      37.773  31.025  29.976  1.00  0.00     0.037 A 
BRANCH  57  71
ATOM     71  C   UNL A   1      41.817  26.983  27.635  1.00  0.00     0.064 A 
ATOM     72  C   UNL A   1      42.668  27.552  26.674  1.00  0.00     0.173 A 
ATOM     73  C   UNL A   1      41.446  25.640  27.465  1.00  0.00     0.173 A 
ATOM     74  F   UNL A   1      43.048  28.834  26.784  1.00  0.00    -0.203 F 
ATOM     75  C   UNL A   1      43.104  26.816  25.575  1.00  0.00     0.198 A 
ATOM     76  C   UNL A   1      41.910  24.897  26.382  1.00  0.00     0.198 A 
ATOM     77  F   UNL A   1      40.642  25.042  28.357  1.00  0.00    -0.203 F 
ATOM     78  F   UNL A   1      43.875  27.396  24.645  1.00  0.00    -0.200 F 
ATOM     79  C   UNL A   1      42.732  25.488  25.434  1.00  0.00     0.200 A 
ATOM     80  F   UNL A   1      41.563  23.609  26.257  1.00  0.00    -0.200 F 
ATOM     81  F   UNL A   1      43.160  24.778  24.381  1.00  0.00    -0.200 F 
ENDBRANCH  57  71
BRANCH  58  82
ATOM     82  C   UNL A   1      39.200  32.169  35.748  1.00  0.00     0.064 A 
ATOM     83  C   UNL A   1      39.708  33.463  35.933  1.00  0.00     0.173 A 
ATOM     84  C   UNL A   1      38.339  31.662  36.732  1.00  0.00     0.173 A 
ATOM     85  F   UNL A   1      40.554  33.985  35.032  1.00  0.00    -0.203 F 
ATOM     86  C   UNL A   1      39.389  34.207  37.067  1.00  0.00     0.198 A 
ATOM     87  C   UNL A   1      37.994  32.420  37.849  1.00  0.00     0.198 A 
ATOM     88  F   UNL A   1      37.821  30.431  36.603  1.00  0.00    -0.203 F 
ATOM     89  F   UNL A   1      39.932  35.419  37.244  1.00  0.00    -0.200 F 
ATOM     90  C   UNL A   1      38.527  33.688  38.021  1.00  0.00     0.200 A 
ATOM     91  F   UNL A   1      37.148  31.920  38.760  1.00  0.00    -0.200 F 
ATOM     92  F   UNL A   1      38.218  34.406  39.109  1.00  0.00    -0.200 F 
ENDBRANCH  58  82
BRANCH  70  93
ATOM     93  C   UNL A   1      36.608  31.687  29.298  1.00  0.00     0.064 A 
ATOM     94  C   UNL A   1      35.457  30.970  28.940  1.00  0.00     0.173 A 
ATOM     95  C   UNL A   1      36.628  33.066  29.035  1.00  0.00     0.173 A 
ATOM     96  F   UNL A   1      35.392  29.647  29.155  1.00  0.00    -0.203 F 
ATOM     97  C   UNL A   1      34.382  31.602  28.319  1.00  0.00     0.198 A 
ATOM     98  C   UNL A   1      35.538  33.701  28.445  1.00  0.00     0.198 A 
ATOM     99  F   UNL A   1      37.701  33.802  29.362  1.00  0.00    -0.203 F 
ATOM    100  F   UNL A   1      33.316  30.885  27.937  1.00  0.00    -0.200 F 
ATOM    101  C   UNL A   1      34.420  32.967  28.080  1.00  0.00     0.200 A 
ATOM    102  F   UNL A   1      35.570  35.023  28.230  1.00  0.00    -0.200 F 
ATOM    103  F   UNL A   1      33.381  33.575  27.490  1.00  0.00    -0.200 F 
ENDBRANCH  70  93
ENDBRANCH  44  45
ENDBRANCH  36  39
ENDBRANCH  34  35
ENDBRANCH  33  34
ENDBRANCH   1  33
TORSDOF 15
ENDMDL
MODEL 2
REMARK VINA RESULT:     -10.5      4.840     13.701
REMARK SMILES O=C(Cc1sc(N2N=C(c3cccs3)C[C@@H]2c2ccco2)nc1-c1ccccc1)NCCCNC(=O)c1ccc(-c2c3nc(c(-c4c(F)c(F)c(F)c(F)c4F)c4ccc([nH]4)c(-c4c(F)c(F)c(F)c(F)c4F)c4nc(c(-c5c(F)c(F)c(F)c(F)c5F)c5ccc2[nH]5)C=C4)C=C3)cc1
REMARK SMILES IDX 31 1 30 2 1 3 2 4 3 6 4 7 5 8 23 9 6 10 22 11 24 12 25 13
REMARK SMILES IDX 29 14 26 15 28 16 27 17 7 18 8 19 16 20 9 21 15 22 17 23
REMARK SMILES IDX 18 24 21 25 19 26 20 27 10 28 11 29 14 30 12 31 13 32 32 33
REMARK SMILES IDX 33 34 34 35 35 36 36 38 37 39 38 40 99 41 39 42 98 43 40 44
REMARK SMILES IDX 41 45 42 46 92 47 43 48 97 49 91 50 93 51 44 52 96 53 90 54
REMARK SMILES IDX 89 55 45 57 77 58 57 59 76 60 58 61 61 62 75 63 94 64 59 65
REMARK SMILES IDX 60 66 74 68 95 69 62 70 46 71 47 72 55 73 48 74 49 75 53 76
REMARK SMILES IDX 56 77 50 78 51 79 54 80 52 81 78 82 79 83 87 84 80 85 81 86
REMARK SMILES IDX 85 87 88 88 82 89 83 90 86 91 84 92 63 93 64 94 72 95 65 96
REMARK SMILES IDX 66 97 70 98 73 99 67 100 68 101 71 102 69 103
REMARK H PARENT 30 5 34 37 93 56 61 67
REMARK Flexibility Score: inf
ROOT
ATOM      1  C   UNL A   1      34.909  34.163  31.154  1.00  0.00     0.117 C 
ENDROOT
BRANCH   1   2
ATOM      2  N   UNL A   1      36.247  33.977  31.676  1.00  0.00    -0.356 N 
ATOM      3  O   UNL A   1      35.832  32.058  32.872  1.00  0.00    -0.275 OA
ATOM      4  C   UNL A   1      36.611  32.933  32.503  1.00  0.00     0.225 C 
ATOM      5  H   UNL A   1      36.936  34.634  31.429  1.00  0.00     0.163 HD
BRANCH   4   6
ATOM      6  C   UNL A   1      38.063  32.989  32.966  1.00  0.00     0.149 C 
BRANCH   6   7
ATOM      7  C   UNL A   1      38.174  32.451  34.358  1.00  0.00     0.044 A 
ATOM      8  S   UNL A   1      37.543  33.346  35.682  1.00  0.00    -0.099 S 
ATOM      9  C   UNL A   1      38.654  31.243  34.831  1.00  0.00     0.087 A 
ATOM     10  C   UNL A   1      38.188  32.185  36.787  1.00  0.00     0.207 A 
ATOM     11  N   UNL A   1      38.718  31.125  36.210  1.00  0.00    -0.218 NA
BRANCH   9  12
ATOM     12  C   UNL A   1      38.975  30.126  33.958  1.00  0.00     0.001 A 
ATOM     13  C   UNL A   1      37.983  29.440  33.251  1.00  0.00     0.010 A 
ATOM     14  C   UNL A   1      40.299  29.673  33.905  1.00  0.00     0.010 A 
ATOM     15  C   UNL A   1      38.311  28.290  32.526  1.00  0.00     0.001 A 
ATOM     16  C   UNL A   1      40.624  28.523  33.184  1.00  0.00     0.001 A 
ATOM     17  C   UNL A   1      39.627  27.828  32.501  1.00  0.00     0.000 A 
ENDBRANCH   9  12
BRANCH  10  18
ATOM     18  N   UNL A   1      38.142  32.418  38.125  1.00  0.00    -0.228 N 
ATOM     19  N   UNL A   1      37.132  32.010  38.958  1.00  0.00    -0.173 NA
ATOM     20  C   UNL A   1      39.246  33.083  38.817  1.00  0.00     0.183 C 
ATOM     21  C   UNL A   1      37.469  32.369  40.156  1.00  0.00     0.081 C 
ATOM     22  C   UNL A   1      38.757  33.119  40.272  1.00  0.00     0.095 C 
BRANCH  20  23
ATOM     23  C   UNL A   1      39.616  34.479  38.385  1.00  0.00     0.128 A 
ATOM     24  C   UNL A   1      40.428  34.964  37.376  1.00  0.00     0.048 A 
ATOM     25  O   UNL A   1      39.099  35.529  39.092  1.00  0.00    -0.467 OA
ATOM     26  C   UNL A   1      40.399  36.376  37.473  1.00  0.00     0.042 A 
ATOM     27  C   UNL A   1      39.563  36.669  38.524  1.00  0.00     0.195 A 
ENDBRANCH  20  23
BRANCH  21  28
ATOM     28  C   UNL A   1      36.672  32.090  41.318  1.00  0.00     0.050 A 
ATOM     29  C   UNL A   1      35.341  31.733  41.382  1.00  0.00     0.022 A 
ATOM     30  S   UNL A   1      37.370  32.230  42.872  1.00  0.00    -0.142 S 
ATOM     31  C   UNL A   1      34.892  31.577  42.726  1.00  0.00     0.012 A 
ATOM     32  C   UNL A   1      35.890  31.841  43.638  1.00  0.00     0.065 A 
ENDBRANCH  21  28
ENDBRANCH  10  18
ENDBRANCH   6   7
ENDBRANCH   4   6
ENDBRANCH   1   2
BRANCH   1  33
ATOM     33  C   UNL A   1      34.411  32.930  30.409  1.00  0.00     0.042 C 
BRANCH  33  34
ATOM     34  C   UNL A   1      34.753  32.902  28.920  1.00  0.00     0.118 C 
BRANCH  34  35
ATOM     35  N   UNL A   1      33.998  31.907  28.170  1.00  0.00    -0.352 N 
ATOM     36  C   UNL A   1      34.378  30.675  27.697  1.00  0.00     0.251 C 
ATOM     37  H   UNL A   1      33.067  32.158  27.971  1.00  0.00     0.163 HD
ATOM     38  O   UNL A   1      33.620  30.043  26.964  1.00  0.00    -0.269 OA
BRANCH  36  39
ATOM     39  C   UNL A   1      35.707  30.113  28.026  1.00  0.00     0.039 A 
ATOM     40  C   UNL A   1      36.698  30.117  27.039  1.00  0.00     0.014 A 
ATOM     41  C   UNL A   1      35.984  29.578  29.286  1.00  0.00     0.014 A 
ATOM     42  C   UNL A   1      37.986  29.670  27.343  1.00  0.00     0.010 A 
ATOM     43  C   UNL A   1      37.286  29.201  29.610  1.00  0.00     0.010 A 
ATOM     44  C   UNL A   1      38.306  29.258  28.647  1.00  0.00    -0.014 A 
BRANCH  44  45
ATOM     45  C   UNL A   1      39.705  28.931  29.030  1.00  0.00     0.031 A 
ATOM     46  C   UNL A   1      40.544  29.919  29.790  1.00  0.00     0.074 A 
ATOM     47  C   UNL A   1      40.245  27.764  28.624  1.00  0.00     0.049 A 
ATOM     48  N   UNL A   1      41.807  29.843  30.133  1.00  0.00    -0.248 NA
ATOM     49  C   UNL A   1      39.885  31.167  30.201  1.00  0.00     0.031 C 
ATOM     50  C   UNL A   1      39.550  26.736  27.849  1.00  0.00     0.029 A 
ATOM     51  N   UNL A   1      41.509  27.253  28.792  1.00  0.00    -0.354 N 
ATOM     52  C   UNL A   1      42.093  31.032  30.791  1.00  0.00     0.074 A 
ATOM     53  C   UNL A   1      40.888  31.833  30.756  1.00  0.00     0.031 C 
ATOM     54  C   UNL A   1      40.387  25.712  27.624  1.00  0.00     0.029 A 
ATOM     55  C   UNL A   1      41.692  26.030  28.194  1.00  0.00     0.049 A 
ATOM     56  H   UNL A   1      42.216  27.718  29.295  1.00  0.00     0.167 HD
ATOM     57  C   UNL A   1      43.250  31.411  31.385  1.00  0.00     0.037 A 
ATOM     58  C   UNL A   1      42.793  25.259  28.096  1.00  0.00     0.037 A 
ATOM     59  C   UNL A   1      44.446  30.609  31.425  1.00  0.00     0.049 A 
ATOM     60  C   UNL A   1      44.076  25.724  28.729  1.00  0.00     0.074 A 
ATOM     61  C   UNL A   1      45.649  30.884  32.052  1.00  0.00     0.029 A 
ATOM     62  N   UNL A   1      44.594  29.377  30.803  1.00  0.00    -0.354 N 
ATOM     63  N   UNL A   1      44.316  26.820  29.409  1.00  0.00    -0.248 NA
ATOM     64  C   UNL A   1      45.244  24.844  28.580  1.00  0.00     0.031 C 
ATOM     65  C   UNL A   1      46.544  29.850  31.758  1.00  0.00     0.029 A 
ATOM     66  C   UNL A   1      45.881  28.898  31.001  1.00  0.00     0.049 A 
ATOM     67  H   UNL A   1      43.890  28.912  30.296  1.00  0.00     0.167 HD
ATOM     68  C   UNL A   1      45.649  26.750  29.789  1.00  0.00     0.074 A 
ATOM     69  C   UNL A   1      46.162  25.494  29.283  1.00  0.00     0.031 C 
ATOM     70  C   UNL A   1      46.383  27.646  30.493  1.00  0.00     0.037 A 
BRANCH  57  71
ATOM     71  C   UNL A   1      43.286  32.764  32.038  1.00  0.00     0.064 A 
ATOM     72  C   UNL A   1      43.479  33.939  31.293  1.00  0.00     0.173 A 
ATOM     73  C   UNL A   1      43.077  32.895  33.420  1.00  0.00     0.173 A 
ATOM     74  F   UNL A   1      43.690  33.871  29.970  1.00  0.00    -0.203 F 
ATOM     75  C   UNL A   1      43.494  35.186  31.911  1.00  0.00     0.198 A 
ATOM     76  C   UNL A   1      43.059  34.147  34.029  1.00  0.00     0.198 A 
ATOM     77  F   UNL A   1      42.878  31.807  34.180  1.00  0.00    -0.203 F 
ATOM     78  F   UNL A   1      43.730  36.289  31.186  1.00  0.00    -0.200 F 
ATOM     79  C   UNL A   1      43.276  35.290  33.276  1.00  0.00     0.200 A 
ATOM     80  F   UNL A   1      42.832  34.246  35.346  1.00  0.00    -0.200 F 
ATOM     81  F   UNL A   1      43.280  36.493  33.867  1.00  0.00    -0.200 F 
ENDBRANCH  57  71
BRANCH  58  82
ATOM     82  C   UNL A   1      42.731  23.962  27.370  1.00  0.00     0.064 A 
ATOM     83  C   UNL A   1      42.300  22.795  28.015  1.00  0.00     0.173 A 
ATOM     84  C   UNL A   1      43.113  23.859  26.024  1.00  0.00     0.173 A 
ATOM     85  F   UNL A   1      41.946  22.836  29.308  1.00  0.00    -0.203 F 
ATOM     86  C   UNL A   1      42.276  21.570  27.349  1.00  0.00     0.198 A 
ATOM     87  C   UNL A   1      43.057  22.641  25.349  1.00  0.00     0.198 A 
ATOM     88  F   UNL A   1      43.530  24.947  25.359  1.00  0.00    -0.203 F 
ATOM     89  F   UNL A   1      41.911  20.461  28.005  1.00  0.00    -0.200 F 
ATOM     90  C   UNL A   1      42.647  21.496  26.015  1.00  0.00     0.200 A 
ATOM     91  F   UNL A   1      43.402  22.578  24.056  1.00  0.00    -0.200 F 
ATOM     92  F   UNL A   1      42.621  20.320  25.375  1.00  0.00    -0.200 F 
ENDBRANCH  58  82
BRANCH  70  93
ATOM     93  C   UNL A   1      47.814  27.292  30.780  1.00  0.00     0.064 A 
ATOM     94  C   UNL A   1      48.168  26.465  31.857  1.00  0.00     0.173 A 
ATOM     95  C   UNL A   1      48.843  27.756  29.946  1.00  0.00     0.173 A 
ATOM     96  F   UNL A   1      47.225  26.006  32.694  1.00  0.00    -0.203 F 
ATOM     97  C   UNL A   1      49.500  26.140  32.104  1.00  0.00     0.198 A 
ATOM     98  C   UNL A   1      50.170  27.402  30.176  1.00  0.00     0.198 A 
ATOM     99  F   UNL A   1      48.561  28.546  28.899  1.00  0.00    -0.203 F 
ATOM    100  F   UNL A   1      49.817  25.393  33.171  1.00  0.00    -0.200 F 
ATOM    101  C   UNL A   1      50.497  26.601  31.260  1.00  0.00     0.200 A 
ATOM    102  F   UNL A   1      51.131  27.835  29.349  1.00  0.00    -0.200 F 
ATOM    103  F   UNL A   1      51.778  26.280  31.494  1.00  0.00    -0.200 F 
ENDBRANCH  70  93
ENDBRANCH  44  45
ENDBRANCH  36  39
ENDBRANCH  34  35
ENDBRANCH  33  34
ENDBRANCH   1  33
TORSDOF 15
ENDMDL
MODEL 3
REMARK VINA RESULT:     -10.4      4.779     13.589
REMARK SMILES O=C(Cc1sc(N2N=C(c3cccs3)C[C@@H]2c2ccco2)nc1-c1ccccc1)NCCCNC(=O)c1ccc(-c2c3nc(c(-c4c(F)c(F)c(F)c(F)c4F)c4ccc([nH]4)c(-c4c(F)c(F)c(F)c(F)c4F)c4nc(c(-c5c(F)c(F)c(F)c(F)c5F)c5ccc2[nH]5)C=C4)C=C3)cc1
REMARK SMILES IDX 31 1 30 2 1 3 2 4 3 6 4 7 5 8 23 9 6 10 22 11 24 12 25 13
REMARK SMILES IDX 29 14 26 15 28 16 27 17 7 18 8 19 16 20 9 21 15 22 17 23
REMARK SMILES IDX 18 24 21 25 19 26 20 27 10 28 11 29 14 30 12 31 13 32 32 33
REMARK SMILES IDX 33 34 34 35 35 36 36 38 37 39 38 40 99 41 39 42 98 43 40 44
REMARK SMILES IDX 41 45 42 46 92 47 43 48 97 49 91 50 93 51 44 52 96 53 90 54
REMARK SMILES IDX 89 55 45 57 77 58 57 59 76 60 58 61 61 62 75 63 94 64 59 65
REMARK SMILES IDX 60 66 74 68 95 69 62 70 46 71 47 72 55 73 48 74 49 75 53 76
REMARK SMILES IDX 56 77 50 78 51 79 54 80 52 81 78 82 79 83 87 84 80 85 81 86
REMARK SMILES IDX 85 87 88 88 82 89 83 90 86 91 84 92 63 93 64 94 72 95 65 96
REMARK SMILES IDX 66 97 70 98 73 99 67 100 68 101 71 102 69 103
REMARK H PARENT 30 5 34 37 93 56 61 67
REMARK Flexibility Score: inf
ROOT
ATOM      1  C   UNL A   1      34.543  34.431  30.672  1.00  0.00     0.117 C 
ENDROOT
BRANCH   1   2
ATOM      2  N   UNL A   1      34.930  33.250  31.415  1.00  0.00    -0.356 N 
ATOM      3  O   UNL A   1      37.203  33.583  31.336  1.00  0.00    -0.275 OA
ATOM      4  C   UNL A   1      36.239  32.910  31.692  1.00  0.00     0.225 C 
ATOM      5  H   UNL A   1      34.218  32.653  31.740  1.00  0.00     0.163 HD
BRANCH   4   6
ATOM      6  C   UNL A   1      36.391  31.589  32.439  1.00  0.00     0.149 C 
BRANCH   6   7
ATOM      7  C   UNL A   1      37.264  31.780  33.639  1.00  0.00     0.044 A 
ATOM      8  S   UNL A   1      36.877  32.980  34.805  1.00  0.00    -0.099 S 
ATOM      9  C   UNL A   1      38.373  31.078  34.078  1.00  0.00     0.087 A 
ATOM     10  C   UNL A   1      38.346  32.644  35.653  1.00  0.00     0.207 A 
ATOM     11  N   UNL A   1      39.017  31.612  35.183  1.00  0.00    -0.218 NA
BRANCH   9  12
ATOM     12  C   UNL A   1      38.785  29.812  33.497  1.00  0.00     0.001 A 
ATOM     13  C   UNL A   1      40.135  29.500  33.304  1.00  0.00     0.010 A 
ATOM     14  C   UNL A   1      37.799  28.931  33.035  1.00  0.00     0.010 A 
ATOM     15  C   UNL A   1      40.490  28.331  32.623  1.00  0.00     0.001 A 
ATOM     16  C   UNL A   1      38.157  27.767  32.352  1.00  0.00     0.001 A 
ATOM     17  C   UNL A   1      39.502  27.472  32.140  1.00  0.00     0.000 A 
ENDBRANCH   9  12
BRANCH  10  18
ATOM     18  N   UNL A   1      38.729  33.431  36.692  1.00  0.00    -0.228 N 
ATOM     19  N   UNL A   1      39.961  34.019  36.818  1.00  0.00    -0.173 NA
ATOM     20  C   UNL A   1      37.793  33.786  37.759  1.00  0.00     0.183 C 
ATOM     21  C   UNL A   1      39.926  34.727  37.902  1.00  0.00     0.081 C 
ATOM     22  C   UNL A   1      38.651  34.667  38.679  1.00  0.00     0.095 C 
BRANCH  20  23
ATOM     23  C   UNL A   1      37.184  32.669  38.569  1.00  0.00     0.128 A 
ATOM     24  C   UNL A   1      36.412  32.656  39.717  1.00  0.00     0.048 A 
ATOM     25  O   UNL A   1      37.409  31.384  38.162  1.00  0.00    -0.467 OA
ATOM     26  C   UNL A   1      36.153  31.298  40.017  1.00  0.00     0.042 A 
ATOM     27  C   UNL A   1      36.769  30.565  39.031  1.00  0.00     0.195 A 
ENDBRANCH  20  23
BRANCH  21  28
ATOM     28  C   UNL A   1      41.031  35.522  38.362  1.00  0.00     0.050 A 
ATOM     29  C   UNL A   1      41.056  36.868  38.662  1.00  0.00     0.022 A 
ATOM     30  S   UNL A   1      42.568  34.798  38.554  1.00  0.00    -0.142 S 
ATOM     31  C   UNL A   1      42.355  37.307  39.052  1.00  0.00     0.012 A 
ATOM     32  C   UNL A   1      43.278  36.286  39.014  1.00  0.00     0.065 A 
ENDBRANCH  21  28
ENDBRANCH  10  18
ENDBRANCH   6   7
ENDBRANCH   4   6
ENDBRANCH   1   2
BRANCH   1  33
ATOM     33  C   UNL A   1      33.876  34.077  29.347  1.00  0.00     0.042 C 
BRANCH  33  34
ATOM     34  C   UNL A   1      34.646  33.073  28.491  1.00  0.00     0.118 C 
BRANCH  34  35
ATOM     35  N   UNL A   1      33.832  31.953  28.038  1.00  0.00    -0.352 N 
ATOM     36  C   UNL A   1      34.180  30.649  27.785  1.00  0.00     0.251 C 
ATOM     37  H   UNL A   1      32.883  32.165  27.889  1.00  0.00     0.163 HD
ATOM     38  O   UNL A   1      33.360  29.887  27.276  1.00  0.00    -0.269 OA
BRANCH  36  39
ATOM     39  C   UNL A   1      35.544  30.156  28.082  1.00  0.00     0.039 A 
ATOM     40  C   UNL A   1      36.503  30.190  27.065  1.00  0.00     0.014 A 
ATOM     41  C   UNL A   1      35.883  29.655  29.341  1.00  0.00     0.014 A 
ATOM     42  C   UNL A   1      37.820  29.811  27.336  1.00  0.00     0.010 A 
ATOM     43  C   UNL A   1      37.211  29.345  29.630  1.00  0.00     0.010 A 
ATOM     44  C   UNL A   1      38.198  29.435  28.636  1.00  0.00    -0.014 A 
BRANCH  44  45
ATOM     45  C   UNL A   1      39.622  29.182  28.981  1.00  0.00     0.031 A 
ATOM     46  C   UNL A   1      40.437  30.224  29.693  1.00  0.00     0.074 A 
ATOM     47  C   UNL A   1      40.203  28.032  28.583  1.00  0.00     0.049 A 
ATOM     48  N   UNL A   1      41.712  30.213  29.998  1.00  0.00    -0.248 NA
ATOM     49  C   UNL A   1      39.733  31.449  30.099  1.00  0.00     0.031 C 
ATOM     50  C   UNL A   1      39.533  26.956  27.851  1.00  0.00     0.029 A 
ATOM     51  N   UNL A   1      41.493  27.583  28.721  1.00  0.00    -0.354 N 
ATOM     52  C   UNL A   1      41.962  31.428  30.621  1.00  0.00     0.074 A 
ATOM     53  C   UNL A   1      40.721  32.172  30.608  1.00  0.00     0.031 C 
ATOM     54  C   UNL A   1      40.409  25.967  27.622  1.00  0.00     0.029 A 
ATOM     55  C   UNL A   1      41.715  26.357  28.143  1.00  0.00     0.049 A 
ATOM     56  H   UNL A   1      42.193  28.091  29.192  1.00  0.00     0.167 HD
ATOM     57  C   UNL A   1      43.118  31.874  31.170  1.00  0.00     0.037 A 
ATOM     58  C   UNL A   1      42.847  25.635  28.026  1.00  0.00     0.037 A 
ATOM     59  C   UNL A   1      44.351  31.128  31.189  1.00  0.00     0.049 A 
ATOM     60  C   UNL A   1      44.126  26.173  28.608  1.00  0.00     0.074 A 
ATOM     61  C   UNL A   1      45.559  31.472  31.771  1.00  0.00     0.029 A 
ATOM     62  N   UNL A   1      44.537  29.890  30.588  1.00  0.00    -0.354 N 
ATOM     63  N   UNL A   1      44.335  27.293  29.257  1.00  0.00    -0.248 NA
ATOM     64  C   UNL A   1      45.329  25.344  28.441  1.00  0.00     0.031 C 
ATOM     65  C   UNL A   1      46.491  30.474  31.470  1.00  0.00     0.029 A 
ATOM     66  C   UNL A   1      45.850  29.476  30.755  1.00  0.00     0.049 A 
ATOM     67  H   UNL A   1      43.840  29.382  30.114  1.00  0.00     0.167 HD
ATOM     68  C   UNL A   1      45.681  27.292  29.596  1.00  0.00     0.074 A 
ATOM     69  C   UNL A   1      46.236  26.050  29.101  1.00  0.00     0.031 C 
ATOM     70  C   UNL A   1      46.394  28.237  30.257  1.00  0.00     0.037 A 
BRANCH  57  71
ATOM     71  C   UNL A   1      43.111  33.241  31.793  1.00  0.00     0.064 A 
ATOM     72  C   UNL A   1      43.358  34.398  31.037  1.00  0.00     0.173 A 
ATOM     73  C   UNL A   1      42.807  33.402  33.154  1.00  0.00     0.173 A 
ATOM     74  F   UNL A   1      43.661  34.300  29.734  1.00  0.00    -0.203 F 
ATOM     75  C   UNL A   1      43.332  35.659  31.626  1.00  0.00     0.198 A 
ATOM     76  C   UNL A   1      42.749  34.668  33.732  1.00  0.00     0.198 A 
ATOM     77  F   UNL A   1      42.554  32.333  33.922  1.00  0.00    -0.203 F 
ATOM     78  F   UNL A   1      43.621  36.745  30.895  1.00  0.00    -0.200 F 
ATOM     79  C   UNL A   1      43.020  35.794  32.970  1.00  0.00     0.200 A 
ATOM     80  F   UNL A   1      42.431  34.798  35.027  1.00  0.00    -0.200 F 
ATOM     81  F   UNL A   1      42.985  37.010  33.533  1.00  0.00    -0.200 F 
ENDBRANCH  57  71
BRANCH  58  82
ATOM     82  C   UNL A   1      42.823  24.321  27.329  1.00  0.00     0.064 A 
ATOM     83  C   UNL A   1      42.508  23.144  28.022  1.00  0.00     0.173 A 
ATOM     84  C   UNL A   1      43.128  24.212  25.964  1.00  0.00     0.173 A 
ATOM     85  F   UNL A   1      42.232  23.191  29.333  1.00  0.00    -0.203 F 
ATOM     86  C   UNL A   1      42.520  21.906  27.381  1.00  0.00     0.198 A 
ATOM     87  C   UNL A   1      43.108  22.978  25.317  1.00  0.00     0.198 A 
ATOM     88  F   UNL A   1      43.433  25.308  25.254  1.00  0.00    -0.203 F 
ATOM     89  F   UNL A   1      42.267  20.791  28.080  1.00  0.00    -0.200 F 
ATOM     90  C   UNL A   1      42.813  21.825  26.028  1.00  0.00     0.200 A 
ATOM     91  F   UNL A   1      43.376  22.907  24.007  1.00  0.00    -0.200 F 
ATOM     92  F   UNL A   1      42.823  20.635  25.413  1.00  0.00    -0.200 F 
ENDBRANCH  58  82
BRANCH  70  93
ATOM     93  C   UNL A   1      47.848  27.955  30.507  1.00  0.00     0.064 A 
ATOM     94  C   UNL A   1      48.282  27.267  31.650  1.00  0.00     0.173 A 
ATOM     95  C   UNL A   1      48.819  28.346  29.571  1.00  0.00     0.173 A 
ATOM     96  F   UNL A   1      47.397  26.885  32.584  1.00  0.00    -0.203 F 
ATOM     97  C   UNL A   1      49.634  27.008  31.861  1.00  0.00     0.198 A 
ATOM     98  C   UNL A   1      50.166  28.055  29.769  1.00  0.00     0.198 A 
ATOM     99  F   UNL A   1      48.460  29.002  28.457  1.00  0.00    -0.203 F 
ATOM    100  F   UNL A   1      50.028  26.398  32.988  1.00  0.00    -0.200 F 
ATOM    101  C   UNL A   1      50.573  27.394  30.918  1.00  0.00     0.200 A 
ATOM    102  F   UNL A   1      51.071  28.414  28.848  1.00  0.00    -0.200 F 
ATOM    103  F   UNL A   1      51.873  27.135  31.119  1.00  0.00    -0.200 F 
ENDBRANCH  70  93
ENDBRANCH  44  45
ENDBRANCH  36  39
ENDBRANCH  34  35
ENDBRANCH  33  34
ENDBRANCH   1  33
TORSDOF 15
ENDMDL
