MODEL 1
REMARK VINA RESULT:     -12.0      0.000      0.000
REMARK SMILES [NH3+][C@@H](CC(=O)NCCCNC(=O)c1ccc(-c2c3nc(c(-c4c(F)c(F)c(F)c(F)c4F)c4ccc([nH]4)c(-c4c(F)c(F)c(F)c(F)c4F)c4nc(c(-c5c(F)c(F)c(F)c(F)c5F)c5ccc2[nH]5)C=C4)C=C3)cc1)c1cc([N+](=O)[O-])ccc1Cl
REMARK SMILES IDX 7 1 6 2 4 3 5 4 3 6 2 7 1 8 76 12 77 13 84 14 78 15 83 16
REMARK SMILES IDX 85 17 82 18 79 19 80 20 81 21 8 22 9 23 10 24 11 25 12 27
REMARK SMILES IDX 13 28 14 29 75 30 15 31 74 32 16 33 17 34 18 35 68 36 19 37
REMARK SMILES IDX 73 38 67 39 69 40 20 41 72 42 66 43 65 44 21 46 53 47 33 48
REMARK SMILES IDX 52 49 34 50 37 51 51 52 70 53 35 54 36 55 50 57 71 58 38 59
REMARK SMILES IDX 22 60 23 61 31 62 24 63 25 64 29 65 32 66 26 67 27 68 30 69
REMARK SMILES IDX 28 70 54 71 55 72 63 73 56 74 57 75 61 76 64 77 58 78 59 79
REMARK SMILES IDX 62 80 60 81 39 82 40 83 48 84 41 85 42 86 46 87 49 88 43 89
REMARK SMILES IDX 44 90 47 91 45 92
REMARK H PARENT 6 5 1 9 1 10 1 11 10 26 69 45 37 56
REMARK Flexibility Score: inf
ROOT
ATOM      1  C   UNL A   1      31.292  30.827  26.175  1.00  0.00     0.117 C 
ENDROOT
BRANCH   1   2
ATOM      2  N   UNL A   1      32.541  30.314  25.640  1.00  0.00    -0.356 N 
ATOM      3  C   UNL A   1      32.813  29.233  24.860  1.00  0.00     0.226 C 
ATOM      4  O   UNL A   1      33.991  29.020  24.561  1.00  0.00    -0.275 OA
ATOM      5  H   UNL A   1      33.333  30.844  25.885  1.00  0.00     0.163 HD
BRANCH   3   6
ATOM      6  C   UNL A   1      31.711  28.341  24.343  1.00  0.00     0.170 C 
BRANCH   6   7
ATOM      7  C   UNL A   1      31.148  28.663  22.947  1.00  0.00     0.223 C 
BRANCH   7   8
ATOM      8  N   UNL A   1      32.097  29.290  22.026  1.00  0.00    -0.351 N 
ATOM      9  H   UNL A   1      32.807  28.609  21.753  1.00  0.00     0.345 HD
ATOM     10  H   UNL A   1      32.545  30.082  22.487  1.00  0.00     0.345 HD
ATOM     11  H   UNL A   1      31.601  29.615  21.196  1.00  0.00     0.345 HD
ENDBRANCH   7   8
BRANCH   7  12
ATOM     12  C   UNL A   1      29.773  29.319  22.903  1.00  0.00     0.035 A 
ATOM     13  C   UNL A   1      29.720  30.698  22.591  1.00  0.00     0.097 A 
ATOM     14  C   UNL A   1      28.552  28.664  23.165  1.00  0.00     0.050 A 
ATOM     15  C   UNL A   1      28.498  31.388  22.566  1.00  0.00     0.270 A 
ATOM     16  C   UNL A   1      27.334  29.359  23.124  1.00  0.00     0.028 A 
ATOM     17  Cl  UNL A   1      28.447  26.989  23.584  1.00  0.00    -0.084 Cl
ATOM     18  C   UNL A   1      27.300  30.721  22.831  1.00  0.00     0.087 A 
BRANCH  15  19
ATOM     19  N   UNL A   1      28.479  32.828  22.276  1.00  0.00     0.062 N 
ATOM     20  O   UNL A   1      27.791  33.214  21.321  1.00  0.00    -0.258 OA
ATOM     21  O   UNL A   1      29.159  33.570  23.000  1.00  0.00    -0.258 OA
ENDBRANCH  15  19
ENDBRANCH   7  12
ENDBRANCH   6   7
ENDBRANCH   3   6
ENDBRANCH   1   2
BRANCH   1  22
ATOM     22  C   UNL A   1      31.320  32.335  26.414  1.00  0.00     0.042 C 
BRANCH  22  23
ATOM     23  C   UNL A   1      32.547  32.846  27.164  1.00  0.00     0.118 C 
BRANCH  23  24
ATOM     24  N   UNL A   1      32.400  34.228  27.583  1.00  0.00    -0.352 N 
ATOM     25  C   UNL A   1      33.040  34.895  28.599  1.00  0.00     0.251 C 
ATOM     26  H   UNL A   1      31.753  34.761  27.067  1.00  0.00     0.163 HD
ATOM     27  O   UNL A   1      32.650  36.011  28.930  1.00  0.00    -0.269 OA
BRANCH  25  28
ATOM     28  C   UNL A   1      34.189  34.283  29.311  1.00  0.00     0.039 A 
ATOM     29  C   UNL A   1      35.480  34.552  28.846  1.00  0.00     0.014 A 
ATOM     30  C   UNL A   1      34.005  33.387  30.370  1.00  0.00     0.014 A 
ATOM     31  C   UNL A   1      36.585  33.938  29.445  1.00  0.00     0.010 A 
ATOM     32  C   UNL A   1      35.112  32.810  30.998  1.00  0.00     0.010 A 
ATOM     33  C   UNL A   1      36.410  33.060  30.525  1.00  0.00    -0.014 A 
BRANCH  33  34
ATOM     34  C   UNL A   1      37.572  32.350  31.121  1.00  0.00     0.031 A 
ATOM     35  C   UNL A   1      38.055  32.724  32.497  1.00  0.00     0.074 A 
ATOM     36  C   UNL A   1      38.211  31.390  30.425  1.00  0.00     0.049 A 
ATOM     37  N   UNL A   1      39.070  32.251  33.177  1.00  0.00    -0.248 NA
ATOM     38  C   UNL A   1      37.310  33.785  33.193  1.00  0.00     0.031 C 
ATOM     39  C   UNL A   1      37.867  30.955  29.072  1.00  0.00     0.029 A 
ATOM     40  N   UNL A   1      39.291  30.611  30.761  1.00  0.00    -0.354 N 
ATOM     41  C   UNL A   1      39.096  32.968  34.366  1.00  0.00     0.074 A 
ATOM     42  C   UNL A   1      38.017  33.930  34.304  1.00  0.00     0.031 C 
ATOM     43  C   UNL A   1      38.713  29.982  28.696  1.00  0.00     0.029 A 
ATOM     44  C   UNL A   1      39.671  29.738  29.772  1.00  0.00     0.049 A 
ATOM     45  H   UNL A   1      39.750  30.673  31.630  1.00  0.00     0.167 HD
ATOM     46  C   UNL A   1      39.932  32.826  35.422  1.00  0.00     0.037 A 
ATOM     47  C   UNL A   1      40.676  28.842  29.739  1.00  0.00     0.037 A 
ATOM     48  C   UNL A   1      40.979  31.843  35.508  1.00  0.00     0.049 A 
ATOM     49  C   UNL A   1      41.566  28.679  30.943  1.00  0.00     0.074 A 
ATOM     50  C   UNL A   1      41.842  31.590  36.560  1.00  0.00     0.029 A 
ATOM     51  N   UNL A   1      41.297  30.943  34.504  1.00  0.00    -0.354 N 
ATOM     52  N   UNL A   1      41.542  29.324  32.082  1.00  0.00    -0.248 NA
ATOM     53  C   UNL A   1      42.612  27.650  30.859  1.00  0.00     0.031 C 
ATOM     54  C   UNL A   1      42.702  30.553  36.183  1.00  0.00     0.029 A 
ATOM     55  C   UNL A   1      42.348  30.136  34.910  1.00  0.00     0.049 A 
ATOM     56  H   UNL A   1      40.844  30.884  33.632  1.00  0.00     0.167 HD
ATOM     57  C   UNL A   1      42.544  28.760  32.861  1.00  0.00     0.074 A 
ATOM     58  C   UNL A   1      43.153  27.713  32.068  1.00  0.00     0.031 C 
ATOM     59  C   UNL A   1      42.925  29.081  34.120  1.00  0.00     0.037 A 
BRANCH  46  60
ATOM     60  C   UNL A   1      39.746  33.755  36.585  1.00  0.00     0.064 A 
ATOM     61  C   UNL A   1      38.903  33.428  37.656  1.00  0.00     0.173 A 
ATOM     62  C   UNL A   1      40.461  34.960  36.654  1.00  0.00     0.173 A 
ATOM     63  F   UNL A   1      38.189  32.292  37.631  1.00  0.00    -0.203 F 
ATOM     64  C   UNL A   1      38.768  34.282  38.748  1.00  0.00     0.198 A 
ATOM     65  C   UNL A   1      40.343  35.800  37.758  1.00  0.00     0.198 A 
ATOM     66  F   UNL A   1      41.286  35.315  35.657  1.00  0.00    -0.203 F 
ATOM     67  F   UNL A   1      37.930  33.967  39.745  1.00  0.00    -0.200 F 
ATOM     68  C   UNL A   1      39.493  35.463  38.801  1.00  0.00     0.200 A 
ATOM     69  F   UNL A   1      41.052  36.937  37.813  1.00  0.00    -0.200 F 
ATOM     70  F   UNL A   1      39.370  36.280  39.857  1.00  0.00    -0.200 F 
ENDBRANCH  46  60
BRANCH  47  71
ATOM     71  C   UNL A   1      40.882  28.002  28.532  1.00  0.00     0.064 A 
ATOM     72  C   UNL A   1      41.688  28.448  27.474  1.00  0.00     0.173 A 
ATOM     73  C   UNL A   1      40.262  26.752  28.399  1.00  0.00     0.173 A 
ATOM     74  F   UNL A   1      42.281  29.649  27.547  1.00  0.00    -0.203 F 
ATOM     75  C   UNL A   1      41.847  27.684  26.321  1.00  0.00     0.198 A 
ATOM     76  C   UNL A   1      40.442  25.978  27.256  1.00  0.00     0.198 A 
ATOM     77  F   UNL A   1      39.483  26.282  29.384  1.00  0.00    -0.203 F 
ATOM     78  F   UNL A   1      42.585  28.155  25.306  1.00  0.00    -0.200 F 
ATOM     79  C   UNL A   1      41.228  26.448  26.214  1.00  0.00     0.200 A 
ATOM     80  F   UNL A   1      39.850  24.781  27.160  1.00  0.00    -0.200 F 
ATOM     81  F   UNL A   1      41.380  25.715  25.103  1.00  0.00    -0.200 F 
ENDBRANCH  47  71
BRANCH  59  82
ATOM     82  C   UNL A   1      44.016  28.262  34.741  1.00  0.00     0.064 A 
ATOM     83  C   UNL A   1      45.364  28.632  34.637  1.00  0.00     0.173 A 
ATOM     84  C   UNL A   1      43.702  27.114  35.484  1.00  0.00     0.173 A 
ATOM     85  F   UNL A   1      45.713  29.714  33.925  1.00  0.00    -0.203 F 
ATOM     86  C   UNL A   1      46.362  27.870  35.237  1.00  0.00     0.198 A 
ATOM     87  C   UNL A   1      44.701  26.367  36.102  1.00  0.00     0.198 A 
ATOM     88  F   UNL A   1      42.426  26.722  35.617  1.00  0.00    -0.203 F 
ATOM     89  F   UNL A   1      47.648  28.219  35.092  1.00  0.00    -0.200 F 
ATOM     90  C   UNL A   1      46.030  26.741  35.973  1.00  0.00     0.200 A 
ATOM     91  F   UNL A   1      44.377  25.283  36.821  1.00  0.00    -0.200 F 
ATOM     92  F   UNL A   1      46.993  26.012  36.554  1.00  0.00    -0.200 F 
ENDBRANCH  59  82
ENDBRANCH  33  34
ENDBRANCH  25  28
ENDBRANCH  23  24
ENDBRANCH  22  23
ENDBRANCH   1  22
TORSDOF 14
ENDMDL
MODEL 2
REMARK VINA RESULT:     -11.8      0.431      1.684
REMARK SMILES [NH3+][C@@H](CC(=O)NCCCNC(=O)c1ccc(-c2c3nc(c(-c4c(F)c(F)c(F)c(F)c4F)c4ccc([nH]4)c(-c4c(F)c(F)c(F)c(F)c4F)c4nc(c(-c5c(F)c(F)c(F)c(F)c5F)c5ccc2[nH]5)C=C4)C=C3)cc1)c1cc([N+](=O)[O-])ccc1Cl
REMARK SMILES IDX 7 1 6 2 4 3 5 4 3 6 2 7 1 8 76 12 77 13 84 14 78 15 83 16
REMARK SMILES IDX 85 17 82 18 79 19 80 20 81 21 8 22 9 23 10 24 11 25 12 27
REMARK SMILES IDX 13 28 14 29 75 30 15 31 74 32 16 33 17 34 18 35 68 36 19 37
REMARK SMILES IDX 73 38 67 39 69 40 20 41 72 42 66 43 65 44 21 46 53 47 33 48
REMARK SMILES IDX 52 49 34 50 37 51 51 52 70 53 35 54 36 55 50 57 71 58 38 59
REMARK SMILES IDX 22 60 23 61 31 62 24 63 25 64 29 65 32 66 26 67 27 68 30 69
REMARK SMILES IDX 28 70 54 71 55 72 63 73 56 74 57 75 61 76 64 77 58 78 59 79
REMARK SMILES IDX 62 80 60 81 39 82 40 83 48 84 41 85 42 86 46 87 49 88 43 89
REMARK SMILES IDX 44 90 47 91 45 92
REMARK H PARENT 6 5 1 9 1 10 1 11 10 26 69 45 37 56
REMARK Flexibility Score: inf
ROOT
ATOM      1  C   UNL A   1      31.354  30.540  26.147  1.00  0.00     0.117 C 
ENDROOT
BRANCH   1   2
ATOM      2  N   UNL A   1      32.622  30.060  25.625  1.00  0.00    -0.356 N 
ATOM      3  C   UNL A   1      32.924  29.016  24.806  1.00  0.00     0.226 C 
ATOM      4  O   UNL A   1      34.111  28.825  24.531  1.00  0.00    -0.275 OA
ATOM      5  H   UNL A   1      33.403  30.584  25.915  1.00  0.00     0.163 HD
BRANCH   3   6
ATOM      6  C   UNL A   1      31.843  28.140  24.220  1.00  0.00     0.170 C 
BRANCH   6   7
ATOM      7  C   UNL A   1      31.335  28.504  22.813  1.00  0.00     0.223 C 
BRANCH   7   8
ATOM      8  N   UNL A   1      32.272  29.279  21.997  1.00  0.00    -0.351 N 
ATOM      9  H   UNL A   1      32.309  30.239  22.342  1.00  0.00     0.345 HD
ATOM     10  H   UNL A   1      31.957  29.279  21.026  1.00  0.00     0.345 HD
ATOM     11  H   UNL A   1      33.199  28.860  22.055  1.00  0.00     0.345 HD
ENDBRANCH   7   8
BRANCH   7  12
ATOM     12  C   UNL A   1      29.908  29.031  22.721  1.00  0.00     0.035 A 
ATOM     13  C   UNL A   1      29.729  30.338  22.212  1.00  0.00     0.097 A 
ATOM     14  C   UNL A   1      28.754  28.323  23.119  1.00  0.00     0.050 A 
ATOM     15  C   UNL A   1      28.452  30.913  22.128  1.00  0.00     0.270 A 
ATOM     16  C   UNL A   1      27.480  28.902  23.018  1.00  0.00     0.028 A 
ATOM     17  Cl  UNL A   1      28.805  26.727  23.782  1.00  0.00    -0.084 Cl
ATOM     18  C   UNL A   1      27.322  30.198  22.530  1.00  0.00     0.087 A 
BRANCH  15  19
ATOM     19  N   UNL A   1      28.302  32.288  21.631  1.00  0.00     0.062 N 
ATOM     20  O   UNL A   1      28.055  32.441  20.426  1.00  0.00    -0.258 OA
ATOM     21  O   UNL A   1      28.438  33.213  22.445  1.00  0.00    -0.258 OA
ENDBRANCH  15  19
ENDBRANCH   7  12
ENDBRANCH   6   7
ENDBRANCH   3   6
ENDBRANCH   1   2
BRANCH   1  22
ATOM     22  C   UNL A   1      31.367  32.034  26.465  1.00  0.00     0.042 C 
BRANCH  22  23
ATOM     23  C   UNL A   1      32.613  32.526  27.198  1.00  0.00     0.118 C 
BRANCH  23  24
ATOM     24  N   UNL A   1      32.512  33.923  27.577  1.00  0.00    -0.352 N 
ATOM     25  C   UNL A   1      33.189  34.601  28.561  1.00  0.00     0.251 C 
ATOM     26  H   UNL A   1      31.871  34.459  27.057  1.00  0.00     0.163 HD
ATOM     27  O   UNL A   1      32.837  35.738  28.865  1.00  0.00    -0.269 OA
BRANCH  25  28
ATOM     28  C   UNL A   1      34.333  33.979  29.271  1.00  0.00     0.039 A 
ATOM     29  C   UNL A   1      35.630  34.331  28.880  1.00  0.00     0.014 A 
ATOM     30  C   UNL A   1      34.146  32.997  30.250  1.00  0.00     0.014 A 
ATOM     31  C   UNL A   1      36.734  33.712  29.475  1.00  0.00     0.010 A 
ATOM     32  C   UNL A   1      35.250  32.414  30.876  1.00  0.00     0.010 A 
ATOM     33  C   UNL A   1      36.555  32.747  30.478  1.00  0.00    -0.014 A 
BRANCH  33  34
ATOM     34  C   UNL A   1      37.720  32.036  31.064  1.00  0.00     0.031 A 
ATOM     35  C   UNL A   1      38.189  32.382  32.452  1.00  0.00     0.074 A 
ATOM     36  C   UNL A   1      38.375  31.101  30.350  1.00  0.00     0.049 A 
ATOM     37  N   UNL A   1      39.205  31.905  33.129  1.00  0.00    -0.248 NA
ATOM     38  C   UNL A   1      37.427  33.417  33.169  1.00  0.00     0.031 C 
ATOM     39  C   UNL A   1      38.046  30.696  28.984  1.00  0.00     0.029 A 
ATOM     40  N   UNL A   1      39.462  30.326  30.675  1.00  0.00    -0.354 N 
ATOM     41  C   UNL A   1      39.214  32.593  34.334  1.00  0.00     0.074 A 
ATOM     42  C   UNL A   1      38.125  33.544  34.288  1.00  0.00     0.031 C 
ATOM     43  C   UNL A   1      38.905  29.741  28.591  1.00  0.00     0.029 A 
ATOM     44  C   UNL A   1      39.858  29.482  29.668  1.00  0.00     0.049 A 
ATOM     45  H   UNL A   1      39.914  30.373  31.549  1.00  0.00     0.167 HD
ATOM     46  C   UNL A   1      40.044  32.434  35.393  1.00  0.00     0.037 A 
ATOM     47  C   UNL A   1      40.874  28.599  29.620  1.00  0.00     0.037 A 
ATOM     48  C   UNL A   1      41.102  31.462  35.463  1.00  0.00     0.049 A 
ATOM     49  C   UNL A   1      41.757  28.416  30.826  1.00  0.00     0.074 A 
ATOM     50  C   UNL A   1      41.961  31.193  36.515  1.00  0.00     0.029 A 
ATOM     51  N   UNL A   1      41.437  30.589  34.440  1.00  0.00    -0.354 N 
ATOM     52  N   UNL A   1      41.718  29.033  31.980  1.00  0.00    -0.248 NA
ATOM     53  C   UNL A   1      42.816  27.402  30.725  1.00  0.00     0.031 C 
ATOM     54  C   UNL A   1      42.835  30.175  36.118  1.00  0.00     0.029 A 
ATOM     55  C   UNL A   1      42.495  29.786  34.833  1.00  0.00     0.049 A 
ATOM     56  H   UNL A   1      40.991  30.547  33.563  1.00  0.00     0.167 HD
ATOM     57  C   UNL A   1      42.721  28.462  32.753  1.00  0.00     0.074 A 
ATOM     58  C   UNL A   1      43.348  27.442  31.939  1.00  0.00     0.031 C 
ATOM     59  C   UNL A   1      43.089  28.757  34.022  1.00  0.00     0.037 A 
BRANCH  46  60
ATOM     60  C   UNL A   1      39.839  33.332  36.577  1.00  0.00     0.064 A 
ATOM     61  C   UNL A   1      40.544  34.536  36.714  1.00  0.00     0.173 A 
ATOM     62  C   UNL A   1      38.887  33.011  37.556  1.00  0.00     0.173 A 
ATOM     63  F   UNL A   1      41.473  34.881  35.809  1.00  0.00    -0.203 F 
ATOM     64  C   UNL A   1      40.317  35.379  37.799  1.00  0.00     0.198 A 
ATOM     65  C   UNL A   1      38.646  33.867  38.627  1.00  0.00     0.198 A 
ATOM     66  F   UNL A   1      38.182  31.873  37.467  1.00  0.00    -0.203 F 
ATOM     67  F   UNL A   1      41.027  36.508  37.930  1.00  0.00    -0.200 F 
ATOM     68  C   UNL A   1      39.364  35.047  38.751  1.00  0.00     0.200 A 
ATOM     69  F   UNL A   1      37.716  33.550  39.541  1.00  0.00    -0.200 F 
ATOM     70  F   UNL A   1      39.139  35.864  39.789  1.00  0.00    -0.200 F 
ENDBRANCH  46  60
BRANCH  47  71
ATOM     71  C   UNL A   1      41.098  27.791  28.394  1.00  0.00     0.064 A 
ATOM     72  C   UNL A   1      40.460  26.555  28.221  1.00  0.00     0.173 A 
ATOM     73  C   UNL A   1      41.968  28.225  27.385  1.00  0.00     0.173 A 
ATOM     74  F   UNL A   1      39.638  26.088  29.172  1.00  0.00    -0.203 F 
ATOM     75  C   UNL A   1      40.703  25.773  27.094  1.00  0.00     0.198 A 
ATOM     76  C   UNL A   1      42.191  27.454  26.247  1.00  0.00     0.198 A 
ATOM     77  F   UNL A   1      42.601  29.402  27.504  1.00  0.00    -0.203 F 
ATOM     78  F   UNL A   1      40.116  24.574  26.975  1.00  0.00    -0.200 F 
ATOM     79  C   UNL A   1      41.564  26.225  26.106  1.00  0.00     0.200 A 
ATOM     80  F   UNL A   1      43.017  27.898  25.290  1.00  0.00    -0.200 F 
ATOM     81  F   UNL A   1      41.799  25.471  25.023  1.00  0.00    -0.200 F 
ENDBRANCH  47  71
BRANCH  59  82
ATOM     82  C   UNL A   1      44.186  27.935  34.631  1.00  0.00     0.064 A 
ATOM     83  C   UNL A   1      45.528  28.335  34.565  1.00  0.00     0.173 A 
ATOM     84  C   UNL A   1      43.882  26.753  35.324  1.00  0.00     0.173 A 
ATOM     85  F   UNL A   1      45.868  29.449  33.901  1.00  0.00    -0.203 F 
ATOM     86  C   UNL A   1      46.530  27.568  35.153  1.00  0.00     0.198 A 
ATOM     87  C   UNL A   1      44.885  26.002  35.931  1.00  0.00     0.198 A 
ATOM     88  F   UNL A   1      42.612  26.332  35.419  1.00  0.00    -0.203 F 
ATOM     89  F   UNL A   1      47.811  27.948  35.045  1.00  0.00    -0.200 F 
ATOM     90  C   UNL A   1      46.207  26.407  35.840  1.00  0.00     0.200 A 
ATOM     91  F   UNL A   1      44.570  24.885  36.602  1.00  0.00    -0.200 F 
ATOM     92  F   UNL A   1      47.175  25.673  36.410  1.00  0.00    -0.200 F 
ENDBRANCH  59  82
ENDBRANCH  33  34
ENDBRANCH  25  28
ENDBRANCH  23  24
ENDBRANCH  22  23
ENDBRANCH   1  22
TORSDOF 14
ENDMDL
MODEL 3
REMARK VINA RESULT:     -11.6      7.007     10.925
REMARK SMILES [NH3+][C@@H](CC(=O)NCCCNC(=O)c1ccc(-c2c3nc(c(-c4c(F)c(F)c(F)c(F)c4F)c4ccc([nH]4)c(-c4c(F)c(F)c(F)c(F)c4F)c4nc(c(-c5c(F)c(F)c(F)c(F)c5F)c5ccc2[nH]5)C=C4)C=C3)cc1)c1cc([N+](=O)[O-])ccc1Cl
REMARK SMILES IDX 7 1 6 2 4 3 5 4 3 6 2 7 1 8 76 12 77 13 84 14 78 15 83 16
REMARK SMILES IDX 85 17 82 18 79 19 80 20 81 21 8 22 9 23 10 24 11 25 12 27
REMARK SMILES IDX 13 28 14 29 75 30 15 31 74 32 16 33 17 34 18 35 68 36 19 37
REMARK SMILES IDX 73 38 67 39 69 40 20 41 72 42 66 43 65 44 21 46 53 47 33 48
REMARK SMILES IDX 52 49 34 50 37 51 51 52 70 53 35 54 36 55 50 57 71 58 38 59
REMARK SMILES IDX 22 60 23 61 31 62 24 63 25 64 29 65 32 66 26 67 27 68 30 69
REMARK SMILES IDX 28 70 54 71 55 72 63 73 56 74 57 75 61 76 64 77 58 78 59 79
REMARK SMILES IDX 62 80 60 81 39 82 40 83 48 84 41 85 42 86 46 87 49 88 43 89
REMARK SMILES IDX 44 90 47 91 45 92
REMARK H PARENT 6 5 1 9 1 10 1 11 10 26 69 45 37 56
REMARK Flexibility Score: inf
ROOT
ATOM      1  C   UNL A   1      36.649  20.196  24.957  1.00  0.00     0.117 C 
ENDROOT
BRANCH   1   2
ATOM      2  N   UNL A   1      36.388  21.371  25.771  1.00  0.00    -0.356 N 
ATOM      3  C   UNL A   1      35.310  22.196  25.847  1.00  0.00     0.226 C 
ATOM      4  O   UNL A   1      35.365  23.146  26.632  1.00  0.00    -0.275 OA
ATOM      5  H   UNL A   1      37.124  21.612  26.378  1.00  0.00     0.163 HD
BRANCH   3   6
ATOM      6  C   UNL A   1      34.067  21.940  25.029  1.00  0.00     0.170 C 
BRANCH   6   7
ATOM      7  C   UNL A   1      33.112  20.843  25.532  1.00  0.00     0.223 C 
BRANCH   7   8
ATOM      8  N   UNL A   1      33.264  20.488  26.944  1.00  0.00    -0.351 N 
ATOM      9  H   UNL A   1      32.510  19.859  27.220  1.00  0.00     0.345 HD
ATOM     10  H   UNL A   1      33.226  21.335  27.513  1.00  0.00     0.345 HD
ATOM     11  H   UNL A   1      34.162  20.025  27.083  1.00  0.00     0.345 HD
ENDBRANCH   7   8
BRANCH   7  12
ATOM     12  C   UNL A   1      32.953  19.619  24.638  1.00  0.00     0.035 A 
ATOM     13  C   UNL A   1      33.328  18.366  25.177  1.00  0.00     0.097 A 
ATOM     14  C   UNL A   1      32.476  19.640  23.310  1.00  0.00     0.050 A 
ATOM     15  C   UNL A   1      33.247  17.194  24.409  1.00  0.00     0.270 A 
ATOM     16  C   UNL A   1      32.387  18.461  22.555  1.00  0.00     0.028 A 
ATOM     17  Cl  UNL A   1      32.001  21.091  22.498  1.00  0.00    -0.084 Cl
ATOM     18  C   UNL A   1      32.776  17.236  23.096  1.00  0.00     0.087 A 
BRANCH  15  19
ATOM     19  N   UNL A   1      33.680  15.914  24.984  1.00  0.00     0.062 N 
ATOM     20  O   UNL A   1      34.871  15.597  24.853  1.00  0.00    -0.258 OA
ATOM     21  O   UNL A   1      32.827  15.222  25.560  1.00  0.00    -0.258 OA
ENDBRANCH  15  19
ENDBRANCH   7  12
ENDBRANCH   6   7
ENDBRANCH   3   6
ENDBRANCH   1   2
BRANCH   1  22
ATOM     22  C   UNL A   1      38.133  19.988  24.668  1.00  0.00     0.042 C 
BRANCH  22  23
ATOM     23  C   UNL A   1      39.061  20.221  25.858  1.00  0.00     0.118 C 
BRANCH  23  24
ATOM     24  N   UNL A   1      40.082  19.195  25.969  1.00  0.00    -0.352 N 
ATOM     25  C   UNL A   1      41.441  19.342  26.105  1.00  0.00     0.251 C 
ATOM     26  H   UNL A   1      39.756  18.267  25.945  1.00  0.00     0.163 HD
ATOM     27  O   UNL A   1      42.169  18.360  25.993  1.00  0.00    -0.269 OA
BRANCH  25  28
ATOM     28  C   UNL A   1      42.044  20.670  26.374  1.00  0.00     0.039 A 
ATOM     29  C   UNL A   1      42.234  21.058  27.705  1.00  0.00     0.014 A 
ATOM     30  C   UNL A   1      42.343  21.565  25.341  1.00  0.00     0.014 A 
ATOM     31  C   UNL A   1      42.733  22.331  28.001  1.00  0.00     0.010 A 
ATOM     32  C   UNL A   1      42.884  22.819  25.636  1.00  0.00     0.010 A 
ATOM     33  C   UNL A   1      43.061  23.223  26.969  1.00  0.00    -0.014 A 
BRANCH  33  34
ATOM     34  C   UNL A   1      43.525  24.601  27.277  1.00  0.00     0.031 A 
ATOM     35  C   UNL A   1      42.555  25.615  27.821  1.00  0.00     0.074 A 
ATOM     36  C   UNL A   1      44.804  24.955  27.049  1.00  0.00     0.049 A 
ATOM     37  N   UNL A   1      42.751  26.876  28.119  1.00  0.00    -0.248 NA
ATOM     38  C   UNL A   1      41.173  25.157  28.039  1.00  0.00     0.031 C 
ATOM     39  C   UNL A   1      45.837  24.080  26.494  1.00  0.00     0.029 A 
ATOM     40  N   UNL A   1      45.451  26.149  27.249  1.00  0.00    -0.354 N 
ATOM     41  C   UNL A   1      41.520  27.362  28.538  1.00  0.00     0.074 A 
ATOM     42  C   UNL A   1      40.574  26.273  28.427  1.00  0.00     0.031 C 
ATOM     43  C   UNL A   1      46.990  24.764  26.407  1.00  0.00     0.029 A 
ATOM     44  C   UNL A   1      46.773  26.130  26.880  1.00  0.00     0.049 A 
ATOM     45  H   UNL A   1      45.008  26.946  27.623  1.00  0.00     0.167 HD
ATOM     46  C   UNL A   1      41.209  28.599  28.993  1.00  0.00     0.037 A 
ATOM     47  C   UNL A   1      47.704  27.102  26.919  1.00  0.00     0.037 A 
ATOM     48  C   UNL A   1      42.154  29.674  29.147  1.00  0.00     0.049 A 
ATOM     49  C   UNL A   1      47.339  28.458  27.466  1.00  0.00     0.074 A 
ATOM     50  C   UNL A   1      41.940  30.946  29.649  1.00  0.00     0.029 A 
ATOM     51  N   UNL A   1      43.495  29.596  28.810  1.00  0.00    -0.354 N 
ATOM     52  N   UNL A   1      46.185  28.886  27.913  1.00  0.00    -0.248 NA
ATOM     53  C   UNL A   1      48.414  29.459  27.527  1.00  0.00     0.031 C 
ATOM     54  C   UNL A   1      43.149  31.649  29.591  1.00  0.00     0.029 A 
ATOM     55  C   UNL A   1      44.121  30.801  29.087  1.00  0.00     0.049 A 
ATOM     56  H   UNL A   1      43.938  28.803  28.429  1.00  0.00     0.167 HD
ATOM     57  C   UNL A   1      46.401  30.190  28.338  1.00  0.00     0.074 A 
ATOM     58  C   UNL A   1      47.799  30.483  28.102  1.00  0.00     0.031 C 
ATOM     59  C   UNL A   1      45.519  31.067  28.873  1.00  0.00     0.037 A 
BRANCH  46  60
ATOM     60  C   UNL A   1      39.781  28.863  29.369  1.00  0.00     0.064 A 
ATOM     61  C   UNL A   1      38.850  29.328  28.429  1.00  0.00     0.173 A 
ATOM     62  C   UNL A   1      39.327  28.595  30.669  1.00  0.00     0.173 A 
ATOM     63  F   UNL A   1      39.240  29.610  27.177  1.00  0.00    -0.203 F 
ATOM     64  C   UNL A   1      37.519  29.533  28.782  1.00  0.00     0.198 A 
ATOM     65  C   UNL A   1      37.990  28.778  31.012  1.00  0.00     0.198 A 
ATOM     66  F   UNL A   1      40.178  28.142  31.603  1.00  0.00    -0.203 F 
ATOM     67  F   UNL A   1      36.654  30.012  27.878  1.00  0.00    -0.200 F 
ATOM     68  C   UNL A   1      37.089  29.252  30.070  1.00  0.00     0.200 A 
ATOM     69  F   UNL A   1      37.573  28.495  32.255  1.00  0.00    -0.200 F 
ATOM     70  F   UNL A   1      35.805  29.439  30.406  1.00  0.00    -0.200 F 
ENDBRANCH  46  60
BRANCH  47  71
ATOM     71  C   UNL A   1      49.087  26.826  26.454  1.00  0.00     0.064 A 
ATOM     72  C   UNL A   1      49.445  27.012  25.111  1.00  0.00     0.173 A 
ATOM     73  C   UNL A   1      50.069  26.350  27.333  1.00  0.00     0.173 A 
ATOM     74  F   UNL A   1      48.530  27.443  24.230  1.00  0.00    -0.203 F 
ATOM     75  C   UNL A   1      50.728  26.711  24.661  1.00  0.00     0.198 A 
ATOM     76  C   UNL A   1      51.359  26.072  26.886  1.00  0.00     0.198 A 
ATOM     77  F   UNL A   1      49.776  26.157  28.627  1.00  0.00    -0.203 F 
ATOM     78  F   UNL A   1      51.030  26.854  23.363  1.00  0.00    -0.200 F 
ATOM     79  C   UNL A   1      51.685  26.245  25.549  1.00  0.00     0.200 A 
ATOM     80  F   UNL A   1      52.284  25.631  27.749  1.00  0.00    -0.200 F 
ATOM     81  F   UNL A   1      52.919  25.953  25.115  1.00  0.00    -0.200 F 
ENDBRANCH  47  71
BRANCH  59  82
ATOM     82  C   UNL A   1      46.046  32.407  29.291  1.00  0.00     0.064 A 
ATOM     83  C   UNL A   1      46.568  32.625  30.574  1.00  0.00     0.173 A 
ATOM     84  C   UNL A   1      46.064  33.474  28.380  1.00  0.00     0.173 A 
ATOM     85  F   UNL A   1      46.557  31.639  31.483  1.00  0.00    -0.203 F 
ATOM     86  C   UNL A   1      47.070  33.871  30.937  1.00  0.00     0.198 A 
ATOM     87  C   UNL A   1      46.589  34.713  28.740  1.00  0.00     0.198 A 
ATOM     88  F   UNL A   1      45.581  33.313  27.139  1.00  0.00    -0.203 F 
ATOM     89  F   UNL A   1      47.527  34.070  32.181  1.00  0.00    -0.200 F 
ATOM     90  C   UNL A   1      47.085  34.912  30.019  1.00  0.00     0.200 A 
ATOM     91  F   UNL A   1      46.612  35.714  27.849  1.00  0.00    -0.200 F 
ATOM     92  F   UNL A   1      47.574  36.110  30.371  1.00  0.00    -0.200 F 
ENDBRANCH  59  82
ENDBRANCH  33  34
ENDBRANCH  25  28
ENDBRANCH  23  24
ENDBRANCH  22  23
ENDBRANCH   1  22
TORSDOF 14
ENDMDL
