MODEL 1
REMARK VINA RESULT:     -10.5      0.000      0.000
REMARK SMILES CC[C@@](O)(C(=O)NCCCNC(=O)c1ccc(-c2c3nc(c(-c4c(F)c(F)c(F)c(F)c4F)c4ccc([nH]4)c(-c4c(F)c(F)c(F)c(F)c4F)c4nc(c(-c5c(F)c(F)c(F)c(F)c5F)c5ccc2[nH]5)C=C4)C=C3)cc1)[C@@H]1CCOc2ccccc21
REMARK SMILES IDX 9 1 8 2 7 3 5 4 6 5 3 7 2 8 1 9 4 10 77 12 78 13 86 14 79 15
REMARK SMILES IDX 81 16 85 17 80 18 82 19 84 20 83 21 10 22 11 23 12 24 13 26
REMARK SMILES IDX 14 27 15 28 76 29 16 30 75 31 17 32 18 33 19 34 69 35 20 36
REMARK SMILES IDX 74 37 68 38 70 39 21 40 73 41 67 42 66 43 22 45 54 46 34 47
REMARK SMILES IDX 53 48 35 49 38 50 52 51 71 52 36 53 37 54 51 56 72 57 39 58
REMARK SMILES IDX 23 59 24 60 32 61 25 62 26 63 30 64 33 65 27 66 28 67 31 68
REMARK SMILES IDX 29 69 55 70 56 71 64 72 57 73 58 74 62 75 65 76 59 77 60 78
REMARK SMILES IDX 63 79 61 80 40 81 41 82 49 83 42 84 43 85 47 86 50 87 44 88
REMARK SMILES IDX 45 89 48 90 46 91
REMARK H PARENT 7 6 4 11 11 25 70 44 38 55
REMARK Flexibility Score: inf
ROOT
ATOM      1  C   UNL A   1      40.930  20.435  26.697  1.00  0.00     0.042 C 
ENDROOT
BRANCH   1   2
ATOM      2  C   UNL A   1      42.440  20.566  26.568  1.00  0.00     0.117 C 
BRANCH   2   3
ATOM      3  N   UNL A   1      42.794  21.276  25.354  1.00  0.00    -0.354 N 
ATOM      4  C   UNL A   1      43.460  22.447  25.173  1.00  0.00     0.252 C 
ATOM      5  O   UNL A   1      43.423  22.920  24.032  1.00  0.00    -0.272 OA
ATOM      6  H   UNL A   1      42.502  20.838  24.522  1.00  0.00     0.163 HD
BRANCH   4   7
ATOM      7  C   UNL A   1      44.177  23.192  26.352  1.00  0.00     0.149 C 
BRANCH   7   8
ATOM      8  C   UNL A   1      43.032  23.821  27.189  1.00  0.00     0.043 C 
ATOM      9  C   UNL A   1      43.025  23.539  28.691  1.00  0.00     0.007 C 
ENDBRANCH   7   8
BRANCH   7  10
ATOM     10  O   UNL A   1      44.925  22.317  27.201  1.00  0.00    -0.379 OA
ATOM     11  H   UNL A   1      45.815  22.679  27.335  1.00  0.00     0.212 HD
ENDBRANCH   7  10
BRANCH   7  12
ATOM     12  C   UNL A   1      45.198  24.164  25.627  1.00  0.00     0.068 C 
ATOM     13  C   UNL A   1      46.639  23.789  26.095  1.00  0.00     0.053 C 
ATOM     14  C   UNL A   1      44.938  25.646  25.832  1.00  0.00     0.001 A 
ATOM     15  C   UNL A   1      47.551  24.992  26.170  1.00  0.00     0.230 C 
ATOM     16  C   UNL A   1      45.800  26.427  26.608  1.00  0.00     0.122 A 
ATOM     17  C   UNL A   1      43.845  26.277  25.225  1.00  0.00     0.008 A 
ATOM     18  O   UNL A   1      46.998  25.953  27.075  1.00  0.00    -0.493 OA
ATOM     19  C   UNL A   1      45.483  27.745  26.930  1.00  0.00     0.047 A 
ATOM     20  C   UNL A   1      43.532  27.604  25.525  1.00  0.00     0.001 A 
ATOM     21  C   UNL A   1      44.334  28.329  26.402  1.00  0.00     0.004 A 
ENDBRANCH   7  12
ENDBRANCH   4   7
ENDBRANCH   2   3
ENDBRANCH   1   2
BRANCH   1  22
ATOM     22  C   UNL A   1      40.257  21.718  27.162  1.00  0.00     0.118 C 
BRANCH  22  23
ATOM     23  N   UNL A   1      39.272  22.201  26.202  1.00  0.00    -0.352 N 
ATOM     24  C   UNL A   1      38.671  23.429  26.112  1.00  0.00     0.251 C 
ATOM     25  H   UNL A   1      38.999  21.549  25.516  1.00  0.00     0.163 HD
ATOM     26  O   UNL A   1      37.680  23.583  25.398  1.00  0.00    -0.269 OA
BRANCH  24  27
ATOM     27  C   UNL A   1      39.206  24.566  26.883  1.00  0.00     0.039 A 
ATOM     28  C   UNL A   1      39.979  25.531  26.232  1.00  0.00     0.014 A 
ATOM     29  C   UNL A   1      38.946  24.678  28.251  1.00  0.00     0.014 A 
ATOM     30  C   UNL A   1      40.436  26.640  26.944  1.00  0.00     0.010 A 
ATOM     31  C   UNL A   1      39.315  25.830  28.932  1.00  0.00     0.010 A 
ATOM     32  C   UNL A   1      40.076  26.817  28.290  1.00  0.00    -0.014 A 
BRANCH  32  33
ATOM     33  C   UNL A   1      40.497  28.018  29.054  1.00  0.00     0.031 A 
ATOM     34  C   UNL A   1      41.886  28.095  29.622  1.00  0.00     0.074 A 
ATOM     35  C   UNL A   1      39.608  29.001  29.293  1.00  0.00     0.049 A 
ATOM     36  N   UNL A   1      42.421  29.016  30.384  1.00  0.00    -0.248 NA
ATOM     37  C   UNL A   1      42.789  26.971  29.322  1.00  0.00     0.031 C 
ATOM     38  C   UNL A   1      38.216  29.014  28.838  1.00  0.00     0.029 A 
ATOM     39  N   UNL A   1      39.740  30.177  29.988  1.00  0.00    -0.354 N 
ATOM     40  C   UNL A   1      43.706  28.574  30.665  1.00  0.00     0.074 A 
ATOM     41  C   UNL A   1      43.855  27.276  30.045  1.00  0.00     0.031 C 
ATOM     42  C   UNL A   1      37.630  30.152  29.244  1.00  0.00     0.029 A 
ATOM     43  C   UNL A   1      38.591  30.928  30.022  1.00  0.00     0.049 A 
ATOM     44  H   UNL A   1      40.578  30.456  30.421  1.00  0.00     0.167 HD
ATOM     45  C   UNL A   1      44.685  29.206  31.355  1.00  0.00     0.037 A 
ATOM     46  C   UNL A   1      38.339  32.108  30.621  1.00  0.00     0.037 A 
ATOM     47  C   UNL A   1      44.539  30.511  31.944  1.00  0.00     0.049 A 
ATOM     48  C   UNL A   1      39.443  32.788  31.385  1.00  0.00     0.074 A 
ATOM     49  C   UNL A   1      45.487  31.267  32.609  1.00  0.00     0.029 A 
ATOM     50  N   UNL A   1      43.367  31.252  31.937  1.00  0.00    -0.354 N 
ATOM     51  N   UNL A   1      40.678  32.394  31.583  1.00  0.00    -0.248 NA
ATOM     52  C   UNL A   1      39.121  34.082  32.003  1.00  0.00     0.031 C 
ATOM     53  C   UNL A   1      44.873  32.444  33.051  1.00  0.00     0.029 A 
ATOM     54  C   UNL A   1      43.561  32.449  32.607  1.00  0.00     0.049 A 
ATOM     55  H   UNL A   1      42.522  30.970  31.517  1.00  0.00     0.167 HD
ATOM     56  C   UNL A   1      41.288  33.402  32.317  1.00  0.00     0.074 A 
ATOM     57  C   UNL A   1      40.291  34.432  32.516  1.00  0.00     0.031 C 
ATOM     58  C   UNL A   1      42.559  33.469  32.784  1.00  0.00     0.037 A 
BRANCH  45  59
ATOM     59  C   UNL A   1      46.002  28.500  31.505  1.00  0.00     0.064 A 
ATOM     60  C   UNL A   1      46.262  27.649  32.590  1.00  0.00     0.173 A 
ATOM     61  C   UNL A   1      47.000  28.643  30.530  1.00  0.00     0.173 A 
ATOM     62  F   UNL A   1      45.347  27.486  33.557  1.00  0.00    -0.203 F 
ATOM     63  C   UNL A   1      47.485  26.991  32.708  1.00  0.00     0.198 A 
ATOM     64  C   UNL A   1      48.208  27.957  30.634  1.00  0.00     0.198 A 
ATOM     65  F   UNL A   1      46.803  29.440  29.470  1.00  0.00    -0.203 F 
ATOM     66  F   UNL A   1      47.729  26.223  33.780  1.00  0.00    -0.200 F 
ATOM     67  C   UNL A   1      48.452  27.137  31.726  1.00  0.00     0.200 A 
ATOM     68  F   UNL A   1      49.136  28.089  29.677  1.00  0.00    -0.200 F 
ATOM     69  F   UNL A   1      49.622  26.495  31.835  1.00  0.00    -0.200 F 
ENDBRANCH  45  59
BRANCH  46  70
ATOM     70  C   UNL A   1      36.995  32.732  30.506  1.00  0.00     0.064 A 
ATOM     71  C   UNL A   1      36.652  33.499  29.383  1.00  0.00     0.173 A 
ATOM     72  C   UNL A   1      36.032  32.588  31.515  1.00  0.00     0.173 A 
ATOM     73  F   UNL A   1      37.544  33.683  28.399  1.00  0.00    -0.203 F 
ATOM     74  C   UNL A   1      35.408  34.119  29.287  1.00  0.00     0.198 A 
ATOM     75  C   UNL A   1      34.776  33.182  31.403  1.00  0.00     0.198 A 
ATOM     76  F   UNL A   1      36.306  31.858  32.606  1.00  0.00    -0.203 F 
ATOM     77  F   UNL A   1      35.126  34.891  28.228  1.00  0.00    -0.200 F 
ATOM     78  C   UNL A   1      34.469  33.956  30.295  1.00  0.00     0.200 A 
ATOM     79  F   UNL A   1      33.866  33.008  32.371  1.00  0.00    -0.200 F 
ATOM     80  F   UNL A   1      33.272  34.552  30.201  1.00  0.00    -0.200 F 
ENDBRANCH  46  70
BRANCH  58  81
ATOM     81  C   UNL A   1      42.959  34.717  33.517  1.00  0.00     0.064 A 
ATOM     82  C   UNL A   1      43.355  35.879  32.838  1.00  0.00     0.173 A 
ATOM     83  C   UNL A   1      42.901  34.763  34.919  1.00  0.00     0.173 A 
ATOM     84  F   UNL A   1      43.441  35.882  31.499  1.00  0.00    -0.203 F 
ATOM     85  C   UNL A   1      43.705  37.031  33.537  1.00  0.00     0.198 A 
ATOM     86  C   UNL A   1      43.220  35.926  35.612  1.00  0.00     0.198 A 
ATOM     87  F   UNL A   1      42.520  33.681  35.615  1.00  0.00    -0.203 F 
ATOM     88  F   UNL A   1      44.130  38.113  32.870  1.00  0.00    -0.200 F 
ATOM     89  C   UNL A   1      43.629  37.056  34.921  1.00  0.00     0.200 A 
ATOM     90  F   UNL A   1      43.129  35.954  36.949  1.00  0.00    -0.200 F 
ATOM     91  F   UNL A   1      43.958  38.169  35.592  1.00  0.00    -0.200 F 
ENDBRANCH  58  81
ENDBRANCH  32  33
ENDBRANCH  24  27
ENDBRANCH  22  23
ENDBRANCH   1  22
TORSDOF 13
ENDMDL
MODEL 2
REMARK VINA RESULT:     -10.5      4.833      9.610
REMARK SMILES CC[C@@](O)(C(=O)NCCCNC(=O)c1ccc(-c2c3nc(c(-c4c(F)c(F)c(F)c(F)c4F)c4ccc([nH]4)c(-c4c(F)c(F)c(F)c(F)c4F)c4nc(c(-c5c(F)c(F)c(F)c(F)c5F)c5ccc2[nH]5)C=C4)C=C3)cc1)[C@@H]1CCOc2ccccc21
REMARK SMILES IDX 9 1 8 2 7 3 5 4 6 5 3 7 2 8 1 9 4 10 77 12 78 13 86 14 79 15
REMARK SMILES IDX 81 16 85 17 80 18 82 19 84 20 83 21 10 22 11 23 12 24 13 26
REMARK SMILES IDX 14 27 15 28 76 29 16 30 75 31 17 32 18 33 19 34 69 35 20 36
REMARK SMILES IDX 74 37 68 38 70 39 21 40 73 41 67 42 66 43 22 45 54 46 34 47
REMARK SMILES IDX 53 48 35 49 38 50 52 51 71 52 36 53 37 54 51 56 72 57 39 58
REMARK SMILES IDX 23 59 24 60 32 61 25 62 26 63 30 64 33 65 27 66 28 67 31 68
REMARK SMILES IDX 29 69 55 70 56 71 64 72 57 73 58 74 62 75 65 76 59 77 60 78
REMARK SMILES IDX 63 79 61 80 40 81 41 82 49 83 42 84 43 85 47 86 50 87 44 88
REMARK SMILES IDX 45 89 48 90 46 91
REMARK H PARENT 7 6 4 11 11 25 70 44 38 55
REMARK Flexibility Score: inf
ROOT
ATOM      1  C   UNL A   1      31.426  32.388  26.528  1.00  0.00     0.042 C 
ENDROOT
BRANCH   1   2
ATOM      2  C   UNL A   1      31.345  30.868  26.557  1.00  0.00     0.117 C 
BRANCH   2   3
ATOM      3  N   UNL A   1      31.842  30.303  25.318  1.00  0.00    -0.354 N 
ATOM      4  C   UNL A   1      32.499  29.138  25.075  1.00  0.00     0.252 C 
ATOM      5  O   UNL A   1      32.995  29.021  23.948  1.00  0.00    -0.272 OA
ATOM      6  H   UNL A   1      31.676  30.854  24.519  1.00  0.00     0.163 HD
BRANCH   4   7
ATOM      7  C   UNL A   1      32.680  28.034  26.174  1.00  0.00     0.149 C 
BRANCH   7   8
ATOM      8  C   UNL A   1      34.167  28.136  26.607  1.00  0.00     0.043 C 
ATOM      9  C   UNL A   1      34.571  29.346  27.449  1.00  0.00     0.007 C 
ENDBRANCH   7   8
BRANCH   7  10
ATOM     10  O   UNL A   1      31.861  28.247  27.327  1.00  0.00    -0.379 OA
ATOM     11  H   UNL A   1      31.992  29.151  27.654  1.00  0.00     0.212 HD
ENDBRANCH   7  10
BRANCH   7  12
ATOM     12  C   UNL A   1      32.194  26.703  25.466  1.00  0.00     0.068 C 
ATOM     13  C   UNL A   1      30.737  26.405  25.942  1.00  0.00     0.053 C 
ATOM     14  C   UNL A   1      33.084  25.492  25.680  1.00  0.00     0.001 A 
ATOM     15  C   UNL A   1      30.453  24.923  26.034  1.00  0.00     0.230 C 
ATOM     16  C   UNL A   1      32.660  24.418  26.470  1.00  0.00     0.122 A 
ATOM     17  C   UNL A   1      34.342  25.404  25.070  1.00  0.00     0.008 A 
ATOM     18  O   UNL A   1      31.378  24.317  26.942  1.00  0.00    -0.493 OA
ATOM     19  C   UNL A   1      33.530  23.381  26.800  1.00  0.00     0.047 A 
ATOM     20  C   UNL A   1      35.212  24.357  25.379  1.00  0.00     0.001 A 
ATOM     21  C   UNL A   1      34.817  23.361  26.268  1.00  0.00     0.004 A 
ENDBRANCH   7  12
ENDBRANCH   4   7
ENDBRANCH   2   3
ENDBRANCH   1   2
BRANCH   1  22
ATOM     22  C   UNL A   1      32.609  32.938  27.310  1.00  0.00     0.118 C 
BRANCH  22  23
ATOM     23  N   UNL A   1      32.434  34.344  27.653  1.00  0.00    -0.352 N 
ATOM     24  C   UNL A   1      33.006  35.073  28.663  1.00  0.00     0.251 C 
ATOM     25  H   UNL A   1      31.814  34.845  27.074  1.00  0.00     0.163 HD
ATOM     26  O   UNL A   1      32.553  36.178  28.962  1.00  0.00    -0.269 OA
BRANCH  24  27
ATOM     27  C   UNL A   1      34.158  34.525  29.402  1.00  0.00     0.039 A 
ATOM     28  C   UNL A   1      33.947  33.897  30.632  1.00  0.00     0.014 A 
ATOM     29  C   UNL A   1      35.449  34.633  28.880  1.00  0.00     0.014 A 
ATOM     30  C   UNL A   1      35.025  33.323  31.306  1.00  0.00     0.010 A 
ATOM     31  C   UNL A   1      36.503  33.975  29.500  1.00  0.00     0.010 A 
ATOM     32  C   UNL A   1      36.305  33.325  30.727  1.00  0.00    -0.014 A 
BRANCH  32  33
ATOM     33  C   UNL A   1      37.457  32.668  31.392  1.00  0.00     0.031 A 
ATOM     34  C   UNL A   1      38.151  31.515  30.722  1.00  0.00     0.074 A 
ATOM     35  C   UNL A   1      37.830  33.064  32.624  1.00  0.00     0.049 A 
ATOM     36  N   UNL A   1      39.120  30.757  31.170  1.00  0.00    -0.248 NA
ATOM     37  C   UNL A   1      37.672  31.140  29.382  1.00  0.00     0.031 C 
ATOM     38  C   UNL A   1      37.198  34.137  33.397  1.00  0.00     0.029 A 
ATOM     39  N   UNL A   1      38.825  32.603  33.450  1.00  0.00    -0.354 N 
ATOM     40  C   UNL A   1      39.351  29.813  30.179  1.00  0.00     0.074 A 
ATOM     41  C   UNL A   1      38.382  30.051  29.131  1.00  0.00     0.031 C 
ATOM     42  C   UNL A   1      37.836  34.268  34.571  1.00  0.00     0.029 A 
ATOM     43  C   UNL A   1      38.892  33.264  34.652  1.00  0.00     0.049 A 
ATOM     44  H   UNL A   1      39.432  31.870  33.204  1.00  0.00     0.167 HD
ATOM     45  C   UNL A   1      40.302  28.851  30.134  1.00  0.00     0.037 A 
ATOM     46  C   UNL A   1      39.710  33.073  35.706  1.00  0.00     0.037 A 
ATOM     47  C   UNL A   1      41.281  28.639  31.166  1.00  0.00     0.049 A 
ATOM     48  C   UNL A   1      40.756  31.994  35.630  1.00  0.00     0.074 A 
ATOM     49  C   UNL A   1      42.327  27.734  31.190  1.00  0.00     0.029 A 
ATOM     50  N   UNL A   1      41.333  29.343  32.360  1.00  0.00    -0.354 N 
ATOM     51  N   UNL A   1      41.012  31.155  34.656  1.00  0.00    -0.248 NA
ATOM     52  C   UNL A   1      41.634  31.842  36.799  1.00  0.00     0.031 C 
ATOM     53  C   UNL A   1      42.980  27.855  32.421  1.00  0.00     0.029 A 
ATOM     54  C   UNL A   1      42.380  28.877  33.138  1.00  0.00     0.049 A 
ATOM     55  H   UNL A   1      40.718  30.068  32.616  1.00  0.00     0.167 HD
ATOM     56  C   UNL A   1      42.097  30.399  35.078  1.00  0.00     0.074 A 
ATOM     57  C   UNL A   1      42.461  30.890  36.390  1.00  0.00     0.031 C 
ATOM     58  C   UNL A   1      42.735  29.389  34.437  1.00  0.00     0.037 A 
BRANCH  45  59
ATOM     59  C   UNL A   1      40.336  27.959  28.925  1.00  0.00     0.064 A 
ATOM     60  C   UNL A   1      41.090  28.286  27.789  1.00  0.00     0.173 A 
ATOM     61  C   UNL A   1      39.638  26.742  28.920  1.00  0.00     0.173 A 
ATOM     62  F   UNL A   1      41.766  29.443  27.736  1.00  0.00    -0.203 F 
ATOM     63  C   UNL A   1      41.121  27.443  26.680  1.00  0.00     0.198 A 
ATOM     64  C   UNL A   1      39.698  25.885  27.824  1.00  0.00     0.198 A 
ATOM     65  F   UNL A   1      38.904  26.377  29.982  1.00  0.00    -0.203 F 
ATOM     66  F   UNL A   1      41.807  27.801  25.586  1.00  0.00    -0.200 F 
ATOM     67  C   UNL A   1      40.433  26.239  26.703  1.00  0.00     0.200 A 
ATOM     68  F   UNL A   1      39.044  24.715  27.853  1.00  0.00    -0.200 F 
ATOM     69  F   UNL A   1      40.473  25.423  25.641  1.00  0.00    -0.200 F 
ENDBRANCH  45  59
BRANCH  46  70
ATOM     70  C   UNL A   1      39.587  33.935  36.910  1.00  0.00     0.064 A 
ATOM     71  C   UNL A   1      38.817  33.530  38.009  1.00  0.00     0.173 A 
ATOM     72  C   UNL A   1      40.223  35.183  36.986  1.00  0.00     0.173 A 
ATOM     73  F   UNL A   1      38.173  32.354  37.979  1.00  0.00    -0.203 F 
ATOM     74  C   UNL A   1      38.666  34.351  39.125  1.00  0.00     0.198 A 
ATOM     75  C   UNL A   1      40.097  35.989  38.116  1.00  0.00     0.198 A 
ATOM     76  F   UNL A   1      40.978  35.615  35.965  1.00  0.00    -0.203 F 
ATOM     77  F   UNL A   1      37.880  33.962  40.139  1.00  0.00    -0.200 F 
ATOM     78  C   UNL A   1      39.310  35.578  39.180  1.00  0.00     0.200 A 
ATOM     79  F   UNL A   1      40.736  37.166  38.170  1.00  0.00    -0.200 F 
ATOM     80  F   UNL A   1      39.165  36.366  40.253  1.00  0.00    -0.200 F 
ENDBRANCH  46  70
BRANCH  58  81
ATOM     81  C   UNL A   1      43.921  28.777  35.125  1.00  0.00     0.064 A 
ATOM     82  C   UNL A   1      45.221  29.269  34.937  1.00  0.00     0.173 A 
ATOM     83  C   UNL A   1      43.746  27.710  36.021  1.00  0.00     0.173 A 
ATOM     84  F   UNL A   1      45.442  30.277  34.080  1.00  0.00    -0.203 F 
ATOM     85  C   UNL A   1      46.305  28.698  35.597  1.00  0.00     0.198 A 
ATOM     86  C   UNL A   1      44.828  27.164  36.705  1.00  0.00     0.198 A 
ATOM     87  F   UNL A   1      42.523  27.208  36.243  1.00  0.00    -0.203 F 
ATOM     88  F   UNL A   1      47.544  29.151  35.363  1.00  0.00    -0.200 F 
ATOM     89  C   UNL A   1      46.106  27.652  36.487  1.00  0.00     0.200 A 
ATOM     90  F   UNL A   1      44.631  26.165  37.577  1.00  0.00    -0.200 F 
ATOM     91  F   UNL A   1      47.150  27.110  37.130  1.00  0.00    -0.200 F 
ENDBRANCH  58  81
ENDBRANCH  32  33
ENDBRANCH  24  27
ENDBRANCH  22  23
ENDBRANCH   1  22
TORSDOF 13
ENDMDL
MODEL 3
REMARK VINA RESULT:     -10.5      4.868      9.556
REMARK SMILES CC[C@@](O)(C(=O)NCCCNC(=O)c1ccc(-c2c3nc(c(-c4c(F)c(F)c(F)c(F)c4F)c4ccc([nH]4)c(-c4c(F)c(F)c(F)c(F)c4F)c4nc(c(-c5c(F)c(F)c(F)c(F)c5F)c5ccc2[nH]5)C=C4)C=C3)cc1)[C@@H]1CCOc2ccccc21
REMARK SMILES IDX 9 1 8 2 7 3 5 4 6 5 3 7 2 8 1 9 4 10 77 12 78 13 86 14 79 15
REMARK SMILES IDX 81 16 85 17 80 18 82 19 84 20 83 21 10 22 11 23 12 24 13 26
REMARK SMILES IDX 14 27 15 28 76 29 16 30 75 31 17 32 18 33 19 34 69 35 20 36
REMARK SMILES IDX 74 37 68 38 70 39 21 40 73 41 67 42 66 43 22 45 54 46 34 47
REMARK SMILES IDX 53 48 35 49 38 50 52 51 71 52 36 53 37 54 51 56 72 57 39 58
REMARK SMILES IDX 23 59 24 60 32 61 25 62 26 63 30 64 33 65 27 66 28 67 31 68
REMARK SMILES IDX 29 69 55 70 56 71 64 72 57 73 58 74 62 75 65 76 59 77 60 78
REMARK SMILES IDX 63 79 61 80 40 81 41 82 49 83 42 84 43 85 47 86 50 87 44 88
REMARK SMILES IDX 45 89 48 90 46 91
REMARK H PARENT 7 6 4 11 11 25 70 44 38 55
REMARK Flexibility Score: inf
ROOT
ATOM      1  C   UNL A   1      31.436  32.344  26.556  1.00  0.00     0.042 C 
ENDROOT
BRANCH   1   2
ATOM      2  C   UNL A   1      31.383  30.824  26.593  1.00  0.00     0.117 C 
BRANCH   2   3
ATOM      3  N   UNL A   1      31.879  30.261  25.353  1.00  0.00    -0.354 N 
ATOM      4  C   UNL A   1      32.540  29.099  25.107  1.00  0.00     0.252 C 
ATOM      5  O   UNL A   1      33.033  28.984  23.979  1.00  0.00    -0.272 OA
ATOM      6  H   UNL A   1      31.709  30.811  24.555  1.00  0.00     0.163 HD
BRANCH   4   7
ATOM      7  C   UNL A   1      32.729  27.995  26.206  1.00  0.00     0.149 C 
BRANCH   7   8
ATOM      8  C   UNL A   1      34.227  28.073  26.602  1.00  0.00     0.043 C 
ATOM      9  C   UNL A   1      34.669  29.274  27.439  1.00  0.00     0.007 C 
ENDBRANCH   7   8
BRANCH   7  10
ATOM     10  O   UNL A   1      31.942  28.226  27.378  1.00  0.00    -0.379 OA
ATOM     11  H   UNL A   1      32.400  27.863  28.151  1.00  0.00     0.212 HD
ENDBRANCH   7  10
BRANCH   7  12
ATOM     12  C   UNL A   1      32.203  26.671  25.514  1.00  0.00     0.068 C 
ATOM     13  C   UNL A   1      30.739  26.420  25.995  1.00  0.00     0.053 C 
ATOM     14  C   UNL A   1      33.059  25.437  25.742  1.00  0.00     0.001 A 
ATOM     15  C   UNL A   1      30.413  24.949  26.104  1.00  0.00     0.230 C 
ATOM     16  C   UNL A   1      32.606  24.385  26.544  1.00  0.00     0.122 A 
ATOM     17  C   UNL A   1      34.312  25.306  25.131  1.00  0.00     0.008 A 
ATOM     18  O   UNL A   1      31.322  24.327  27.019  1.00  0.00    -0.493 OA
ATOM     19  C   UNL A   1      33.446  23.328  26.886  1.00  0.00     0.047 A 
ATOM     20  C   UNL A   1      35.152  24.238  25.451  1.00  0.00     0.001 A 
ATOM     21  C   UNL A   1      34.731  23.264  26.352  1.00  0.00     0.004 A 
ENDBRANCH   7  12
ENDBRANCH   4   7
ENDBRANCH   2   3
ENDBRANCH   1   2
BRANCH   1  22
ATOM     22  C   UNL A   1      32.634  32.919  27.297  1.00  0.00     0.118 C 
BRANCH  22  23
ATOM     23  N   UNL A   1      32.448  34.325  27.634  1.00  0.00    -0.352 N 
ATOM     24  C   UNL A   1      33.007  35.059  28.647  1.00  0.00     0.251 C 
ATOM     25  H   UNL A   1      31.832  34.820  27.048  1.00  0.00     0.163 HD
ATOM     26  O   UNL A   1      32.546  36.163  28.938  1.00  0.00    -0.269 OA
BRANCH  24  27
ATOM     27  C   UNL A   1      34.155  34.519  29.398  1.00  0.00     0.039 A 
ATOM     28  C   UNL A   1      33.939  33.923  30.642  1.00  0.00     0.014 A 
ATOM     29  C   UNL A   1      35.447  34.606  28.873  1.00  0.00     0.014 A 
ATOM     30  C   UNL A   1      35.013  33.356  31.329  1.00  0.00     0.010 A 
ATOM     31  C   UNL A   1      36.496  33.953  29.509  1.00  0.00     0.010 A 
ATOM     32  C   UNL A   1      36.293  33.334  30.750  1.00  0.00    -0.014 A 
BRANCH  32  33
ATOM     33  C   UNL A   1      37.440  32.684  31.431  1.00  0.00     0.031 A 
ATOM     34  C   UNL A   1      38.140  31.525  30.776  1.00  0.00     0.074 A 
ATOM     35  C   UNL A   1      37.802  33.091  32.662  1.00  0.00     0.049 A 
ATOM     36  N   UNL A   1      39.106  30.772  31.239  1.00  0.00    -0.248 NA
ATOM     37  C   UNL A   1      37.673  31.139  29.435  1.00  0.00     0.031 C 
ATOM     38  C   UNL A   1      37.163  34.169  33.420  1.00  0.00     0.029 A 
ATOM     39  N   UNL A   1      38.791  32.638  33.500  1.00  0.00    -0.354 N 
ATOM     40  C   UNL A   1      39.345  29.820  30.257  1.00  0.00     0.074 A 
ATOM     41  C   UNL A   1      38.385  30.049  29.200  1.00  0.00     0.031 C 
ATOM     42  C   UNL A   1      37.792  34.311  34.598  1.00  0.00     0.029 A 
ATOM     43  C   UNL A   1      38.847  33.308  34.697  1.00  0.00     0.049 A 
ATOM     44  H   UNL A   1      39.401  31.903  33.265  1.00  0.00     0.167 HD
ATOM     45  C   UNL A   1      40.298  28.858  30.228  1.00  0.00     0.037 A 
ATOM     46  C   UNL A   1      39.657  33.128  35.759  1.00  0.00     0.037 A 
ATOM     47  C   UNL A   1      41.269  28.656  31.271  1.00  0.00     0.049 A 
ATOM     48  C   UNL A   1      40.704  32.048  35.701  1.00  0.00     0.074 A 
ATOM     49  C   UNL A   1      42.315  27.751  31.310  1.00  0.00     0.029 A 
ATOM     50  N   UNL A   1      41.310  29.370  32.459  1.00  0.00    -0.354 N 
ATOM     51  N   UNL A   1      40.969  31.201  34.737  1.00  0.00    -0.248 NA
ATOM     52  C   UNL A   1      41.573  31.907  36.878  1.00  0.00     0.031 C 
ATOM     53  C   UNL A   1      42.958  27.883  32.546  1.00  0.00     0.029 A 
ATOM     54  C   UNL A   1      42.351  28.912  33.250  1.00  0.00     0.049 A 
ATOM     55  H   UNL A   1      40.692  30.097  32.703  1.00  0.00     0.167 HD
ATOM     56  C   UNL A   1      42.051  30.449  35.174  1.00  0.00     0.074 A 
ATOM     57  C   UNL A   1      42.404  30.952  36.485  1.00  0.00     0.031 C 
ATOM     58  C   UNL A   1      42.695  29.434  34.547  1.00  0.00     0.037 A 
BRANCH  45  59
ATOM     59  C   UNL A   1      40.342  27.956  29.028  1.00  0.00     0.064 A 
ATOM     60  C   UNL A   1      39.620  26.753  28.983  1.00  0.00     0.173 A 
ATOM     61  C   UNL A   1      41.082  28.318  27.893  1.00  0.00     0.173 A 
ATOM     62  F   UNL A   1      38.906  26.353  30.045  1.00  0.00    -0.203 F 
ATOM     63  C   UNL A   1      39.661  25.933  27.857  1.00  0.00     0.198 A 
ATOM     64  C   UNL A   1      41.094  27.513  26.757  1.00  0.00     0.198 A 
ATOM     65  F   UNL A   1      41.787  29.459  27.880  1.00  0.00    -0.203 F 
ATOM     66  F   UNL A   1      39.005  24.765  27.857  1.00  0.00    -0.200 F 
ATOM     67  C   UNL A   1      40.390  26.318  26.742  1.00  0.00     0.200 A 
ATOM     68  F   UNL A   1      41.788  27.893  25.675  1.00  0.00    -0.200 F 
ATOM     69  F   UNL A   1      40.419  25.534  25.657  1.00  0.00    -0.200 F 
ENDBRANCH  45  59
BRANCH  46  70
ATOM     70  C   UNL A   1      39.524  34.000  36.955  1.00  0.00     0.064 A 
ATOM     71  C   UNL A   1      40.163  35.246  37.011  1.00  0.00     0.173 A 
ATOM     72  C   UNL A   1      38.770  33.604  38.070  1.00  0.00     0.173 A 
ATOM     73  F   UNL A   1      40.911  35.663  35.979  1.00  0.00    -0.203 F 
ATOM     74  C   UNL A   1      40.075  36.051  38.145  1.00  0.00     0.198 A 
ATOM     75  C   UNL A   1      38.657  34.424  39.191  1.00  0.00     0.198 A 
ATOM     76  F   UNL A   1      38.133  32.424  38.065  1.00  0.00    -0.203 F 
ATOM     77  F   UNL A   1      40.740  37.214  38.192  1.00  0.00    -0.200 F 
ATOM     78  C   UNL A   1      39.318  35.641  39.233  1.00  0.00     0.200 A 
ATOM     79  F   UNL A   1      37.910  34.030  40.232  1.00  0.00    -0.200 F 
ATOM     80  F   UNL A   1      39.233  36.416  40.323  1.00  0.00    -0.200 F 
ENDBRANCH  46  70
BRANCH  58  81
ATOM     81  C   UNL A   1      43.876  28.829  35.250  1.00  0.00     0.064 A 
ATOM     82  C   UNL A   1      43.739  27.739  36.121  1.00  0.00     0.173 A 
ATOM     83  C   UNL A   1      45.169  29.322  35.012  1.00  0.00     0.173 A 
ATOM     84  F   UNL A   1      42.523  27.240  36.392  1.00  0.00    -0.203 F 
ATOM     85  C   UNL A   1      44.849  27.182  36.749  1.00  0.00     0.198 A 
ATOM     86  C   UNL A   1      46.279  28.742  35.616  1.00  0.00     0.198 A 
ATOM     87  F   UNL A   1      45.355  30.359  34.181  1.00  0.00    -0.203 F 
ATOM     88  F   UNL A   1      44.690  26.173  37.617  1.00  0.00    -0.200 F 
ATOM     89  C   UNL A   1      46.119  27.678  36.490  1.00  0.00     0.200 A 
ATOM     90  F   UNL A   1      47.506  29.212  35.351  1.00  0.00    -0.200 F 
ATOM     91  F   UNL A   1      47.187  27.135  37.088  1.00  0.00    -0.200 F 
ENDBRANCH  58  81
ENDBRANCH  32  33
ENDBRANCH  24  27
ENDBRANCH  22  23
ENDBRANCH   1  22
TORSDOF 13
ENDMDL
