MODEL 1
REMARK VINA RESULT:     -12.4      0.000      0.000
REMARK SMILES C[C@H](NC(=O)NCCc1ccccc1F)C(=O)NCCCNC(=O)c1ccc(-c2c3nc(c(-c4c(F)c(F)c(F)c(F)c4F)c4ccc([nH]4)c(-c4c(F)c(F)c(F)c(F)c4F)c4nc(c(-c5c(F)c(F)c(F)c(F)c5F)c5ccc2[nH]5)C=C4)C=C3)cc1
REMARK SMILES IDX 19 1 18 2 16 3 17 4 2 6 1 7 3 8 4 9 5 11 6 12 7 14 8 15 9 16
REMARK SMILES IDX 10 17 14 18 11 19 13 20 15 21 12 22 20 23 21 24 22 25 23 26
REMARK SMILES IDX 24 28 25 29 26 30 87 31 27 32 86 33 28 34 29 35 30 36 80 37
REMARK SMILES IDX 31 38 85 39 79 40 81 41 32 42 84 43 78 44 77 45 33 47 65 48
REMARK SMILES IDX 45 49 64 50 46 51 49 52 63 53 82 54 47 55 48 56 62 58 83 59
REMARK SMILES IDX 50 60 34 61 35 62 43 63 36 64 37 65 41 66 44 67 38 68 39 69
REMARK SMILES IDX 42 70 40 71 66 72 67 73 75 74 68 75 69 76 73 77 76 78 70 79
REMARK SMILES IDX 71 80 74 81 72 82 51 83 52 84 60 85 53 86 54 87 58 88 61 89
REMARK SMILES IDX 55 90 56 91 59 92 57 93
REMARK H PARENT 18 5 3 10 6 13 22 27 81 46 49 57
REMARK Flexibility Score: inf
ROOT
ATOM      1  C   UNL A   1      31.892  30.360  27.131  1.00  0.00     0.117 C 
ENDROOT
BRANCH   1   2
ATOM      2  N   UNL A   1      33.272  29.947  27.353  1.00  0.00    -0.354 N 
ATOM      3  C   UNL A   1      33.974  28.940  26.748  1.00  0.00     0.242 C 
ATOM      4  O   UNL A   1      35.184  28.859  26.957  1.00  0.00    -0.273 OA
ATOM      5  H   UNL A   1      33.766  30.464  28.030  1.00  0.00     0.163 HD
BRANCH   3   6
ATOM      6  C   UNL A   1      33.250  28.002  25.768  1.00  0.00     0.170 C 
ATOM      7  C   UNL A   1      33.381  26.565  26.287  1.00  0.00     0.041 C 
BRANCH   6   8
ATOM      8  N   UNL A   1      33.820  28.237  24.436  1.00  0.00    -0.327 N 
ATOM      9  C   UNL A   1      33.394  28.758  23.285  1.00  0.00     0.315 C 
ATOM     10  H   UNL A   1      34.755  27.931  24.378  1.00  0.00     0.166 HD
ATOM     11  O   UNL A   1      34.195  28.794  22.348  1.00  0.00    -0.249 OA
ATOM     12  N   UNL A   1      32.158  29.227  23.091  1.00  0.00    -0.338 N 
ATOM     13  H   UNL A   1      32.009  29.587  22.187  1.00  0.00     0.165 HD
BRANCH  12  14
ATOM     14  C   UNL A   1      30.996  29.307  23.948  1.00  0.00     0.122 C 
BRANCH  14  15
ATOM     15  C   UNL A   1      29.675  29.110  23.213  1.00  0.00     0.060 C 
BRANCH  15  16
ATOM     16  C   UNL A   1      29.122  30.368  22.604  1.00  0.00    -0.010 A 
ATOM     17  C   UNL A   1      28.692  30.392  21.270  1.00  0.00     0.007 A 
ATOM     18  C   UNL A   1      29.010  31.533  23.366  1.00  0.00     0.126 A 
ATOM     19  C   UNL A   1      28.139  31.556  20.730  1.00  0.00     0.000 A 
ATOM     20  C   UNL A   1      28.458  32.693  22.835  1.00  0.00     0.039 A 
ATOM     21  F   UNL A   1      29.440  31.543  24.635  1.00  0.00    -0.207 F 
ATOM     22  C   UNL A   1      28.014  32.703  21.514  1.00  0.00     0.003 A 
ENDBRANCH  15  16
ENDBRANCH  14  15
ENDBRANCH  12  14
ENDBRANCH   6   8
ENDBRANCH   3   6
ENDBRANCH   1   2
BRANCH   1  23
ATOM     23  C   UNL A   1      31.783  31.845  26.844  1.00  0.00     0.042 C 
BRANCH  23  24
ATOM     24  C   UNL A   1      32.912  32.649  27.462  1.00  0.00     0.118 C 
BRANCH  24  25
ATOM     25  N   UNL A   1      32.555  34.044  27.685  1.00  0.00    -0.352 N 
ATOM     26  C   UNL A   1      33.065  34.921  28.614  1.00  0.00     0.251 C 
ATOM     27  H   UNL A   1      31.856  34.407  27.094  1.00  0.00     0.163 HD
ATOM     28  O   UNL A   1      32.561  36.018  28.791  1.00  0.00    -0.269 OA
BRANCH  26  29
ATOM     29  C   UNL A   1      34.228  34.489  29.411  1.00  0.00     0.039 A 
ATOM     30  C   UNL A   1      34.018  33.868  30.643  1.00  0.00     0.014 A 
ATOM     31  C   UNL A   1      35.515  34.637  28.890  1.00  0.00     0.014 A 
ATOM     32  C   UNL A   1      35.106  33.323  31.325  1.00  0.00     0.010 A 
ATOM     33  C   UNL A   1      36.580  34.015  29.525  1.00  0.00     0.010 A 
ATOM     34  C   UNL A   1      36.386  33.359  30.750  1.00  0.00    -0.014 A 
BRANCH  34  35
ATOM     35  C   UNL A   1      37.562  32.752  31.414  1.00  0.00     0.031 A 
ATOM     36  C   UNL A   1      38.285  31.627  30.733  1.00  0.00     0.074 A 
ATOM     37  C   UNL A   1      37.913  33.139  32.655  1.00  0.00     0.049 A 
ATOM     38  N   UNL A   1      39.215  30.836  31.199  1.00  0.00    -0.248 NA
ATOM     39  C   UNL A   1      37.876  31.323  29.350  1.00  0.00     0.031 C 
ATOM     40  C   UNL A   1      37.261  34.197  33.430  1.00  0.00     0.029 A 
ATOM     41  N   UNL A   1      38.896  32.673  33.491  1.00  0.00    -0.354 N 
ATOM     42  C   UNL A   1      39.475  29.926  30.184  1.00  0.00     0.074 A 
ATOM     43  C   UNL A   1      38.574  30.228  29.095  1.00  0.00     0.031 C 
ATOM     44  C   UNL A   1      37.876  34.313  34.619  1.00  0.00     0.029 A 
ATOM     45  C   UNL A   1      38.933  33.310  34.707  1.00  0.00     0.049 A 
ATOM     46  H   UNL A   1      39.516  31.950  33.243  1.00  0.00     0.167 HD
ATOM     47  C   UNL A   1      40.402  28.941  30.157  1.00  0.00     0.037 A 
ATOM     48  C   UNL A   1      39.724  33.096  35.777  1.00  0.00     0.037 A 
ATOM     49  C   UNL A   1      41.330  28.684  31.223  1.00  0.00     0.049 A 
ATOM     50  C   UNL A   1      40.756  32.003  35.717  1.00  0.00     0.074 A 
ATOM     51  C   UNL A   1      42.348  27.750  31.271  1.00  0.00     0.029 A 
ATOM     52  N   UNL A   1      41.358  29.375  32.426  1.00  0.00    -0.354 N 
ATOM     53  N   UNL A   1      41.016  31.169  34.741  1.00  0.00    -0.248 NA
ATOM     54  C   UNL A   1      41.602  31.820  36.905  1.00  0.00     0.031 C 
ATOM     55  C   UNL A   1      42.974  27.854  32.515  1.00  0.00     0.029 A 
ATOM     56  C   UNL A   1      42.373  28.880  33.227  1.00  0.00     0.049 A 
ATOM     57  H   UNL A   1      40.747  30.106  32.673  1.00  0.00     0.167 HD
ATOM     58  C   UNL A   1      42.070  30.380  35.182  1.00  0.00     0.074 A 
ATOM     59  C   UNL A   1      42.406  30.839  36.515  1.00  0.00     0.031 C 
ATOM     60  C   UNL A   1      42.703  29.369  34.541  1.00  0.00     0.037 A 
BRANCH  47  61
ATOM     61  C   UNL A   1      40.474  28.083  28.929  1.00  0.00     0.064 A 
ATOM     62  C   UNL A   1      41.224  28.493  27.817  1.00  0.00     0.173 A 
ATOM     63  C   UNL A   1      39.758  26.881  28.834  1.00  0.00     0.173 A 
ATOM     64  F   UNL A   1      41.925  29.637  27.858  1.00  0.00    -0.203 F 
ATOM     65  C   UNL A   1      41.246  27.735  26.651  1.00  0.00     0.198 A 
ATOM     66  C   UNL A   1      39.806  26.110  27.676  1.00  0.00     0.198 A 
ATOM     67  F   UNL A   1      39.039  26.438  29.876  1.00  0.00    -0.203 F 
ATOM     68  F   UNL A   1      41.947  28.159  25.590  1.00  0.00    -0.200 F 
ATOM     69  C   UNL A   1      40.541  26.543  26.582  1.00  0.00     0.200 A 
ATOM     70  F   UNL A   1      39.147  24.945  27.622  1.00  0.00    -0.200 F 
ATOM     71  F   UNL A   1      40.574  25.807  25.463  1.00  0.00    -0.200 F 
ENDBRANCH  47  61
BRANCH  48  72
ATOM     72  C   UNL A   1      39.588  33.962  36.976  1.00  0.00     0.064 A 
ATOM     73  C   UNL A   1      38.798  33.583  38.071  1.00  0.00     0.173 A 
ATOM     74  C   UNL A   1      40.226  35.209  37.031  1.00  0.00     0.173 A 
ATOM     75  F   UNL A   1      38.163  32.403  38.064  1.00  0.00    -0.203 F 
ATOM     76  C   UNL A   1      38.638  34.428  39.168  1.00  0.00     0.198 A 
ATOM     77  C   UNL A   1      40.086  36.042  38.138  1.00  0.00     0.198 A 
ATOM     78  F   UNL A   1      41.007  35.605  36.016  1.00  0.00    -0.203 F 
ATOM     79  F   UNL A   1      37.854  34.056  40.189  1.00  0.00    -0.200 F 
ATOM     80  C   UNL A   1      39.285  35.654  39.202  1.00  0.00     0.200 A 
ATOM     81  F   UNL A   1      40.729  37.216  38.176  1.00  0.00    -0.200 F 
ATOM     82  F   UNL A   1      39.140  36.462  40.262  1.00  0.00    -0.200 F 
ENDBRANCH  48  72
BRANCH  60  83
ATOM     83  C   UNL A   1      43.848  28.704  35.241  1.00  0.00     0.064 A 
ATOM     84  C   UNL A   1      45.165  29.110  34.979  1.00  0.00     0.173 A 
ATOM     85  C   UNL A   1      43.650  27.595  36.073  1.00  0.00     0.173 A 
ATOM     86  F   UNL A   1      45.403  30.161  34.179  1.00  0.00    -0.203 F 
ATOM     87  C   UNL A   1      46.246  28.413  35.508  1.00  0.00     0.198 A 
ATOM     88  C   UNL A   1      44.734  26.914  36.621  1.00  0.00     0.198 A 
ATOM     89  F   UNL A   1      42.408  27.176  36.358  1.00  0.00    -0.203 F 
ATOM     90  F   UNL A   1      47.497  28.791  35.212  1.00  0.00    -0.200 F 
ATOM     91  C   UNL A   1      46.030  27.316  36.329  1.00  0.00     0.200 A 
ATOM     92  F   UNL A   1      44.525  25.864  37.427  1.00  0.00    -0.200 F 
ATOM     93  F   UNL A   1      47.072  26.641  36.835  1.00  0.00    -0.200 F 
ENDBRANCH  60  83
ENDBRANCH  34  35
ENDBRANCH  26  29
ENDBRANCH  24  25
ENDBRANCH  23  24
ENDBRANCH   1  23
TORSDOF 14
ENDMDL
MODEL 2
REMARK VINA RESULT:     -12.4      0.701      7.537
REMARK SMILES C[C@H](NC(=O)NCCc1ccccc1F)C(=O)NCCCNC(=O)c1ccc(-c2c3nc(c(-c4c(F)c(F)c(F)c(F)c4F)c4ccc([nH]4)c(-c4c(F)c(F)c(F)c(F)c4F)c4nc(c(-c5c(F)c(F)c(F)c(F)c5F)c5ccc2[nH]5)C=C4)C=C3)cc1
REMARK SMILES IDX 19 1 18 2 16 3 17 4 2 6 1 7 3 8 4 9 5 11 6 12 7 14 8 15 9 16
REMARK SMILES IDX 10 17 14 18 11 19 13 20 15 21 12 22 20 23 21 24 22 25 23 26
REMARK SMILES IDX 24 28 25 29 26 30 87 31 27 32 86 33 28 34 29 35 30 36 80 37
REMARK SMILES IDX 31 38 85 39 79 40 81 41 32 42 84 43 78 44 77 45 33 47 65 48
REMARK SMILES IDX 45 49 64 50 46 51 49 52 63 53 82 54 47 55 48 56 62 58 83 59
REMARK SMILES IDX 50 60 34 61 35 62 43 63 36 64 37 65 41 66 44 67 38 68 39 69
REMARK SMILES IDX 42 70 40 71 66 72 67 73 75 74 68 75 69 76 73 77 76 78 70 79
REMARK SMILES IDX 71 80 74 81 72 82 51 83 52 84 60 85 53 86 54 87 58 88 61 89
REMARK SMILES IDX 55 90 56 91 59 92 57 93
REMARK H PARENT 18 5 3 10 6 13 22 27 81 46 49 57
REMARK Flexibility Score: inf
ROOT
ATOM      1  C   UNL A   1      31.724  30.809  26.275  1.00  0.00     0.117 C 
ENDROOT
BRANCH   1   2
ATOM      2  N   UNL A   1      33.034  30.345  26.709  1.00  0.00    -0.354 N 
ATOM      3  C   UNL A   1      33.700  29.203  26.355  1.00  0.00     0.242 C 
ATOM      4  O   UNL A   1      34.874  29.075  26.704  1.00  0.00    -0.273 OA
ATOM      5  H   UNL A   1      33.506  30.934  27.341  1.00  0.00     0.163 HD
BRANCH   3   6
ATOM      6  C   UNL A   1      32.994  28.163  25.469  1.00  0.00     0.170 C 
ATOM      7  C   UNL A   1      33.145  26.785  26.124  1.00  0.00     0.041 C 
BRANCH   6   8
ATOM      8  N   UNL A   1      33.563  28.279  24.121  1.00  0.00    -0.327 N 
ATOM      9  C   UNL A   1      33.089  28.446  22.886  1.00  0.00     0.315 C 
ATOM     10  H   UNL A   1      34.546  28.215  24.132  1.00  0.00     0.166 HD
ATOM     11  O   UNL A   1      33.908  28.506  21.968  1.00  0.00    -0.249 OA
ATOM     12  N   UNL A   1      31.788  28.540  22.594  1.00  0.00    -0.338 N 
ATOM     13  H   UNL A   1      31.607  28.672  21.635  1.00  0.00     0.165 HD
BRANCH  12  14
ATOM     14  C   UNL A   1      30.595  28.483  23.409  1.00  0.00     0.122 C 
BRANCH  14  15
ATOM     15  C   UNL A   1      29.315  28.813  22.649  1.00  0.00     0.060 C 
BRANCH  15  16
ATOM     16  C   UNL A   1      28.980  30.278  22.626  1.00  0.00    -0.010 A 
ATOM     17  C   UNL A   1      29.363  31.120  23.681  1.00  0.00     0.007 A 
ATOM     18  C   UNL A   1      28.296  30.831  21.541  1.00  0.00     0.126 A 
ATOM     19  C   UNL A   1      29.084  32.487  23.625  1.00  0.00     0.000 A 
ATOM     20  C   UNL A   1      28.018  32.192  21.479  1.00  0.00     0.039 A 
ATOM     21  F   UNL A   1      27.894  30.042  20.535  1.00  0.00    -0.207 F 
ATOM     22  C   UNL A   1      28.420  33.025  22.522  1.00  0.00     0.003 A 
ENDBRANCH  15  16
ENDBRANCH  14  15
ENDBRANCH  12  14
ENDBRANCH   6   8
ENDBRANCH   3   6
ENDBRANCH   1   2
BRANCH   1  23
ATOM     23  C   UNL A   1      31.472  32.251  26.671  1.00  0.00     0.042 C 
BRANCH  23  24
ATOM     24  C   UNL A   1      32.673  32.897  27.337  1.00  0.00     0.118 C 
BRANCH  24  25
ATOM     25  N   UNL A   1      32.447  34.298  27.672  1.00  0.00    -0.352 N 
ATOM     26  C   UNL A   1      33.033  35.046  28.667  1.00  0.00     0.251 C 
ATOM     27  H   UNL A   1      31.788  34.770  27.114  1.00  0.00     0.163 HD
ATOM     28  O   UNL A   1      32.634  36.167  28.932  1.00  0.00    -0.269 OA
BRANCH  26  29
ATOM     29  C   UNL A   1      34.147  34.444  29.423  1.00  0.00     0.039 A 
ATOM     30  C   UNL A   1      33.869  33.703  30.572  1.00  0.00     0.014 A 
ATOM     31  C   UNL A   1      35.452  34.558  28.939  1.00  0.00     0.014 A 
ATOM     32  C   UNL A   1      34.903  33.009  31.201  1.00  0.00     0.010 A 
ATOM     33  C   UNL A   1      36.458  33.794  29.511  1.00  0.00     0.010 A 
ATOM     34  C   UNL A   1      36.194  33.019  30.650  1.00  0.00    -0.014 A 
BRANCH  34  35
ATOM     35  C   UNL A   1      37.312  32.258  31.254  1.00  0.00     0.031 A 
ATOM     36  C   UNL A   1      37.795  32.635  32.624  1.00  0.00     0.074 A 
ATOM     37  C   UNL A   1      37.948  31.309  30.541  1.00  0.00     0.049 A 
ATOM     38  N   UNL A   1      38.860  32.233  33.268  1.00  0.00    -0.248 NA
ATOM     39  C   UNL A   1      36.993  33.632  33.354  1.00  0.00     0.031 C 
ATOM     40  C   UNL A   1      37.590  30.885  29.186  1.00  0.00     0.029 A 
ATOM     41  N   UNL A   1      39.043  30.543  30.851  1.00  0.00    -0.354 N 
ATOM     42  C   UNL A   1      38.871  32.950  34.455  1.00  0.00     0.074 A 
ATOM     43  C   UNL A   1      37.738  33.848  34.426  1.00  0.00     0.031 C 
ATOM     44  C   UNL A   1      38.436  29.918  28.791  1.00  0.00     0.029 A 
ATOM     45  C   UNL A   1      39.421  29.689  29.844  1.00  0.00     0.049 A 
ATOM     46  H   UNL A   1      39.513  30.600  31.714  1.00  0.00     0.167 HD
ATOM     47  C   UNL A   1      39.738  32.849  35.489  1.00  0.00     0.037 A 
ATOM     48  C   UNL A   1      40.456  28.829  29.776  1.00  0.00     0.037 A 
ATOM     49  C   UNL A   1      40.829  31.916  35.531  1.00  0.00     0.049 A 
ATOM     50  C   UNL A   1      41.399  28.726  30.944  1.00  0.00     0.074 A 
ATOM     51  C   UNL A   1      41.730  31.691  36.556  1.00  0.00     0.029 A 
ATOM     52  N   UNL A   1      41.159  31.043  34.504  1.00  0.00    -0.354 N 
ATOM     53  N   UNL A   1      41.383  29.385  32.076  1.00  0.00    -0.248 NA
ATOM     54  C   UNL A   1      42.504  27.763  30.825  1.00  0.00     0.031 C 
ATOM     55  C   UNL A   1      42.625  30.703  36.138  1.00  0.00     0.029 A 
ATOM     56  C   UNL A   1      42.256  30.283  34.869  1.00  0.00     0.049 A 
ATOM     57  H   UNL A   1      40.684  30.975  33.645  1.00  0.00     0.167 HD
ATOM     58  C   UNL A   1      42.454  28.901  32.816  1.00  0.00     0.074 A 
ATOM     59  C   UNL A   1      43.098  27.888  32.005  1.00  0.00     0.031 C 
ATOM     60  C   UNL A   1      42.866  29.264  34.054  1.00  0.00     0.037 A 
BRANCH  47  61
ATOM     61  C   UNL A   1      39.531  33.754  36.666  1.00  0.00     0.064 A 
ATOM     62  C   UNL A   1      40.143  35.015  36.711  1.00  0.00     0.173 A 
ATOM     63  C   UNL A   1      38.770  33.352  37.773  1.00  0.00     0.173 A 
ATOM     64  F   UNL A   1      40.883  35.446  35.678  1.00  0.00    -0.203 F 
ATOM     65  C   UNL A   1      40.009  35.836  37.827  1.00  0.00     0.198 A 
ATOM     66  C   UNL A   1      38.613  34.187  38.876  1.00  0.00     0.198 A 
ATOM     67  F   UNL A   1      38.151  32.161  37.772  1.00  0.00    -0.203 F 
ATOM     68  F   UNL A   1      40.625  37.025  37.861  1.00  0.00    -0.200 F 
ATOM     69  C   UNL A   1      39.241  35.424  38.906  1.00  0.00     0.200 A 
ATOM     70  F   UNL A   1      37.849  33.799  39.905  1.00  0.00    -0.200 F 
ATOM     71  F   UNL A   1      39.102  36.221  39.974  1.00  0.00    -0.200 F 
ENDBRANCH  47  61
BRANCH  48  72
ATOM     72  C   UNL A   1      40.625  27.977  28.572  1.00  0.00     0.064 A 
ATOM     73  C   UNL A   1      41.381  28.402  27.470  1.00  0.00     0.173 A 
ATOM     74  C   UNL A   1      40.000  26.725  28.491  1.00  0.00     0.173 A 
ATOM     75  F   UNL A   1      41.993  29.595  27.497  1.00  0.00    -0.203 F 
ATOM     76  C   UNL A   1      41.490  27.615  26.326  1.00  0.00     0.198 A 
ATOM     77  C   UNL A   1      40.129  25.927  27.357  1.00  0.00     0.198 A 
ATOM     78  F   UNL A   1      39.284  26.268  29.528  1.00  0.00    -0.203 F 
ATOM     79  F   UNL A   1      42.193  28.057  25.274  1.00  0.00    -0.200 F 
ATOM     80  C   UNL A   1      40.867  26.377  26.272  1.00  0.00     0.200 A 
ATOM     81  F   UNL A   1      39.544  24.723  27.317  1.00  0.00    -0.200 F 
ATOM     82  F   UNL A   1      40.980  25.614  25.175  1.00  0.00    -0.200 F 
ENDBRANCH  48  72
BRANCH  60  83
ATOM     83  C   UNL A   1      44.041  28.544  34.639  1.00  0.00     0.064 A 
ATOM     84  C   UNL A   1      43.849  27.387  35.409  1.00  0.00     0.173 A 
ATOM     85  C   UNL A   1      45.339  29.064  34.538  1.00  0.00     0.173 A 
ATOM     86  F   UNL A   1      42.622  26.860  35.542  1.00  0.00    -0.203 F 
ATOM     87  C   UNL A   1      44.912  26.788  36.077  1.00  0.00     0.198 A 
ATOM     88  C   UNL A   1      46.405  28.447  35.188  1.00  0.00     0.198 A 
ATOM     89  F   UNL A   1      45.572  30.162  33.806  1.00  0.00    -0.203 F 
ATOM     90  F   UNL A   1      44.699  25.708  36.841  1.00  0.00    -0.200 F 
ATOM     91  C   UNL A   1      46.188  27.318  35.966  1.00  0.00     0.200 A 
ATOM     92  F   UNL A   1      47.641  28.950  35.068  1.00  0.00    -0.200 F 
ATOM     93  F   UNL A   1      47.212  26.744  36.613  1.00  0.00    -0.200 F 
ENDBRANCH  60  83
ENDBRANCH  34  35
ENDBRANCH  26  29
ENDBRANCH  24  25
ENDBRANCH  23  24
ENDBRANCH   1  23
TORSDOF 14
ENDMDL
MODEL 3
REMARK VINA RESULT:     -12.3      2.475      4.418
REMARK SMILES C[C@H](NC(=O)NCCc1ccccc1F)C(=O)NCCCNC(=O)c1ccc(-c2c3nc(c(-c4c(F)c(F)c(F)c(F)c4F)c4ccc([nH]4)c(-c4c(F)c(F)c(F)c(F)c4F)c4nc(c(-c5c(F)c(F)c(F)c(F)c5F)c5ccc2[nH]5)C=C4)C=C3)cc1
REMARK SMILES IDX 19 1 18 2 16 3 17 4 2 6 1 7 3 8 4 9 5 11 6 12 7 14 8 15 9 16
REMARK SMILES IDX 10 17 14 18 11 19 13 20 15 21 12 22 20 23 21 24 22 25 23 26
REMARK SMILES IDX 24 28 25 29 26 30 87 31 27 32 86 33 28 34 29 35 30 36 80 37
REMARK SMILES IDX 31 38 85 39 79 40 81 41 32 42 84 43 78 44 77 45 33 47 65 48
REMARK SMILES IDX 45 49 64 50 46 51 49 52 63 53 82 54 47 55 48 56 62 58 83 59
REMARK SMILES IDX 50 60 34 61 35 62 43 63 36 64 37 65 41 66 44 67 38 68 39 69
REMARK SMILES IDX 42 70 40 71 66 72 67 73 75 74 68 75 69 76 73 77 76 78 70 79
REMARK SMILES IDX 71 80 74 81 72 82 51 83 52 84 60 85 53 86 54 87 58 88 61 89
REMARK SMILES IDX 55 90 56 91 59 92 57 93
REMARK H PARENT 18 5 3 10 6 13 22 27 81 46 49 57
REMARK Flexibility Score: inf
ROOT
ATOM      1  C   UNL A   1      31.683  27.269  25.455  1.00  0.00     0.117 C 
ENDROOT
BRANCH   1   2
ATOM      2  N   UNL A   1      30.972  27.750  24.278  1.00  0.00    -0.354 N 
ATOM      3  C   UNL A   1      31.413  27.836  22.985  1.00  0.00     0.242 C 
ATOM      4  O   UNL A   1      30.600  28.115  22.105  1.00  0.00    -0.273 OA
ATOM      5  H   UNL A   1      30.049  28.054  24.434  1.00  0.00     0.163 HD
BRANCH   3   6
ATOM      6  C   UNL A   1      32.879  27.501  22.666  1.00  0.00     0.170 C 
ATOM      7  C   UNL A   1      33.704  28.790  22.764  1.00  0.00     0.041 C 
BRANCH   6   8
ATOM      8  N   UNL A   1      32.902  26.845  21.353  1.00  0.00    -0.327 N 
ATOM      9  C   UNL A   1      32.764  25.600  20.895  1.00  0.00     0.315 C 
ATOM     10  H   UNL A   1      33.060  27.489  20.624  1.00  0.00     0.166 HD
ATOM     11  O   UNL A   1      32.840  25.432  19.677  1.00  0.00    -0.249 OA
ATOM     12  N   UNL A   1      32.562  24.536  21.679  1.00  0.00    -0.338 N 
ATOM     13  H   UNL A   1      32.471  23.691  21.182  1.00  0.00     0.165 HD
BRANCH  12  14
ATOM     14  C   UNL A   1      32.452  24.384  23.113  1.00  0.00     0.122 C 
BRANCH  14  15
ATOM     15  C   UNL A   1      33.052  23.084  23.640  1.00  0.00     0.060 C 
BRANCH  15  16
ATOM     16  C   UNL A   1      34.476  23.214  24.103  1.00  0.00    -0.010 A 
ATOM     17  C   UNL A   1      35.538  22.808  23.283  1.00  0.00     0.007 A 
ATOM     18  C   UNL A   1      34.766  23.760  25.355  1.00  0.00     0.126 A 
ATOM     19  C   UNL A   1      36.858  22.976  23.708  1.00  0.00     0.000 A 
ATOM     20  C   UNL A   1      36.078  23.932  25.783  1.00  0.00     0.039 A 
ATOM     21  F   UNL A   1      33.767  24.130  26.169  1.00  0.00    -0.207 F 
ATOM     22  C   UNL A   1      37.129  23.545  24.953  1.00  0.00     0.003 A 
ENDBRANCH  15  16
ENDBRANCH  14  15
ENDBRANCH  12  14
ENDBRANCH   6   8
ENDBRANCH   3   6
ENDBRANCH   1   2
BRANCH   1  23
ATOM     23  C   UNL A   1      31.806  28.341  26.521  1.00  0.00     0.042 C 
BRANCH  23  24
ATOM     24  C   UNL A   1      32.992  29.260  26.298  1.00  0.00     0.118 C 
BRANCH  24  25
ATOM     25  N   UNL A   1      32.656  30.667  26.479  1.00  0.00    -0.352 N 
ATOM     26  C   UNL A   1      33.323  31.619  27.217  1.00  0.00     0.251 C 
ATOM     27  H   UNL A   1      31.847  30.978  26.015  1.00  0.00     0.163 HD
ATOM     28  O   UNL A   1      32.842  32.723  27.406  1.00  0.00    -0.269 OA
BRANCH  26  29
ATOM     29  C   UNL A   1      34.631  31.258  27.795  1.00  0.00     0.039 A 
ATOM     30  C   UNL A   1      35.626  32.231  27.890  1.00  0.00     0.014 A 
ATOM     31  C   UNL A   1      34.829  29.974  28.308  1.00  0.00     0.014 A 
ATOM     32  C   UNL A   1      36.806  31.934  28.573  1.00  0.00     0.010 A 
ATOM     33  C   UNL A   1      35.961  29.712  29.063  1.00  0.00     0.010 A 
ATOM     34  C   UNL A   1      36.963  30.686  29.197  1.00  0.00    -0.014 A 
BRANCH  34  35
ATOM     35  C   UNL A   1      38.176  30.343  29.974  1.00  0.00     0.031 A 
ATOM     36  C   UNL A   1      39.169  29.382  29.389  1.00  0.00     0.074 A 
ATOM     37  C   UNL A   1      38.331  30.810  31.227  1.00  0.00     0.049 A 
ATOM     38  N   UNL A   1      40.197  28.805  29.954  1.00  0.00    -0.248 NA
ATOM     39  C   UNL A   1      38.952  28.983  27.987  1.00  0.00     0.031 C 
ATOM     40  C   UNL A   1      37.412  31.720  31.913  1.00  0.00     0.029 A 
ATOM     41  N   UNL A   1      39.312  30.567  32.155  1.00  0.00    -0.354 N 
ATOM     42  C   UNL A   1      40.724  27.956  28.992  1.00  0.00     0.074 A 
ATOM     43  C   UNL A   1      39.878  28.051  27.824  1.00  0.00     0.031 C 
ATOM     44  C   UNL A   1      37.885  31.976  33.144  1.00  0.00     0.029 A 
ATOM     45  C   UNL A   1      39.112  31.213  33.350  1.00  0.00     0.049 A 
ATOM     46  H   UNL A   1      40.086  29.984  31.981  1.00  0.00     0.167 HD
ATOM     47  C   UNL A   1      41.832  27.183  29.071  1.00  0.00     0.037 A 
ATOM     48  C   UNL A   1      39.834  31.181  34.487  1.00  0.00     0.037 A 
ATOM     49  C   UNL A   1      42.696  27.136  30.218  1.00  0.00     0.049 A 
ATOM     50  C   UNL A   1      41.069  30.324  34.546  1.00  0.00     0.074 A 
ATOM     51  C   UNL A   1      43.876  26.433  30.378  1.00  0.00     0.029 A 
ATOM     52  N   UNL A   1      42.478  27.833  31.397  1.00  0.00    -0.354 N 
ATOM     53  N   UNL A   1      41.578  29.548  33.620  1.00  0.00    -0.248 NA
ATOM     54  C   UNL A   1      41.828  30.334  35.805  1.00  0.00     0.031 C 
ATOM     55  C   UNL A   1      44.357  26.679  31.666  1.00  0.00     0.029 A 
ATOM     56  C   UNL A   1      43.499  27.569  32.293  1.00  0.00     0.049 A 
ATOM     57  H   UNL A   1      41.712  28.426  31.571  1.00  0.00     0.167 HD
ATOM     58  C   UNL A   1      42.728  29.000  34.171  1.00  0.00     0.074 A 
ATOM     59  C   UNL A   1      42.846  29.535  35.512  1.00  0.00     0.031 C 
ATOM     60  C   UNL A   1      43.607  28.132  33.615  1.00  0.00     0.037 A 
BRANCH  47  61
ATOM     61  C   UNL A   1      42.184  26.343  27.881  1.00  0.00     0.064 A 
ATOM     62  C   UNL A   1      43.094  26.812  26.922  1.00  0.00     0.173 A 
ATOM     63  C   UNL A   1      41.581  25.096  27.661  1.00  0.00     0.173 A 
ATOM     64  F   UNL A   1      43.696  28.000  27.085  1.00  0.00    -0.203 F 
ATOM     65  C   UNL A   1      43.379  26.067  25.782  1.00  0.00     0.198 A 
ATOM     66  C   UNL A   1      41.891  24.339  26.534  1.00  0.00     0.198 A 
ATOM     67  F   UNL A   1      40.716  24.595  28.557  1.00  0.00    -0.203 F 
ATOM     68  F   UNL A   1      44.230  26.547  24.864  1.00  0.00    -0.200 F 
ATOM     69  C   UNL A   1      42.781  24.830  25.591  1.00  0.00     0.200 A 
ATOM     70  F   UNL A   1      41.333  23.133  26.366  1.00  0.00    -0.200 F 
ATOM     71  F   UNL A   1      43.067  24.108  24.499  1.00  0.00    -0.200 F 
ENDBRANCH  47  61
BRANCH  48  72
ATOM     72  C   UNL A   1      39.421  32.016  35.644  1.00  0.00     0.064 A 
ATOM     73  C   UNL A   1      38.493  31.555  36.589  1.00  0.00     0.173 A 
ATOM     74  C   UNL A   1      39.928  33.313  35.805  1.00  0.00     0.173 A 
ATOM     75  F   UNL A   1      37.974  30.324  36.476  1.00  0.00    -0.203 F 
ATOM     76  C   UNL A   1      38.075  32.368  37.641  1.00  0.00     0.198 A 
ATOM     77  C   UNL A   1      39.528  34.115  36.870  1.00  0.00     0.198 A 
ATOM     78  F   UNL A   1      40.832  33.788  34.937  1.00  0.00    -0.203 F 
ATOM     79  F   UNL A   1      37.164  31.915  38.514  1.00  0.00    -0.200 F 
ATOM     80  C   UNL A   1      38.596  33.645  37.783  1.00  0.00     0.200 A 
ATOM     81  F   UNL A   1      40.049  35.340  37.016  1.00  0.00    -0.200 F 
ATOM     82  F   UNL A   1      38.201  34.423  38.801  1.00  0.00    -0.200 F 
ENDBRANCH  48  72
BRANCH  60  83
ATOM     83  C   UNL A   1      44.799  27.727  34.427  1.00  0.00     0.064 A 
ATOM     84  C   UNL A   1      44.725  26.620  35.285  1.00  0.00     0.173 A 
ATOM     85  C   UNL A   1      45.967  28.500  34.443  1.00  0.00     0.173 A 
ATOM     86  F   UNL A   1      43.621  25.857  35.311  1.00  0.00    -0.203 F 
ATOM     87  C   UNL A   1      45.771  26.315  36.150  1.00  0.00     0.198 A 
ATOM     88  C   UNL A   1      47.022  28.178  35.292  1.00  0.00     0.198 A 
ATOM     89  F   UNL A   1      46.087  29.562  33.633  1.00  0.00    -0.203 F 
ATOM     90  F   UNL A   1      45.662  25.278  36.992  1.00  0.00    -0.200 F 
ATOM     91  C   UNL A   1      46.918  27.093  36.153  1.00  0.00     0.200 A 
ATOM     92  F   UNL A   1      48.137  28.920  35.284  1.00  0.00    -0.200 F 
ATOM     93  F   UNL A   1      47.924  26.803  36.990  1.00  0.00    -0.200 F 
ENDBRANCH  60  83
ENDBRANCH  34  35
ENDBRANCH  26  29
ENDBRANCH  24  25
ENDBRANCH  23  24
ENDBRANCH   1  23
TORSDOF 14
ENDMDL
