MODEL 1
REMARK VINA RESULT:     -11.8      0.000      0.000
REMARK SMILES CC(C)C[C@H](C)NS(=O)(=O)c1cc(C(=O)NCCCNC(=O)c2ccc(-c3c4nc(c(-c5c(F)c(F)c(F)c(F)c5F)c5ccc([nH]5)c(-c5c(F)c(F)c(F)c(F)c5F)c5nc(c(-c6c(F)c(F)c(F)c(F)c6F)c6ccc3[nH]6)C=C5)C=C4)cc2)ccc1Cl
REMARK SMILES IDX 14 1 15 2 16 3 13 5 11 6 12 7 88 8 87 9 89 10 86 11 8 12
REMARK SMILES IDX 9 13 10 14 7 15 5 17 6 18 4 19 2 20 1 21 3 22 17 23 18 24
REMARK SMILES IDX 19 25 20 26 21 27 22 29 23 30 24 31 85 32 25 33 84 34 26 35
REMARK SMILES IDX 27 36 28 37 78 38 29 39 83 40 77 41 79 42 30 43 82 44 76 45
REMARK SMILES IDX 75 46 31 48 63 49 43 50 62 51 44 52 47 53 61 54 80 55 45 56
REMARK SMILES IDX 46 57 60 59 81 60 48 61 32 62 33 63 41 64 34 65 35 66 39 67
REMARK SMILES IDX 42 68 36 69 37 70 40 71 38 72 64 73 65 74 73 75 66 76 67 77
REMARK SMILES IDX 71 78 74 79 68 80 69 81 72 82 70 83 49 84 50 85 58 86 51 87
REMARK SMILES IDX 52 88 56 89 59 90 53 91 54 92 57 93 55 94
REMARK H PARENT 16 4 7 16 20 28 79 47 47 58
REMARK Flexibility Score: inf
ROOT
ATOM      1  C   UNL A   1      29.846  29.821  23.215  1.00  0.00     0.251 C 
ATOM      2  O   UNL A   1      29.164  30.294  22.307  1.00  0.00    -0.269 OA
ATOM      3  N   UNL A   1      30.319  30.683  24.164  1.00  0.00    -0.352 N 
ATOM      4  H   UNL A   1      30.036  31.616  24.027  1.00  0.00     0.163 HD
ENDROOT
BRANCH   1   5
ATOM      5  C   UNL A   1      30.065  28.351  23.252  1.00  0.00     0.041 A 
ATOM      6  C   UNL A   1      31.637  26.535  22.796  1.00  0.00     0.101 A 
ATOM      7  C   UNL A   1      31.308  27.901  22.788  1.00  0.00     0.037 A 
ATOM      8  C   UNL A   1      30.714  25.598  23.252  1.00  0.00     0.061 A 
ATOM      9  C   UNL A   1      29.480  26.046  23.739  1.00  0.00     0.023 A 
ATOM     10  Cl  UNL A   1      31.006  23.899  23.304  1.00  0.00    -0.083 Cl
ATOM     11  C   UNL A   1      29.165  27.413  23.760  1.00  0.00     0.015 A 
BRANCH   6  12
ATOM     12  S   UNL A   1      33.240  26.084  22.205  1.00  0.00     0.242 S 
ATOM     13  O   UNL A   1      33.971  27.305  21.968  1.00  0.00    -0.207 OA
ATOM     14  O   UNL A   1      33.058  25.117  21.142  1.00  0.00    -0.207 OA
BRANCH  12  15
ATOM     15  N   UNL A   1      33.981  25.273  23.474  1.00  0.00    -0.208 NA
ATOM     16  H   UNL A   1      33.801  24.282  23.314  1.00  0.00     0.141 HD
BRANCH  15  17
ATOM     17  C   UNL A   1      33.665  25.517  24.887  1.00  0.00     0.067 C 
ATOM     18  C   UNL A   1      34.269  24.374  25.710  1.00  0.00     0.025 C 
BRANCH  17  19
ATOM     19  C   UNL A   1      34.095  26.896  25.414  1.00  0.00     0.022 C 
BRANCH  19  20
ATOM     20  C   UNL A   1      33.015  27.798  26.054  1.00  0.00    -0.016 C 
ATOM     21  C   UNL A   1      31.800  27.006  26.536  1.00  0.00     0.007 C 
ATOM     22  C   UNL A   1      33.616  28.547  27.251  1.00  0.00     0.007 C 
ENDBRANCH  19  20
ENDBRANCH  17  19
ENDBRANCH  15  17
ENDBRANCH  12  15
ENDBRANCH   6  12
ENDBRANCH   1   5
BRANCH   3  23
ATOM     23  C   UNL A   1      31.156  30.495  25.333  1.00  0.00     0.118 C 
BRANCH  23  24
ATOM     24  C   UNL A   1      31.001  31.671  26.296  1.00  0.00     0.042 C 
BRANCH  24  25
ATOM     25  C   UNL A   1      32.316  32.080  26.961  1.00  0.00     0.118 C 
BRANCH  25  26
ATOM     26  N   UNL A   1      32.361  33.507  27.238  1.00  0.00    -0.352 N 
ATOM     27  C   UNL A   1      33.121  34.207  28.140  1.00  0.00     0.251 C 
ATOM     28  H   UNL A   1      31.751  34.056  26.694  1.00  0.00     0.163 HD
ATOM     29  O   UNL A   1      32.836  35.373  28.397  1.00  0.00    -0.269 OA
BRANCH  27  30
ATOM     30  C   UNL A   1      34.277  33.573  28.811  1.00  0.00     0.039 A 
ATOM     31  C   UNL A   1      35.513  34.226  28.780  1.00  0.00     0.014 A 
ATOM     32  C   UNL A   1      34.168  32.314  29.410  1.00  0.00     0.014 A 
ATOM     33  C   UNL A   1      36.626  33.641  29.390  1.00  0.00     0.010 A 
ATOM     34  C   UNL A   1      35.262  31.761  30.073  1.00  0.00     0.010 A 
ATOM     35  C   UNL A   1      36.503  32.415  30.064  1.00  0.00    -0.014 A 
BRANCH  35  36
ATOM     36  C   UNL A   1      37.665  31.794  30.750  1.00  0.00     0.031 A 
ATOM     37  C   UNL A   1      38.481  30.744  30.050  1.00  0.00     0.074 A 
ATOM     38  C   UNL A   1      37.951  32.139  32.021  1.00  0.00     0.049 A 
ATOM     39  N   UNL A   1      39.468  30.016  30.511  1.00  0.00    -0.248 NA
ATOM     40  C   UNL A   1      38.129  30.457  28.650  1.00  0.00     0.031 C 
ATOM     41  C   UNL A   1      37.214  33.122  32.818  1.00  0.00     0.029 A 
ATOM     42  N   UNL A   1      38.929  31.688  32.872  1.00  0.00    -0.354 N 
ATOM     43  C   UNL A   1      39.846  29.185  29.466  1.00  0.00     0.074 A 
ATOM     44  C   UNL A   1      38.952  29.459  28.362  1.00  0.00     0.031 C 
ATOM     45  C   UNL A   1      37.773  33.208  34.036  1.00  0.00     0.029 A 
ATOM     46  C   UNL A   1      38.881  32.262  34.119  1.00  0.00     0.049 A 
ATOM     47  H   UNL A   1      39.602  31.019  32.613  1.00  0.00     0.167 HD
ATOM     48  C   UNL A   1      40.863  28.291  29.422  1.00  0.00     0.037 A 
ATOM     49  C   UNL A   1      39.638  32.039  35.211  1.00  0.00     0.037 A 
ATOM     50  C   UNL A   1      41.763  28.032  30.514  1.00  0.00     0.049 A 
ATOM     51  C   UNL A   1      40.753  31.030  35.136  1.00  0.00     0.074 A 
ATOM     52  C   UNL A   1      42.835  27.157  30.562  1.00  0.00     0.029 A 
ATOM     53  N   UNL A   1      41.702  28.657  31.751  1.00  0.00    -0.354 N 
ATOM     54  N   UNL A   1      41.123  30.278  34.129  1.00  0.00    -0.248 NA
ATOM     55  C   UNL A   1      41.561  30.845  36.349  1.00  0.00     0.031 C 
ATOM     56  C   UNL A   1      43.405  27.233  31.837  1.00  0.00     0.029 A 
ATOM     57  C   UNL A   1      42.713  28.184  32.569  1.00  0.00     0.049 A 
ATOM     58  H   UNL A   1      41.037  29.336  32.008  1.00  0.00     0.167 HD
ATOM     59  C   UNL A   1      42.221  29.556  34.575  1.00  0.00     0.074 A 
ATOM     60  C   UNL A   1      42.470  29.972  35.939  1.00  0.00     0.031 C 
ATOM     61  C   UNL A   1      42.958  28.628  33.917  1.00  0.00     0.037 A 
BRANCH  48  62
ATOM     62  C   UNL A   1      41.073  27.539  28.140  1.00  0.00     0.064 A 
ATOM     63  C   UNL A   1      41.916  28.034  27.135  1.00  0.00     0.173 A 
ATOM     64  C   UNL A   1      40.474  26.286  27.936  1.00  0.00     0.173 A 
ATOM     65  F   UNL A   1      42.503  29.232  27.276  1.00  0.00    -0.203 F 
ATOM     66  C   UNL A   1      42.137  27.313  25.964  1.00  0.00     0.198 A 
ATOM     67  C   UNL A   1      40.719  25.555  26.777  1.00  0.00     0.198 A 
ATOM     68  F   UNL A   1      39.663  25.764  28.870  1.00  0.00    -0.203 F 
ATOM     69  F   UNL A   1      42.918  27.824  25.002  1.00  0.00    -0.200 F 
ATOM     70  C   UNL A   1      41.545  26.071  25.790  1.00  0.00     0.200 A 
ATOM     71  F   UNL A   1      40.157  24.349  26.615  1.00  0.00    -0.200 F 
ATOM     72  F   UNL A   1      41.769  25.372  24.669  1.00  0.00    -0.200 F 
ENDBRANCH  48  62
BRANCH  49  73
ATOM     73  C   UNL A   1      39.380  32.787  36.469  1.00  0.00     0.064 A 
ATOM     74  C   UNL A   1      38.443  32.324  37.404  1.00  0.00     0.173 A 
ATOM     75  C   UNL A   1      40.037  33.994  36.747  1.00  0.00     0.173 A 
ATOM     76  F   UNL A   1      37.774  31.185  37.173  1.00  0.00    -0.203 F 
ATOM     77  C   UNL A   1      38.151  33.055  38.553  1.00  0.00     0.198 A 
ATOM     78  C   UNL A   1      39.765  34.710  37.911  1.00  0.00     0.198 A 
ATOM     79  F   UNL A   1      40.947  34.478  35.888  1.00  0.00    -0.203 F 
ATOM     80  F   UNL A   1      37.210  32.618  39.400  1.00  0.00    -0.200 F 
ATOM     81  C   UNL A   1      38.815  34.246  38.807  1.00  0.00     0.200 A 
ATOM     82  F   UNL A   1      40.419  35.853  38.161  1.00  0.00    -0.200 F 
ATOM     83  F   UNL A   1      38.529  34.952  39.910  1.00  0.00    -0.200 F 
ENDBRANCH  49  73
BRANCH  61  84
ATOM     84  C   UNL A   1      44.127  28.036  34.645  1.00  0.00     0.064 A 
ATOM     85  C   UNL A   1      44.008  26.854  35.389  1.00  0.00     0.173 A 
ATOM     86  C   UNL A   1      45.390  28.644  34.569  1.00  0.00     0.173 A 
ATOM     87  F   UNL A   1      42.817  26.246  35.506  1.00  0.00    -0.203 F 
ATOM     88  C   UNL A   1      45.107  26.314  36.052  1.00  0.00     0.198 A 
ATOM     89  C   UNL A   1      46.491  28.086  35.209  1.00  0.00     0.198 A 
ATOM     90  F   UNL A   1      45.555  29.773  33.864  1.00  0.00    -0.203 F 
ATOM     91  F   UNL A   1      44.961  25.208  36.795  1.00  0.00    -0.200 F 
ATOM     92  C   UNL A   1      46.349  26.925  35.955  1.00  0.00     0.200 A 
ATOM     93  F   UNL A   1      47.693  28.671  35.107  1.00  0.00    -0.200 F 
ATOM     94  F   UNL A   1      47.405  26.401  36.591  1.00  0.00    -0.200 F 
ENDBRANCH  61  84
ENDBRANCH  35  36
ENDBRANCH  27  30
ENDBRANCH  25  26
ENDBRANCH  24  25
ENDBRANCH  23  24
ENDBRANCH   3  23
TORSDOF 15
ENDMDL
MODEL 2
REMARK VINA RESULT:     -11.8      5.339     10.679
REMARK SMILES CC(C)C[C@H](C)NS(=O)(=O)c1cc(C(=O)NCCCNC(=O)c2ccc(-c3c4nc(c(-c5c(F)c(F)c(F)c(F)c5F)c5ccc([nH]5)c(-c5c(F)c(F)c(F)c(F)c5F)c5nc(c(-c6c(F)c(F)c(F)c(F)c6F)c6ccc3[nH]6)C=C5)C=C4)cc2)ccc1Cl
REMARK SMILES IDX 14 1 15 2 16 3 13 5 11 6 12 7 88 8 87 9 89 10 86 11 8 12
REMARK SMILES IDX 9 13 10 14 7 15 5 17 6 18 4 19 2 20 1 21 3 22 17 23 18 24
REMARK SMILES IDX 19 25 20 26 21 27 22 29 23 30 24 31 85 32 25 33 84 34 26 35
REMARK SMILES IDX 27 36 28 37 78 38 29 39 83 40 77 41 79 42 30 43 82 44 76 45
REMARK SMILES IDX 75 46 31 48 63 49 43 50 62 51 44 52 47 53 61 54 80 55 45 56
REMARK SMILES IDX 46 57 60 59 81 60 48 61 32 62 33 63 41 64 34 65 35 66 39 67
REMARK SMILES IDX 42 68 36 69 37 70 40 71 38 72 64 73 65 74 73 75 66 76 67 77
REMARK SMILES IDX 71 78 74 79 68 80 69 81 72 82 70 83 49 84 50 85 58 86 51 87
REMARK SMILES IDX 52 88 56 89 59 90 53 91 54 92 57 93 55 94
REMARK H PARENT 16 4 7 16 20 28 79 47 47 58
REMARK Flexibility Score: inf
ROOT
ATOM      1  C   UNL A   1      36.295  22.856  25.348  1.00  0.00     0.251 C 
ATOM      2  O   UNL A   1      36.851  23.850  25.814  1.00  0.00    -0.269 OA
ATOM      3  N   UNL A   1      36.959  21.664  25.431  1.00  0.00    -0.352 N 
ATOM      4  H   UNL A   1      37.828  21.727  25.889  1.00  0.00     0.163 HD
ENDROOT
BRANCH   1   5
ATOM      5  C   UNL A   1      34.929  23.004  24.779  1.00  0.00     0.041 A 
ATOM      6  C   UNL A   1      32.547  23.212  25.285  1.00  0.00     0.101 A 
ATOM      7  C   UNL A   1      33.878  23.053  25.704  1.00  0.00     0.037 A 
ATOM      8  C   UNL A   1      32.249  23.305  23.928  1.00  0.00     0.061 A 
ATOM      9  C   UNL A   1      33.299  23.282  23.002  1.00  0.00     0.023 A 
ATOM     10  Cl  UNL A   1      30.655  23.499  23.299  1.00  0.00    -0.083 Cl
ATOM     11  C   UNL A   1      34.631  23.154  23.425  1.00  0.00     0.015 A 
BRANCH   6  12
ATOM     12  S   UNL A   1      31.305  23.280  26.540  1.00  0.00     0.242 S 
ATOM     13  O   UNL A   1      31.963  23.083  27.808  1.00  0.00    -0.207 OA
ATOM     14  O   UNL A   1      30.221  22.409  26.130  1.00  0.00    -0.207 OA
BRANCH  12  15
ATOM     15  N   UNL A   1      30.704  24.847  26.503  1.00  0.00    -0.208 NA
ATOM     16  H   UNL A   1      29.753  24.773  26.143  1.00  0.00     0.141 HD
BRANCH  15  17
ATOM     17  C   UNL A   1      31.335  25.939  25.749  1.00  0.00     0.067 C 
ATOM     18  C   UNL A   1      30.230  26.706  25.016  1.00  0.00     0.025 C 
BRANCH  17  19
ATOM     19  C   UNL A   1      32.224  26.871  26.589  1.00  0.00     0.022 C 
BRANCH  19  20
ATOM     20  C   UNL A   1      33.665  27.136  26.100  1.00  0.00    -0.016 C 
ATOM     21  C   UNL A   1      33.898  26.648  24.671  1.00  0.00     0.007 C 
ATOM     22  C   UNL A   1      33.957  28.642  26.155  1.00  0.00     0.007 C 
ENDBRANCH  19  20
ENDBRANCH  17  19
ENDBRANCH  15  17
ENDBRANCH  12  15
ENDBRANCH   6  12
ENDBRANCH   1   5
BRANCH   3  23
ATOM     23  C   UNL A   1      36.636  20.326  24.976  1.00  0.00     0.118 C 
BRANCH  23  24
ATOM     24  C   UNL A   1      37.887  19.449  24.964  1.00  0.00     0.042 C 
BRANCH  24  25
ATOM     25  C   UNL A   1      39.075  20.087  25.686  1.00  0.00     0.118 C 
BRANCH  25  26
ATOM     26  N   UNL A   1      40.159  19.139  25.888  1.00  0.00    -0.352 N 
ATOM     27  C   UNL A   1      41.496  19.359  26.102  1.00  0.00     0.251 C 
ATOM     28  H   UNL A   1      39.892  18.191  25.867  1.00  0.00     0.163 HD
ATOM     29  O   UNL A   1      42.287  18.426  26.001  1.00  0.00    -0.269 OA
BRANCH  27  30
ATOM     30  C   UNL A   1      41.995  20.708  26.449  1.00  0.00     0.039 A 
ATOM     31  C   UNL A   1      42.251  21.615  25.417  1.00  0.00     0.014 A 
ATOM     32  C   UNL A   1      42.276  21.060  27.773  1.00  0.00     0.014 A 
ATOM     33  C   UNL A   1      42.741  22.890  25.714  1.00  0.00     0.010 A 
ATOM     34  C   UNL A   1      42.704  22.352  28.074  1.00  0.00     0.010 A 
ATOM     35  C   UNL A   1      42.947  23.277  27.048  1.00  0.00    -0.014 A 
BRANCH  35  36
ATOM     36  C   UNL A   1      43.432  24.639  27.388  1.00  0.00     0.031 A 
ATOM     37  C   UNL A   1      42.480  25.664  27.939  1.00  0.00     0.074 A 
ATOM     38  C   UNL A   1      44.717  24.967  27.151  1.00  0.00     0.049 A 
ATOM     39  N   UNL A   1      42.685  26.930  28.205  1.00  0.00    -0.248 NA
ATOM     40  C   UNL A   1      41.105  25.211  28.208  1.00  0.00     0.031 C 
ATOM     41  C   UNL A   1      45.730  24.072  26.590  1.00  0.00     0.029 A 
ATOM     42  N   UNL A   1      45.387  26.151  27.337  1.00  0.00    -0.354 N 
ATOM     43  C   UNL A   1      41.471  27.423  28.663  1.00  0.00     0.074 A 
ATOM     44  C   UNL A   1      40.518  26.336  28.591  1.00  0.00     0.031 C 
ATOM     45  C   UNL A   1      46.894  24.733  26.488  1.00  0.00     0.029 A 
ATOM     46  C   UNL A   1      46.702  26.107  26.941  1.00  0.00     0.049 A 
ATOM     47  H   UNL A   1      44.967  26.954  27.720  1.00  0.00     0.167 HD
ATOM     48  C   UNL A   1      41.182  28.663  29.124  1.00  0.00     0.037 A 
ATOM     49  C   UNL A   1      47.642  27.072  26.930  1.00  0.00     0.037 A 
ATOM     50  C   UNL A   1      42.135  29.738  29.212  1.00  0.00     0.049 A 
ATOM     51  C   UNL A   1      47.288  28.445  27.437  1.00  0.00     0.074 A 
ATOM     52  C   UNL A   1      41.944  31.027  29.681  1.00  0.00     0.029 A 
ATOM     53  N   UNL A   1      43.465  29.645  28.830  1.00  0.00    -0.354 N 
ATOM     54  N   UNL A   1      46.145  28.887  27.902  1.00  0.00    -0.248 NA
ATOM     55  C   UNL A   1      48.358  29.452  27.426  1.00  0.00     0.031 C 
ATOM     56  C   UNL A   1      43.152  31.722  29.557  1.00  0.00     0.029 A 
ATOM     57  C   UNL A   1      44.105  30.854  29.049  1.00  0.00     0.049 A 
ATOM     58  H   UNL A   1      43.891  28.839  28.459  1.00  0.00     0.167 HD
ATOM     59  C   UNL A   1      46.367  30.208  28.265  1.00  0.00     0.074 A 
ATOM     60  C   UNL A   1      47.758  30.492  27.983  1.00  0.00     0.031 C 
ATOM     61  C   UNL A   1      45.496  31.109  28.782  1.00  0.00     0.037 A 
BRANCH  48  62
ATOM     62  C   UNL A   1      39.780  28.923  29.593  1.00  0.00     0.064 A 
ATOM     63  C   UNL A   1      38.791  29.380  28.710  1.00  0.00     0.173 A 
ATOM     64  C   UNL A   1      39.405  28.657  30.918  1.00  0.00     0.173 A 
ATOM     65  F   UNL A   1      39.101  29.659  27.435  1.00  0.00    -0.203 F 
ATOM     66  C   UNL A   1      37.483  29.582  29.142  1.00  0.00     0.198 A 
ATOM     67  C   UNL A   1      38.090  28.833  31.340  1.00  0.00     0.198 A 
ATOM     68  F   UNL A   1      40.312  28.212  31.802  1.00  0.00    -0.203 F 
ATOM     69  F   UNL A   1      36.563  30.055  28.289  1.00  0.00    -0.200 F 
ATOM     70  C   UNL A   1      37.131  29.301  30.453  1.00  0.00     0.200 A 
ATOM     71  F   UNL A   1      37.749  28.549  32.604  1.00  0.00    -0.200 F 
ATOM     72  F   UNL A   1      35.869  29.482  30.864  1.00  0.00    -0.200 F 
ENDBRANCH  48  62
BRANCH  49  73
ATOM     73  C   UNL A   1      49.011  26.780  26.434  1.00  0.00     0.064 A 
ATOM     74  C   UNL A   1      49.351  26.992  25.090  1.00  0.00     0.173 A 
ATOM     75  C   UNL A   1      49.997  26.254  27.280  1.00  0.00     0.173 A 
ATOM     76  F   UNL A   1      48.436  27.475  24.237  1.00  0.00    -0.203 F 
ATOM     77  C   UNL A   1      50.614  26.659  24.606  1.00  0.00     0.198 A 
ATOM     78  C   UNL A   1      51.270  25.949  26.801  1.00  0.00     0.198 A 
ATOM     79  F   UNL A   1      49.726  26.038  28.576  1.00  0.00    -0.203 F 
ATOM     80  F   UNL A   1      50.893  26.818  23.305  1.00  0.00    -0.200 F 
ATOM     81  C   UNL A   1      51.574  26.141  25.463  1.00  0.00     0.200 A 
ATOM     82  F   UNL A   1      52.199  25.462  27.636  1.00  0.00    -0.200 F 
ATOM     83  F   UNL A   1      52.786  25.815  24.996  1.00  0.00    -0.200 F 
ENDBRANCH  49  73
BRANCH  61  84
ATOM     84  C   UNL A   1      46.034  32.468  29.120  1.00  0.00     0.064 A 
ATOM     85  C   UNL A   1      46.031  33.512  28.185  1.00  0.00     0.173 A 
ATOM     86  C   UNL A   1      46.525  32.735  30.408  1.00  0.00     0.173 A 
ATOM     87  F   UNL A   1      45.588  33.300  26.937  1.00  0.00    -0.203 F 
ATOM     88  C   UNL A   1      46.527  34.770  28.519  1.00  0.00     0.198 A 
ATOM     89  C   UNL A   1      46.993  34.001  30.745  1.00  0.00     0.198 A 
ATOM     90  F   UNL A   1      46.542  31.770  31.338  1.00  0.00    -0.203 F 
ATOM     91  F   UNL A   1      46.558  35.742  27.596  1.00  0.00    -0.200 F 
ATOM     92  C   UNL A   1      46.999  35.016  29.800  1.00  0.00     0.200 A 
ATOM     93  F   UNL A   1      47.439  34.240  31.986  1.00  0.00    -0.200 F 
ATOM     94  F   UNL A   1      47.470  36.228  30.120  1.00  0.00    -0.200 F 
ENDBRANCH  61  84
ENDBRANCH  35  36
ENDBRANCH  27  30
ENDBRANCH  25  26
ENDBRANCH  24  25
ENDBRANCH  23  24
ENDBRANCH   3  23
TORSDOF 15
ENDMDL
MODEL 3
REMARK VINA RESULT:     -11.5      1.601      2.795
REMARK SMILES CC(C)C[C@H](C)NS(=O)(=O)c1cc(C(=O)NCCCNC(=O)c2ccc(-c3c4nc(c(-c5c(F)c(F)c(F)c(F)c5F)c5ccc([nH]5)c(-c5c(F)c(F)c(F)c(F)c5F)c5nc(c(-c6c(F)c(F)c(F)c(F)c6F)c6ccc3[nH]6)C=C5)C=C4)cc2)ccc1Cl
REMARK SMILES IDX 14 1 15 2 16 3 13 5 11 6 12 7 88 8 87 9 89 10 86 11 8 12
REMARK SMILES IDX 9 13 10 14 7 15 5 17 6 18 4 19 2 20 1 21 3 22 17 23 18 24
REMARK SMILES IDX 19 25 20 26 21 27 22 29 23 30 24 31 85 32 25 33 84 34 26 35
REMARK SMILES IDX 27 36 28 37 78 38 29 39 83 40 77 41 79 42 30 43 82 44 76 45
REMARK SMILES IDX 75 46 31 48 63 49 43 50 62 51 44 52 47 53 61 54 80 55 45 56
REMARK SMILES IDX 46 57 60 59 81 60 48 61 32 62 33 63 41 64 34 65 35 66 39 67
REMARK SMILES IDX 42 68 36 69 37 70 40 71 38 72 64 73 65 74 73 75 66 76 67 77
REMARK SMILES IDX 71 78 74 79 68 80 69 81 72 82 70 83 49 84 50 85 58 86 51 87
REMARK SMILES IDX 52 88 56 89 59 90 53 91 54 92 57 93 55 94
REMARK H PARENT 16 4 7 16 20 28 79 47 47 58
REMARK Flexibility Score: inf
ROOT
ATOM      1  C   UNL A   1      33.951  29.222  26.991  1.00  0.00     0.251 C 
ATOM      2  O   UNL A   1      34.967  29.156  27.681  1.00  0.00    -0.269 OA
ATOM      3  N   UNL A   1      32.992  30.120  27.363  1.00  0.00    -0.352 N 
ATOM      4  H   UNL A   1      33.234  30.651  28.157  1.00  0.00     0.163 HD
ENDROOT
BRANCH   1   5
ATOM      5  C   UNL A   1      33.857  28.367  25.778  1.00  0.00     0.041 A 
ATOM      6  C   UNL A   1      33.717  26.078  24.931  1.00  0.00     0.101 A 
ATOM      7  C   UNL A   1      33.828  26.984  25.999  1.00  0.00     0.037 A 
ATOM      8  C   UNL A   1      33.653  26.547  23.622  1.00  0.00     0.061 A 
ATOM      9  C   UNL A   1      33.657  27.930  23.399  1.00  0.00     0.023 A 
ATOM     10  Cl  UNL A   1      33.520  25.531  22.236  1.00  0.00    -0.083 Cl
ATOM     11  C   UNL A   1      33.736  28.833  24.469  1.00  0.00     0.015 A 
BRANCH   6  12
ATOM     12  S   UNL A   1      33.671  24.356  25.329  1.00  0.00     0.242 S 
ATOM     13  O   UNL A   1      34.894  24.043  26.027  1.00  0.00    -0.207 OA
ATOM     14  O   UNL A   1      33.307  23.639  24.125  1.00  0.00    -0.207 OA
BRANCH  12  15
ATOM     15  N   UNL A   1      32.396  24.172  26.406  1.00  0.00    -0.208 NA
ATOM     16  H   UNL A   1      32.576  23.301  26.904  1.00  0.00     0.141 HD
BRANCH  15  17
ATOM     17  C   UNL A   1      30.988  24.115  25.991  1.00  0.00     0.067 C 
ATOM     18  C   UNL A   1      30.279  23.084  26.876  1.00  0.00     0.025 C 
BRANCH  17  19
ATOM     19  C   UNL A   1      30.262  25.469  25.990  1.00  0.00     0.022 C 
BRANCH  19  20
ATOM     20  C   UNL A   1      29.750  26.018  24.639  1.00  0.00    -0.016 C 
ATOM     21  C   UNL A   1      30.235  27.440  24.362  1.00  0.00     0.007 C 
ATOM     22  C   UNL A   1      30.232  25.107  23.501  1.00  0.00     0.007 C 
ENDBRANCH  19  20
ENDBRANCH  17  19
ENDBRANCH  15  17
ENDBRANCH  12  15
ENDBRANCH   6  12
ENDBRANCH   1   5
BRANCH   3  23
ATOM     23  C   UNL A   1      31.687  30.446  26.822  1.00  0.00     0.118 C 
BRANCH  23  24
ATOM     24  C   UNL A   1      31.447  31.954  26.876  1.00  0.00     0.042 C 
BRANCH  24  25
ATOM     25  C   UNL A   1      32.738  32.764  26.986  1.00  0.00     0.118 C 
BRANCH  25  26
ATOM     26  N   UNL A   1      32.505  34.079  27.564  1.00  0.00    -0.352 N 
ATOM     27  C   UNL A   1      33.044  34.659  28.684  1.00  0.00     0.251 C 
ATOM     28  H   UNL A   1      31.860  34.640  27.074  1.00  0.00     0.163 HD
ATOM     29  O   UNL A   1      32.535  35.677  29.143  1.00  0.00    -0.269 OA
BRANCH  27  30
ATOM     30  C   UNL A   1      34.227  34.070  29.348  1.00  0.00     0.039 A 
ATOM     31  C   UNL A   1      34.028  33.153  30.385  1.00  0.00     0.014 A 
ATOM     32  C   UNL A   1      35.524  34.462  29.004  1.00  0.00     0.014 A 
ATOM     33  C   UNL A   1      35.127  32.594  31.043  1.00  0.00     0.010 A 
ATOM     34  C   UNL A   1      36.621  33.857  29.616  1.00  0.00     0.010 A 
ATOM     35  C   UNL A   1      36.433  32.923  30.646  1.00  0.00    -0.014 A 
BRANCH  35  36
ATOM     36  C   UNL A   1      37.615  32.313  31.307  1.00  0.00     0.031 A 
ATOM     37  C   UNL A   1      38.363  31.196  30.634  1.00  0.00     0.074 A 
ATOM     38  C   UNL A   1      37.981  32.729  32.535  1.00  0.00     0.049 A 
ATOM     39  N   UNL A   1      39.354  30.470  31.087  1.00  0.00    -0.248 NA
ATOM     40  C   UNL A   1      37.926  30.831  29.277  1.00  0.00     0.031 C 
ATOM     41  C   UNL A   1      37.316  33.782  33.305  1.00  0.00     0.029 A 
ATOM     42  N   UNL A   1      38.993  32.305  33.359  1.00  0.00    -0.354 N 
ATOM     43  C   UNL A   1      39.652  29.562  30.079  1.00  0.00     0.074 A 
ATOM     44  C   UNL A   1      38.704  29.792  29.010  1.00  0.00     0.031 C 
ATOM     45  C   UNL A   1      37.944  33.929  34.482  1.00  0.00     0.029 A 
ATOM     46  C   UNL A   1      39.030  32.958  34.567  1.00  0.00     0.049 A 
ATOM     47  H   UNL A   1      39.633  31.600  33.108  1.00  0.00     0.167 HD
ATOM     48  C   UNL A   1      40.641  28.638  30.039  1.00  0.00     0.037 A 
ATOM     49  C   UNL A   1      39.840  32.783  35.629  1.00  0.00     0.037 A 
ATOM     50  C   UNL A   1      41.594  28.423  31.095  1.00  0.00     0.049 A 
ATOM     51  C   UNL A   1      40.923  31.739  35.560  1.00  0.00     0.074 A 
ATOM     52  C   UNL A   1      42.643  27.522  31.143  1.00  0.00     0.029 A 
ATOM     53  N   UNL A   1      41.618  29.127  32.290  1.00  0.00    -0.354 N 
ATOM     54  N   UNL A   1      41.216  30.913  34.585  1.00  0.00    -0.248 NA
ATOM     55  C   UNL A   1      41.793  31.607  36.736  1.00  0.00     0.031 C 
ATOM     56  C   UNL A   1      43.286  27.661  32.377  1.00  0.00     0.029 A 
ATOM     57  C   UNL A   1      42.661  28.677  33.082  1.00  0.00     0.049 A 
ATOM     58  H   UNL A   1      40.987  29.841  32.538  1.00  0.00     0.167 HD
ATOM     59  C   UNL A   1      42.318  30.189  35.017  1.00  0.00     0.074 A 
ATOM     60  C   UNL A   1      42.654  30.684  36.335  1.00  0.00     0.031 C 
ATOM     61  C   UNL A   1      42.992  29.199  34.382  1.00  0.00     0.037 A 
BRANCH  48  62
ATOM     62  C   UNL A   1      40.759  27.799  28.800  1.00  0.00     0.064 A 
ATOM     63  C   UNL A   1      40.008  26.625  28.641  1.00  0.00     0.173 A 
ATOM     64  C   UNL A   1      41.583  28.200  27.737  1.00  0.00     0.173 A 
ATOM     65  F   UNL A   1      39.213  26.194  29.632  1.00  0.00    -0.203 F 
ATOM     66  C   UNL A   1      40.093  25.872  27.473  1.00  0.00     0.198 A 
ATOM     67  C   UNL A   1      41.645  27.459  26.560  1.00  0.00     0.198 A 
ATOM     68  F   UNL A   1      42.318  29.319  27.835  1.00  0.00    -0.203 F 
ATOM     69  F   UNL A   1      39.394  24.734  27.360  1.00  0.00    -0.200 F 
ATOM     70  C   UNL A   1      40.904  26.294  26.431  1.00  0.00     0.200 A 
ATOM     71  F   UNL A   1      42.419  27.874  25.548  1.00  0.00    -0.200 F 
ATOM     72  F   UNL A   1      40.974  25.575  25.302  1.00  0.00    -0.200 F 
ENDBRANCH  48  62
BRANCH  49  73
ATOM     73  C   UNL A   1      39.673  33.618  36.847  1.00  0.00     0.064 A 
ATOM     74  C   UNL A   1      38.842  33.201  37.897  1.00  0.00     0.173 A 
ATOM     75  C   UNL A   1      40.310  34.860  36.973  1.00  0.00     0.173 A 
ATOM     76  F   UNL A   1      38.195  32.030  37.813  1.00  0.00    -0.203 F 
ATOM     77  C   UNL A   1      38.631  34.010  39.012  1.00  0.00     0.198 A 
ATOM     78  C   UNL A   1      40.122  35.654  38.102  1.00  0.00     0.198 A 
ATOM     79  F   UNL A   1      41.121  35.302  35.999  1.00  0.00    -0.203 F 
ATOM     80  F   UNL A   1      37.787  33.612  39.973  1.00  0.00    -0.200 F 
ATOM     81  C   UNL A   1      39.274  35.234  39.115  1.00  0.00     0.200 A 
ATOM     82  F   UNL A   1      40.756  36.831  38.204  1.00  0.00    -0.200 F 
ATOM     83  F   UNL A   1      39.067  36.014  40.184  1.00  0.00    -0.200 F 
ENDBRANCH  49  73
BRANCH  61  84
ATOM     84  C   UNL A   1      44.185  28.621  35.083  1.00  0.00     0.064 A 
ATOM     85  C   UNL A   1      45.466  29.170  34.929  1.00  0.00     0.173 A 
ATOM     86  C   UNL A   1      44.036  27.523  35.946  1.00  0.00     0.173 A 
ATOM     87  F   UNL A   1      45.660  30.208  34.102  1.00  0.00    -0.203 F 
ATOM     88  C   UNL A   1      46.560  28.625  35.595  1.00  0.00     0.198 A 
ATOM     89  C   UNL A   1      45.128  27.000  36.631  1.00  0.00     0.198 A 
ATOM     90  F   UNL A   1      42.830  26.967  36.130  1.00  0.00    -0.203 F 
ATOM     91  F   UNL A   1      47.784  29.137  35.399  1.00  0.00    -0.200 F 
ATOM     92  C   UNL A   1      46.390  27.547  36.451  1.00  0.00     0.200 A 
ATOM     93  F   UNL A   1      44.961  25.965  37.465  1.00  0.00    -0.200 F 
ATOM     94  F   UNL A   1      47.445  27.028  37.094  1.00  0.00    -0.200 F 
ENDBRANCH  61  84
ENDBRANCH  35  36
ENDBRANCH  27  30
ENDBRANCH  25  26
ENDBRANCH  24  25
ENDBRANCH  23  24
ENDBRANCH   3  23
TORSDOF 15
ENDMDL
