MODEL 1
REMARK VINA RESULT:     -10.0      0.000      0.000
REMARK SMILES CS(=O)(=O)c1ccc(/C=C(/C(=O)NCCCNC(=O)c2ccc(-c3c4nc(c(-c5c(F)c(F)c(F)c(F)c5F)c5ccc([nH]5)c(-c5c(F)c(F)c(F)c(F)c5F)c5nc(c(-c6c(F)c(F)c(F)c(F)c6F)c6ccc3[nH]6)C=C5)C=C4)cc2)c2cccc(-c3ccc(S(C)(=O)=O)cc3)c2)cc1
REMARK SMILES IDX 14 1 13 2 11 3 12 4 10 6 9 7 8 8 5 9 6 10 100 11 7 12 99 13
REMARK SMILES IDX 2 14 1 15 3 16 4 17 83 18 84 19 98 20 85 21 87 22 86 23
REMARK SMILES IDX 88 24 89 25 97 26 90 27 96 28 91 29 92 30 93 31 94 32 95 33
REMARK SMILES IDX 15 34 16 35 17 36 18 37 19 39 20 40 21 41 82 42 22 43 81 44
REMARK SMILES IDX 23 45 24 46 25 47 75 48 26 49 80 50 74 51 76 52 27 53 79 54
REMARK SMILES IDX 73 55 72 56 28 58 60 59 40 60 59 61 41 62 44 63 58 64 77 65
REMARK SMILES IDX 42 66 43 67 57 69 78 70 45 71 29 72 30 73 38 74 31 75 32 76
REMARK SMILES IDX 36 77 39 78 33 79 34 80 37 81 35 82 61 83 62 84 70 85 63 86
REMARK SMILES IDX 64 87 68 88 71 89 65 90 66 91 69 92 67 93 46 94 47 95 55 96
REMARK SMILES IDX 48 97 49 98 53 99 56 100 50 101 51 102 54 103 52 104
REMARK H PARENT 13 5 17 38 76 57 44 68
REMARK Flexibility Score: inf
ROOT
ATOM      1  C   UNL A   1      48.862  25.431  31.963  1.00  0.00     0.118 C 
ENDROOT
BRANCH   1   2
ATOM      2  N   UNL A   1      49.800  26.285  31.261  1.00  0.00    -0.352 N 
ATOM      3  C   UNL A   1      49.668  27.313  30.383  1.00  0.00     0.251 C 
ATOM      4  O   UNL A   1      50.722  27.760  29.924  1.00  0.00    -0.269 OA
ATOM      5  H   UNL A   1      50.740  26.073  31.465  1.00  0.00     0.163 HD
BRANCH   3   6
ATOM      6  C   UNL A   1      48.341  27.955  30.047  1.00  0.00     0.047 C 
ATOM      7  C   UNL A   1      47.560  28.514  31.003  1.00  0.00     0.022 C 
BRANCH   7   8
ATOM      8  C   UNL A   1      46.308  29.297  30.857  1.00  0.00    -0.025 A 
ATOM      9  C   UNL A   1      44.106  31.038  30.680  1.00  0.00     0.067 A 
ATOM     10  C   UNL A   1      44.539  30.339  29.552  1.00  0.00     0.021 A 
ATOM     11  C   UNL A   1      44.721  30.829  31.914  1.00  0.00     0.021 A 
ATOM     12  C   UNL A   1      45.613  29.449  29.652  1.00  0.00     0.009 A 
ATOM     13  C   UNL A   1      45.817  29.961  31.996  1.00  0.00     0.009 A 
BRANCH   9  14
ATOM     14  S   UNL A   1      42.784  32.214  30.497  1.00  0.00     0.175 S 
ATOM     15  C   UNL A   1      42.391  32.777  32.130  1.00  0.00     0.163 C 
ATOM     16  O   UNL A   1      41.629  31.478  30.017  1.00  0.00    -0.224 OA
ATOM     17  O   UNL A   1      43.329  33.332  29.755  1.00  0.00    -0.224 OA
ENDBRANCH   9  14
ENDBRANCH   7   8
BRANCH   6  18
ATOM     18  C   UNL A   1      47.862  27.803  28.647  1.00  0.00    -0.012 A 
ATOM     19  C   UNL A   1      48.194  28.786  27.701  1.00  0.00     0.009 A 
ATOM     20  C   UNL A   1      47.191  26.650  28.213  1.00  0.00     0.017 A 
ATOM     21  C   UNL A   1      47.888  28.615  26.355  1.00  0.00     0.001 A 
ATOM     22  C   UNL A   1      46.944  26.424  26.845  1.00  0.00    -0.018 A 
ATOM     23  C   UNL A   1      47.282  27.435  25.929  1.00  0.00     0.009 A 
BRANCH  22  24
ATOM     24  C   UNL A   1      46.442  25.121  26.381  1.00  0.00    -0.018 A 
ATOM     25  C   UNL A   1      46.563  24.755  25.027  1.00  0.00     0.010 A 
ATOM     26  C   UNL A   1      45.885  24.191  27.274  1.00  0.00     0.010 A 
ATOM     27  C   UNL A   1      46.141  23.504  24.575  1.00  0.00     0.021 A 
ATOM     28  C   UNL A   1      45.455  22.937  26.831  1.00  0.00     0.021 A 
ATOM     29  C   UNL A   1      45.575  22.607  25.481  1.00  0.00     0.067 A 
BRANCH  29  30
ATOM     30  S   UNL A   1      45.016  21.027  24.896  1.00  0.00     0.175 S 
ATOM     31  C   UNL A   1      43.477  20.795  25.749  1.00  0.00     0.163 C 
ATOM     32  O   UNL A   1      44.735  21.159  23.483  1.00  0.00    -0.224 OA
ATOM     33  O   UNL A   1      45.940  20.019  25.388  1.00  0.00    -0.224 OA
ENDBRANCH  29  30
ENDBRANCH  22  24
ENDBRANCH   6  18
ENDBRANCH   3   6
ENDBRANCH   1   2
BRANCH   1  34
ATOM     34  C   UNL A   1      49.227  25.353  33.445  1.00  0.00     0.042 C 
BRANCH  34  35
ATOM     35  C   UNL A   1      48.454  24.274  34.204  1.00  0.00     0.118 C 
BRANCH  35  36
ATOM     36  N   UNL A   1      48.375  24.558  35.630  1.00  0.00    -0.352 N 
ATOM     37  C   UNL A   1      47.576  25.440  36.311  1.00  0.00     0.251 C 
ATOM     38  H   UNL A   1      48.991  24.037  36.193  1.00  0.00     0.163 HD
ATOM     39  O   UNL A   1      47.829  25.710  37.482  1.00  0.00    -0.269 OA
BRANCH  37  40
ATOM     40  C   UNL A   1      46.416  26.073  35.648  1.00  0.00     0.039 A 
ATOM     41  C   UNL A   1      46.572  27.347  35.092  1.00  0.00     0.014 A 
ATOM     42  C   UNL A   1      45.170  25.443  35.611  1.00  0.00     0.014 A 
ATOM     43  C   UNL A   1      45.494  27.962  34.452  1.00  0.00     0.010 A 
ATOM     44  C   UNL A   1      44.117  26.024  34.907  1.00  0.00     0.010 A 
ATOM     45  C   UNL A   1      44.266  27.291  34.324  1.00  0.00    -0.014 A 
BRANCH  45  46
ATOM     46  C   UNL A   1      43.131  27.901  33.586  1.00  0.00     0.031 A 
ATOM     47  C   UNL A   1      42.910  27.578  32.134  1.00  0.00     0.074 A 
ATOM     48  C   UNL A   1      42.331  28.788  34.210  1.00  0.00     0.049 A 
ATOM     49  N   UNL A   1      42.027  28.068  31.300  1.00  0.00    -0.248 NA
ATOM     50  C   UNL A   1      43.818  26.589  31.529  1.00  0.00     0.031 C 
ATOM     51  C   UNL A   1      42.469  29.214  35.605  1.00  0.00     0.029 A 
ATOM     52  N   UNL A   1      41.252  29.502  33.752  1.00  0.00    -0.354 N 
ATOM     53  C   UNL A   1      42.276  27.454  30.080  1.00  0.00     0.074 A 
ATOM     54  C   UNL A   1      43.429  26.601  30.262  1.00  0.00     0.031 C 
ATOM     55  C   UNL A   1      41.505  30.103  35.891  1.00  0.00     0.029 A 
ATOM     56  C   UNL A   1      40.707  30.343  34.693  1.00  0.00     0.049 A 
ATOM     57  H   UNL A   1      40.903  29.421  32.835  1.00  0.00     0.167 HD
ATOM     58  C   UNL A   1      41.587  27.571  28.919  1.00  0.00     0.037 A 
ATOM     59  C   UNL A   1      39.691  31.221  34.594  1.00  0.00     0.037 A 
ATOM     60  C   UNL A   1      40.430  28.411  28.746  1.00  0.00     0.049 A 
ATOM     61  C   UNL A   1      38.960  31.347  33.283  1.00  0.00     0.074 A 
ATOM     62  C   UNL A   1      39.642  28.573  27.619  1.00  0.00     0.029 A 
ATOM     63  N   UNL A   1      39.896  29.231  29.728  1.00  0.00    -0.354 N 
ATOM     64  N   UNL A   1      39.168  30.717  32.154  1.00  0.00    -0.248 NA
ATOM     65  C   UNL A   1      37.844  32.304  33.237  1.00  0.00     0.031 C 
ATOM     66  C   UNL A   1      38.661  29.526  27.904  1.00  0.00     0.029 A 
ATOM     67  C   UNL A   1      38.800  29.914  29.227  1.00  0.00     0.049 A 
ATOM     68  H   UNL A   1      40.244  29.315  30.645  1.00  0.00     0.167 HD
ATOM     69  C   UNL A   1      38.193  31.172  31.276  1.00  0.00     0.074 A 
ATOM     70  C   UNL A   1      37.381  32.119  32.010  1.00  0.00     0.031 C 
ATOM     71  C   UNL A   1      37.991  30.840  29.978  1.00  0.00     0.037 A 
BRANCH  58  72
ATOM     72  C   UNL A   1      42.052  26.758  27.745  1.00  0.00     0.064 A 
ATOM     73  C   UNL A   1      41.552  25.470  27.501  1.00  0.00     0.173 A 
ATOM     74  C   UNL A   1      42.961  27.294  26.819  1.00  0.00     0.173 A 
ATOM     75  F   UNL A   1      40.689  24.907  28.361  1.00  0.00    -0.203 F 
ATOM     76  C   UNL A   1      41.959  24.741  26.387  1.00  0.00     0.198 A 
ATOM     77  C   UNL A   1      43.342  26.574  25.689  1.00  0.00     0.198 A 
ATOM     78  F   UNL A   1      43.466  28.523  27.000  1.00  0.00    -0.203 F 
ATOM     79  F   UNL A   1      41.498  23.496  26.198  1.00  0.00    -0.200 F 
ATOM     80  C   UNL A   1      42.845  25.296  25.477  1.00  0.00     0.200 A 
ATOM     81  F   UNL A   1      44.186  27.119  24.802  1.00  0.00    -0.200 F 
ATOM     82  F   UNL A   1      43.224  24.599  24.397  1.00  0.00    -0.200 F 
ENDBRANCH  58  72
BRANCH  59  83
ATOM     83  C   UNL A   1      39.299  32.051  35.765  1.00  0.00     0.064 A 
ATOM     84  C   UNL A   1      38.343  31.600  36.687  1.00  0.00     0.173 A 
ATOM     85  C   UNL A   1      39.845  33.328  35.968  1.00  0.00     0.173 A 
ATOM     86  F   UNL A   1      37.778  30.394  36.528  1.00  0.00    -0.203 F 
ATOM     87  C   UNL A   1      37.922  32.406  37.742  1.00  0.00     0.198 A 
ATOM     88  C   UNL A   1      39.449  34.118  37.045  1.00  0.00     0.198 A 
ATOM     89  F   UNL A   1      40.770  33.807  35.122  1.00  0.00    -0.203 F 
ATOM     90  F   UNL A   1      36.960  31.974  38.568  1.00  0.00    -0.200 F 
ATOM     91  C   UNL A   1      38.478  33.664  37.923  1.00  0.00     0.200 A 
ATOM     92  F   UNL A   1      40.003  35.325  37.226  1.00  0.00    -0.200 F 
ATOM     93  F   UNL A   1      38.070  34.440  38.935  1.00  0.00    -0.200 F 
ENDBRANCH  59  83
BRANCH  71  94
ATOM     94  C   UNL A   1      36.817  31.467  29.281  1.00  0.00     0.064 A 
ATOM     95  C   UNL A   1      35.667  30.731  28.960  1.00  0.00     0.173 A 
ATOM     96  C   UNL A   1      36.830  32.835  28.966  1.00  0.00     0.173 A 
ATOM     97  F   UNL A   1      35.609  29.418  29.227  1.00  0.00    -0.203 F 
ATOM     98  C   UNL A   1      34.587  31.334  28.320  1.00  0.00     0.198 A 
ATOM     99  C   UNL A   1      35.735  33.442  28.358  1.00  0.00     0.198 A 
ATOM    100  F   UNL A   1      37.902  33.587  29.258  1.00  0.00    -0.203 F 
ATOM    101  F   UNL A   1      33.522  30.598  27.973  1.00  0.00    -0.200 F 
ATOM    102  C   UNL A   1      34.618  32.689  28.027  1.00  0.00     0.200 A 
ATOM    103  F   UNL A   1      35.760  34.754  28.091  1.00  0.00    -0.200 F 
ATOM    104  F   UNL A   1      33.574  33.268  27.420  1.00  0.00    -0.200 F 
ENDBRANCH  71  94
ENDBRANCH  45  46
ENDBRANCH  37  40
ENDBRANCH  35  36
ENDBRANCH  34  35
ENDBRANCH   1  34
TORSDOF 15
ENDMDL
MODEL 2
REMARK VINA RESULT:      -9.8      4.168      9.346
REMARK SMILES CS(=O)(=O)c1ccc(/C=C(/C(=O)NCCCNC(=O)c2ccc(-c3c4nc(c(-c5c(F)c(F)c(F)c(F)c5F)c5ccc([nH]5)c(-c5c(F)c(F)c(F)c(F)c5F)c5nc(c(-c6c(F)c(F)c(F)c(F)c6F)c6ccc3[nH]6)C=C5)C=C4)cc2)c2cccc(-c3ccc(S(C)(=O)=O)cc3)c2)cc1
REMARK SMILES IDX 14 1 13 2 11 3 12 4 10 6 9 7 8 8 5 9 6 10 100 11 7 12 99 13
REMARK SMILES IDX 2 14 1 15 3 16 4 17 83 18 84 19 98 20 85 21 87 22 86 23
REMARK SMILES IDX 88 24 89 25 97 26 90 27 96 28 91 29 92 30 93 31 94 32 95 33
REMARK SMILES IDX 15 34 16 35 17 36 18 37 19 39 20 40 21 41 82 42 22 43 81 44
REMARK SMILES IDX 23 45 24 46 25 47 75 48 26 49 80 50 74 51 76 52 27 53 79 54
REMARK SMILES IDX 73 55 72 56 28 58 60 59 40 60 59 61 41 62 44 63 58 64 77 65
REMARK SMILES IDX 42 66 43 67 57 69 78 70 45 71 29 72 30 73 38 74 31 75 32 76
REMARK SMILES IDX 36 77 39 78 33 79 34 80 37 81 35 82 61 83 62 84 70 85 63 86
REMARK SMILES IDX 64 87 68 88 71 89 65 90 66 91 69 92 67 93 46 94 47 95 55 96
REMARK SMILES IDX 48 97 49 98 53 99 56 100 50 101 51 102 54 103 52 104
REMARK H PARENT 13 5 17 38 76 57 44 68
REMARK Flexibility Score: inf
ROOT
ATOM      1  C   UNL A   1      44.605  22.471  26.109  1.00  0.00     0.118 C 
ENDROOT
BRANCH   1   2
ATOM      2  N   UNL A   1      44.264  22.506  27.517  1.00  0.00    -0.352 N 
ATOM      3  C   UNL A   1      43.161  22.886  28.213  1.00  0.00     0.251 C 
ATOM      4  O   UNL A   1      43.267  22.847  29.441  1.00  0.00    -0.269 OA
ATOM      5  H   UNL A   1      44.991  22.183  28.097  1.00  0.00     0.163 HD
BRANCH   3   6
ATOM      6  C   UNL A   1      41.846  23.243  27.559  1.00  0.00     0.047 C 
ATOM      7  C   UNL A   1      41.017  22.292  27.063  1.00  0.00     0.022 C 
BRANCH   7   8
ATOM      8  C   UNL A   1      39.646  22.431  26.514  1.00  0.00    -0.025 A 
ATOM      9  C   UNL A   1      37.156  22.955  25.316  1.00  0.00     0.067 A 
ATOM     10  C   UNL A   1      37.789  21.729  25.108  1.00  0.00     0.021 A 
ATOM     11  C   UNL A   1      37.722  23.902  26.169  1.00  0.00     0.021 A 
ATOM     12  C   UNL A   1      39.011  21.459  25.733  1.00  0.00     0.009 A 
ATOM     13  C   UNL A   1      38.962  23.635  26.763  1.00  0.00     0.009 A 
BRANCH   9  14
ATOM     14  S   UNL A   1      35.640  23.288  24.447  1.00  0.00     0.175 S 
ATOM     15  C   UNL A   1      34.590  21.889  24.726  1.00  0.00     0.163 C 
ATOM     16  O   UNL A   1      35.958  23.299  23.032  1.00  0.00    -0.224 OA
ATOM     17  O   UNL A   1      35.040  24.436  25.096  1.00  0.00    -0.224 OA
ENDBRANCH   9  14
ENDBRANCH   7   8
BRANCH   6  18
ATOM     18  C   UNL A   1      41.580  24.690  27.341  1.00  0.00    -0.012 A 
ATOM     19  C   UNL A   1      41.627  25.204  26.035  1.00  0.00     0.009 A 
ATOM     20  C   UNL A   1      41.168  25.535  28.382  1.00  0.00     0.017 A 
ATOM     21  C   UNL A   1      41.250  26.516  25.769  1.00  0.00     0.001 A 
ATOM     22  C   UNL A   1      40.708  26.840  28.120  1.00  0.00    -0.018 A 
ATOM     23  C   UNL A   1      40.779  27.322  26.802  1.00  0.00     0.009 A 
BRANCH  22  24
ATOM     24  C   UNL A   1      40.075  27.636  29.183  1.00  0.00    -0.018 A 
ATOM     25  C   UNL A   1      39.097  27.058  30.017  1.00  0.00     0.010 A 
ATOM     26  C   UNL A   1      40.462  28.963  29.434  1.00  0.00     0.010 A 
ATOM     27  C   UNL A   1      38.521  27.779  31.064  1.00  0.00     0.021 A 
ATOM     28  C   UNL A   1      39.887  29.695  30.477  1.00  0.00     0.021 A 
ATOM     29  C   UNL A   1      38.912  29.100  31.278  1.00  0.00     0.067 A 
BRANCH  29  30
ATOM     30  S   UNL A   1      38.157  30.020  32.595  1.00  0.00     0.175 S 
ATOM     31  C   UNL A   1      38.514  31.707  32.174  1.00  0.00     0.163 C 
ATOM     32  O   UNL A   1      36.727  29.823  32.502  1.00  0.00    -0.224 OA
ATOM     33  O   UNL A   1      38.879  29.717  33.819  1.00  0.00    -0.224 OA
ENDBRANCH  29  30
ENDBRANCH  22  24
ENDBRANCH   6  18
ENDBRANCH   3   6
ENDBRANCH   1   2
BRANCH   1  34
ATOM     34  C   UNL A   1      44.987  23.869  25.623  1.00  0.00     0.042 C 
BRANCH  34  35
ATOM     35  C   UNL A   1      46.448  24.227  25.892  1.00  0.00     0.118 C 
BRANCH  35  36
ATOM     36  N   UNL A   1      46.987  25.127  24.882  1.00  0.00    -0.352 N 
ATOM     37  C   UNL A   1      46.815  26.478  24.721  1.00  0.00     0.251 C 
ATOM     38  H   UNL A   1      47.563  24.699  24.208  1.00  0.00     0.163 HD
ATOM     39  O   UNL A   1      47.151  27.012  23.668  1.00  0.00    -0.269 OA
BRANCH  37  40
ATOM     40  C   UNL A   1      46.222  27.295  25.800  1.00  0.00     0.039 A 
ATOM     41  C   UNL A   1      44.841  27.517  25.797  1.00  0.00     0.014 A 
ATOM     42  C   UNL A   1      47.020  27.882  26.786  1.00  0.00     0.014 A 
ATOM     43  C   UNL A   1      44.257  28.278  26.811  1.00  0.00     0.010 A 
ATOM     44  C   UNL A   1      46.428  28.577  27.838  1.00  0.00     0.010 A 
ATOM     45  C   UNL A   1      45.041  28.787  27.860  1.00  0.00    -0.014 A 
BRANCH  45  46
ATOM     46  C   UNL A   1      44.427  29.539  28.983  1.00  0.00     0.031 A 
ATOM     47  C   UNL A   1      44.228  31.026  28.881  1.00  0.00     0.074 A 
ATOM     48  C   UNL A   1      44.099  28.889  30.118  1.00  0.00     0.049 A 
ATOM     49  N   UNL A   1      43.786  31.867  29.782  1.00  0.00    -0.248 NA
ATOM     50  C   UNL A   1      44.599  31.659  27.605  1.00  0.00     0.031 C 
ATOM     51  C   UNL A   1      44.282  27.455  30.353  1.00  0.00     0.029 A 
ATOM     52  N   UNL A   1      43.556  29.350  31.292  1.00  0.00    -0.354 N 
ATOM     53  C   UNL A   1      43.829  33.120  29.185  1.00  0.00     0.074 A 
ATOM     54  C   UNL A   1      44.398  32.942  27.868  1.00  0.00     0.031 C 
ATOM     55  C   UNL A   1      43.847  27.152  31.585  1.00  0.00     0.029 A 
ATOM     56  C   UNL A   1      43.394  28.373  32.245  1.00  0.00     0.049 A 
ATOM     57  H   UNL A   1      43.307  30.291  31.437  1.00  0.00     0.167 HD
ATOM     58  C   UNL A   1      43.406  34.308  29.682  1.00  0.00     0.037 A 
ATOM     59  C   UNL A   1      42.948  28.456  33.513  1.00  0.00     0.037 A 
ATOM     60  C   UNL A   1      42.827  34.479  30.989  1.00  0.00     0.049 A 
ATOM     61  C   UNL A   1      42.509  29.795  34.045  1.00  0.00     0.074 A 
ATOM     62  C   UNL A   1      42.338  35.635  31.572  1.00  0.00     0.029 A 
ATOM     63  N   UNL A   1      42.661  33.462  31.918  1.00  0.00    -0.354 N 
ATOM     64  N   UNL A   1      42.500  30.962  33.449  1.00  0.00    -0.248 NA
ATOM     65  C   UNL A   1      42.009  29.826  35.428  1.00  0.00     0.031 C 
ATOM     66  C   UNL A   1      41.919  35.328  32.869  1.00  0.00     0.029 A 
ATOM     67  C   UNL A   1      42.092  33.969  33.074  1.00  0.00     0.049 A 
ATOM     68  H   UNL A   1      42.910  32.520  31.775  1.00  0.00     0.167 HD
ATOM     69  C   UNL A   1      41.965  31.857  34.367  1.00  0.00     0.074 A 
ATOM     70  C   UNL A   1      41.643  31.093  35.554  1.00  0.00     0.031 C 
ATOM     71  C   UNL A   1      41.761  33.190  34.241  1.00  0.00     0.037 A 
BRANCH  58  72
ATOM     72  C   UNL A   1      43.537  35.519  28.804  1.00  0.00     0.064 A 
ATOM     73  C   UNL A   1      42.449  36.010  28.066  1.00  0.00     0.173 A 
ATOM     74  C   UNL A   1      44.744  36.234  28.745  1.00  0.00     0.173 A 
ATOM     75  F   UNL A   1      41.276  35.359  28.079  1.00  0.00    -0.203 F 
ATOM     76  C   UNL A   1      42.569  37.158  27.287  1.00  0.00     0.198 A 
ATOM     77  C   UNL A   1      44.851  37.399  27.989  1.00  0.00     0.198 A 
ATOM     78  F   UNL A   1      45.814  35.813  29.435  1.00  0.00    -0.203 F 
ATOM     79  F   UNL A   1      41.527  37.583  26.559  1.00  0.00    -0.200 F 
ATOM     80  C   UNL A   1      43.766  37.857  27.256  1.00  0.00     0.200 A 
ATOM     81  F   UNL A   1      46.004  38.082  27.973  1.00  0.00    -0.200 F 
ATOM     82  F   UNL A   1      43.876  38.969  26.518  1.00  0.00    -0.200 F 
ENDBRANCH  58  72
BRANCH  59  83
ATOM     83  C   UNL A   1      42.890  27.242  34.370  1.00  0.00     0.064 A 
ATOM     84  C   UNL A   1      41.674  26.592  34.625  1.00  0.00     0.173 A 
ATOM     85  C   UNL A   1      44.043  26.726  34.981  1.00  0.00     0.173 A 
ATOM     86  F   UNL A   1      40.540  27.055  34.079  1.00  0.00    -0.203 F 
ATOM     87  C   UNL A   1      41.607  25.498  35.487  1.00  0.00     0.198 A 
ATOM     88  C   UNL A   1      43.980  25.611  35.814  1.00  0.00     0.198 A 
ATOM     89  F   UNL A   1      45.235  27.303  34.765  1.00  0.00    -0.203 F 
ATOM     90  F   UNL A   1      40.422  24.939  35.763  1.00  0.00    -0.200 F 
ATOM     91  C   UNL A   1      42.761  25.006  36.078  1.00  0.00     0.200 A 
ATOM     92  F   UNL A   1      45.101  25.127  36.367  1.00  0.00    -0.200 F 
ATOM     93  F   UNL A   1      42.696  23.958  36.908  1.00  0.00    -0.200 F 
ENDBRANCH  59  83
BRANCH  71  94
ATOM     94  C   UNL A   1      41.119  33.902  35.397  1.00  0.00     0.064 A 
ATOM     95  C   UNL A   1      39.743  33.805  35.653  1.00  0.00     0.173 A 
ATOM     96  C   UNL A   1      41.899  34.660  36.284  1.00  0.00     0.173 A 
ATOM     97  F   UNL A   1      38.950  33.105  34.828  1.00  0.00    -0.203 F 
ATOM     98  C   UNL A   1      39.168  34.467  36.735  1.00  0.00     0.198 A 
ATOM     99  C   UNL A   1      41.327  35.291  37.384  1.00  0.00     0.198 A 
ATOM    100  F   UNL A   1      43.222  34.778  36.090  1.00  0.00    -0.203 F 
ATOM    101  F   UNL A   1      37.843  34.406  36.927  1.00  0.00    -0.200 F 
ATOM    102  C   UNL A   1      39.961  35.202  37.603  1.00  0.00     0.200 A 
ATOM    103  F   UNL A   1      42.097  35.987  38.231  1.00  0.00    -0.200 F 
ATOM    104  F   UNL A   1      39.407  35.831  38.648  1.00  0.00    -0.200 F 
ENDBRANCH  71  94
ENDBRANCH  45  46
ENDBRANCH  37  40
ENDBRANCH  35  36
ENDBRANCH  34  35
ENDBRANCH   1  34
TORSDOF 15
ENDMDL
MODEL 3
REMARK VINA RESULT:      -9.7      4.002      9.380
REMARK SMILES CS(=O)(=O)c1ccc(/C=C(/C(=O)NCCCNC(=O)c2ccc(-c3c4nc(c(-c5c(F)c(F)c(F)c(F)c5F)c5ccc([nH]5)c(-c5c(F)c(F)c(F)c(F)c5F)c5nc(c(-c6c(F)c(F)c(F)c(F)c6F)c6ccc3[nH]6)C=C5)C=C4)cc2)c2cccc(-c3ccc(S(C)(=O)=O)cc3)c2)cc1
REMARK SMILES IDX 14 1 13 2 11 3 12 4 10 6 9 7 8 8 5 9 6 10 100 11 7 12 99 13
REMARK SMILES IDX 2 14 1 15 3 16 4 17 83 18 84 19 98 20 85 21 87 22 86 23
REMARK SMILES IDX 88 24 89 25 97 26 90 27 96 28 91 29 92 30 93 31 94 32 95 33
REMARK SMILES IDX 15 34 16 35 17 36 18 37 19 39 20 40 21 41 82 42 22 43 81 44
REMARK SMILES IDX 23 45 24 46 25 47 75 48 26 49 80 50 74 51 76 52 27 53 79 54
REMARK SMILES IDX 73 55 72 56 28 58 60 59 40 60 59 61 41 62 44 63 58 64 77 65
REMARK SMILES IDX 42 66 43 67 57 69 78 70 45 71 29 72 30 73 38 74 31 75 32 76
REMARK SMILES IDX 36 77 39 78 33 79 34 80 37 81 35 82 61 83 62 84 70 85 63 86
REMARK SMILES IDX 64 87 68 88 71 89 65 90 66 91 69 92 67 93 46 94 47 95 55 96
REMARK SMILES IDX 48 97 49 98 53 99 56 100 50 101 51 102 54 103 52 104
REMARK H PARENT 13 5 17 38 76 57 44 68
REMARK Flexibility Score: inf
ROOT
ATOM      1  C   UNL A   1      45.465  22.620  26.069  1.00  0.00     0.118 C 
ENDROOT
BRANCH   1   2
ATOM      2  N   UNL A   1      45.251  22.887  27.478  1.00  0.00    -0.352 N 
ATOM      3  C   UNL A   1      44.192  23.327  28.206  1.00  0.00     0.251 C 
ATOM      4  O   UNL A   1      44.410  23.512  29.405  1.00  0.00    -0.269 OA
ATOM      5  H   UNL A   1      46.048  22.711  28.028  1.00  0.00     0.163 HD
BRANCH   3   6
ATOM      6  C   UNL A   1      42.801  23.493  27.636  1.00  0.00     0.047 C 
ATOM      7  C   UNL A   1      42.003  22.427  27.386  1.00  0.00     0.022 C 
BRANCH   7   8
ATOM      8  C   UNL A   1      40.583  22.393  26.960  1.00  0.00    -0.025 A 
ATOM      9  C   UNL A   1      37.952  22.596  25.984  1.00  0.00     0.067 A 
ATOM     10  C   UNL A   1      38.706  21.448  25.735  1.00  0.00     0.021 A 
ATOM     11  C   UNL A   1      38.475  23.621  26.772  1.00  0.00     0.021 A 
ATOM     12  C   UNL A   1      40.001  21.337  26.251  1.00  0.00     0.009 A 
ATOM     13  C   UNL A   1      39.785  23.514  27.256  1.00  0.00     0.009 A 
BRANCH   9  14
ATOM     14  S   UNL A   1      36.338  22.731  25.251  1.00  0.00     0.175 S 
ATOM     15  C   UNL A   1      36.583  22.697  23.498  1.00  0.00     0.163 C 
ATOM     16  O   UNL A   1      35.834  24.052  25.580  1.00  0.00    -0.224 OA
ATOM     17  O   UNL A   1      35.616  21.532  25.627  1.00  0.00    -0.224 OA
ENDBRANCH   9  14
ENDBRANCH   7   8
BRANCH   6  18
ATOM     18  C   UNL A   1      42.413  24.866  27.213  1.00  0.00    -0.012 A 
ATOM     19  C   UNL A   1      42.293  25.149  25.843  1.00  0.00     0.009 A 
ATOM     20  C   UNL A   1      42.049  25.853  28.139  1.00  0.00     0.017 A 
ATOM     21  C   UNL A   1      41.799  26.374  25.407  1.00  0.00     0.001 A 
ATOM     22  C   UNL A   1      41.473  27.067  27.718  1.00  0.00    -0.018 A 
ATOM     23  C   UNL A   1      41.377  27.319  26.340  1.00  0.00     0.009 A 
BRANCH  22  24
ATOM     24  C   UNL A   1      40.894  28.000  28.699  1.00  0.00    -0.018 A 
ATOM     25  C   UNL A   1      40.258  27.508  29.856  1.00  0.00     0.010 A 
ATOM     26  C   UNL A   1      41.007  29.391  28.543  1.00  0.00     0.010 A 
ATOM     27  C   UNL A   1      39.748  28.375  30.825  1.00  0.00     0.021 A 
ATOM     28  C   UNL A   1      40.496  30.267  29.504  1.00  0.00     0.021 A 
ATOM     29  C   UNL A   1      39.859  29.752  30.634  1.00  0.00     0.067 A 
BRANCH  29  30
ATOM     30  S   UNL A   1      39.186  30.849  31.856  1.00  0.00     0.175 S 
ATOM     31  C   UNL A   1      37.474  30.967  31.402  1.00  0.00     0.163 C 
ATOM     32  O   UNL A   1      39.270  30.180  33.137  1.00  0.00    -0.224 OA
ATOM     33  O   UNL A   1      39.780  32.159  31.652  1.00  0.00    -0.224 OA
ENDBRANCH  29  30
ENDBRANCH  22  24
ENDBRANCH   6  18
ENDBRANCH   3   6
ENDBRANCH   1   2
BRANCH   1  34
ATOM     34  C   UNL A   1      45.686  23.929  25.312  1.00  0.00     0.042 C 
BRANCH  34  35
ATOM     35  C   UNL A   1      46.991  24.633  25.684  1.00  0.00     0.118 C 
BRANCH  35  36
ATOM     36  N   UNL A   1      47.412  25.583  24.664  1.00  0.00    -0.352 N 
ATOM     37  C   UNL A   1      47.118  26.915  24.522  1.00  0.00     0.251 C 
ATOM     38  H   UNL A   1      47.999  25.212  23.967  1.00  0.00     0.163 HD
ATOM     39  O   UNL A   1      47.368  27.483  23.463  1.00  0.00    -0.269 OA
BRANCH  37  40
ATOM     40  C   UNL A   1      46.496  27.671  25.630  1.00  0.00     0.039 A 
ATOM     41  C   UNL A   1      45.104  27.806  25.655  1.00  0.00     0.014 A 
ATOM     42  C   UNL A   1      47.274  28.285  26.615  1.00  0.00     0.014 A 
ATOM     43  C   UNL A   1      44.492  28.508  26.696  1.00  0.00     0.010 A 
ATOM     44  C   UNL A   1      46.660  28.919  27.692  1.00  0.00     0.010 A 
ATOM     45  C   UNL A   1      45.263  29.042  27.742  1.00  0.00    -0.014 A 
BRANCH  45  46
ATOM     46  C   UNL A   1      44.625  29.730  28.893  1.00  0.00     0.031 A 
ATOM     47  C   UNL A   1      44.376  31.212  28.847  1.00  0.00     0.074 A 
ATOM     48  C   UNL A   1      44.319  29.027  30.001  1.00  0.00     0.049 A 
ATOM     49  N   UNL A   1      43.906  32.004  29.778  1.00  0.00    -0.248 NA
ATOM     50  C   UNL A   1      44.726  31.905  27.595  1.00  0.00     0.031 C 
ATOM     51  C   UNL A   1      44.549  27.592  30.183  1.00  0.00     0.029 A 
ATOM     52  N   UNL A   1      43.761  29.425  31.191  1.00  0.00    -0.354 N 
ATOM     53  C   UNL A   1      43.907  33.279  29.229  1.00  0.00     0.074 A 
ATOM     54  C   UNL A   1      44.482  33.170  27.906  1.00  0.00     0.031 C 
ATOM     55  C   UNL A   1      44.124  27.228  31.402  1.00  0.00     0.029 A 
ATOM     56  C   UNL A   1      43.631  28.407  32.107  1.00  0.00     0.049 A 
ATOM     57  H   UNL A   1      43.481  30.351  31.372  1.00  0.00     0.167 HD
ATOM     58  C   UNL A   1      43.446  34.432  29.770  1.00  0.00     0.037 A 
ATOM     59  C   UNL A   1      43.183  28.428  33.376  1.00  0.00     0.037 A 
ATOM     60  C   UNL A   1      42.862  34.534  31.082  1.00  0.00     0.049 A 
ATOM     61  C   UNL A   1      42.700  29.731  33.959  1.00  0.00     0.074 A 
ATOM     62  C   UNL A   1      42.335  35.651  31.708  1.00  0.00     0.029 A 
ATOM     63  N   UNL A   1      42.729  33.478  31.972  1.00  0.00    -0.354 N 
ATOM     64  N   UNL A   1      42.652  30.918  33.407  1.00  0.00    -0.248 NA
ATOM     65  C   UNL A   1      42.199  29.693  35.341  1.00  0.00     0.031 C 
ATOM     66  C   UNL A   1      41.926  35.281  32.992  1.00  0.00     0.029 A 
ATOM     67  C   UNL A   1      42.144  33.922  33.146  1.00  0.00     0.049 A 
ATOM     68  H   UNL A   1      43.010  32.551  31.793  1.00  0.00     0.167 HD
ATOM     69  C   UNL A   1      42.088  31.759  34.358  1.00  0.00     0.074 A 
ATOM     70  C   UNL A   1      41.792  30.941  35.514  1.00  0.00     0.031 C 
ATOM     71  C   UNL A   1      41.840  33.089  34.282  1.00  0.00     0.037 A 
BRANCH  58  72
ATOM     72  C   UNL A   1      43.536  35.680  28.938  1.00  0.00     0.064 A 
ATOM     73  C   UNL A   1      44.713  36.442  28.887  1.00  0.00     0.173 A 
ATOM     74  C   UNL A   1      42.459  36.084  28.135  1.00  0.00     0.173 A 
ATOM     75  F   UNL A   1      45.770  36.105  29.643  1.00  0.00    -0.203 F 
ATOM     76  C   UNL A   1      44.801  37.574  28.081  1.00  0.00     0.198 A 
ATOM     77  C   UNL A   1      42.561  37.199  27.306  1.00  0.00     0.198 A 
ATOM     78  F   UNL A   1      41.312  35.388  28.141  1.00  0.00    -0.203 F 
ATOM     79  F   UNL A   1      45.921  38.310  28.081  1.00  0.00    -0.200 F 
ATOM     80  C   UNL A   1      43.729  37.946  27.284  1.00  0.00     0.200 A 
ATOM     81  F   UNL A   1      41.529  37.548  26.525  1.00  0.00    -0.200 F 
ATOM     82  F   UNL A   1      43.820  39.027  26.497  1.00  0.00    -0.200 F 
ENDBRANCH  58  72
BRANCH  59  83
ATOM     83  C   UNL A   1      43.166  27.181  34.187  1.00  0.00     0.064 A 
ATOM     84  C   UNL A   1      44.354  26.610  34.665  1.00  0.00     0.173 A 
ATOM     85  C   UNL A   1      41.964  26.515  34.473  1.00  0.00     0.173 A 
ATOM     86  F   UNL A   1      45.531  27.198  34.403  1.00  0.00    -0.203 F 
ATOM     87  C   UNL A   1      44.346  25.403  35.361  1.00  0.00     0.198 A 
ATOM     88  C   UNL A   1      41.954  25.327  35.201  1.00  0.00     0.198 A 
ATOM     89  F   UNL A   1      40.796  27.021  34.049  1.00  0.00    -0.203 F 
ATOM     90  F   UNL A   1      45.502  24.848  35.747  1.00  0.00    -0.200 F 
ATOM     91  C   UNL A   1      43.145  24.765  35.633  1.00  0.00     0.200 A 
ATOM     92  F   UNL A   1      40.790  24.724  35.478  1.00  0.00    -0.200 F 
ATOM     93  F   UNL A   1      43.137  23.603  36.299  1.00  0.00    -0.200 F 
ENDBRANCH  59  83
BRANCH  71  94
ATOM     94  C   UNL A   1      41.174  33.735  35.463  1.00  0.00     0.064 A 
ATOM     95  C   UNL A   1      41.900  34.471  36.411  1.00  0.00     0.173 A 
ATOM     96  C   UNL A   1      39.782  33.647  35.626  1.00  0.00     0.173 A 
ATOM     97  F   UNL A   1      43.234  34.573  36.310  1.00  0.00    -0.203 F 
ATOM     98  C   UNL A   1      41.261  35.067  37.495  1.00  0.00     0.198 A 
ATOM     99  C   UNL A   1      39.144  34.274  36.691  1.00  0.00     0.198 A 
ATOM    100  F   UNL A   1      39.040  32.962  34.743  1.00  0.00    -0.203 F 
ATOM    101  F   UNL A   1      41.983  35.718  38.419  1.00  0.00    -0.200 F 
ATOM    102  C   UNL A   1      39.884  34.976  37.631  1.00  0.00     0.200 A 
ATOM    103  F   UNL A   1      37.811  34.198  36.811  1.00  0.00    -0.200 F 
ATOM    104  F   UNL A   1      39.272  35.558  38.669  1.00  0.00    -0.200 F 
ENDBRANCH  71  94
ENDBRANCH  45  46
ENDBRANCH  37  40
ENDBRANCH  35  36
ENDBRANCH  34  35
ENDBRANCH   1  34
TORSDOF 15
ENDMDL
