MODEL 1
REMARK VINA RESULT:     -12.3      0.000      0.000
REMARK SMILES CC(C)(C)OC(=O)N1C[C@H](Cc2ccccc2)[C@H](C(=O)NCCCNC(=O)c2ccc(-c3c4nc(c(-c5c(F)c(F)c(F)c(F)c5F)c5ccc([nH]5)c(-c5c(F)c(F)c(F)c(F)c5F)c5nc(c(-c6c(F)c(F)c(F)c(F)c6F)c6ccc3[nH]6)C=C5)C=C4)cc2)C1
REMARK SMILES IDX 22 1 21 2 19 3 20 4 18 6 8 7 9 8 91 9 10 10 6 11 7 12 5 13
REMARK SMILES IDX 2 14 1 15 3 16 4 17 11 18 12 19 13 20 17 21 14 22 16 23
REMARK SMILES IDX 15 24 23 25 24 26 25 27 26 28 27 30 28 31 29 32 90 33 30 34
REMARK SMILES IDX 89 35 31 36 32 37 33 38 83 39 34 40 88 41 82 42 84 43 35 44
REMARK SMILES IDX 87 45 81 46 80 47 36 49 68 50 48 51 67 52 49 53 52 54 66 55
REMARK SMILES IDX 85 56 50 57 51 58 65 60 86 61 53 62 37 63 38 64 46 65 39 66
REMARK SMILES IDX 40 67 44 68 47 69 41 70 42 71 45 72 43 73 69 74 70 75 78 76
REMARK SMILES IDX 71 77 72 78 76 79 79 80 73 81 74 82 77 83 75 84 54 85 55 86
REMARK SMILES IDX 63 87 56 88 57 89 61 90 64 91 58 92 59 93 62 94 60 95
REMARK H PARENT 21 5 25 29 84 48 52 59
REMARK Flexibility Score: inf
ROOT
ATOM      1  C   UNL A   1      31.138  30.444  25.709  1.00  0.00     0.117 C 
ENDROOT
BRANCH   1   2
ATOM      2  N   UNL A   1      32.266  30.084  24.854  1.00  0.00    -0.356 N 
ATOM      3  C   UNL A   1      32.842  28.912  24.481  1.00  0.00     0.225 C 
ATOM      4  O   UNL A   1      33.829  29.014  23.743  1.00  0.00    -0.275 OA
ATOM      5  H   UNL A   1      32.710  30.869  24.459  1.00  0.00     0.163 HD
BRANCH   3   6
ATOM      6  C   UNL A   1      32.396  27.517  24.920  1.00  0.00     0.103 C 
ATOM      7  N   UNL A   1      32.925  25.389  24.092  1.00  0.00    -0.307 N 
ATOM      8  C   UNL A   1      31.480  25.401  24.179  1.00  0.00     0.128 C 
ATOM      9  C   UNL A   1      33.499  26.460  24.871  1.00  0.00     0.137 C 
ATOM     10  C   UNL A   1      31.132  26.890  24.251  1.00  0.00     0.027 C 
BRANCH   7  11
ATOM     11  C   UNL A   1      33.703  24.534  23.353  1.00  0.00     0.410 C 
ATOM     12  O   UNL A   1      34.106  24.805  22.236  1.00  0.00    -0.224 OA
BRANCH  11  13
ATOM     13  O   UNL A   1      33.868  23.347  23.987  1.00  0.00    -0.444 OA
BRANCH  13  14
ATOM     14  C   UNL A   1      35.175  22.863  24.392  1.00  0.00     0.106 C 
ATOM     15  C   UNL A   1      34.954  21.382  24.736  1.00  0.00     0.056 C 
ATOM     16  C   UNL A   1      35.593  23.626  25.649  1.00  0.00     0.056 C 
ATOM     17  C   UNL A   1      36.255  22.936  23.304  1.00  0.00     0.056 C 
ENDBRANCH  13  14
ENDBRANCH  11  13
ENDBRANCH   7  11
BRANCH  10  18
ATOM     18  C   UNL A   1      30.835  27.438  22.859  1.00  0.00     0.041 C 
BRANCH  18  19
ATOM     19  C   UNL A   1      29.691  28.402  22.684  1.00  0.00    -0.048 A 
ATOM     20  C   UNL A   1      29.940  29.668  22.129  1.00  0.00     0.004 A 
ATOM     21  C   UNL A   1      28.411  28.110  23.161  1.00  0.00     0.004 A 
ATOM     22  C   UNL A   1      28.935  30.631  22.067  1.00  0.00     0.000 A 
ATOM     23  C   UNL A   1      27.405  29.076  23.101  1.00  0.00     0.000 A 
ATOM     24  C   UNL A   1      27.668  30.336  22.560  1.00  0.00     0.000 A 
ENDBRANCH  18  19
ENDBRANCH  10  18
ENDBRANCH   3   6
ENDBRANCH   1   2
BRANCH   1  25
ATOM     25  C   UNL A   1      31.202  31.902  26.185  1.00  0.00     0.042 C 
BRANCH  25  26
ATOM     26  C   UNL A   1      32.438  32.264  26.993  1.00  0.00     0.118 C 
BRANCH  26  27
ATOM     27  N   UNL A   1      32.432  33.654  27.408  1.00  0.00    -0.352 N 
ATOM     28  C   UNL A   1      33.189  34.308  28.349  1.00  0.00     0.251 C 
ATOM     29  H   UNL A   1      31.779  34.221  26.937  1.00  0.00     0.163 HD
ATOM     30  O   UNL A   1      32.849  35.437  28.701  1.00  0.00    -0.269 OA
BRANCH  28  31
ATOM     31  C   UNL A   1      34.392  33.691  28.964  1.00  0.00     0.039 A 
ATOM     32  C   UNL A   1      34.209  32.634  29.865  1.00  0.00     0.014 A 
ATOM     33  C   UNL A   1      35.683  34.176  28.740  1.00  0.00     0.014 A 
ATOM     34  C   UNL A   1      35.308  32.047  30.499  1.00  0.00     0.010 A 
ATOM     35  C   UNL A   1      36.788  33.532  29.303  1.00  0.00     0.010 A 
ATOM     36  C   UNL A   1      36.614  32.472  30.205  1.00  0.00    -0.014 A 
BRANCH  36  37
ATOM     37  C   UNL A   1      37.792  31.830  30.848  1.00  0.00     0.031 A 
ATOM     38  C   UNL A   1      38.218  32.229  32.237  1.00  0.00     0.074 A 
ATOM     39  C   UNL A   1      38.506  30.912  30.169  1.00  0.00     0.049 A 
ATOM     40  N   UNL A   1      39.231  31.800  32.949  1.00  0.00    -0.248 NA
ATOM     41  C   UNL A   1      37.414  33.263  32.906  1.00  0.00     0.031 C 
ATOM     42  C   UNL A   1      38.234  30.473  28.800  1.00  0.00     0.029 A 
ATOM     43  N   UNL A   1      39.613  30.185  30.536  1.00  0.00    -0.354 N 
ATOM     44  C   UNL A   1      39.195  32.521  34.136  1.00  0.00     0.074 A 
ATOM     45  C   UNL A   1      38.092  33.452  34.029  1.00  0.00     0.031 C 
ATOM     46  C   UNL A   1      39.128  29.535  28.453  1.00  0.00     0.029 A 
ATOM     47  C   UNL A   1      40.059  29.329  29.558  1.00  0.00     0.049 A 
ATOM     48  H   UNL A   1      40.046  30.269  31.416  1.00  0.00     0.167 HD
ATOM     49  C   UNL A   1      39.990  32.402  35.227  1.00  0.00     0.037 A 
ATOM     50  C   UNL A   1      41.101  28.476  29.550  1.00  0.00     0.037 A 
ATOM     51  C   UNL A   1      41.069  31.455  35.347  1.00  0.00     0.049 A 
ATOM     52  C   UNL A   1      41.966  28.359  30.776  1.00  0.00     0.074 A 
ATOM     53  C   UNL A   1      41.888  31.212  36.435  1.00  0.00     0.029 A 
ATOM     54  N   UNL A   1      41.481  30.597  34.338  1.00  0.00    -0.354 N 
ATOM     55  N   UNL A   1      41.874  28.993  31.919  1.00  0.00    -0.248 NA
ATOM     56  C   UNL A   1      43.078  27.398  30.711  1.00  0.00     0.031 C 
ATOM     57  C   UNL A   1      42.824  30.239  36.072  1.00  0.00     0.029 A 
ATOM     58  C   UNL A   1      42.558  29.839  34.772  1.00  0.00     0.049 A 
ATOM     59  H   UNL A   1      41.070  30.534  33.446  1.00  0.00     0.167 HD
ATOM     60  C   UNL A   1      42.896  28.497  32.715  1.00  0.00     0.074 A 
ATOM     61  C   UNL A   1      43.585  27.492  31.932  1.00  0.00     0.031 C 
ATOM     62  C   UNL A   1      43.235  28.843  33.982  1.00  0.00     0.037 A 
BRANCH  49  63
ATOM     63  C   UNL A   1      39.723  33.319  36.387  1.00  0.00     0.064 A 
ATOM     64  C   UNL A   1      40.362  34.563  36.505  1.00  0.00     0.173 A 
ATOM     65  C   UNL A   1      38.790  32.967  37.374  1.00  0.00     0.173 A 
ATOM     66  F   UNL A   1      41.270  34.945  35.594  1.00  0.00    -0.203 F 
ATOM     67  C   UNL A   1      40.100  35.405  37.583  1.00  0.00     0.198 A 
ATOM     68  C   UNL A   1      38.508  33.825  38.434  1.00  0.00     0.198 A 
ATOM     69  F   UNL A   1      38.144  31.793  37.306  1.00  0.00    -0.203 F 
ATOM     70  F   UNL A   1      40.760  36.566  37.700  1.00  0.00    -0.200 F 
ATOM     71  C   UNL A   1      39.169  35.039  38.542  1.00  0.00     0.200 A 
ATOM     72  F   UNL A   1      37.596  33.476  39.353  1.00  0.00    -0.200 F 
ATOM     73  F   UNL A   1      38.912  35.853  39.576  1.00  0.00    -0.200 F 
ENDBRANCH  49  63
BRANCH  50  74
ATOM     74  C   UNL A   1      41.366  27.643  28.348  1.00  0.00     0.064 A 
ATOM     75  C   UNL A   1      42.258  28.074  27.356  1.00  0.00     0.173 A 
ATOM     76  C   UNL A   1      40.739  26.401  28.169  1.00  0.00     0.173 A 
ATOM     77  F   UNL A   1      42.865  29.264  27.474  1.00  0.00    -0.203 F 
ATOM     78  C   UNL A   1      42.500  27.303  26.222  1.00  0.00     0.198 A 
ATOM     79  C   UNL A   1      41.005  25.617  27.048  1.00  0.00     0.198 A 
ATOM     80  F   UNL A   1      39.882  25.942  29.091  1.00  0.00    -0.203 F 
ATOM     81  F   UNL A   1      43.325  27.757  25.269  1.00  0.00    -0.200 F 
ATOM     82  C   UNL A   1      41.879  26.072  26.071  1.00  0.00     0.200 A 
ATOM     83  F   UNL A   1      40.414  24.422  26.914  1.00  0.00    -0.200 F 
ATOM     84  F   UNL A   1      42.118  25.327  24.984  1.00  0.00    -0.200 F 
ENDBRANCH  50  74
BRANCH  62  85
ATOM     85  C   UNL A   1      44.388  28.113  34.609  1.00  0.00     0.064 A 
ATOM     86  C   UNL A   1      45.698  28.610  34.538  1.00  0.00     0.173 A 
ATOM     87  C   UNL A   1      44.174  26.920  35.315  1.00  0.00     0.173 A 
ATOM     88  F   UNL A   1      45.956  29.739  33.861  1.00  0.00    -0.203 F 
ATOM     89  C   UNL A   1      46.756  27.923  35.129  1.00  0.00     0.198 A 
ATOM     90  C   UNL A   1      45.230  26.252  35.930  1.00  0.00     0.198 A 
ATOM     91  F   UNL A   1      42.939  26.405  35.417  1.00  0.00    -0.203 F 
ATOM     92  F   UNL A   1      48.006  28.391  35.007  1.00  0.00    -0.200 F 
ATOM     93  C   UNL A   1      46.520  26.750  35.829  1.00  0.00     0.200 A 
ATOM     94  F   UNL A   1      44.998  25.125  36.617  1.00  0.00    -0.200 F 
ATOM     95  F   UNL A   1      47.538  26.094  36.402  1.00  0.00    -0.200 F 
ENDBRANCH  62  85
ENDBRANCH  36  37
ENDBRANCH  28  31
ENDBRANCH  26  27
ENDBRANCH  25  26
ENDBRANCH   1  25
TORSDOF 15
ENDMDL
MODEL 2
REMARK VINA RESULT:     -12.2      5.182      9.676
REMARK SMILES CC(C)(C)OC(=O)N1C[C@H](Cc2ccccc2)[C@H](C(=O)NCCCNC(=O)c2ccc(-c3c4nc(c(-c5c(F)c(F)c(F)c(F)c5F)c5ccc([nH]5)c(-c5c(F)c(F)c(F)c(F)c5F)c5nc(c(-c6c(F)c(F)c(F)c(F)c6F)c6ccc3[nH]6)C=C5)C=C4)cc2)C1
REMARK SMILES IDX 22 1 21 2 19 3 20 4 18 6 8 7 9 8 91 9 10 10 6 11 7 12 5 13
REMARK SMILES IDX 2 14 1 15 3 16 4 17 11 18 12 19 13 20 17 21 14 22 16 23
REMARK SMILES IDX 15 24 23 25 24 26 25 27 26 28 27 30 28 31 29 32 90 33 30 34
REMARK SMILES IDX 89 35 31 36 32 37 33 38 83 39 34 40 88 41 82 42 84 43 35 44
REMARK SMILES IDX 87 45 81 46 80 47 36 49 68 50 48 51 67 52 49 53 52 54 66 55
REMARK SMILES IDX 85 56 50 57 51 58 65 60 86 61 53 62 37 63 38 64 46 65 39 66
REMARK SMILES IDX 40 67 44 68 47 69 41 70 42 71 45 72 43 73 69 74 70 75 78 76
REMARK SMILES IDX 71 77 72 78 76 79 79 80 73 81 74 82 77 83 75 84 54 85 55 86
REMARK SMILES IDX 63 87 56 88 57 89 61 90 64 91 58 92 59 93 62 94 60 95
REMARK H PARENT 21 5 25 29 84 48 52 59
REMARK Flexibility Score: inf
ROOT
ATOM      1  C   UNL A   1      36.647  20.229  24.624  1.00  0.00     0.117 C 
ENDROOT
BRANCH   1   2
ATOM      2  N   UNL A   1      35.892  20.691  25.785  1.00  0.00    -0.356 N 
ATOM      3  C   UNL A   1      34.817  21.504  25.960  1.00  0.00     0.225 C 
ATOM      4  O   UNL A   1      34.471  21.683  27.135  1.00  0.00    -0.275 OA
ATOM      5  H   UNL A   1      36.240  20.332  26.634  1.00  0.00     0.163 HD
BRANCH   3   6
ATOM      6  C   UNL A   1      34.047  22.220  24.851  1.00  0.00     0.103 C 
ATOM      7  N   UNL A   1      32.083  23.497  24.904  1.00  0.00    -0.307 N 
ATOM      8  C   UNL A   1      31.874  22.545  23.834  1.00  0.00     0.128 C 
ATOM      9  C   UNL A   1      33.480  23.580  25.256  1.00  0.00     0.137 C 
ATOM     10  C   UNL A   1      32.905  21.449  24.114  1.00  0.00     0.027 C 
BRANCH   7  11
ATOM     11  C   UNL A   1      31.126  24.222  25.566  1.00  0.00     0.410 C 
ATOM     12  O   UNL A   1      31.051  24.266  26.781  1.00  0.00    -0.224 OA
BRANCH  11  13
ATOM     13  O   UNL A   1      30.246  24.783  24.701  1.00  0.00    -0.444 OA
BRANCH  13  14
ATOM     14  C   UNL A   1      30.407  26.136  24.202  1.00  0.00     0.106 C 
ATOM     15  C   UNL A   1      28.977  26.623  23.924  1.00  0.00     0.056 C 
ATOM     16  C   UNL A   1      31.191  26.068  22.892  1.00  0.00     0.056 C 
ATOM     17  C   UNL A   1      31.051  27.115  25.193  1.00  0.00     0.056 C 
ENDBRANCH  13  14
ENDBRANCH  11  13
ENDBRANCH   7  11
BRANCH  10  18
ATOM     18  C   UNL A   1      32.286  20.328  24.941  1.00  0.00     0.041 C 
BRANCH  18  19
ATOM     19  C   UNL A   1      32.673  18.903  24.644  1.00  0.00    -0.048 A 
ATOM     20  C   UNL A   1      32.808  17.993  25.705  1.00  0.00     0.004 A 
ATOM     21  C   UNL A   1      33.008  18.493  23.351  1.00  0.00     0.004 A 
ATOM     22  C   UNL A   1      33.286  16.704  25.484  1.00  0.00     0.000 A 
ATOM     23  C   UNL A   1      33.489  17.200  23.130  1.00  0.00     0.000 A 
ATOM     24  C   UNL A   1      33.633  16.309  24.195  1.00  0.00     0.000 A 
ENDBRANCH  18  19
ENDBRANCH  10  18
ENDBRANCH   3   6
ENDBRANCH   1   2
BRANCH   1  25
ATOM     25  C   UNL A   1      37.811  19.305  25.008  1.00  0.00     0.042 C 
BRANCH  25  26
ATOM     26  C   UNL A   1      38.968  19.986  25.723  1.00  0.00     0.118 C 
BRANCH  26  27
ATOM     27  N   UNL A   1      40.102  19.099  25.895  1.00  0.00    -0.352 N 
ATOM     28  C   UNL A   1      41.431  19.380  26.102  1.00  0.00     0.251 C 
ATOM     29  H   UNL A   1      39.884  18.140  25.859  1.00  0.00     0.163 HD
ATOM     30  O   UNL A   1      42.252  18.472  25.982  1.00  0.00    -0.269 OA
BRANCH  28  31
ATOM     31  C   UNL A   1      41.907  20.744  26.447  1.00  0.00     0.039 A 
ATOM     32  C   UNL A   1      42.106  21.660  25.407  1.00  0.00     0.014 A 
ATOM     33  C   UNL A   1      42.238  21.116  27.752  1.00  0.00     0.014 A 
ATOM     34  C   UNL A   1      42.591  22.944  25.678  1.00  0.00     0.010 A 
ATOM     35  C   UNL A   1      42.635  22.425  28.035  1.00  0.00     0.010 A 
ATOM     36  C   UNL A   1      42.836  23.350  27.000  1.00  0.00    -0.014 A 
BRANCH  36  37
ATOM     37  C   UNL A   1      43.318  24.725  27.302  1.00  0.00     0.031 A 
ATOM     38  C   UNL A   1      42.386  25.752  27.890  1.00  0.00     0.074 A 
ATOM     39  C   UNL A   1      44.590  25.065  27.013  1.00  0.00     0.049 A 
ATOM     40  N   UNL A   1      42.619  27.005  28.196  1.00  0.00    -0.248 NA
ATOM     41  C   UNL A   1      41.003  25.323  28.147  1.00  0.00     0.031 C 
ATOM     42  C   UNL A   1      45.580  24.184  26.396  1.00  0.00     0.029 A 
ATOM     43  N   UNL A   1      45.266  26.247  27.196  1.00  0.00    -0.354 N 
ATOM     44  C   UNL A   1      41.413  27.513  28.662  1.00  0.00     0.074 A 
ATOM     45  C   UNL A   1      40.437  26.451  28.551  1.00  0.00     0.031 C 
ATOM     46  C   UNL A   1      46.743  24.843  26.276  1.00  0.00     0.029 A 
ATOM     47  C   UNL A   1      46.572  26.205  26.776  1.00  0.00     0.049 A 
ATOM     48  H   UNL A   1      44.853  27.049  27.590  1.00  0.00     0.167 HD
ATOM     49  C   UNL A   1      41.147  28.745  29.161  1.00  0.00     0.037 A 
ATOM     50  C   UNL A   1      47.527  27.155  26.788  1.00  0.00     0.037 A 
ATOM     51  C   UNL A   1      42.124  29.794  29.300  1.00  0.00     0.049 A 
ATOM     52  C   UNL A   1      47.208  28.512  27.352  1.00  0.00     0.074 A 
ATOM     53  C   UNL A   1      41.968  31.051  29.857  1.00  0.00     0.029 A 
ATOM     54  N   UNL A   1      43.441  29.707  28.874  1.00  0.00    -0.354 N 
ATOM     55  N   UNL A   1      46.084  28.955  27.859  1.00  0.00    -0.248 NA
ATOM     56  C   UNL A   1      48.297  29.501  27.353  1.00  0.00     0.031 C 
ATOM     57  C   UNL A   1      43.177  31.742  29.727  1.00  0.00     0.029 A 
ATOM     58  C   UNL A   1      44.102  30.898  29.134  1.00  0.00     0.049 A 
ATOM     59  H   UNL A   1      43.847  28.917  28.450  1.00  0.00     0.167 HD
ATOM     60  C   UNL A   1      46.333  30.261  28.258  1.00  0.00     0.074 A 
ATOM     61  C   UNL A   1      47.722  30.533  27.953  1.00  0.00     0.031 C 
ATOM     62  C   UNL A   1      45.485  31.155  28.825  1.00  0.00     0.037 A 
BRANCH  49  63
ATOM     63  C   UNL A   1      39.739  29.028  29.600  1.00  0.00     0.064 A 
ATOM     64  C   UNL A   1      38.768  29.500  28.704  1.00  0.00     0.173 A 
ATOM     65  C   UNL A   1      39.343  28.792  30.926  1.00  0.00     0.173 A 
ATOM     66  F   UNL A   1      39.094  29.752  27.427  1.00  0.00    -0.203 F 
ATOM     67  C   UNL A   1      37.465  29.754  29.124  1.00  0.00     0.198 A 
ATOM     68  C   UNL A   1      38.031  29.017  31.336  1.00  0.00     0.198 A 
ATOM     69  F   UNL A   1      40.229  28.333  31.824  1.00  0.00    -0.203 F 
ATOM     70  F   UNL A   1      36.568  30.252  28.260  1.00  0.00    -0.200 F 
ATOM     71  C   UNL A   1      37.096  29.506  30.436  1.00  0.00     0.200 A 
ATOM     72  F   UNL A   1      37.673  28.762  32.602  1.00  0.00    -0.200 F 
ATOM     73  F   UNL A   1      35.839  29.743  30.838  1.00  0.00    -0.200 F 
ENDBRANCH  49  63
BRANCH  50  74
ATOM     74  C   UNL A   1      48.887  26.844  26.273  1.00  0.00     0.064 A 
ATOM     75  C   UNL A   1      49.861  26.281  27.110  1.00  0.00     0.173 A 
ATOM     76  C   UNL A   1      49.238  27.099  24.940  1.00  0.00     0.173 A 
ATOM     77  F   UNL A   1      49.578  26.039  28.398  1.00  0.00    -0.203 F 
ATOM     78  C   UNL A   1      51.140  25.999  26.636  1.00  0.00     0.198 A 
ATOM     79  C   UNL A   1      50.509  26.790  24.460  1.00  0.00     0.198 A 
ATOM     80  F   UNL A   1      48.341  27.633  24.099  1.00  0.00    -0.203 F 
ATOM     81  F   UNL A   1      52.065  25.499  27.467  1.00  0.00    -0.200 F 
ATOM     82  C   UNL A   1      51.462  26.248  25.310  1.00  0.00     0.200 A 
ATOM     83  F   UNL A   1      50.811  27.017  23.175  1.00  0.00    -0.200 F 
ATOM     84  F   UNL A   1      52.690  25.969  24.853  1.00  0.00    -0.200 F 
ENDBRANCH  50  74
BRANCH  62  85
ATOM     85  C   UNL A   1      46.044  32.505  29.175  1.00  0.00     0.064 A 
ATOM     86  C   UNL A   1      46.635  32.755  30.422  1.00  0.00     0.173 A 
ATOM     87  C   UNL A   1      46.014  33.550  28.239  1.00  0.00     0.173 A 
ATOM     88  F   UNL A   1      46.674  31.793  31.356  1.00  0.00    -0.203 F 
ATOM     89  C   UNL A   1      47.152  34.011  30.728  1.00  0.00     0.198 A 
ATOM     90  C   UNL A   1      46.560  34.796  28.538  1.00  0.00     0.198 A 
ATOM     91  F   UNL A   1      45.465  33.361  27.030  1.00  0.00    -0.203 F 
ATOM     92  F   UNL A   1      47.669  34.242  31.943  1.00  0.00    -0.200 F 
ATOM     93  C   UNL A   1      47.120  35.027  29.785  1.00  0.00     0.200 A 
ATOM     94  F   UNL A   1      46.539  35.772  27.621  1.00  0.00    -0.200 F 
ATOM     95  F   UNL A   1      47.624  36.233  30.080  1.00  0.00    -0.200 F 
ENDBRANCH  62  85
ENDBRANCH  36  37
ENDBRANCH  28  31
ENDBRANCH  26  27
ENDBRANCH  25  26
ENDBRANCH   1  25
TORSDOF 15
ENDMDL
MODEL 3
REMARK VINA RESULT:     -12.2      0.771      1.560
REMARK SMILES CC(C)(C)OC(=O)N1C[C@H](Cc2ccccc2)[C@H](C(=O)NCCCNC(=O)c2ccc(-c3c4nc(c(-c5c(F)c(F)c(F)c(F)c5F)c5ccc([nH]5)c(-c5c(F)c(F)c(F)c(F)c5F)c5nc(c(-c6c(F)c(F)c(F)c(F)c6F)c6ccc3[nH]6)C=C5)C=C4)cc2)C1
REMARK SMILES IDX 22 1 21 2 19 3 20 4 18 6 8 7 9 8 91 9 10 10 6 11 7 12 5 13
REMARK SMILES IDX 2 14 1 15 3 16 4 17 11 18 12 19 13 20 17 21 14 22 16 23
REMARK SMILES IDX 15 24 23 25 24 26 25 27 26 28 27 30 28 31 29 32 90 33 30 34
REMARK SMILES IDX 89 35 31 36 32 37 33 38 83 39 34 40 88 41 82 42 84 43 35 44
REMARK SMILES IDX 87 45 81 46 80 47 36 49 68 50 48 51 67 52 49 53 52 54 66 55
REMARK SMILES IDX 85 56 50 57 51 58 65 60 86 61 53 62 37 63 38 64 46 65 39 66
REMARK SMILES IDX 40 67 44 68 47 69 41 70 42 71 45 72 43 73 69 74 70 75 78 76
REMARK SMILES IDX 71 77 72 78 76 79 79 80 73 81 74 82 77 83 75 84 54 85 55 86
REMARK SMILES IDX 63 87 56 88 57 89 61 90 64 91 58 92 59 93 62 94 60 95
REMARK H PARENT 21 5 25 29 84 48 52 59
REMARK Flexibility Score: inf
ROOT
ATOM      1  C   UNL A   1      30.912  30.970  25.416  1.00  0.00     0.117 C 
ENDROOT
BRANCH   1   2
ATOM      2  N   UNL A   1      32.138  30.238  25.105  1.00  0.00    -0.356 N 
ATOM      3  C   UNL A   1      32.568  28.967  25.319  1.00  0.00     0.225 C 
ATOM      4  O   UNL A   1      33.713  28.718  24.922  1.00  0.00    -0.275 OA
ATOM      5  H   UNL A   1      32.802  30.791  24.633  1.00  0.00     0.163 HD
BRANCH   3   6
ATOM      6  C   UNL A   1      31.781  27.863  26.024  1.00  0.00     0.103 C 
ATOM      7  N   UNL A   1      32.001  25.530  25.976  1.00  0.00    -0.307 N 
ATOM      8  C   UNL A   1      30.596  25.772  25.730  1.00  0.00     0.128 C 
ATOM      9  C   UNL A   1      32.638  26.702  26.527  1.00  0.00     0.137 C 
ATOM     10  C   UNL A   1      30.549  27.238  25.294  1.00  0.00     0.027 C 
BRANCH   7  11
ATOM     11  C   UNL A   1      32.704  24.384  25.706  1.00  0.00     0.410 C 
ATOM     12  O   UNL A   1      32.780  23.454  26.490  1.00  0.00    -0.224 OA
BRANCH  11  13
ATOM     13  O   UNL A   1      33.359  24.475  24.523  1.00  0.00    -0.444 OA
BRANCH  13  14
ATOM     14  C   UNL A   1      32.871  23.830  23.318  1.00  0.00     0.106 C 
ATOM     15  C   UNL A   1      33.841  22.662  23.080  1.00  0.00     0.056 C 
ATOM     16  C   UNL A   1      32.980  24.831  22.168  1.00  0.00     0.056 C 
ATOM     17  C   UNL A   1      31.455  23.249  23.426  1.00  0.00     0.056 C 
ENDBRANCH  13  14
ENDBRANCH  11  13
ENDBRANCH   7  11
BRANCH  10  18
ATOM     18  C   UNL A   1      30.612  27.349  23.775  1.00  0.00     0.041 C 
BRANCH  18  19
ATOM     19  C   UNL A   1      29.679  28.301  23.073  1.00  0.00    -0.048 A 
ATOM     20  C   UNL A   1      30.215  29.299  22.243  1.00  0.00     0.004 A 
ATOM     21  C   UNL A   1      28.303  28.285  23.317  1.00  0.00     0.004 A 
ATOM     22  C   UNL A   1      29.396  30.274  21.679  1.00  0.00     0.000 A 
ATOM     23  C   UNL A   1      27.483  29.265  22.752  1.00  0.00     0.000 A 
ATOM     24  C   UNL A   1      28.028  30.261  21.940  1.00  0.00     0.000 A 
ENDBRANCH  18  19
ENDBRANCH  10  18
ENDBRANCH   3   6
ENDBRANCH   1   2
BRANCH   1  25
ATOM     25  C   UNL A   1      31.066  31.878  26.643  1.00  0.00     0.042 C 
BRANCH  25  26
ATOM     26  C   UNL A   1      32.462  32.438  26.862  1.00  0.00     0.118 C 
BRANCH  26  27
ATOM     27  N   UNL A   1      32.433  33.803  27.351  1.00  0.00    -0.352 N 
ATOM     28  C   UNL A   1      33.158  34.410  28.349  1.00  0.00     0.251 C 
ATOM     29  H   UNL A   1      31.790  34.391  26.892  1.00  0.00     0.163 HD
ATOM     30  O   UNL A   1      32.799  35.516  28.751  1.00  0.00    -0.269 OA
BRANCH  28  31
ATOM     31  C   UNL A   1      34.346  33.767  28.966  1.00  0.00     0.039 A 
ATOM     32  C   UNL A   1      34.139  32.703  29.852  1.00  0.00     0.014 A 
ATOM     33  C   UNL A   1      35.646  34.235  28.758  1.00  0.00     0.014 A 
ATOM     34  C   UNL A   1      35.225  32.091  30.488  1.00  0.00     0.010 A 
ATOM     35  C   UNL A   1      36.736  33.568  29.322  1.00  0.00     0.010 A 
ATOM     36  C   UNL A   1      36.539  32.500  30.209  1.00  0.00    -0.014 A 
BRANCH  36  37
ATOM     37  C   UNL A   1      37.702  31.833  30.854  1.00  0.00     0.031 A 
ATOM     38  C   UNL A   1      38.137  32.224  32.242  1.00  0.00     0.074 A 
ATOM     39  C   UNL A   1      38.396  30.897  30.176  1.00  0.00     0.049 A 
ATOM     40  N   UNL A   1      39.139  31.773  32.955  1.00  0.00    -0.248 NA
ATOM     41  C   UNL A   1      37.356  33.277  32.910  1.00  0.00     0.031 C 
ATOM     42  C   UNL A   1      38.114  30.463  28.808  1.00  0.00     0.029 A 
ATOM     43  N   UNL A   1      39.486  30.146  30.545  1.00  0.00    -0.354 N 
ATOM     44  C   UNL A   1      39.119  32.497  34.141  1.00  0.00     0.074 A 
ATOM     45  C   UNL A   1      38.038  33.452  34.033  1.00  0.00     0.031 C 
ATOM     46  C   UNL A   1      38.987  29.504  28.462  1.00  0.00     0.029 A 
ATOM     47  C   UNL A   1      39.913  29.280  29.568  1.00  0.00     0.049 A 
ATOM     48  H   UNL A   1      39.921  30.222  31.425  1.00  0.00     0.167 HD
ATOM     49  C   UNL A   1      39.911  32.362  35.232  1.00  0.00     0.037 A 
ATOM     50  C   UNL A   1      40.936  28.403  29.562  1.00  0.00     0.037 A 
ATOM     51  C   UNL A   1      40.968  31.391  35.354  1.00  0.00     0.049 A 
ATOM     52  C   UNL A   1      41.798  28.269  30.788  1.00  0.00     0.074 A 
ATOM     53  C   UNL A   1      41.781  31.130  36.443  1.00  0.00     0.029 A 
ATOM     54  N   UNL A   1      41.361  30.522  34.347  1.00  0.00    -0.354 N 
ATOM     55  N   UNL A   1      41.719  28.906  31.930  1.00  0.00    -0.248 NA
ATOM     56  C   UNL A   1      42.887  27.283  30.725  1.00  0.00     0.031 C 
ATOM     57  C   UNL A   1      42.696  30.136  36.082  1.00  0.00     0.029 A 
ATOM     58  C   UNL A   1      42.421  29.741  34.782  1.00  0.00     0.049 A 
ATOM     59  H   UNL A   1      40.949  30.467  33.455  1.00  0.00     0.167 HD
ATOM     60  C   UNL A   1      42.730  28.388  32.728  1.00  0.00     0.074 A 
ATOM     61  C   UNL A   1      43.396  27.367  31.946  1.00  0.00     0.031 C 
ATOM     62  C   UNL A   1      43.076  28.728  33.994  1.00  0.00     0.037 A 
BRANCH  49  63
ATOM     63  C   UNL A   1      39.664  33.285  36.391  1.00  0.00     0.064 A 
ATOM     64  C   UNL A   1      40.294  34.536  36.483  1.00  0.00     0.173 A 
ATOM     65  C   UNL A   1      38.759  32.934  37.404  1.00  0.00     0.173 A 
ATOM     66  F   UNL A   1      41.176  34.918  35.547  1.00  0.00    -0.203 F 
ATOM     67  C   UNL A   1      40.052  35.385  37.560  1.00  0.00     0.198 A 
ATOM     68  C   UNL A   1      38.495  33.798  38.463  1.00  0.00     0.198 A 
ATOM     69  F   UNL A   1      38.122  31.754  37.361  1.00  0.00    -0.203 F 
ATOM     70  F   UNL A   1      40.704  36.552  37.652  1.00  0.00    -0.200 F 
ATOM     71  C   UNL A   1      39.148  35.019  38.545  1.00  0.00     0.200 A 
ATOM     72  F   UNL A   1      37.609  33.449  39.407  1.00  0.00    -0.200 F 
ATOM     73  F   UNL A   1      38.909  35.839  39.578  1.00  0.00    -0.200 F 
ENDBRANCH  49  63
BRANCH  50  74
ATOM     74  C   UNL A   1      41.183  27.563  28.361  1.00  0.00     0.064 A 
ATOM     75  C   UNL A   1      42.071  27.981  27.361  1.00  0.00     0.173 A 
ATOM     76  C   UNL A   1      40.541  26.327  28.192  1.00  0.00     0.173 A 
ATOM     77  F   UNL A   1      42.691  29.164  27.468  1.00  0.00    -0.203 F 
ATOM     78  C   UNL A   1      42.296  27.203  26.228  1.00  0.00     0.198 A 
ATOM     79  C   UNL A   1      40.789  25.536  27.072  1.00  0.00     0.198 A 
ATOM     80  F   UNL A   1      39.686  25.880  29.123  1.00  0.00    -0.203 F 
ATOM     81  F   UNL A   1      43.118  27.644  25.266  1.00  0.00    -0.200 F 
ATOM     82  C   UNL A   1      41.660  25.978  26.087  1.00  0.00     0.200 A 
ATOM     83  F   UNL A   1      40.185  24.347  26.948  1.00  0.00    -0.200 F 
ATOM     84  F   UNL A   1      41.883  25.226  25.000  1.00  0.00    -0.200 F 
ENDBRANCH  50  74
BRANCH  62  85
ATOM     85  C   UNL A   1      44.212  27.974  34.622  1.00  0.00     0.064 A 
ATOM     86  C   UNL A   1      44.003  26.769  35.310  1.00  0.00     0.173 A 
ATOM     87  C   UNL A   1      45.527  28.447  34.508  1.00  0.00     0.173 A 
ATOM     88  F   UNL A   1      42.762  26.284  35.461  1.00  0.00    -0.203 F 
ATOM     89  C   UNL A   1      45.069  26.080  35.883  1.00  0.00     0.198 A 
ATOM     90  C   UNL A   1      46.594  27.738  35.056  1.00  0.00     0.198 A 
ATOM     91  F   UNL A   1      45.782  29.591  33.855  1.00  0.00    -0.203 F 
ATOM     92  F   UNL A   1      44.840  24.956  36.578  1.00  0.00    -0.200 F 
ATOM     93  C   UNL A   1      46.362  26.561  35.750  1.00  0.00     0.200 A 
ATOM     94  F   UNL A   1      47.845  28.198  34.915  1.00  0.00    -0.200 F 
ATOM     95  F   UNL A   1      47.387  25.892  36.297  1.00  0.00    -0.200 F 
ENDBRANCH  62  85
ENDBRANCH  36  37
ENDBRANCH  28  31
ENDBRANCH  26  27
ENDBRANCH  25  26
ENDBRANCH   1  25
TORSDOF 15
ENDMDL
