MODEL 1
REMARK VINA RESULT:     -11.3      0.000      0.000
REMARK SMILES C[C@]([NH2+]Cc1noc(C2CC2)n1)(C(=O)NCCCNC(=O)c1ccc(-c2c3nc(c(-c4c(F)c(F)c(F)c(F)c4F)c4ccc([nH]4)c(-c4c(F)c(F)c(F)c(F)c4F)c4nc(c(-c5c(F)c(F)c(F)c(F)c5F)c5ccc2[nH]5)C=C4)C=C3)cc1)C(F)(F)F
REMARK SMILES IDX 16 1 15 2 13 3 14 4 2 6 1 7 85 8 86 9 87 10 88 11 3 12 4 15
REMARK SMILES IDX 5 16 6 17 12 18 7 19 8 20 9 21 10 22 11 23 17 24 18 25 19 26
REMARK SMILES IDX 20 27 21 29 22 30 23 31 84 32 24 33 83 34 25 35 26 36 27 37
REMARK SMILES IDX 77 38 28 39 82 40 76 41 78 42 29 43 81 44 75 45 74 46 30 48
REMARK SMILES IDX 62 49 42 50 61 51 43 52 46 53 60 54 79 55 44 56 45 57 59 59
REMARK SMILES IDX 80 60 47 61 31 62 32 63 40 64 33 65 34 66 38 67 41 68 35 69
REMARK SMILES IDX 36 70 39 71 37 72 63 73 64 74 72 75 65 76 66 77 70 78 73 79
REMARK SMILES IDX 67 80 68 81 71 82 69 83 48 84 49 85 57 86 50 87 51 88 55 89
REMARK SMILES IDX 58 90 52 91 53 92 56 93 54 94
REMARK H PARENT 15 5 3 13 3 14 19 28 78 47 46 58
REMARK Flexibility Score: inf
ROOT
ATOM      1  C   UNL A   1      31.245  30.310  25.822  1.00  0.00     0.118 C 
ENDROOT
BRANCH   1   2
ATOM      2  N   UNL A   1      32.145  30.079  24.699  1.00  0.00    -0.350 N 
ATOM      3  C   UNL A   1      32.836  29.014  24.202  1.00  0.00     0.290 C 
ATOM      4  O   UNL A   1      33.623  29.326  23.300  1.00  0.00    -0.267 OA
ATOM      5  H   UNL A   1      32.289  30.895  24.166  1.00  0.00     0.163 HD
BRANCH   3   6
ATOM      6  C   UNL A   1      32.757  27.555  24.738  1.00  0.00     0.268 C 
ATOM      7  C   UNL A   1      33.493  26.529  23.862  1.00  0.00     0.101 C 
BRANCH   6   8
ATOM      8  C   UNL A   1      33.556  27.615  26.087  1.00  0.00     0.453 C 
ATOM      9  F   UNL A   1      32.749  27.772  27.163  1.00  0.00    -0.164 F 
ATOM     10  F   UNL A   1      34.235  26.455  26.301  1.00  0.00    -0.164 F 
ATOM     11  F   UNL A   1      34.479  28.604  26.092  1.00  0.00    -0.164 F 
ENDBRANCH   6   8
BRANCH   6  12
ATOM     12  N   UNL A   1      31.335  27.104  24.990  1.00  0.00    -0.320 N 
ATOM     13  H   UNL A   1      30.831  27.878  25.423  1.00  0.00     0.347 HD
ATOM     14  H   UNL A   1      31.400  26.278  25.586  1.00  0.00     0.347 HD
BRANCH  12  15
ATOM     15  C   UNL A   1      30.599  26.692  23.800  1.00  0.00     0.344 C 
BRANCH  15  16
ATOM     16  C   UNL A   1      29.442  27.570  23.452  1.00  0.00     0.226 A 
ATOM     17  N   UNL A   1      28.187  27.124  23.620  1.00  0.00    -0.056 NA
ATOM     18  N   UNL A   1      29.538  28.844  22.954  1.00  0.00    -0.190 NA
ATOM     19  O   UNL A   1      27.409  28.213  23.241  1.00  0.00    -0.339 OA
ATOM     20  C   UNL A   1      28.274  29.204  22.870  1.00  0.00     0.229 A 
BRANCH  20  21
ATOM     21  C   UNL A   1      27.794  30.577  22.436  1.00  0.00     0.079 C 
ATOM     22  C   UNL A   1      27.503  31.603  23.512  1.00  0.00     0.014 C 
ATOM     23  C   UNL A   1      28.699  31.772  22.639  1.00  0.00     0.014 C 
ENDBRANCH  20  21
ENDBRANCH  15  16
ENDBRANCH  12  15
ENDBRANCH   6  12
ENDBRANCH   3   6
ENDBRANCH   1   2
BRANCH   1  24
ATOM     24  C   UNL A   1      31.244  31.778  26.258  1.00  0.00     0.042 C 
BRANCH  24  25
ATOM     25  C   UNL A   1      32.554  32.247  26.878  1.00  0.00     0.118 C 
BRANCH  25  26
ATOM     26  N   UNL A   1      32.471  33.620  27.345  1.00  0.00    -0.352 N 
ATOM     27  C   UNL A   1      33.143  34.249  28.362  1.00  0.00     0.251 C 
ATOM     28  H   UNL A   1      31.832  34.187  26.856  1.00  0.00     0.163 HD
ATOM     29  O   UNL A   1      32.744  35.349  28.747  1.00  0.00    -0.269 OA
BRANCH  27  30
ATOM     30  C   UNL A   1      34.327  33.637  29.013  1.00  0.00     0.039 A 
ATOM     31  C   UNL A   1      35.595  34.137  28.694  1.00  0.00     0.014 A 
ATOM     32  C   UNL A   1      34.221  32.537  29.871  1.00  0.00     0.014 A 
ATOM     33  C   UNL A   1      36.739  33.564  29.258  1.00  0.00     0.010 A 
ATOM     34  C   UNL A   1      35.356  32.022  30.500  1.00  0.00     0.010 A 
ATOM     35  C   UNL A   1      36.630  32.515  30.186  1.00  0.00    -0.014 A 
BRANCH  35  36
ATOM     36  C   UNL A   1      37.845  31.922  30.807  1.00  0.00     0.031 A 
ATOM     37  C   UNL A   1      38.288  32.346  32.182  1.00  0.00     0.074 A 
ATOM     38  C   UNL A   1      38.568  31.015  30.122  1.00  0.00     0.049 A 
ATOM     39  N   UNL A   1      39.311  31.929  32.889  1.00  0.00    -0.248 NA
ATOM     40  C   UNL A   1      37.497  33.394  32.843  1.00  0.00     0.031 C 
ATOM     41  C   UNL A   1      38.285  30.568  28.758  1.00  0.00     0.029 A 
ATOM     42  N   UNL A   1      39.688  30.307  30.479  1.00  0.00    -0.354 N 
ATOM     43  C   UNL A   1      39.291  32.672  34.063  1.00  0.00     0.074 A 
ATOM     44  C   UNL A   1      38.189  33.603  33.952  1.00  0.00     0.031 C 
ATOM     45  C   UNL A   1      39.183  29.633  28.406  1.00  0.00     0.029 A 
ATOM     46  C   UNL A   1      40.120  29.435  29.508  1.00  0.00     0.049 A 
ATOM     47  H   UNL A   1      40.139  30.413  31.347  1.00  0.00     0.167 HD
ATOM     48  C   UNL A   1      40.099  32.570  35.146  1.00  0.00     0.037 A 
ATOM     49  C   UNL A   1      41.148  28.567  29.511  1.00  0.00     0.037 A 
ATOM     50  C   UNL A   1      41.175  31.622  35.270  1.00  0.00     0.049 A 
ATOM     51  C   UNL A   1      42.006  28.445  30.740  1.00  0.00     0.074 A 
ATOM     52  C   UNL A   1      42.013  31.400  36.350  1.00  0.00     0.029 A 
ATOM     53  N   UNL A   1      41.561  30.733  34.278  1.00  0.00    -0.354 N 
ATOM     54  N   UNL A   1      41.929  29.100  31.872  1.00  0.00    -0.248 NA
ATOM     55  C   UNL A   1      43.084  27.447  30.697  1.00  0.00     0.031 C 
ATOM     56  C   UNL A   1      42.929  30.402  35.997  1.00  0.00     0.029 A 
ATOM     57  C   UNL A   1      42.632  29.969  34.715  1.00  0.00     0.049 A 
ATOM     58  H   UNL A   1      41.136  30.655  33.393  1.00  0.00     0.167 HD
ATOM     59  C   UNL A   1      42.928  28.580  32.683  1.00  0.00     0.074 A 
ATOM     60  C   UNL A   1      43.585  27.539  31.920  1.00  0.00     0.031 C 
ATOM     61  C   UNL A   1      43.273  28.934  33.946  1.00  0.00     0.037 A 
BRANCH  48  62
ATOM     62  C   UNL A   1      39.841  33.505  36.294  1.00  0.00     0.064 A 
ATOM     63  C   UNL A   1      40.472  34.755  36.379  1.00  0.00     0.173 A 
ATOM     64  C   UNL A   1      38.928  33.162  37.302  1.00  0.00     0.173 A 
ATOM     65  F   UNL A   1      41.363  35.126  35.448  1.00  0.00    -0.203 F 
ATOM     66  C   UNL A   1      40.221  35.614  37.446  1.00  0.00     0.198 A 
ATOM     67  C   UNL A   1      38.655  34.037  38.351  1.00  0.00     0.198 A 
ATOM     68  F   UNL A   1      38.290  31.982  37.266  1.00  0.00    -0.203 F 
ATOM     69  F   UNL A   1      40.874  36.782  37.532  1.00  0.00    -0.200 F 
ATOM     70  C   UNL A   1      39.308  35.258  38.427  1.00  0.00     0.200 A 
ATOM     71  F   UNL A   1      37.763  33.697  39.292  1.00  0.00    -0.200 F 
ATOM     72  F   UNL A   1      39.062  36.089  39.449  1.00  0.00    -0.200 F 
ENDBRANCH  48  62
BRANCH  49  73
ATOM     73  C   UNL A   1      41.393  27.706  28.324  1.00  0.00     0.064 A 
ATOM     74  C   UNL A   1      42.289  28.103  27.321  1.00  0.00     0.173 A 
ATOM     75  C   UNL A   1      40.742  26.475  28.168  1.00  0.00     0.173 A 
ATOM     76  F   UNL A   1      42.921  29.283  27.418  1.00  0.00    -0.203 F 
ATOM     77  C   UNL A   1      42.509  27.310  26.197  1.00  0.00     0.198 A 
ATOM     78  C   UNL A   1      40.982  25.670  27.056  1.00  0.00     0.198 A 
ATOM     79  F   UNL A   1      39.879  26.048  29.101  1.00  0.00    -0.203 F 
ATOM     80  F   UNL A   1      43.336  27.735  25.233  1.00  0.00    -0.200 F 
ATOM     81  C   UNL A   1      41.860  26.092  26.068  1.00  0.00     0.200 A 
ATOM     82  F   UNL A   1      40.364  24.487  26.940  1.00  0.00    -0.200 F 
ATOM     83  F   UNL A   1      42.075  25.328  24.989  1.00  0.00    -0.200 F 
ENDBRANCH  49  73
BRANCH  61  84
ATOM     84  C   UNL A   1      44.390  28.166  34.589  1.00  0.00     0.064 A 
ATOM     85  C   UNL A   1      44.154  26.982  35.303  1.00  0.00     0.173 A 
ATOM     86  C   UNL A   1      45.715  28.613  34.477  1.00  0.00     0.173 A 
ATOM     87  F   UNL A   1      42.903  26.521  35.452  1.00  0.00    -0.203 F 
ATOM     88  C   UNL A   1      45.201  26.294  35.912  1.00  0.00     0.198 A 
ATOM     89  C   UNL A   1      46.762  27.906  35.061  1.00  0.00     0.198 A 
ATOM     90  F   UNL A   1      45.995  29.736  33.797  1.00  0.00    -0.203 F 
ATOM     91  F   UNL A   1      44.945  25.196  36.638  1.00  0.00    -0.200 F 
ATOM     92  C   UNL A   1      46.503  26.754  35.787  1.00  0.00     0.200 A 
ATOM     93  F   UNL A   1      48.022  28.345  34.930  1.00  0.00    -0.200 F 
ATOM     94  F   UNL A   1      47.508  26.091  36.376  1.00  0.00    -0.200 F 
ENDBRANCH  61  84
ENDBRANCH  35  36
ENDBRANCH  27  30
ENDBRANCH  25  26
ENDBRANCH  24  25
ENDBRANCH   1  24
TORSDOF 15
ENDMDL
MODEL 2
REMARK VINA RESULT:     -11.2      5.958     11.094
REMARK SMILES C[C@]([NH2+]Cc1noc(C2CC2)n1)(C(=O)NCCCNC(=O)c1ccc(-c2c3nc(c(-c4c(F)c(F)c(F)c(F)c4F)c4ccc([nH]4)c(-c4c(F)c(F)c(F)c(F)c4F)c4nc(c(-c5c(F)c(F)c(F)c(F)c5F)c5ccc2[nH]5)C=C4)C=C3)cc1)C(F)(F)F
REMARK SMILES IDX 16 1 15 2 13 3 14 4 2 6 1 7 85 8 86 9 87 10 88 11 3 12 4 15
REMARK SMILES IDX 5 16 6 17 12 18 7 19 8 20 9 21 10 22 11 23 17 24 18 25 19 26
REMARK SMILES IDX 20 27 21 29 22 30 23 31 84 32 24 33 83 34 25 35 26 36 27 37
REMARK SMILES IDX 77 38 28 39 82 40 76 41 78 42 29 43 81 44 75 45 74 46 30 48
REMARK SMILES IDX 62 49 42 50 61 51 43 52 46 53 60 54 79 55 44 56 45 57 59 59
REMARK SMILES IDX 80 60 47 61 31 62 32 63 40 64 33 65 34 66 38 67 41 68 35 69
REMARK SMILES IDX 36 70 39 71 37 72 63 73 64 74 72 75 65 76 66 77 70 78 73 79
REMARK SMILES IDX 67 80 68 81 71 82 69 83 48 84 49 85 57 86 50 87 51 88 55 89
REMARK SMILES IDX 58 90 52 91 53 92 56 93 54 94
REMARK H PARENT 15 5 3 13 3 14 19 28 78 47 46 58
REMARK Flexibility Score: inf
ROOT
ATOM      1  C   UNL A   1      36.192  20.399  24.682  1.00  0.00     0.118 C 
ENDROOT
BRANCH   1   2
ATOM      2  N   UNL A   1      35.457  20.725  25.899  1.00  0.00    -0.350 N 
ATOM      3  C   UNL A   1      34.700  21.772  26.334  1.00  0.00     0.290 C 
ATOM      4  O   UNL A   1      34.399  21.688  27.530  1.00  0.00    -0.267 OA
ATOM      5  H   UNL A   1      35.525  20.011  26.574  1.00  0.00     0.163 HD
BRANCH   3   6
ATOM      6  C   UNL A   1      34.307  23.017  25.487  1.00  0.00     0.268 C 
ATOM      7  C   UNL A   1      33.301  23.950  26.180  1.00  0.00     0.101 C 
BRANCH   6   8
ATOM      8  C   UNL A   1      35.644  23.832  25.386  1.00  0.00     0.453 C 
ATOM      9  F   UNL A   1      36.540  23.481  26.338  1.00  0.00    -0.164 F 
ATOM     10  F   UNL A   1      36.262  23.605  24.195  1.00  0.00    -0.164 F 
ATOM     11  F   UNL A   1      35.436  25.167  25.461  1.00  0.00    -0.164 F 
ENDBRANCH   6   8
BRANCH   6  12
ATOM     12  N   UNL A   1      33.813  22.648  24.106  1.00  0.00    -0.320 N 
ATOM     13  H   UNL A   1      34.473  21.984  23.701  1.00  0.00     0.347 HD
ATOM     14  H   UNL A   1      33.746  23.523  23.584  1.00  0.00     0.347 HD
BRANCH  12  15
ATOM     15  C   UNL A   1      32.484  22.047  24.066  1.00  0.00     0.344 C 
BRANCH  15  16
ATOM     16  C   UNL A   1      32.460  20.624  23.615  1.00  0.00     0.226 A 
ATOM     17  N   UNL A   1      31.975  20.312  22.403  1.00  0.00    -0.056 NA
ATOM     18  N   UNL A   1      32.906  19.554  24.348  1.00  0.00    -0.190 NA
ATOM     19  O   UNL A   1      32.159  18.935  22.330  1.00  0.00    -0.339 OA
ATOM     20  C   UNL A   1      32.728  18.552  23.512  1.00  0.00     0.229 A 
BRANCH  20  21
ATOM     21  C   UNL A   1      33.128  17.114  23.790  1.00  0.00     0.079 C 
ATOM     22  C   UNL A   1      34.381  16.581  23.122  1.00  0.00     0.014 C 
ATOM     23  C   UNL A   1      34.382  16.841  24.590  1.00  0.00     0.014 C 
ENDBRANCH  20  21
ENDBRANCH  15  16
ENDBRANCH  12  15
ENDBRANCH   6  12
ENDBRANCH   3   6
ENDBRANCH   1   2
BRANCH   1  24
ATOM     24  C   UNL A   1      37.395  19.495  24.968  1.00  0.00     0.042 C 
BRANCH  24  25
ATOM     25  C   UNL A   1      38.638  20.240  25.439  1.00  0.00     0.118 C 
BRANCH  25  26
ATOM     26  N   UNL A   1      39.721  19.330  25.768  1.00  0.00    -0.352 N 
ATOM     27  C   UNL A   1      41.019  19.594  26.125  1.00  0.00     0.251 C 
ATOM     28  H   UNL A   1      39.488  18.374  25.727  1.00  0.00     0.163 HD
ATOM     29  O   UNL A   1      41.836  18.672  26.122  1.00  0.00    -0.269 OA
BRANCH  27  30
ATOM     30  C   UNL A   1      41.463  20.958  26.503  1.00  0.00     0.039 A 
ATOM     31  C   UNL A   1      41.835  21.843  25.485  1.00  0.00     0.014 A 
ATOM     32  C   UNL A   1      41.589  21.358  27.837  1.00  0.00     0.014 A 
ATOM     33  C   UNL A   1      42.294  23.126  25.800  1.00  0.00     0.010 A 
ATOM     34  C   UNL A   1      41.964  22.666  28.148  1.00  0.00     0.010 A 
ATOM     35  C   UNL A   1      42.341  23.559  27.136  1.00  0.00    -0.014 A 
BRANCH  35  36
ATOM     36  C   UNL A   1      42.803  24.933  27.472  1.00  0.00     0.031 A 
ATOM     37  C   UNL A   1      44.216  25.361  27.176  1.00  0.00     0.074 A 
ATOM     38  C   UNL A   1      41.956  25.794  28.068  1.00  0.00     0.049 A 
ATOM     39  N   UNL A   1      44.792  26.520  27.385  1.00  0.00    -0.248 NA
ATOM     40  C   UNL A   1      45.110  24.349  26.593  1.00  0.00     0.031 C 
ATOM     41  C   UNL A   1      40.582  25.484  28.468  1.00  0.00     0.029 A 
ATOM     42  N   UNL A   1      42.123  27.104  28.441  1.00  0.00    -0.354 N 
ATOM     43  C   UNL A   1      46.111  26.369  26.974  1.00  0.00     0.074 A 
ATOM     44  C   UNL A   1      46.266  24.993  26.556  1.00  0.00     0.031 C 
ATOM     45  C   UNL A   1      40.019  26.583  28.995  1.00  0.00     0.029 A 
ATOM     46  C   UNL A   1      40.999  27.666  28.996  1.00  0.00     0.049 A 
ATOM     47  H   UNL A   1      42.968  27.594  28.323  1.00  0.00     0.167 HD
ATOM     48  C   UNL A   1      47.097  27.298  26.924  1.00  0.00     0.037 A 
ATOM     49  C   UNL A   1      40.779  28.916  29.444  1.00  0.00     0.037 A 
ATOM     50  C   UNL A   1      46.934  28.675  27.309  1.00  0.00     0.049 A 
ATOM     51  C   UNL A   1      41.876  29.939  29.341  1.00  0.00     0.074 A 
ATOM     52  C   UNL A   1      47.854  29.708  27.240  1.00  0.00     0.029 A 
ATOM     53  N   UNL A   1      45.770  29.215  27.836  1.00  0.00    -0.354 N 
ATOM     54  N   UNL A   1      43.096  29.802  28.880  1.00  0.00    -0.248 NA
ATOM     55  C   UNL A   1      41.559  31.297  29.805  1.00  0.00     0.031 C 
ATOM     56  C   UNL A   1      47.258  30.863  27.759  1.00  0.00     0.029 A 
ATOM     57  C   UNL A   1      45.951  30.562  28.108  1.00  0.00     0.049 A 
ATOM     58  H   UNL A   1      44.937  28.714  27.994  1.00  0.00     0.167 HD
ATOM     59  C   UNL A   1      43.683  31.056  28.975  1.00  0.00     0.074 A 
ATOM     60  C   UNL A   1      42.678  31.947  29.518  1.00  0.00     0.031 C 
ATOM     61  C   UNL A   1      44.942  31.437  28.644  1.00  0.00     0.037 A 
BRANCH  48  62
ATOM     62  C   UNL A   1      48.442  26.856  26.421  1.00  0.00     0.064 A 
ATOM     63  C   UNL A   1      49.382  26.253  27.270  1.00  0.00     0.173 A 
ATOM     64  C   UNL A   1      48.782  27.005  25.068  1.00  0.00     0.173 A 
ATOM     65  F   UNL A   1      49.111  26.098  28.575  1.00  0.00    -0.203 F 
ATOM     66  C   UNL A   1      50.623  25.843  26.790  1.00  0.00     0.198 A 
ATOM     67  C   UNL A   1      50.013  26.566  24.585  1.00  0.00     0.198 A 
ATOM     68  F   UNL A   1      47.918  27.568  24.210  1.00  0.00    -0.203 F 
ATOM     69  F   UNL A   1      51.524  25.315  27.632  1.00  0.00    -0.200 F 
ATOM     70  C   UNL A   1      50.935  25.993  25.448  1.00  0.00     0.200 A 
ATOM     71  F   UNL A   1      50.308  26.700  23.284  1.00  0.00    -0.200 F 
ATOM     72  F   UNL A   1      52.128  25.592  24.986  1.00  0.00    -0.200 F 
ENDBRANCH  48  62
BRANCH  49  73
ATOM     73  C   UNL A   1      39.445  29.284  29.986  1.00  0.00     0.064 A 
ATOM     74  C   UNL A   1      39.138  29.080  31.339  1.00  0.00     0.173 A 
ATOM     75  C   UNL A   1      38.453  29.844  29.169  1.00  0.00     0.173 A 
ATOM     76  F   UNL A   1      40.049  28.529  32.155  1.00  0.00    -0.203 F 
ATOM     77  C   UNL A   1      37.884  29.406  31.850  1.00  0.00     0.198 A 
ATOM     78  C   UNL A   1      37.207  30.194  29.686  1.00  0.00     0.198 A 
ATOM     79  F   UNL A   1      38.699  30.063  27.869  1.00  0.00    -0.203 F 
ATOM     80  F   UNL A   1      37.602  29.159  33.136  1.00  0.00    -0.200 F 
ATOM     81  C   UNL A   1      36.921  29.967  31.024  1.00  0.00     0.200 A 
ATOM     82  F   UNL A   1      36.284  30.749  28.889  1.00  0.00    -0.200 F 
ATOM     83  F   UNL A   1      35.716  30.283  31.516  1.00  0.00    -0.200 F 
ENDBRANCH  49  73
BRANCH  61  84
ATOM     84  C   UNL A   1      45.288  32.885  28.832  1.00  0.00     0.064 A 
ATOM     85  C   UNL A   1      45.871  33.353  30.019  1.00  0.00     0.173 A 
ATOM     86  C   UNL A   1      45.047  33.811  27.807  1.00  0.00     0.173 A 
ATOM     87  F   UNL A   1      46.108  32.510  31.035  1.00  0.00    -0.203 F 
ATOM     88  C   UNL A   1      46.166  34.705  30.185  1.00  0.00     0.198 A 
ATOM     89  C   UNL A   1      45.372  35.155  27.965  1.00  0.00     0.198 A 
ATOM     90  F   UNL A   1      44.499  33.411  26.649  1.00  0.00    -0.203 F 
ATOM     91  F   UNL A   1      46.670  35.140  31.348  1.00  0.00    -0.200 F 
ATOM     92  C   UNL A   1      45.920  35.603  29.157  1.00  0.00     0.200 A 
ATOM     93  F   UNL A   1      45.144  36.021  26.967  1.00  0.00    -0.200 F 
ATOM     94  F   UNL A   1      46.203  36.903  29.320  1.00  0.00    -0.200 F 
ENDBRANCH  61  84
ENDBRANCH  35  36
ENDBRANCH  27  30
ENDBRANCH  25  26
ENDBRANCH  24  25
ENDBRANCH   1  24
TORSDOF 15
ENDMDL
MODEL 3
REMARK VINA RESULT:     -11.2      6.062     11.230
REMARK SMILES C[C@]([NH2+]Cc1noc(C2CC2)n1)(C(=O)NCCCNC(=O)c1ccc(-c2c3nc(c(-c4c(F)c(F)c(F)c(F)c4F)c4ccc([nH]4)c(-c4c(F)c(F)c(F)c(F)c4F)c4nc(c(-c5c(F)c(F)c(F)c(F)c5F)c5ccc2[nH]5)C=C4)C=C3)cc1)C(F)(F)F
REMARK SMILES IDX 16 1 15 2 13 3 14 4 2 6 1 7 85 8 86 9 87 10 88 11 3 12 4 15
REMARK SMILES IDX 5 16 6 17 12 18 7 19 8 20 9 21 10 22 11 23 17 24 18 25 19 26
REMARK SMILES IDX 20 27 21 29 22 30 23 31 84 32 24 33 83 34 25 35 26 36 27 37
REMARK SMILES IDX 77 38 28 39 82 40 76 41 78 42 29 43 81 44 75 45 74 46 30 48
REMARK SMILES IDX 62 49 42 50 61 51 43 52 46 53 60 54 79 55 44 56 45 57 59 59
REMARK SMILES IDX 80 60 47 61 31 62 32 63 40 64 33 65 34 66 38 67 41 68 35 69
REMARK SMILES IDX 36 70 39 71 37 72 63 73 64 74 72 75 65 76 66 77 70 78 73 79
REMARK SMILES IDX 67 80 68 81 71 82 69 83 48 84 49 85 57 86 50 87 51 88 55 89
REMARK SMILES IDX 58 90 52 91 53 92 56 93 54 94
REMARK H PARENT 15 5 3 13 3 14 19 28 78 47 46 58
REMARK Flexibility Score: inf
ROOT
ATOM      1  C   UNL A   1      36.651  20.436  24.631  1.00  0.00     0.118 C 
ENDROOT
BRANCH   1   2
ATOM      2  N   UNL A   1      35.868  20.820  25.799  1.00  0.00    -0.350 N 
ATOM      3  C   UNL A   1      34.911  21.752  26.071  1.00  0.00     0.290 C 
ATOM      4  O   UNL A   1      34.636  21.826  27.275  1.00  0.00    -0.267 OA
ATOM      5  H   UNL A   1      36.083  20.269  26.586  1.00  0.00     0.163 HD
BRANCH   3   6
ATOM      6  C   UNL A   1      34.266  22.716  25.034  1.00  0.00     0.268 C 
ATOM      7  C   UNL A   1      33.030  23.463  25.561  1.00  0.00     0.101 C 
BRANCH   6   8
ATOM      8  C   UNL A   1      35.366  23.815  24.818  1.00  0.00     0.453 C 
ATOM      9  F   UNL A   1      35.985  23.703  23.619  1.00  0.00    -0.164 F 
ATOM     10  F   UNL A   1      34.819  25.060  24.838  1.00  0.00    -0.164 F 
ATOM     11  F   UNL A   1      36.306  23.794  25.792  1.00  0.00    -0.164 F 
ENDBRANCH   6   8
BRANCH   6  12
ATOM     12  N   UNL A   1      33.946  22.032  23.724  1.00  0.00    -0.320 N 
ATOM     13  H   UNL A   1      34.687  21.359  23.529  1.00  0.00     0.347 HD
ATOM     14  H   UNL A   1      33.876  22.772  23.025  1.00  0.00     0.347 HD
BRANCH  12  15
ATOM     15  C   UNL A   1      32.671  21.322  23.694  1.00  0.00     0.344 C 
BRANCH  15  16
ATOM     16  C   UNL A   1      32.720  19.936  24.249  1.00  0.00     0.226 A 
ATOM     17  N   UNL A   1      32.152  19.668  25.435  1.00  0.00    -0.056 NA
ATOM     18  N   UNL A   1      33.314  18.861  23.639  1.00  0.00    -0.190 NA
ATOM     19  O   UNL A   1      32.359  18.301  25.585  1.00  0.00    -0.339 OA
ATOM     20  C   UNL A   1      33.042  17.883  24.478  1.00  0.00     0.229 A 
BRANCH  20  21
ATOM     21  C   UNL A   1      33.411  16.427  24.256  1.00  0.00     0.079 C 
ATOM     22  C   UNL A   1      34.584  15.862  25.030  1.00  0.00     0.014 C 
ATOM     23  C   UNL A   1      33.200  15.435  25.378  1.00  0.00     0.014 C 
ENDBRANCH  20  21
ENDBRANCH  15  16
ENDBRANCH  12  15
ENDBRANCH   6  12
ENDBRANCH   3   6
ENDBRANCH   1   2
BRANCH   1  24
ATOM     24  C   UNL A   1      37.789  19.479  24.999  1.00  0.00     0.042 C 
BRANCH  24  25
ATOM     25  C   UNL A   1      38.876  20.104  25.864  1.00  0.00     0.118 C 
BRANCH  25  26
ATOM     26  N   UNL A   1      40.044  19.247  25.968  1.00  0.00    -0.352 N 
ATOM     27  C   UNL A   1      41.368  19.573  26.126  1.00  0.00     0.251 C 
ATOM     28  H   UNL A   1      39.858  18.282  25.915  1.00  0.00     0.163 HD
ATOM     29  O   UNL A   1      42.220  18.702  25.945  1.00  0.00    -0.269 OA
BRANCH  27  30
ATOM     30  C   UNL A   1      41.796  20.943  26.499  1.00  0.00     0.039 A 
ATOM     31  C   UNL A   1      41.878  21.912  25.492  1.00  0.00     0.014 A 
ATOM     32  C   UNL A   1      42.186  21.274  27.801  1.00  0.00     0.014 A 
ATOM     33  C   UNL A   1      42.312  23.206  25.796  1.00  0.00     0.010 A 
ATOM     34  C   UNL A   1      42.535  22.587  28.119  1.00  0.00     0.010 A 
ATOM     35  C   UNL A   1      42.623  23.564  27.118  1.00  0.00    -0.014 A 
BRANCH  35  36
ATOM     36  C   UNL A   1      43.059  24.948  27.447  1.00  0.00     0.031 A 
ATOM     37  C   UNL A   1      44.459  25.406  27.135  1.00  0.00     0.074 A 
ATOM     38  C   UNL A   1      42.199  25.791  28.051  1.00  0.00     0.049 A 
ATOM     39  N   UNL A   1      45.012  26.578  27.336  1.00  0.00    -0.248 NA
ATOM     40  C   UNL A   1      45.368  24.412  26.544  1.00  0.00     0.031 C 
ATOM     41  C   UNL A   1      40.838  25.452  28.466  1.00  0.00     0.029 A 
ATOM     42  N   UNL A   1      42.342  27.105  28.420  1.00  0.00    -0.354 N 
ATOM     43  C   UNL A   1      46.330  26.454  26.911  1.00  0.00     0.074 A 
ATOM     44  C   UNL A   1      46.510  25.081  26.493  1.00  0.00     0.031 C 
ATOM     45  C   UNL A   1      40.257  26.540  28.998  1.00  0.00     0.029 A 
ATOM     46  C   UNL A   1      41.212  27.644  28.987  1.00  0.00     0.049 A 
ATOM     47  H   UNL A   1      43.175  27.613  28.292  1.00  0.00     0.167 HD
ATOM     48  C   UNL A   1      47.294  27.405  26.848  1.00  0.00     0.037 A 
ATOM     49  C   UNL A   1      40.970  28.890  29.435  1.00  0.00     0.037 A 
ATOM     50  C   UNL A   1      47.106  28.779  27.234  1.00  0.00     0.049 A 
ATOM     51  C   UNL A   1      42.044  29.936  29.318  1.00  0.00     0.074 A 
ATOM     52  C   UNL A   1      48.003  29.831  27.153  1.00  0.00     0.029 A 
ATOM     53  N   UNL A   1      45.936  29.294  27.772  1.00  0.00    -0.354 N 
ATOM     54  N   UNL A   1      43.261  29.825  28.845  1.00  0.00    -0.248 NA
ATOM     55  C   UNL A   1      41.703  31.287  29.784  1.00  0.00     0.031 C 
ATOM     56  C   UNL A   1      47.387  30.974  27.676  1.00  0.00     0.029 A 
ATOM     57  C   UNL A   1      46.091  30.645  28.040  1.00  0.00     0.049 A 
ATOM     58  H   UNL A   1      45.115  28.776  27.940  1.00  0.00     0.167 HD
ATOM     59  C   UNL A   1      43.821  31.091  28.931  1.00  0.00     0.074 A 
ATOM     60  C   UNL A   1      42.803  31.961  29.483  1.00  0.00     0.031 C 
ATOM     61  C   UNL A   1      45.068  31.499  28.586  1.00  0.00     0.037 A 
BRANCH  48  62
ATOM     62  C   UNL A   1      48.643  26.991  26.332  1.00  0.00     0.064 A 
ATOM     63  C   UNL A   1      48.966  27.077  24.969  1.00  0.00     0.173 A 
ATOM     64  C   UNL A   1      49.635  26.537  27.213  1.00  0.00     0.173 A 
ATOM     65  F   UNL A   1      48.048  27.493  24.083  1.00  0.00    -0.203 F 
ATOM     66  C   UNL A   1      50.222  26.694  24.504  1.00  0.00     0.198 A 
ATOM     67  C   UNL A   1      50.901  26.185  26.748  1.00  0.00     0.198 A 
ATOM     68  F   UNL A   1      49.383  26.443  28.527  1.00  0.00    -0.203 F 
ATOM     69  F   UNL A   1      50.489  26.737  23.191  1.00  0.00    -0.200 F 
ATOM     70  C   UNL A   1      51.190  26.256  25.394  1.00  0.00     0.200 A 
ATOM     71  F   UNL A   1      51.840  25.773  27.612  1.00  0.00    -0.200 F 
ATOM     72  F   UNL A   1      52.400  25.894  24.946  1.00  0.00    -0.200 F 
ENDBRANCH  48  62
BRANCH  49  73
ATOM     73  C   UNL A   1      39.634  29.229  29.990  1.00  0.00     0.064 A 
ATOM     74  C   UNL A   1      38.633  29.774  29.172  1.00  0.00     0.173 A 
ATOM     75  C   UNL A   1      39.330  29.017  31.342  1.00  0.00     0.173 A 
ATOM     76  F   UNL A   1      38.885  30.013  27.877  1.00  0.00    -0.203 F 
ATOM     77  C   UNL A   1      37.386  30.112  29.691  1.00  0.00     0.198 A 
ATOM     78  C   UNL A   1      38.072  29.332  31.854  1.00  0.00     0.198 A 
ATOM     79  F   UNL A   1      40.251  28.494  32.164  1.00  0.00    -0.203 F 
ATOM     80  F   UNL A   1      36.463  30.673  28.898  1.00  0.00    -0.200 F 
ATOM     81  C   UNL A   1      37.104  29.885  31.030  1.00  0.00     0.200 A 
ATOM     82  F   UNL A   1      37.799  29.099  33.145  1.00  0.00    -0.200 F 
ATOM     83  F   UNL A   1      35.902  30.207  31.527  1.00  0.00    -0.200 F 
ENDBRANCH  49  73
BRANCH  61  84
ATOM     84  C   UNL A   1      45.386  32.954  28.768  1.00  0.00     0.064 A 
ATOM     85  C   UNL A   1      45.133  33.894  27.758  1.00  0.00     0.173 A 
ATOM     86  C   UNL A   1      45.937  33.414  29.973  1.00  0.00     0.173 A 
ATOM     87  F   UNL A   1      44.621  33.502  26.582  1.00  0.00    -0.203 F 
ATOM     88  C   UNL A   1      45.454  35.238  27.936  1.00  0.00     0.198 A 
ATOM     89  C   UNL A   1      46.228  34.763  30.158  1.00  0.00     0.198 A 
ATOM     90  F   UNL A   1      46.190  32.556  30.973  1.00  0.00    -0.203 F 
ATOM     91  F   UNL A   1      45.257  36.109  26.937  1.00  0.00    -0.200 F 
ATOM     92  C   UNL A   1      45.998  35.671  29.136  1.00  0.00     0.200 A 
ATOM     93  F   UNL A   1      46.743  35.183  31.323  1.00  0.00    -0.200 F 
ATOM     94  F   UNL A   1      46.307  36.964  29.305  1.00  0.00    -0.200 F 
ENDBRANCH  61  84
ENDBRANCH  35  36
ENDBRANCH  27  30
ENDBRANCH  25  26
ENDBRANCH  24  25
ENDBRANCH   1  24
TORSDOF 15
ENDMDL
