MODEL 1
REMARK VINA RESULT:     -12.9      0.000      0.000
REMARK SMILES O=C(NCCCNC(=O)c1cccc(OS(=O)(=O)c2cccc([N+](=O)[O-])c2)c1)c1ccc(-c2c3nc(c(-c4c(F)c(F)c(F)c(F)c4F)c4ccc([nH]4)c(-c4c(F)c(F)c(F)c(F)c4F)c4nc(c(-c5c(F)c(F)c(F)c(F)c5F)c5ccc2[nH]5)C=C4)C=C3)cc1
REMARK SMILES IDX 6 1 5 2 4 3 3 4 1 5 2 6 29 8 30 9 91 10 31 11 90 12 32 13
REMARK SMILES IDX 33 14 34 15 84 16 35 17 89 18 83 19 85 20 36 21 88 22 82 23
REMARK SMILES IDX 81 24 37 26 69 27 49 28 68 29 50 30 53 31 67 32 86 33 51 34
REMARK SMILES IDX 52 35 66 37 87 38 54 39 38 40 39 41 47 42 40 43 41 44 45 45
REMARK SMILES IDX 48 46 42 47 43 48 46 49 44 50 70 51 71 52 79 53 72 54 73 55
REMARK SMILES IDX 77 56 80 57 74 58 75 59 78 60 76 61 55 62 56 63 64 64 57 65
REMARK SMILES IDX 58 66 62 67 65 68 59 69 60 70 63 71 61 72 7 73 8 74 9 76
REMARK SMILES IDX 10 77 11 78 28 79 12 80 14 81 13 82 15 83 16 84 17 85 18 86
REMARK SMILES IDX 19 87 20 88 27 89 21 90 23 91 22 92 24 93 25 94 26 95
REMARK H PARENT 3 7 85 25 53 36 7 75
REMARK Flexibility Score: inf
ROOT
ATOM      1  C   UNL A   1      33.555  29.075  23.053  1.00  0.00     0.118 C 
ENDROOT
BRANCH   1   2
ATOM      2  C   UNL A   1      34.149  28.647  24.384  1.00  0.00     0.042 C 
BRANCH   2   3
ATOM      3  C   UNL A   1      33.155  28.664  25.532  1.00  0.00     0.118 C 
BRANCH   3   4
ATOM      4  N   UNL A   1      32.667  30.001  25.846  1.00  0.00    -0.352 N 
ATOM      5  O   UNL A   1      32.486  31.942  26.975  1.00  0.00    -0.269 OA
ATOM      6  C   UNL A   1      33.133  30.924  26.752  1.00  0.00     0.251 C 
ATOM      7  H   UNL A   1      31.881  30.287  25.327  1.00  0.00     0.163 HD
BRANCH   6   8
ATOM      8  C   UNL A   1      34.400  30.687  27.477  1.00  0.00     0.039 A 
ATOM      9  C   UNL A   1      34.704  29.428  27.995  1.00  0.00     0.014 A 
ATOM     10  C   UNL A   1      35.314  31.737  27.621  1.00  0.00     0.014 A 
ATOM     11  C   UNL A   1      35.824  29.262  28.800  1.00  0.00     0.010 A 
ATOM     12  C   UNL A   1      36.499  31.538  28.337  1.00  0.00     0.010 A 
ATOM     13  C   UNL A   1      36.749  30.306  28.959  1.00  0.00    -0.014 A 
BRANCH  13  14
ATOM     14  C   UNL A   1      38.000  30.040  29.713  1.00  0.00     0.031 A 
ATOM     15  C   UNL A   1      38.201  30.551  31.110  1.00  0.00     0.074 A 
ATOM     16  C   UNL A   1      38.941  29.272  29.130  1.00  0.00     0.049 A 
ATOM     17  N   UNL A   1      39.213  30.357  31.919  1.00  0.00    -0.248 NA
ATOM     18  C   UNL A   1      37.138  31.396  31.676  1.00  0.00     0.031 C 
ATOM     19  C   UNL A   1      38.863  28.737  27.767  1.00  0.00     0.029 A 
ATOM     20  N   UNL A   1      40.128  28.781  29.609  1.00  0.00    -0.354 N 
ATOM     21  C   UNL A   1      38.919  31.064  33.078  1.00  0.00     0.074 A 
ATOM     22  C   UNL A   1      37.643  31.712  32.861  1.00  0.00     0.031 C 
ATOM     23  C   UNL A   1      39.918  27.943  27.543  1.00  0.00     0.029 A 
ATOM     24  C   UNL A   1      40.782  27.964  28.717  1.00  0.00     0.049 A 
ATOM     25  H   UNL A   1      40.478  28.993  30.504  1.00  0.00     0.167 HD
ATOM     26  C   UNL A   1      39.646  31.152  34.218  1.00  0.00     0.037 A 
ATOM     27  C   UNL A   1      41.953  27.313  28.827  1.00  0.00     0.037 A 
ATOM     28  C   UNL A   1      40.907  30.488  34.434  1.00  0.00     0.049 A 
ATOM     29  C   UNL A   1      42.734  27.435  30.102  1.00  0.00     0.074 A 
ATOM     30  C   UNL A   1      41.705  30.496  35.564  1.00  0.00     0.029 A 
ATOM     31  N   UNL A   1      41.552  29.693  33.496  1.00  0.00    -0.354 N 
ATOM     32  N   UNL A   1      42.431  28.087  31.197  1.00  0.00    -0.248 NA
ATOM     33  C   UNL A   1      44.024  26.735  30.153  1.00  0.00     0.031 C 
ATOM     34  C   UNL A   1      42.851  29.739  35.298  1.00  0.00     0.029 A 
ATOM     35  C   UNL A   1      42.748  29.223  34.017  1.00  0.00     0.049 A 
ATOM     36  H   UNL A   1      41.212  29.495  32.594  1.00  0.00     0.167 HD
ATOM     37  C   UNL A   1      43.486  27.874  32.070  1.00  0.00     0.074 A 
ATOM     38  C   UNL A   1      44.423  27.004  31.388  1.00  0.00     0.031 C 
ATOM     39  C   UNL A   1      43.670  28.365  33.320  1.00  0.00     0.037 A 
BRANCH  26  40
ATOM     40  C   UNL A   1      39.106  32.004  35.329  1.00  0.00     0.064 A 
ATOM     41  C   UNL A   1      38.357  31.452  36.380  1.00  0.00     0.173 A 
ATOM     42  C   UNL A   1      39.402  33.374  35.382  1.00  0.00     0.173 A 
ATOM     43  F   UNL A   1      38.039  30.150  36.371  1.00  0.00    -0.203 F 
ATOM     44  C   UNL A   1      37.915  32.245  37.437  1.00  0.00     0.198 A 
ATOM     45  C   UNL A   1      38.978  34.159  36.452  1.00  0.00     0.198 A 
ATOM     46  F   UNL A   1      40.120  33.949  34.407  1.00  0.00    -0.203 F 
ATOM     47  F   UNL A   1      37.178  31.703  38.417  1.00  0.00    -0.200 F 
ATOM     48  C   UNL A   1      38.233  33.595  37.477  1.00  0.00     0.200 A 
ATOM     49  F   UNL A   1      39.296  35.460  36.495  1.00  0.00    -0.200 F 
ATOM     50  F   UNL A   1      37.819  34.352  38.502  1.00  0.00    -0.200 F 
ENDBRANCH  26  40
BRANCH  27  51
ATOM     51  C   UNL A   1      42.455  26.499  27.691  1.00  0.00     0.064 A 
ATOM     52  C   UNL A   1      42.023  25.180  27.500  1.00  0.00     0.173 A 
ATOM     53  C   UNL A   1      43.370  27.028  26.768  1.00  0.00     0.173 A 
ATOM     54  F   UNL A   1      41.163  24.624  28.367  1.00  0.00    -0.203 F 
ATOM     55  C   UNL A   1      42.501  24.414  26.439  1.00  0.00     0.198 A 
ATOM     56  C   UNL A   1      43.823  26.273  25.690  1.00  0.00     0.198 A 
ATOM     57  F   UNL A   1      43.808  28.288  26.903  1.00  0.00    -0.203 F 
ATOM     58  F   UNL A   1      42.106  23.141  26.303  1.00  0.00    -0.200 F 
ATOM     59  C   UNL A   1      43.394  24.964  25.530  1.00  0.00     0.200 A 
ATOM     60  F   UNL A   1      44.672  26.814  24.806  1.00  0.00    -0.200 F 
ATOM     61  F   UNL A   1      43.848  24.229  24.506  1.00  0.00    -0.200 F 
ENDBRANCH  27  51
BRANCH  39  62
ATOM     62  C   UNL A   1      44.929  27.958  34.024  1.00  0.00     0.064 A 
ATOM     63  C   UNL A   1      44.995  26.775  34.776  1.00  0.00     0.173 A 
ATOM     64  C   UNL A   1      46.080  28.753  33.941  1.00  0.00     0.173 A 
ATOM     65  F   UNL A   1      43.912  25.993  34.899  1.00  0.00    -0.203 F 
ATOM     66  C   UNL A   1      46.162  26.420  35.445  1.00  0.00     0.198 A 
ATOM     67  C   UNL A   1      47.254  28.379  34.590  1.00  0.00     0.198 A 
ATOM     68  F   UNL A   1      46.068  29.891  33.232  1.00  0.00    -0.203 F 
ATOM     69  F   UNL A   1      46.187  25.313  36.202  1.00  0.00    -0.200 F 
ATOM     70  C   UNL A   1      47.291  27.218  35.348  1.00  0.00     0.200 A 
ATOM     71  F   UNL A   1      48.347  29.148  34.489  1.00  0.00    -0.200 F 
ATOM     72  F   UNL A   1      48.412  26.876  35.996  1.00  0.00    -0.200 F 
ENDBRANCH  39  62
ENDBRANCH  13  14
ENDBRANCH   6   8
ENDBRANCH   3   4
ENDBRANCH   2   3
ENDBRANCH   1   2
BRANCH   1  73
ATOM     73  N   UNL A   1      33.656  28.031  22.036  1.00  0.00    -0.352 N 
ATOM     74  C   UNL A   1      32.940  26.864  21.905  1.00  0.00     0.251 C 
ATOM     75  H   UNL A   1      34.336  28.186  21.341  1.00  0.00     0.163 HD
ATOM     76  O   UNL A   1      33.292  26.005  21.105  1.00  0.00    -0.269 OA
BRANCH  74  77
ATOM     77  C   UNL A   1      31.742  26.648  22.744  1.00  0.00     0.043 A 
ATOM     78  C   UNL A   1      30.639  27.490  22.618  1.00  0.00     0.014 A 
ATOM     79  C   UNL A   1      31.718  25.579  23.644  1.00  0.00     0.062 A 
ATOM     80  C   UNL A   1      29.480  27.205  23.341  1.00  0.00     0.005 A 
ATOM     81  C   UNL A   1      30.534  25.235  24.290  1.00  0.00     0.143 A 
ATOM     82  C   UNL A   1      29.419  26.067  24.157  1.00  0.00     0.048 A 
BRANCH  81  83
ATOM     83  O   UNL A   1      30.387  24.087  25.036  1.00  0.00    -0.379 OA
BRANCH  83  84
ATOM     84  S   UNL A   1      31.053  23.996  26.531  1.00  0.00     0.339 S 
ATOM     85  O   UNL A   1      31.521  25.315  26.916  1.00  0.00    -0.181 OA
ATOM     86  O   UNL A   1      30.160  23.251  27.399  1.00  0.00    -0.181 OA
BRANCH  84  87
ATOM     87  C   UNL A   1      32.495  22.974  26.335  1.00  0.00     0.112 A 
ATOM     88  C   UNL A   1      33.756  23.551  26.515  1.00  0.00     0.024 A 
ATOM     89  C   UNL A   1      32.361  21.662  25.867  1.00  0.00     0.109 A 
ATOM     90  C   UNL A   1      34.902  22.811  26.224  1.00  0.00     0.009 A 
ATOM     91  C   UNL A   1      33.519  20.932  25.570  1.00  0.00     0.270 A 
ATOM     92  C   UNL A   1      34.789  21.503  25.747  1.00  0.00     0.086 A 
BRANCH  91  93
ATOM     93  N   UNL A   1      33.404  19.567  25.039  1.00  0.00     0.062 N 
ATOM     94  O   UNL A   1      34.433  19.026  24.613  1.00  0.00    -0.258 OA
ATOM     95  O   UNL A   1      32.283  19.040  25.052  1.00  0.00    -0.258 OA
ENDBRANCH  91  93
ENDBRANCH  84  87
ENDBRANCH  83  84
ENDBRANCH  81  83
ENDBRANCH  74  77
ENDBRANCH   1  73
TORSDOF 14
ENDMDL
MODEL 2
REMARK VINA RESULT:     -12.8      1.961      2.911
REMARK SMILES O=C(NCCCNC(=O)c1cccc(OS(=O)(=O)c2cccc([N+](=O)[O-])c2)c1)c1ccc(-c2c3nc(c(-c4c(F)c(F)c(F)c(F)c4F)c4ccc([nH]4)c(-c4c(F)c(F)c(F)c(F)c4F)c4nc(c(-c5c(F)c(F)c(F)c(F)c5F)c5ccc2[nH]5)C=C4)C=C3)cc1
REMARK SMILES IDX 6 1 5 2 4 3 3 4 1 5 2 6 29 8 30 9 91 10 31 11 90 12 32 13
REMARK SMILES IDX 33 14 34 15 84 16 35 17 89 18 83 19 85 20 36 21 88 22 82 23
REMARK SMILES IDX 81 24 37 26 69 27 49 28 68 29 50 30 53 31 67 32 86 33 51 34
REMARK SMILES IDX 52 35 66 37 87 38 54 39 38 40 39 41 47 42 40 43 41 44 45 45
REMARK SMILES IDX 48 46 42 47 43 48 46 49 44 50 70 51 71 52 79 53 72 54 73 55
REMARK SMILES IDX 77 56 80 57 74 58 75 59 78 60 76 61 55 62 56 63 64 64 57 65
REMARK SMILES IDX 58 66 62 67 65 68 59 69 60 70 63 71 61 72 7 73 8 74 9 76
REMARK SMILES IDX 10 77 11 78 28 79 12 80 14 81 13 82 15 83 16 84 17 85 18 86
REMARK SMILES IDX 19 87 20 88 27 89 21 90 23 91 22 92 24 93 25 94 26 95
REMARK H PARENT 3 7 85 25 53 36 7 75
REMARK Flexibility Score: inf
ROOT
ATOM      1  C   UNL A   1      31.619  30.430  26.472  1.00  0.00     0.118 C 
ENDROOT
BRANCH   1   2
ATOM      2  C   UNL A   1      31.425  31.930  26.613  1.00  0.00     0.042 C 
BRANCH   2   3
ATOM      3  C   UNL A   1      32.704  32.686  26.927  1.00  0.00     0.118 C 
BRANCH   3   4
ATOM      4  N   UNL A   1      32.462  34.006  27.496  1.00  0.00    -0.352 N 
ATOM      5  O   UNL A   1      32.615  35.697  28.978  1.00  0.00    -0.269 OA
ATOM      6  C   UNL A   1      33.068  34.638  28.556  1.00  0.00     0.251 C 
ATOM      7  H   UNL A   1      31.754  34.526  27.052  1.00  0.00     0.163 HD
BRANCH   6   8
ATOM      8  C   UNL A   1      34.254  34.038  29.207  1.00  0.00     0.039 A 
ATOM      9  C   UNL A   1      35.537  34.512  28.934  1.00  0.00     0.014 A 
ATOM     10  C   UNL A   1      34.078  32.997  30.125  1.00  0.00     0.014 A 
ATOM     11  C   UNL A   1      36.644  33.841  29.436  1.00  0.00     0.010 A 
ATOM     12  C   UNL A   1      35.192  32.395  30.720  1.00  0.00     0.010 A 
ATOM     13  C   UNL A   1      36.486  32.792  30.356  1.00  0.00    -0.014 A 
BRANCH  13  14
ATOM     14  C   UNL A   1      37.700  32.197  30.972  1.00  0.00     0.031 A 
ATOM     15  C   UNL A   1      38.140  32.567  32.358  1.00  0.00     0.074 A 
ATOM     16  C   UNL A   1      38.374  31.263  30.272  1.00  0.00     0.049 A 
ATOM     17  N   UNL A   1      39.145  32.095  33.055  1.00  0.00    -0.248 NA
ATOM     18  C   UNL A   1      37.365  33.604  33.056  1.00  0.00     0.031 C 
ATOM     19  C   UNL A   1      38.049  30.839  28.907  1.00  0.00     0.029 A 
ATOM     20  N   UNL A   1      39.446  30.481  30.613  1.00  0.00    -0.354 N 
ATOM     21  C   UNL A   1      39.133  32.785  34.260  1.00  0.00     0.074 A 
ATOM     22  C   UNL A   1      38.035  33.726  34.194  1.00  0.00     0.031 C 
ATOM     23  C   UNL A   1      38.859  29.833  28.551  1.00  0.00     0.029 A 
ATOM     24  C   UNL A   1      39.803  29.585  29.633  1.00  0.00     0.049 A 
ATOM     25  H   UNL A   1      39.916  30.554  31.475  1.00  0.00     0.167 HD
ATOM     26  C   UNL A   1      39.959  32.635  35.324  1.00  0.00     0.037 A 
ATOM     27  C   UNL A   1      40.791  28.673  29.603  1.00  0.00     0.037 A 
ATOM     28  C   UNL A   1      41.038  31.683  35.390  1.00  0.00     0.049 A 
ATOM     29  C   UNL A   1      41.688  28.535  30.798  1.00  0.00     0.074 A 
ATOM     30  C   UNL A   1      41.913  31.440  36.435  1.00  0.00     0.029 A 
ATOM     31  N   UNL A   1      41.388  30.813  34.367  1.00  0.00    -0.354 N 
ATOM     32  N   UNL A   1      41.649  29.177  31.938  1.00  0.00    -0.248 NA
ATOM     33  C   UNL A   1      42.773  27.550  30.696  1.00  0.00     0.031 C 
ATOM     34  C   UNL A   1      42.816  30.450  36.031  1.00  0.00     0.029 A 
ATOM     35  C   UNL A   1      42.479  30.047  34.749  1.00  0.00     0.049 A 
ATOM     36  H   UNL A   1      40.931  30.751  33.497  1.00  0.00     0.167 HD
ATOM     37  C   UNL A   1      42.696  28.673  32.694  1.00  0.00     0.074 A 
ATOM     38  C   UNL A   1      43.333  27.648  31.893  1.00  0.00     0.031 C 
ATOM     39  C   UNL A   1      43.102  29.036  33.935  1.00  0.00     0.037 A 
BRANCH  26  40
ATOM     40  C   UNL A   1      39.739  33.526  36.512  1.00  0.00     0.064 A 
ATOM     41  C   UNL A   1      40.331  34.796  36.597  1.00  0.00     0.173 A 
ATOM     42  C   UNL A   1      38.870  33.136  37.542  1.00  0.00     0.173 A 
ATOM     43  F   UNL A   1      41.177  35.211  35.643  1.00  0.00    -0.203 F 
ATOM     44  C   UNL A   1      40.069  35.637  37.677  1.00  0.00     0.198 A 
ATOM     45  C   UNL A   1      38.592  33.989  38.608  1.00  0.00     0.198 A 
ATOM     46  F   UNL A   1      38.273  31.936  37.504  1.00  0.00    -0.203 F 
ATOM     47  F   UNL A   1      40.666  36.834  37.751  1.00  0.00    -0.200 F 
ATOM     48  C   UNL A   1      39.194  35.237  38.676  1.00  0.00     0.200 A 
ATOM     49  F   UNL A   1      37.737  33.606  39.566  1.00  0.00    -0.200 F 
ATOM     50  F   UNL A   1      38.932  36.054  39.706  1.00  0.00    -0.200 F 
ENDBRANCH  26  40
BRANCH  27  51
ATOM     51  C   UNL A   1      40.979  27.828  28.396  1.00  0.00     0.064 A 
ATOM     52  C   UNL A   1      40.362  26.575  28.286  1.00  0.00     0.173 A 
ATOM     53  C   UNL A   1      41.774  28.264  27.325  1.00  0.00     0.173 A 
ATOM     54  F   UNL A   1      39.609  26.109  29.293  1.00  0.00    -0.203 F 
ATOM     55  C   UNL A   1      40.547  25.781  27.157  1.00  0.00     0.198 A 
ATOM     56  C   UNL A   1      41.932  27.483  26.183  1.00  0.00     0.198 A 
ATOM     57  F   UNL A   1      42.380  29.458  27.379  1.00  0.00    -0.203 F 
ATOM     58  F   UNL A   1      39.982  24.568  27.094  1.00  0.00    -0.200 F 
ATOM     59  C   UNL A   1      41.326  26.239  26.103  1.00  0.00     0.200 A 
ATOM     60  F   UNL A   1      42.671  27.937  25.161  1.00  0.00    -0.200 F 
ATOM     61  F   UNL A   1      41.497  25.477  25.015  1.00  0.00    -0.200 F 
ENDBRANCH  27  51
BRANCH  39  62
ATOM     62  C   UNL A   1      44.285  28.307  34.496  1.00  0.00     0.064 A 
ATOM     63  C   UNL A   1      44.132  27.106  35.207  1.00  0.00     0.173 A 
ATOM     64  C   UNL A   1      45.582  28.806  34.316  1.00  0.00     0.173 A 
ATOM     65  F   UNL A   1      42.908  26.600  35.420  1.00  0.00    -0.203 F 
ATOM     66  C   UNL A   1      45.235  26.449  35.743  1.00  0.00     0.198 A 
ATOM     67  C   UNL A   1      46.685  28.132  34.831  1.00  0.00     0.198 A 
ATOM     68  F   UNL A   1      45.780  29.949  33.641  1.00  0.00    -0.203 F 
ATOM     69  F   UNL A   1      45.062  25.333  36.465  1.00  0.00    -0.200 F 
ATOM     70  C   UNL A   1      46.511  26.959  35.551  1.00  0.00     0.200 A 
ATOM     71  F   UNL A   1      47.918  28.621  34.638  1.00  0.00    -0.200 F 
ATOM     72  F   UNL A   1      47.571  26.327  36.072  1.00  0.00    -0.200 F 
ENDBRANCH  39  62
ENDBRANCH  13  14
ENDBRANCH   6   8
ENDBRANCH   3   4
ENDBRANCH   2   3
ENDBRANCH   1   2
BRANCH   1  73
ATOM     73  N   UNL A   1      32.463  30.082  25.332  1.00  0.00    -0.352 N 
ATOM     74  C   UNL A   1      32.477  28.937  24.570  1.00  0.00     0.251 C 
ATOM     75  H   UNL A   1      33.118  30.769  25.069  1.00  0.00     0.163 HD
ATOM     76  O   UNL A   1      33.388  28.729  23.776  1.00  0.00    -0.269 OA
BRANCH  74  77
ATOM     77  C   UNL A   1      31.388  27.950  24.721  1.00  0.00     0.043 A 
ATOM     78  C   UNL A   1      30.394  27.852  23.750  1.00  0.00     0.014 A 
ATOM     79  C   UNL A   1      31.377  27.102  25.832  1.00  0.00     0.062 A 
ATOM     80  C   UNL A   1      29.435  26.843  23.857  1.00  0.00     0.005 A 
ATOM     81  C   UNL A   1      30.485  26.036  25.891  1.00  0.00     0.143 A 
ATOM     82  C   UNL A   1      29.494  25.923  24.912  1.00  0.00     0.048 A 
BRANCH  81  83
ATOM     83  O   UNL A   1      30.544  25.053  26.854  1.00  0.00    -0.379 OA
BRANCH  83  84
ATOM     84  S   UNL A   1      31.190  23.592  26.487  1.00  0.00     0.339 S 
ATOM     85  O   UNL A   1      31.675  22.974  27.708  1.00  0.00    -0.181 OA
ATOM     86  O   UNL A   1      30.275  22.878  25.617  1.00  0.00    -0.181 OA
BRANCH  84  87
ATOM     87  C   UNL A   1      32.617  23.952  25.490  1.00  0.00     0.112 A 
ATOM     88  C   UNL A   1      33.804  24.328  26.127  1.00  0.00     0.024 A 
ATOM     89  C   UNL A   1      32.500  24.000  24.096  1.00  0.00     0.109 A 
ATOM     90  C   UNL A   1      34.891  24.757  25.366  1.00  0.00     0.009 A 
ATOM     91  C   UNL A   1      33.596  24.441  23.343  1.00  0.00     0.270 A 
ATOM     92  C   UNL A   1      34.790  24.820  23.973  1.00  0.00     0.086 A 
BRANCH  91  93
ATOM     93  N   UNL A   1      33.483  24.537  21.881  1.00  0.00     0.062 N 
ATOM     94  O   UNL A   1      33.470  25.669  21.378  1.00  0.00    -0.258 OA
ATOM     95  O   UNL A   1      33.410  23.479  21.241  1.00  0.00    -0.258 OA
ENDBRANCH  91  93
ENDBRANCH  84  87
ENDBRANCH  83  84
ENDBRANCH  81  83
ENDBRANCH  74  77
ENDBRANCH   1  73
TORSDOF 14
ENDMDL
MODEL 3
REMARK VINA RESULT:     -12.8      1.973      3.350
REMARK SMILES O=C(NCCCNC(=O)c1cccc(OS(=O)(=O)c2cccc([N+](=O)[O-])c2)c1)c1ccc(-c2c3nc(c(-c4c(F)c(F)c(F)c(F)c4F)c4ccc([nH]4)c(-c4c(F)c(F)c(F)c(F)c4F)c4nc(c(-c5c(F)c(F)c(F)c(F)c5F)c5ccc2[nH]5)C=C4)C=C3)cc1
REMARK SMILES IDX 6 1 5 2 4 3 3 4 1 5 2 6 29 8 30 9 91 10 31 11 90 12 32 13
REMARK SMILES IDX 33 14 34 15 84 16 35 17 89 18 83 19 85 20 36 21 88 22 82 23
REMARK SMILES IDX 81 24 37 26 69 27 49 28 68 29 50 30 53 31 67 32 86 33 51 34
REMARK SMILES IDX 52 35 66 37 87 38 54 39 38 40 39 41 47 42 40 43 41 44 45 45
REMARK SMILES IDX 48 46 42 47 43 48 46 49 44 50 70 51 71 52 79 53 72 54 73 55
REMARK SMILES IDX 77 56 80 57 74 58 75 59 78 60 76 61 55 62 56 63 64 64 57 65
REMARK SMILES IDX 58 66 62 67 65 68 59 69 60 70 63 71 61 72 7 73 8 74 9 76
REMARK SMILES IDX 10 77 11 78 28 79 12 80 14 81 13 82 15 83 16 84 17 85 18 86
REMARK SMILES IDX 19 87 20 88 27 89 21 90 23 91 22 92 24 93 25 94 26 95
REMARK H PARENT 3 7 85 25 53 36 7 75
REMARK Flexibility Score: inf
ROOT
ATOM      1  C   UNL A   1      31.410  30.631  26.403  1.00  0.00     0.118 C 
ENDROOT
BRANCH   1   2
ATOM      2  C   UNL A   1      31.390  32.147  26.506  1.00  0.00     0.042 C 
BRANCH   2   3
ATOM      3  C   UNL A   1      32.660  32.737  27.092  1.00  0.00     0.118 C 
BRANCH   3   4
ATOM      4  N   UNL A   1      32.475  34.085  27.617  1.00  0.00    -0.352 N 
ATOM      5  O   UNL A   1      32.713  35.821  29.032  1.00  0.00    -0.269 OA
ATOM      6  C   UNL A   1      33.122  34.732  28.642  1.00  0.00     0.251 C 
ATOM      7  H   UNL A   1      31.776  34.612  27.166  1.00  0.00     0.163 HD
BRANCH   6   8
ATOM      8  C   UNL A   1      34.299  34.115  29.292  1.00  0.00     0.039 A 
ATOM      9  C   UNL A   1      35.593  34.450  28.896  1.00  0.00     0.014 A 
ATOM     10  C   UNL A   1      34.105  33.202  30.335  1.00  0.00     0.014 A 
ATOM     11  C   UNL A   1      36.678  33.753  29.413  1.00  0.00     0.010 A 
ATOM     12  C   UNL A   1      35.207  32.583  30.935  1.00  0.00     0.010 A 
ATOM     13  C   UNL A   1      36.501  32.830  30.456  1.00  0.00    -0.014 A 
BRANCH  13  14
ATOM     14  C   UNL A   1      37.704  32.212  31.070  1.00  0.00     0.031 A 
ATOM     15  C   UNL A   1      38.138  32.553  32.466  1.00  0.00     0.074 A 
ATOM     16  C   UNL A   1      38.373  31.283  30.359  1.00  0.00     0.049 A 
ATOM     17  N   UNL A   1      39.132  32.059  33.162  1.00  0.00    -0.248 NA
ATOM     18  C   UNL A   1      37.368  33.586  33.176  1.00  0.00     0.031 C 
ATOM     19  C   UNL A   1      38.054  30.886  28.985  1.00  0.00     0.029 A 
ATOM     20  N   UNL A   1      39.435  30.484  30.695  1.00  0.00    -0.354 N 
ATOM     21  C   UNL A   1      39.118  32.728  34.379  1.00  0.00     0.074 A 
ATOM     22  C   UNL A   1      38.031  33.681  34.322  1.00  0.00     0.031 C 
ATOM     23  C   UNL A   1      38.857  29.879  28.618  1.00  0.00     0.029 A 
ATOM     24  C   UNL A   1      39.790  29.602  29.702  1.00  0.00     0.049 A 
ATOM     25  H   UNL A   1      39.899  30.537  31.561  1.00  0.00     0.167 HD
ATOM     26  C   UNL A   1      39.934  32.551  35.446  1.00  0.00     0.037 A 
ATOM     27  C   UNL A   1      40.768  28.680  29.664  1.00  0.00     0.037 A 
ATOM     28  C   UNL A   1      41.003  31.586  35.504  1.00  0.00     0.049 A 
ATOM     29  C   UNL A   1      41.655  28.512  30.862  1.00  0.00     0.074 A 
ATOM     30  C   UNL A   1      41.868  31.316  36.550  1.00  0.00     0.029 A 
ATOM     31  N   UNL A   1      41.352  30.731  34.468  1.00  0.00    -0.354 N 
ATOM     32  N   UNL A   1      41.614  29.135  32.013  1.00  0.00    -0.248 NA
ATOM     33  C   UNL A   1      42.730  27.517  30.751  1.00  0.00     0.031 C 
ATOM     34  C   UNL A   1      42.763  30.325  36.136  1.00  0.00     0.029 A 
ATOM     35  C   UNL A   1      42.431  29.947  34.845  1.00  0.00     0.049 A 
ATOM     36  H   UNL A   1      40.901  30.689  33.594  1.00  0.00     0.167 HD
ATOM     37  C   UNL A   1      42.650  28.607  32.768  1.00  0.00     0.074 A 
ATOM     38  C   UNL A   1      43.283  27.589  31.954  1.00  0.00     0.031 C 
ATOM     39  C   UNL A   1      43.051  28.944  34.018  1.00  0.00     0.037 A 
BRANCH  26  40
ATOM     40  C   UNL A   1      39.715  33.424  36.648  1.00  0.00     0.064 A 
ATOM     41  C   UNL A   1      40.376  34.653  36.793  1.00  0.00     0.173 A 
ATOM     42  C   UNL A   1      38.779  33.061  37.629  1.00  0.00     0.173 A 
ATOM     43  F   UNL A   1      41.287  35.040  35.888  1.00  0.00    -0.203 F 
ATOM     44  C   UNL A   1      40.117  35.481  37.883  1.00  0.00     0.198 A 
ATOM     45  C   UNL A   1      38.505  33.902  38.704  1.00  0.00     0.198 A 
ATOM     46  F   UNL A   1      38.115  31.900  37.532  1.00  0.00    -0.203 F 
ATOM     47  F   UNL A   1      40.779  36.638  38.016  1.00  0.00    -0.200 F 
ATOM     48  C   UNL A   1      39.176  35.109  38.833  1.00  0.00     0.200 A 
ATOM     49  F   UNL A   1      37.587  33.547  39.615  1.00  0.00    -0.200 F 
ATOM     50  F   UNL A   1      38.917  35.914  39.872  1.00  0.00    -0.200 F 
ENDBRANCH  26  40
BRANCH  27  51
ATOM     51  C   UNL A   1      40.957  27.854  28.444  1.00  0.00     0.064 A 
ATOM     52  C   UNL A   1      41.820  28.264  27.419  1.00  0.00     0.173 A 
ATOM     53  C   UNL A   1      40.283  26.633  28.284  1.00  0.00     0.173 A 
ATOM     54  F   UNL A   1      42.471  29.432  27.519  1.00  0.00    -0.203 F 
ATOM     55  C   UNL A   1      41.989  27.493  26.271  1.00  0.00     0.198 A 
ATOM     56  C   UNL A   1      40.477  25.848  27.150  1.00  0.00     0.198 A 
ATOM     57  F   UNL A   1      39.451  26.194  29.239  1.00  0.00    -0.203 F 
ATOM     58  F   UNL A   1      42.786  27.928  25.287  1.00  0.00    -0.200 F 
ATOM     59  C   UNL A   1      41.323  26.282  26.142  1.00  0.00     0.200 A 
ATOM     60  F   UNL A   1      39.845  24.672  27.038  1.00  0.00    -0.200 F 
ATOM     61  F   UNL A   1      41.492  25.538  25.040  1.00  0.00    -0.200 F 
ENDBRANCH  27  51
BRANCH  39  62
ATOM     62  C   UNL A   1      44.222  28.192  34.575  1.00  0.00     0.064 A 
ATOM     63  C   UNL A   1      45.533  28.672  34.428  1.00  0.00     0.173 A 
ATOM     64  C   UNL A   1      44.033  26.989  35.267  1.00  0.00     0.173 A 
ATOM     65  F   UNL A   1      45.764  29.810  33.757  1.00  0.00    -0.203 F 
ATOM     66  C   UNL A   1      46.615  27.954  34.929  1.00  0.00     0.198 A 
ATOM     67  C   UNL A   1      45.116  26.288  35.790  1.00  0.00     0.198 A 
ATOM     68  F   UNL A   1      42.798  26.492  35.436  1.00  0.00    -0.203 F 
ATOM     69  F   UNL A   1      47.863  28.402  34.730  1.00  0.00    -0.200 F 
ATOM     70  C   UNL A   1      46.406  26.766  35.612  1.00  0.00     0.200 A 
ATOM     71  F   UNL A   1      44.912  25.144  36.457  1.00  0.00    -0.200 F 
ATOM     72  F   UNL A   1      47.449  26.075  36.090  1.00  0.00    -0.200 F 
ENDBRANCH  39  62
ENDBRANCH  13  14
ENDBRANCH   6   8
ENDBRANCH   3   4
ENDBRANCH   2   3
ENDBRANCH   1   2
BRANCH   1  73
ATOM     73  N   UNL A   1      32.519  30.142  25.588  1.00  0.00    -0.352 N 
ATOM     74  C   UNL A   1      32.709  28.904  25.019  1.00  0.00     0.251 C 
ATOM     75  H   UNL A   1      33.236  30.795  25.419  1.00  0.00     0.163 HD
ATOM     76  O   UNL A   1      33.792  28.602  24.534  1.00  0.00    -0.269 OA
BRANCH  74  77
ATOM     77  C   UNL A   1      31.595  27.933  25.005  1.00  0.00     0.043 A 
ATOM     78  C   UNL A   1      30.700  27.911  23.938  1.00  0.00     0.014 A 
ATOM     79  C   UNL A   1      31.463  27.023  26.058  1.00  0.00     0.062 A 
ATOM     80  C   UNL A   1      29.720  26.917  23.891  1.00  0.00     0.005 A 
ATOM     81  C   UNL A   1      30.554  25.973  25.967  1.00  0.00     0.143 A 
ATOM     82  C   UNL A   1      29.662  25.937  24.891  1.00  0.00     0.048 A 
BRANCH  81  83
ATOM     83  O   UNL A   1      30.504  24.935  26.870  1.00  0.00    -0.379 OA
BRANCH  83  84
ATOM     84  S   UNL A   1      31.233  23.511  26.516  1.00  0.00     0.339 S 
ATOM     85  O   UNL A   1      31.768  22.942  27.740  1.00  0.00    -0.181 OA
ATOM     86  O   UNL A   1      30.354  22.730  25.666  1.00  0.00    -0.181 OA
BRANCH  84  87
ATOM     87  C   UNL A   1      32.626  23.944  25.497  1.00  0.00     0.112 A 
ATOM     88  C   UNL A   1      33.788  24.415  26.115  1.00  0.00     0.024 A 
ATOM     89  C   UNL A   1      32.495  23.949  24.104  1.00  0.00     0.109 A 
ATOM     90  C   UNL A   1      34.838  24.898  25.334  1.00  0.00     0.009 A 
ATOM     91  C   UNL A   1      33.552  24.444  23.331  1.00  0.00     0.270 A 
ATOM     92  C   UNL A   1      34.723  24.920  23.941  1.00  0.00     0.086 A 
BRANCH  91  93
ATOM     93  N   UNL A   1      33.423  24.497  21.868  1.00  0.00     0.062 N 
ATOM     94  O   UNL A   1      33.377  23.421  21.255  1.00  0.00    -0.258 OA
ATOM     95  O   UNL A   1      33.365  25.615  21.338  1.00  0.00    -0.258 OA
ENDBRANCH  91  93
ENDBRANCH  84  87
ENDBRANCH  83  84
ENDBRANCH  81  83
ENDBRANCH  74  77
ENDBRANCH   1  73
TORSDOF 14
ENDMDL
