MODEL 1
REMARK VINA RESULT:     -12.3      0.000      0.000
REMARK SMILES COc1cccc(/C=C(/CC(=O)NCCCNC(=O)c2ccc(-c3c4nc(c(-c5c(F)c(F)c(F)c(F)c5F)c5ccc([nH]5)c(-c5c(F)c(F)c(F)c(F)c5F)c5nc(c(-c6c(F)c(F)c(F)c(F)c6F)c6ccc3[nH]6)C=C5)C=C4)cc2)c2nc3ccccc3o2)c1
REMARK SMILES IDX 14 1 13 2 11 3 12 4 10 6 9 7 8 8 7 9 3 10 4 11 92 12 5 13
REMARK SMILES IDX 6 14 2 15 1 16 83 17 84 18 91 19 85 20 90 21 86 22 89 23
REMARK SMILES IDX 87 24 88 25 15 26 16 27 17 28 18 29 19 31 20 32 21 33 82 34
REMARK SMILES IDX 22 35 81 36 23 37 24 38 25 39 75 40 26 41 80 42 74 43 76 44
REMARK SMILES IDX 27 45 79 46 73 47 72 48 28 50 60 51 40 52 59 53 41 54 44 55
REMARK SMILES IDX 58 56 77 57 42 58 43 59 57 61 78 62 45 63 29 64 30 65 38 66
REMARK SMILES IDX 31 67 32 68 36 69 39 70 33 71 34 72 37 73 35 74 61 75 62 76
REMARK SMILES IDX 70 77 63 78 64 79 68 80 71 81 65 82 66 83 69 84 67 85 46 86
REMARK SMILES IDX 47 87 55 88 48 89 49 90 53 91 56 92 50 93 51 94 54 95 52 96
REMARK H PARENT 13 5 17 30 76 49 44 60
REMARK Flexibility Score: inf
ROOT
ATOM      1  C   UNL A   1      34.620  23.015  25.767  1.00  0.00     0.117 C 
ENDROOT
BRANCH   1   2
ATOM      2  N   UNL A   1      33.462  23.449  26.524  1.00  0.00    -0.356 N 
ATOM      3  C   UNL A   1      32.401  24.216  26.133  1.00  0.00     0.224 C 
ATOM      4  O   UNL A   1      31.461  24.352  26.919  1.00  0.00    -0.275 OA
ATOM      5  H   UNL A   1      33.436  23.146  27.460  1.00  0.00     0.163 HD
BRANCH   3   6
ATOM      6  C   UNL A   1      32.358  24.819  24.730  1.00  0.00     0.141 C 
BRANCH   6   7
ATOM      7  C   UNL A   1      31.595  26.143  24.666  1.00  0.00     0.025 C 
ATOM      8  C   UNL A   1      30.428  26.157  23.977  1.00  0.00     0.018 C 
BRANCH   8   9
ATOM      9  C   UNL A   1      29.445  27.176  23.524  1.00  0.00    -0.021 A 
ATOM     10  C   UNL A   1      29.123  29.285  22.307  1.00  0.00     0.119 A 
ATOM     11  C   UNL A   1      27.776  29.286  22.645  1.00  0.00     0.046 A 
ATOM     12  C   UNL A   1      29.949  28.244  22.746  1.00  0.00     0.054 A 
ATOM     13  C   UNL A   1      27.255  28.242  23.401  1.00  0.00     0.004 A 
ATOM     14  C   UNL A   1      28.087  27.206  23.845  1.00  0.00     0.008 A 
BRANCH  10  15
ATOM     15  O   UNL A   1      29.567  30.380  21.619  1.00  0.00    -0.497 OA
ATOM     16  C   UNL A   1      28.530  31.237  21.152  1.00  0.00     0.278 C 
ENDBRANCH  10  15
ENDBRANCH   8   9
BRANCH   7  17
ATOM     17  C   UNL A   1      32.160  27.303  25.293  1.00  0.00     0.223 A 
ATOM     18  N   UNL A   1      33.445  27.425  25.607  1.00  0.00    -0.210 NA
ATOM     19  O   UNL A   1      31.414  28.381  25.748  1.00  0.00    -0.436 OA
ATOM     20  C   UNL A   1      33.551  28.610  26.280  1.00  0.00     0.110 A 
ATOM     21  C   UNL A   1      32.315  29.219  26.335  1.00  0.00     0.155 A 
ATOM     22  C   UNL A   1      34.653  29.239  26.869  1.00  0.00     0.032 A 
ATOM     23  C   UNL A   1      32.075  30.466  26.898  1.00  0.00     0.049 A 
ATOM     24  C   UNL A   1      34.454  30.495  27.460  1.00  0.00     0.003 A 
ATOM     25  C   UNL A   1      33.191  31.101  27.460  1.00  0.00     0.004 A 
ENDBRANCH   7  17
ENDBRANCH   6   7
ENDBRANCH   3   6
ENDBRANCH   1   2
BRANCH   1  26
ATOM     26  C   UNL A   1      35.896  23.765  26.135  1.00  0.00     0.042 C 
BRANCH  26  27
ATOM     27  C   UNL A   1      37.009  23.683  25.094  1.00  0.00     0.118 C 
BRANCH  27  28
ATOM     28  N   UNL A   1      38.068  22.750  25.462  1.00  0.00    -0.352 N 
ATOM     29  C   UNL A   1      39.247  22.952  26.131  1.00  0.00     0.251 C 
ATOM     30  H   UNL A   1      37.911  21.821  25.183  1.00  0.00     0.163 HD
ATOM     31  O   UNL A   1      40.072  22.035  26.185  1.00  0.00    -0.269 OA
BRANCH  29  32
ATOM     32  C   UNL A   1      39.563  24.247  26.774  1.00  0.00     0.039 A 
ATOM     33  C   UNL A   1      39.141  24.463  28.090  1.00  0.00     0.014 A 
ATOM     34  C   UNL A   1      40.226  25.265  26.084  1.00  0.00     0.014 A 
ATOM     35  C   UNL A   1      39.443  25.666  28.734  1.00  0.00     0.010 A 
ATOM     36  C   UNL A   1      40.589  26.435  26.748  1.00  0.00     0.010 A 
ATOM     37  C   UNL A   1      40.204  26.649  28.081  1.00  0.00    -0.014 A 
BRANCH  37  38
ATOM     38  C   UNL A   1      40.618  27.894  28.778  1.00  0.00     0.031 A 
ATOM     39  C   UNL A   1      42.013  28.036  29.320  1.00  0.00     0.074 A 
ATOM     40  C   UNL A   1      39.714  28.871  28.989  1.00  0.00     0.049 A 
ATOM     41  N   UNL A   1      42.532  29.006  30.033  1.00  0.00    -0.248 NA
ATOM     42  C   UNL A   1      42.944  26.931  29.045  1.00  0.00     0.031 C 
ATOM     43  C   UNL A   1      38.318  28.836  28.551  1.00  0.00     0.029 A 
ATOM     44  N   UNL A   1      39.828  30.075  29.637  1.00  0.00    -0.354 N 
ATOM     45  C   UNL A   1      43.838  28.619  30.304  1.00  0.00     0.074 A 
ATOM     46  C   UNL A   1      44.020  27.308  29.720  1.00  0.00     0.031 C 
ATOM     47  C   UNL A   1      37.711  29.973  28.928  1.00  0.00     0.029 A 
ATOM     48  C   UNL A   1      38.660  30.797  29.669  1.00  0.00     0.049 A 
ATOM     49  H   UNL A   1      40.669  30.392  30.040  1.00  0.00     0.167 HD
ATOM     50  C   UNL A   1      44.803  29.306  30.964  1.00  0.00     0.037 A 
ATOM     51  C   UNL A   1      38.382  31.983  30.244  1.00  0.00     0.037 A 
ATOM     52  C   UNL A   1      44.626  30.621  31.524  1.00  0.00     0.049 A 
ATOM     53  C   UNL A   1      39.468  32.718  30.980  1.00  0.00     0.074 A 
ATOM     54  C   UNL A   1      45.561  31.421  32.158  1.00  0.00     0.029 A 
ATOM     55  N   UNL A   1      43.432  31.328  31.520  1.00  0.00    -0.354 N 
ATOM     56  N   UNL A   1      40.717  32.372  31.174  1.00  0.00    -0.248 NA
ATOM     57  C   UNL A   1      39.106  34.014  31.573  1.00  0.00     0.031 C 
ATOM     58  C   UNL A   1      44.921  32.591  32.580  1.00  0.00     0.029 A 
ATOM     59  C   UNL A   1      43.601  32.545  32.162  1.00  0.00     0.049 A 
ATOM     60  H   UNL A   1      42.589  31.011  31.121  1.00  0.00     0.167 HD
ATOM     61  C   UNL A   1      41.297  33.416  31.883  1.00  0.00     0.074 A 
ATOM     62  C   UNL A   1      40.266  34.414  32.074  1.00  0.00     0.031 C 
ATOM     63  C   UNL A   1      42.569  33.535  32.336  1.00  0.00     0.037 A 
BRANCH  50  64
ATOM     64  C   UNL A   1      46.143  28.646  31.116  1.00  0.00     0.064 A 
ATOM     65  C   UNL A   1      46.445  27.837  32.223  1.00  0.00     0.173 A 
ATOM     66  C   UNL A   1      47.123  28.787  30.122  1.00  0.00     0.173 A 
ATOM     67  F   UNL A   1      45.546  27.676  33.207  1.00  0.00    -0.203 F 
ATOM     68  C   UNL A   1      47.688  27.221  32.344  1.00  0.00     0.198 A 
ATOM     69  C   UNL A   1      48.354  28.143  30.231  1.00  0.00     0.198 A 
ATOM     70  F   UNL A   1      46.885  29.540  29.038  1.00  0.00    -0.203 F 
ATOM     71  F   UNL A   1      47.970  26.494  33.434  1.00  0.00    -0.200 F 
ATOM     72  C   UNL A   1      48.637  27.368  31.345  1.00  0.00     0.200 A 
ATOM     73  F   UNL A   1      49.265  28.274  29.257  1.00  0.00    -0.200 F 
ATOM     74  F   UNL A   1      49.829  26.767  31.458  1.00  0.00    -0.200 F 
ENDBRANCH  50  64
BRANCH  51  75
ATOM     75  C   UNL A   1      37.016  32.559  30.129  1.00  0.00     0.064 A 
ATOM     76  C   UNL A   1      36.647  33.317  29.009  1.00  0.00     0.173 A 
ATOM     77  C   UNL A   1      36.056  32.371  31.135  1.00  0.00     0.173 A 
ATOM     78  F   UNL A   1      37.538  33.543  28.032  1.00  0.00    -0.203 F 
ATOM     79  C   UNL A   1      35.378  33.881  28.909  1.00  0.00     0.198 A 
ATOM     80  C   UNL A   1      34.778  32.912  31.019  1.00  0.00     0.198 A 
ATOM     81  F   UNL A   1      36.358  31.652  32.226  1.00  0.00    -0.203 F 
ATOM     82  F   UNL A   1      35.068  34.642  27.849  1.00  0.00    -0.200 F 
ATOM     83  C   UNL A   1      34.442  33.674  29.910  1.00  0.00     0.200 A 
ATOM     84  F   UNL A   1      33.872  32.698  31.984  1.00  0.00    -0.200 F 
ATOM     85  F   UNL A   1      33.221  34.215  29.811  1.00  0.00    -0.200 F 
ENDBRANCH  51  75
BRANCH  63  86
ATOM     86  C   UNL A   1      42.932  34.806  33.048  1.00  0.00     0.064 A 
ATOM     87  C   UNL A   1      43.376  35.939  32.353  1.00  0.00     0.173 A 
ATOM     88  C   UNL A   1      42.793  34.902  34.441  1.00  0.00     0.173 A 
ATOM     89  F   UNL A   1      43.540  35.894  31.021  1.00  0.00    -0.203 F 
ATOM     90  C   UNL A   1      43.691  37.115  33.028  1.00  0.00     0.198 A 
ATOM     91  C   UNL A   1      43.080  36.089  35.110  1.00  0.00     0.198 A 
ATOM     92  F   UNL A   1      42.366  33.848  35.154  1.00  0.00    -0.203 F 
ATOM     93  F   UNL A   1      44.158  38.172  32.349  1.00  0.00    -0.200 F 
ATOM     94  C   UNL A   1      43.535  37.191  34.404  1.00  0.00     0.200 A 
ATOM     95  F   UNL A   1      42.916  36.164  36.438  1.00  0.00    -0.200 F 
ATOM     96  F   UNL A   1      43.830  38.327  35.052  1.00  0.00    -0.200 F 
ENDBRANCH  63  86
ENDBRANCH  37  38
ENDBRANCH  29  32
ENDBRANCH  27  28
ENDBRANCH  26  27
ENDBRANCH   1  26
TORSDOF 14
ENDMDL
MODEL 2
REMARK VINA RESULT:     -12.3      3.402      9.096
REMARK SMILES COc1cccc(/C=C(/CC(=O)NCCCNC(=O)c2ccc(-c3c4nc(c(-c5c(F)c(F)c(F)c(F)c5F)c5ccc([nH]5)c(-c5c(F)c(F)c(F)c(F)c5F)c5nc(c(-c6c(F)c(F)c(F)c(F)c6F)c6ccc3[nH]6)C=C5)C=C4)cc2)c2nc3ccccc3o2)c1
REMARK SMILES IDX 14 1 13 2 11 3 12 4 10 6 9 7 8 8 7 9 3 10 4 11 92 12 5 13
REMARK SMILES IDX 6 14 2 15 1 16 83 17 84 18 91 19 85 20 90 21 86 22 89 23
REMARK SMILES IDX 87 24 88 25 15 26 16 27 17 28 18 29 19 31 20 32 21 33 82 34
REMARK SMILES IDX 22 35 81 36 23 37 24 38 25 39 75 40 26 41 80 42 74 43 76 44
REMARK SMILES IDX 27 45 79 46 73 47 72 48 28 50 60 51 40 52 59 53 41 54 44 55
REMARK SMILES IDX 58 56 77 57 42 58 43 59 57 61 78 62 45 63 29 64 30 65 38 66
REMARK SMILES IDX 31 67 32 68 36 69 39 70 33 71 34 72 37 73 35 74 61 75 62 76
REMARK SMILES IDX 70 77 63 78 64 79 68 80 71 81 65 82 66 83 69 84 67 85 46 86
REMARK SMILES IDX 47 87 55 88 48 89 49 90 53 91 56 92 50 93 51 94 54 95 52 96
REMARK H PARENT 13 5 17 30 76 49 44 60
REMARK Flexibility Score: inf
ROOT
ATOM      1  C   UNL A   1      32.056  26.678  26.194  1.00  0.00     0.117 C 
ENDROOT
BRANCH   1   2
ATOM      2  N   UNL A   1      31.776  25.426  26.869  1.00  0.00    -0.356 N 
ATOM      3  C   UNL A   1      31.774  24.151  26.378  1.00  0.00     0.224 C 
ATOM      4  O   UNL A   1      31.631  23.222  27.175  1.00  0.00    -0.275 OA
ATOM      5  H   UNL A   1      31.556  25.506  27.825  1.00  0.00     0.163 HD
BRANCH   3   6
ATOM      6  C   UNL A   1      32.019  23.895  24.892  1.00  0.00     0.141 C 
BRANCH   6   7
ATOM      7  C   UNL A   1      32.760  22.585  24.622  1.00  0.00     0.025 C 
ATOM      8  C   UNL A   1      32.045  21.561  24.093  1.00  0.00     0.018 C 
BRANCH   8   9
ATOM      9  C   UNL A   1      32.261  20.120  23.802  1.00  0.00    -0.021 A 
ATOM     10  C   UNL A   1      32.796  17.916  24.745  1.00  0.00     0.119 A 
ATOM     11  C   UNL A   1      32.812  17.364  23.471  1.00  0.00     0.046 A 
ATOM     12  C   UNL A   1      32.529  19.280  24.907  1.00  0.00     0.054 A 
ATOM     13  C   UNL A   1      32.542  18.166  22.369  1.00  0.00     0.004 A 
ATOM     14  C   UNL A   1      32.283  19.533  22.535  1.00  0.00     0.008 A 
BRANCH  10  15
ATOM     15  O   UNL A   1      33.137  17.073  25.766  1.00  0.00    -0.497 OA
ATOM     16  C   UNL A   1      34.022  16.024  25.388  1.00  0.00     0.278 C 
ENDBRANCH  10  15
ENDBRANCH   8   9
BRANCH   7  17
ATOM     17  C   UNL A   1      34.147  22.484  24.972  1.00  0.00     0.223 A 
ATOM     18  N   UNL A   1      34.832  23.450  25.574  1.00  0.00    -0.210 NA
ATOM     19  O   UNL A   1      34.962  21.417  24.621  1.00  0.00    -0.436 OA
ATOM     20  C   UNL A   1      36.125  23.011  25.625  1.00  0.00     0.110 A 
ATOM     21  C   UNL A   1      36.203  21.748  25.077  1.00  0.00     0.155 A 
ATOM     22  C   UNL A   1      37.285  23.616  26.120  1.00  0.00     0.032 A 
ATOM     23  C   UNL A   1      37.361  20.983  25.020  1.00  0.00     0.049 A 
ATOM     24  C   UNL A   1      38.480  22.885  26.072  1.00  0.00     0.003 A 
ATOM     25  C   UNL A   1      38.512  21.587  25.545  1.00  0.00     0.004 A 
ENDBRANCH   7  17
ENDBRANCH   6   7
ENDBRANCH   3   6
ENDBRANCH   1   2
BRANCH   1  26
ATOM     26  C   UNL A   1      32.191  27.861  27.149  1.00  0.00     0.042 C 
BRANCH  26  27
ATOM     27  C   UNL A   1      33.602  28.432  27.263  1.00  0.00     0.118 C 
BRANCH  27  28
ATOM     28  N   UNL A   1      33.618  29.857  27.570  1.00  0.00    -0.352 N 
ATOM     29  C   UNL A   1      34.585  30.639  28.145  1.00  0.00     0.251 C 
ATOM     30  H   UNL A   1      32.796  30.338  27.325  1.00  0.00     0.163 HD
ATOM     31  O   UNL A   1      34.311  31.802  28.458  1.00  0.00    -0.269 OA
BRANCH  29  32
ATOM     32  C   UNL A   1      35.944  30.120  28.415  1.00  0.00     0.039 A 
ATOM     33  C   UNL A   1      36.898  30.170  27.392  1.00  0.00     0.014 A 
ATOM     34  C   UNL A   1      36.277  29.544  29.644  1.00  0.00     0.014 A 
ATOM     35  C   UNL A   1      38.196  29.708  27.621  1.00  0.00     0.010 A 
ATOM     36  C   UNL A   1      37.591  29.150  29.895  1.00  0.00     0.010 A 
ATOM     37  C   UNL A   1      38.566  29.229  28.888  1.00  0.00    -0.014 A 
BRANCH  37  38
ATOM     38  C   UNL A   1      39.964  28.823  29.182  1.00  0.00     0.031 A 
ATOM     39  C   UNL A   1      40.895  29.761  29.899  1.00  0.00     0.074 A 
ATOM     40  C   UNL A   1      40.420  27.635  28.738  1.00  0.00     0.049 A 
ATOM     41  N   UNL A   1      42.171  29.621  30.166  1.00  0.00    -0.248 NA
ATOM     42  C   UNL A   1      40.323  31.036  30.359  1.00  0.00     0.031 C 
ATOM     43  C   UNL A   1      39.629  26.654  27.994  1.00  0.00     0.029 A 
ATOM     44  N   UNL A   1      41.661  27.058  28.834  1.00  0.00    -0.354 N 
ATOM     45  C   UNL A   1      42.555  30.794  30.804  1.00  0.00     0.074 A 
ATOM     46  C   UNL A   1      41.391  31.652  30.846  1.00  0.00     0.031 C 
ATOM     47  C   UNL A   1      40.399  25.590  27.716  1.00  0.00     0.029 A 
ATOM     48  C   UNL A   1      41.746  25.830  28.223  1.00  0.00     0.049 A 
ATOM     49  H   UNL A   1      42.419  27.483  29.298  1.00  0.00     0.167 HD
ATOM     50  C   UNL A   1      43.764  31.115  31.326  1.00  0.00     0.037 A 
ATOM     51  C   UNL A   1      42.795  24.999  28.076  1.00  0.00     0.037 A 
ATOM     52  C   UNL A   1      44.914  30.250  31.304  1.00  0.00     0.049 A 
ATOM     53  C   UNL A   1      44.129  25.385  28.655  1.00  0.00     0.074 A 
ATOM     54  C   UNL A   1      46.165  30.463  31.859  1.00  0.00     0.029 A 
ATOM     55  N   UNL A   1      44.956  29.005  30.692  1.00  0.00    -0.354 N 
ATOM     56  N   UNL A   1      44.464  26.468  29.313  1.00  0.00    -0.248 NA
ATOM     57  C   UNL A   1      45.231  24.429  28.474  1.00  0.00     0.031 C 
ATOM     58  C   UNL A   1      46.977  29.369  31.540  1.00  0.00     0.029 A 
ATOM     59  C   UNL A   1      46.218  28.450  30.834  1.00  0.00     0.049 A 
ATOM     60  H   UNL A   1      44.201  28.580  30.224  1.00  0.00     0.167 HD
ATOM     61  C   UNL A   1      45.801  26.312  29.650  1.00  0.00     0.074 A 
ATOM     62  C   UNL A   1      46.214  25.024  29.134  1.00  0.00     0.031 C 
ATOM     63  C   UNL A   1      46.614  27.161  30.325  1.00  0.00     0.037 A 
BRANCH  50  64
ATOM     64  C   UNL A   1      43.906  32.465  31.968  1.00  0.00     0.064 A 
ATOM     65  C   UNL A   1      43.668  32.658  33.338  1.00  0.00     0.173 A 
ATOM     66  C   UNL A   1      44.328  33.571  31.215  1.00  0.00     0.173 A 
ATOM     67  F   UNL A   1      43.255  31.635  34.102  1.00  0.00    -0.203 F 
ATOM     68  C   UNL A   1      43.817  33.913  33.923  1.00  0.00     0.198 A 
ATOM     69  C   UNL A   1      44.506  34.819  31.810  1.00  0.00     0.198 A 
ATOM     70  F   UNL A   1      44.578  33.442  29.904  1.00  0.00    -0.203 F 
ATOM     71  F   UNL A   1      43.537  34.082  35.223  1.00  0.00    -0.200 F 
ATOM     72  C   UNL A   1      44.243  34.990  33.161  1.00  0.00     0.200 A 
ATOM     73  F   UNL A   1      44.932  35.855  31.075  1.00  0.00    -0.200 F 
ATOM     74  F   UNL A   1      44.394  36.195  33.726  1.00  0.00    -0.200 F 
ENDBRANCH  50  64
BRANCH  51  75
ATOM     75  C   UNL A   1      42.621  23.706  27.364  1.00  0.00     0.064 A 
ATOM     76  C   UNL A   1      42.022  22.609  28.000  1.00  0.00     0.173 A 
ATOM     77  C   UNL A   1      43.055  23.536  26.040  1.00  0.00     0.173 A 
ATOM     78  F   UNL A   1      41.612  22.717  29.272  1.00  0.00    -0.203 F 
ATOM     79  C   UNL A   1      41.880  21.388  27.346  1.00  0.00     0.198 A 
ATOM     80  C   UNL A   1      42.886  22.321  25.378  1.00  0.00     0.198 A 
ATOM     81  F   UNL A   1      43.632  24.554  25.386  1.00  0.00    -0.203 F 
ATOM     82  F   UNL A   1      41.347  20.343  27.994  1.00  0.00    -0.200 F 
ATOM     83  C   UNL A   1      42.306  21.246  26.034  1.00  0.00     0.200 A 
ATOM     84  F   UNL A   1      43.288  22.193  24.106  1.00  0.00    -0.200 F 
ATOM     85  F   UNL A   1      42.167  20.071  25.406  1.00  0.00    -0.200 F 
ENDBRANCH  51  75
BRANCH  63  86
ATOM     86  C   UNL A   1      48.023  26.710  30.582  1.00  0.00     0.064 A 
ATOM     87  C   UNL A   1      49.076  27.057  29.725  1.00  0.00     0.173 A 
ATOM     88  C   UNL A   1      48.327  25.955  31.726  1.00  0.00     0.173 A 
ATOM     89  F   UNL A   1      48.835  27.766  28.611  1.00  0.00    -0.203 F 
ATOM     90  C   UNL A   1      50.379  26.645  29.990  1.00  0.00     0.198 A 
ATOM     91  C   UNL A   1      49.635  25.570  32.003  1.00  0.00     0.198 A 
ATOM     92  F   UNL A   1      47.356  25.601  32.581  1.00  0.00    -0.203 F 
ATOM     93  F   UNL A   1      51.364  26.950  29.133  1.00  0.00    -0.200 F 
ATOM     94  C   UNL A   1      50.659  25.909  31.131  1.00  0.00     0.200 A 
ATOM     95  F   UNL A   1      49.905  24.870  33.114  1.00  0.00    -0.200 F 
ATOM     96  F   UNL A   1      51.915  25.521  31.390  1.00  0.00    -0.200 F 
ENDBRANCH  63  86
ENDBRANCH  37  38
ENDBRANCH  29  32
ENDBRANCH  27  28
ENDBRANCH  26  27
ENDBRANCH   1  26
TORSDOF 14
ENDMDL
MODEL 3
REMARK VINA RESULT:     -12.2      3.714      7.973
REMARK SMILES COc1cccc(/C=C(/CC(=O)NCCCNC(=O)c2ccc(-c3c4nc(c(-c5c(F)c(F)c(F)c(F)c5F)c5ccc([nH]5)c(-c5c(F)c(F)c(F)c(F)c5F)c5nc(c(-c6c(F)c(F)c(F)c(F)c6F)c6ccc3[nH]6)C=C5)C=C4)cc2)c2nc3ccccc3o2)c1
REMARK SMILES IDX 14 1 13 2 11 3 12 4 10 6 9 7 8 8 7 9 3 10 4 11 92 12 5 13
REMARK SMILES IDX 6 14 2 15 1 16 83 17 84 18 91 19 85 20 90 21 86 22 89 23
REMARK SMILES IDX 87 24 88 25 15 26 16 27 17 28 18 29 19 31 20 32 21 33 82 34
REMARK SMILES IDX 22 35 81 36 23 37 24 38 25 39 75 40 26 41 80 42 74 43 76 44
REMARK SMILES IDX 27 45 79 46 73 47 72 48 28 50 60 51 40 52 59 53 41 54 44 55
REMARK SMILES IDX 58 56 77 57 42 58 43 59 57 61 78 62 45 63 29 64 30 65 38 66
REMARK SMILES IDX 31 67 32 68 36 69 39 70 33 71 34 72 37 73 35 74 61 75 62 76
REMARK SMILES IDX 70 77 63 78 64 79 68 80 71 81 65 82 66 83 69 84 67 85 46 86
REMARK SMILES IDX 47 87 55 88 48 89 49 90 53 91 56 92 50 93 51 94 54 95 52 96
REMARK H PARENT 13 5 17 30 76 49 44 60
REMARK Flexibility Score: inf
ROOT
ATOM      1  C   UNL A   1      31.493  30.769  26.147  1.00  0.00     0.117 C 
ENDROOT
BRANCH   1   2
ATOM      2  N   UNL A   1      32.441  30.054  26.979  1.00  0.00    -0.356 N 
ATOM      3  C   UNL A   1      33.522  29.299  26.619  1.00  0.00     0.224 C 
ATOM      4  O   UNL A   1      34.266  28.888  27.512  1.00  0.00    -0.275 OA
ATOM      5  H   UNL A   1      32.283  30.122  27.947  1.00  0.00     0.163 HD
BRANCH   3   6
ATOM      6  C   UNL A   1      33.831  29.044  25.145  1.00  0.00     0.141 C 
BRANCH   6   7
ATOM      7  C   UNL A   1      32.985  27.925  24.536  1.00  0.00     0.025 C 
ATOM      8  C   UNL A   1      33.487  26.667  24.585  1.00  0.00     0.018 C 
BRANCH   8   9
ATOM      9  C   UNL A   1      33.135  25.333  24.031  1.00  0.00    -0.021 A 
ATOM     10  C   UNL A   1      32.063  23.169  24.475  1.00  0.00     0.119 A 
ATOM     11  C   UNL A   1      32.450  22.709  23.224  1.00  0.00     0.046 A 
ATOM     12  C   UNL A   1      32.406  24.465  24.876  1.00  0.00     0.054 A 
ATOM     13  C   UNL A   1      33.158  23.547  22.370  1.00  0.00     0.004 A 
ATOM     14  C   UNL A   1      33.506  24.841  22.778  1.00  0.00     0.008 A 
BRANCH  10  15
ATOM     15  O   UNL A   1      31.428  22.260  25.276  1.00  0.00    -0.497 OA
ATOM     16  C   UNL A   1      30.643  22.841  26.312  1.00  0.00     0.278 C 
ENDBRANCH  10  15
ENDBRANCH   8   9
BRANCH   7  17
ATOM     17  C   UNL A   1      31.736  28.257  23.913  1.00  0.00     0.223 A 
ATOM     18  N   UNL A   1      31.602  29.178  22.966  1.00  0.00    -0.210 NA
ATOM     19  O   UNL A   1      30.510  27.739  24.305  1.00  0.00    -0.436 OA
ATOM     20  C   UNL A   1      30.260  29.268  22.725  1.00  0.00     0.110 A 
ATOM     21  C   UNL A   1      29.589  28.360  23.515  1.00  0.00     0.155 A 
ATOM     22  C   UNL A   1      29.533  30.087  21.853  1.00  0.00     0.032 A 
ATOM     23  C   UNL A   1      28.217  28.147  23.482  1.00  0.00     0.049 A 
ATOM     24  C   UNL A   1      28.143  29.915  21.795  1.00  0.00     0.003 A 
ATOM     25  C   UNL A   1      27.501  28.952  22.585  1.00  0.00     0.004 A 
ENDBRANCH   7  17
ENDBRANCH   6   7
ENDBRANCH   3   6
ENDBRANCH   1   2
BRANCH   1  26
ATOM     26  C   UNL A   1      31.377  32.249  26.501  1.00  0.00     0.042 C 
BRANCH  26  27
ATOM     27  C   UNL A   1      32.613  32.844  27.171  1.00  0.00     0.118 C 
BRANCH  27  28
ATOM     28  N   UNL A   1      32.407  34.209  27.638  1.00  0.00    -0.352 N 
ATOM     29  C   UNL A   1      33.010  34.912  28.648  1.00  0.00     0.251 C 
ATOM     30  H   UNL A   1      31.718  34.711  27.148  1.00  0.00     0.163 HD
ATOM     31  O   UNL A   1      32.554  36.013  28.971  1.00  0.00    -0.269 OA
BRANCH  29  32
ATOM     32  C   UNL A   1      34.184  34.376  29.373  1.00  0.00     0.039 A 
ATOM     33  C   UNL A   1      33.974  33.688  30.573  1.00  0.00     0.014 A 
ATOM     34  C   UNL A   1      35.487  34.581  28.911  1.00  0.00     0.014 A 
ATOM     35  C   UNL A   1      35.059  33.149  31.271  1.00  0.00     0.010 A 
ATOM     36  C   UNL A   1      36.561  33.983  29.568  1.00  0.00     0.010 A 
ATOM     37  C   UNL A   1      36.360  33.259  30.754  1.00  0.00    -0.014 A 
BRANCH  37  38
ATOM     38  C   UNL A   1      37.515  32.612  31.428  1.00  0.00     0.031 A 
ATOM     39  C   UNL A   1      38.218  31.448  30.786  1.00  0.00     0.074 A 
ATOM     40  C   UNL A   1      37.886  33.026  32.655  1.00  0.00     0.049 A 
ATOM     41  N   UNL A   1      39.185  30.700  31.258  1.00  0.00    -0.248 NA
ATOM     42  C   UNL A   1      37.761  31.059  29.443  1.00  0.00     0.031 C 
ATOM     43  C   UNL A   1      37.258  34.115  33.404  1.00  0.00     0.029 A 
ATOM     44  N   UNL A   1      38.871  32.570  33.497  1.00  0.00    -0.354 N 
ATOM     45  C   UNL A   1      39.435  29.744  30.281  1.00  0.00     0.074 A 
ATOM     46  C   UNL A   1      38.491  29.978  29.210  1.00  0.00     0.031 C 
ATOM     47  C   UNL A   1      37.882  34.255  34.584  1.00  0.00     0.029 A 
ATOM     48  C   UNL A   1      38.925  33.239  34.695  1.00  0.00     0.049 A 
ATOM     49  H   UNL A   1      39.481  31.834  33.262  1.00  0.00     0.167 HD
ATOM     50  C   UNL A   1      40.381  28.773  30.272  1.00  0.00     0.037 A 
ATOM     51  C   UNL A   1      39.716  33.048  35.767  1.00  0.00     0.037 A 
ATOM     52  C   UNL A   1      41.335  28.557  31.329  1.00  0.00     0.049 A 
ATOM     53  C   UNL A   1      40.750  31.955  35.735  1.00  0.00     0.074 A 
ATOM     54  C   UNL A   1      42.368  27.638  31.383  1.00  0.00     0.029 A 
ATOM     55  N   UNL A   1      41.370  29.269  32.520  1.00  0.00    -0.354 N 
ATOM     56  N   UNL A   1      41.021  31.100  34.780  1.00  0.00    -0.248 NA
ATOM     57  C   UNL A   1      41.593  31.805  36.930  1.00  0.00     0.031 C 
ATOM     58  C   UNL A   1      42.998  27.760  32.627  1.00  0.00     0.029 A 
ATOM     59  C   UNL A   1      42.392  28.792  33.326  1.00  0.00     0.049 A 
ATOM     60  H   UNL A   1      40.758  30.003  32.758  1.00  0.00     0.167 HD
ATOM     61  C   UNL A   1      42.080  30.332  35.243  1.00  0.00     0.074 A 
ATOM     62  C   UNL A   1      42.412  30.831  36.561  1.00  0.00     0.031 C 
ATOM     63  C   UNL A   1      42.719  29.304  34.632  1.00  0.00     0.037 A 
BRANCH  50  64
ATOM     64  C   UNL A   1      40.432  27.866  29.076  1.00  0.00     0.064 A 
ATOM     65  C   UNL A   1      39.669  26.690  29.010  1.00  0.00     0.173 A 
ATOM     66  C   UNL A   1      41.219  28.200  27.963  1.00  0.00     0.173 A 
ATOM     67  F   UNL A   1      38.906  26.321  30.050  1.00  0.00    -0.203 F 
ATOM     68  C   UNL A   1      39.717  25.865  27.888  1.00  0.00     0.198 A 
ATOM     69  C   UNL A   1      41.240  27.389  26.830  1.00  0.00     0.198 A 
ATOM     70  F   UNL A   1      41.960  29.317  27.968  1.00  0.00    -0.203 F 
ATOM     71  F   UNL A   1      39.018  24.722  27.869  1.00  0.00    -0.200 F 
ATOM     72  C   UNL A   1      40.496  26.219  26.798  1.00  0.00     0.200 A 
ATOM     73  F   UNL A   1      41.981  27.740  25.771  1.00  0.00    -0.200 F 
ATOM     74  F   UNL A   1      40.534  25.430  25.716  1.00  0.00    -0.200 F 
ENDBRANCH  50  64
BRANCH  51  75
ATOM     75  C   UNL A   1      39.574  33.925  36.959  1.00  0.00     0.064 A 
ATOM     76  C   UNL A   1      38.764  33.546  38.038  1.00  0.00     0.173 A 
ATOM     77  C   UNL A   1      40.237  35.159  37.041  1.00  0.00     0.173 A 
ATOM     78  F   UNL A   1      38.092  32.386  37.995  1.00  0.00    -0.203 F 
ATOM     79  C   UNL A   1      38.606  34.376  39.145  1.00  0.00     0.198 A 
ATOM     80  C   UNL A   1      40.101  35.975  38.163  1.00  0.00     0.198 A 
ATOM     81  F   UNL A   1      41.025  35.567  36.037  1.00  0.00    -0.203 F 
ATOM     82  F   UNL A   1      37.787  34.011  40.142  1.00  0.00    -0.200 F 
ATOM     83  C   UNL A   1      39.279  35.586  39.210  1.00  0.00     0.200 A 
ATOM     84  F   UNL A   1      40.763  37.138  38.226  1.00  0.00    -0.200 F 
ATOM     85  F   UNL A   1      39.128  36.383  40.276  1.00  0.00    -0.200 F 
ENDBRANCH  51  75
BRANCH  63  86
ATOM     86  C   UNL A   1      43.870  28.675  35.362  1.00  0.00     0.064 A 
ATOM     87  C   UNL A   1      43.696  27.550  36.181  1.00  0.00     0.173 A 
ATOM     88  C   UNL A   1      45.170  29.180  35.206  1.00  0.00     0.173 A 
ATOM     89  F   UNL A   1      42.471  27.038  36.375  1.00  0.00    -0.203 F 
ATOM     90  C   UNL A   1      44.778  26.969  36.837  1.00  0.00     0.198 A 
ATOM     91  C   UNL A   1      46.253  28.578  35.839  1.00  0.00     0.198 A 
ATOM     92  F   UNL A   1      45.391  30.251  34.429  1.00  0.00    -0.203 F 
ATOM     93  F   UNL A   1      44.583  25.923  37.651  1.00  0.00    -0.200 F 
ATOM     94  C   UNL A   1      46.056  27.478  36.659  1.00  0.00     0.200 A 
ATOM     95  F   UNL A   1      47.489  29.064  35.655  1.00  0.00    -0.200 F 
ATOM     96  F   UNL A   1      47.098  26.912  37.283  1.00  0.00    -0.200 F 
ENDBRANCH  63  86
ENDBRANCH  37  38
ENDBRANCH  29  32
ENDBRANCH  27  28
ENDBRANCH  26  27
ENDBRANCH   1  26
TORSDOF 14
ENDMDL
