MODEL 1
REMARK VINA RESULT:     -10.9      0.000      0.000
REMARK SMILES CCC(CC)Oc1cc(C(=O)NCCCNC(=O)c2ccc(-c3c4nc(c(-c5c(F)c(F)c(F)c(F)c5F)c5ccc([nH]5)c(-c5c(F)c(F)c(F)c(F)c5F)c5nc(c(-c6c(F)c(F)c(F)c(F)c6F)c6ccc3[nH]6)C=C5)C=C4)cc2)c(N)cc1OC
REMARK SMILES IDX 13 1 12 2 10 3 11 4 9 6 7 7 8 8 85 9 84 10 82 11 6 12 3 13
REMARK SMILES IDX 2 14 1 15 4 16 5 17 86 18 87 19 83 20 14 23 15 24 16 25
REMARK SMILES IDX 17 26 18 28 19 29 20 30 81 31 21 32 80 33 22 34 23 35 24 36
REMARK SMILES IDX 74 37 25 38 79 39 73 40 75 41 26 42 78 43 72 44 71 45 27 47
REMARK SMILES IDX 59 48 39 49 58 50 40 51 43 52 57 53 76 54 41 55 42 56 56 58
REMARK SMILES IDX 77 59 44 60 28 61 29 62 37 63 30 64 31 65 35 66 38 67 32 68
REMARK SMILES IDX 33 69 36 70 34 71 60 72 61 73 69 74 62 75 63 76 67 77 70 78
REMARK SMILES IDX 64 79 65 80 68 81 66 82 45 83 46 84 54 85 47 86 48 87 52 88
REMARK SMILES IDX 55 89 49 90 50 91 53 92 51 93
REMARK H PARENT 12 5 83 21 83 22 16 27 75 46 43 57
REMARK Flexibility Score: inf
ROOT
ATOM      1  C   UNL A   1      37.345  21.272  24.546  1.00  0.00     0.118 C 
ENDROOT
BRANCH   1   2
ATOM      2  N   UNL A   1      37.822  22.481  25.192  1.00  0.00    -0.352 N 
ATOM      3  C   UNL A   1      37.125  23.459  25.864  1.00  0.00     0.253 C 
ATOM      4  O   UNL A   1      37.781  24.355  26.401  1.00  0.00    -0.269 OA
ATOM      5  H   UNL A   1      38.795  22.623  25.142  1.00  0.00     0.163 HD
BRANCH   3   6
ATOM      6  C   UNL A   1      35.635  23.542  25.863  1.00  0.00     0.066 A 
ATOM      7  C   UNL A   1      33.743  24.835  24.978  1.00  0.00     0.162 A 
ATOM      8  C   UNL A   1      35.108  24.690  25.238  1.00  0.00     0.066 A 
ATOM      9  C   UNL A   1      32.878  23.810  25.377  1.00  0.00     0.162 A 
ATOM     10  C   UNL A   1      33.397  22.710  26.079  1.00  0.00     0.076 A 
ATOM     11  C   UNL A   1      34.751  22.610  26.421  1.00  0.00     0.048 A 
BRANCH   7  12
ATOM     12  O   UNL A   1      33.243  25.988  24.455  1.00  0.00    -0.487 OA
BRANCH  12  13
ATOM     13  C   UNL A   1      32.710  27.034  25.291  1.00  0.00     0.173 C 
BRANCH  13  14
ATOM     14  C   UNL A   1      33.688  28.190  25.565  1.00  0.00     0.042 C 
ATOM     15  C   UNL A   1      33.719  28.632  27.021  1.00  0.00     0.008 C 
ENDBRANCH  13  14
BRANCH  13  16
ATOM     16  C   UNL A   1      31.258  27.434  24.963  1.00  0.00     0.042 C 
ATOM     17  C   UNL A   1      31.063  28.739  24.207  1.00  0.00     0.008 C 
ENDBRANCH  13  16
ENDBRANCH  12  13
ENDBRANCH   7  12
BRANCH   9  18
ATOM     18  O   UNL A   1      31.530  23.697  25.170  1.00  0.00    -0.493 OA
ATOM     19  C   UNL A   1      30.661  23.874  26.276  1.00  0.00     0.278 C 
ENDBRANCH   9  18
BRANCH  11  20
ATOM     20  N   UNL A   1      35.135  21.572  27.263  1.00  0.00    -0.398 N 
ATOM     21  H   UNL A   1      35.349  20.687  26.887  1.00  0.00     0.156 HD
ATOM     22  H   UNL A   1      35.192  21.721  28.234  1.00  0.00     0.156 HD
ENDBRANCH  11  20
ENDBRANCH   3   6
ENDBRANCH   1   2
BRANCH   1  23
ATOM     23  C   UNL A   1      38.109  20.007  24.886  1.00  0.00     0.042 C 
BRANCH  23  24
ATOM     24  C   UNL A   1      39.133  20.144  25.998  1.00  0.00     0.118 C 
BRANCH  24  25
ATOM     25  N   UNL A   1      40.239  19.196  25.919  1.00  0.00    -0.352 N 
ATOM     26  C   UNL A   1      41.596  19.358  26.074  1.00  0.00     0.251 C 
ATOM     27  H   UNL A   1      39.963  18.273  25.718  1.00  0.00     0.163 HD
ATOM     28  O   UNL A   1      42.345  18.408  25.849  1.00  0.00    -0.269 OA
BRANCH  26  29
ATOM     29  C   UNL A   1      42.176  20.663  26.465  1.00  0.00     0.039 A 
ATOM     30  C   UNL A   1      42.587  21.554  25.468  1.00  0.00     0.014 A 
ATOM     31  C   UNL A   1      42.330  21.018  27.803  1.00  0.00     0.014 A 
ATOM     32  C   UNL A   1      43.065  22.821  25.818  1.00  0.00     0.010 A 
ATOM     33  C   UNL A   1      42.663  22.322  28.144  1.00  0.00     0.010 A 
ATOM     34  C   UNL A   1      43.062  23.234  27.159  1.00  0.00    -0.014 A 
BRANCH  34  35
ATOM     35  C   UNL A   1      43.518  24.590  27.567  1.00  0.00     0.031 A 
ATOM     36  C   UNL A   1      42.504  25.641  27.943  1.00  0.00     0.074 A 
ATOM     37  C   UNL A   1      44.829  24.901  27.533  1.00  0.00     0.049 A 
ATOM     38  N   UNL A   1      42.686  26.902  28.249  1.00  0.00    -0.248 NA
ATOM     39  C   UNL A   1      41.090  25.231  27.932  1.00  0.00     0.031 C 
ATOM     40  C   UNL A   1      45.907  23.995  27.131  1.00  0.00     0.029 A 
ATOM     41  N   UNL A   1      45.479  26.070  27.842  1.00  0.00    -0.354 N 
ATOM     42  C   UNL A   1      41.416  27.431  28.440  1.00  0.00     0.074 A 
ATOM     43  C   UNL A   1      40.470  26.382  28.134  1.00  0.00     0.031 C 
ATOM     44  C   UNL A   1      47.084  24.627  27.261  1.00  0.00     0.029 A 
ATOM     45  C   UNL A   1      46.844  25.994  27.712  1.00  0.00     0.049 A 
ATOM     46  H   UNL A   1      45.010  26.887  28.129  1.00  0.00     0.167 HD
ATOM     47  C   UNL A   1      41.065  28.667  28.870  1.00  0.00     0.037 A 
ATOM     48  C   UNL A   1      47.794  26.922  27.935  1.00  0.00     0.037 A 
ATOM     49  C   UNL A   1      42.010  29.696  29.209  1.00  0.00     0.049 A 
ATOM     50  C   UNL A   1      47.381  28.290  28.412  1.00  0.00     0.074 A 
ATOM     51  C   UNL A   1      41.767  30.963  29.708  1.00  0.00     0.029 A 
ATOM     52  N   UNL A   1      43.387  29.571  29.084  1.00  0.00    -0.354 N 
ATOM     53  N   UNL A   1      46.180  28.756  28.658  1.00  0.00    -0.248 NA
ATOM     54  C   UNL A   1      48.460  29.258  28.652  1.00  0.00     0.031 C 
ATOM     55  C   UNL A   1      42.993  31.623  29.838  1.00  0.00     0.029 A 
ATOM     56  C   UNL A   1      44.005  30.747  29.479  1.00  0.00     0.049 A 
ATOM     57  H   UNL A   1      43.855  28.768  28.762  1.00  0.00     0.167 HD
ATOM     58  C   UNL A   1      46.361  30.054  29.117  1.00  0.00     0.074 A 
ATOM     59  C   UNL A   1      47.788  30.296  29.128  1.00  0.00     0.031 C 
ATOM     60  C   UNL A   1      45.430  30.964  29.498  1.00  0.00     0.037 A 
BRANCH  47  61
ATOM     61  C   UNL A   1      39.597  28.961  29.005  1.00  0.00     0.064 A 
ATOM     62  C   UNL A   1      38.814  29.342  27.902  1.00  0.00     0.173 A 
ATOM     63  C   UNL A   1      38.960  28.855  30.251  1.00  0.00     0.173 A 
ATOM     64  F   UNL A   1      39.374  29.472  26.690  1.00  0.00    -0.203 F 
ATOM     65  C   UNL A   1      37.464  29.649  28.050  1.00  0.00     0.198 A 
ATOM     66  C   UNL A   1      37.600  29.126  30.388  1.00  0.00     0.198 A 
ATOM     67  F   UNL A   1      39.655  28.489  31.338  1.00  0.00    -0.203 F 
ATOM     68  F   UNL A   1      36.758  30.079  26.996  1.00  0.00    -0.200 F 
ATOM     69  C   UNL A   1      36.857  29.534  29.291  1.00  0.00     0.200 A 
ATOM     70  F   UNL A   1      37.011  28.999  31.584  1.00  0.00    -0.200 F 
ATOM     71  F   UNL A   1      35.557  29.828  29.431  1.00  0.00    -0.200 F 
ENDBRANCH  47  61
BRANCH  48  72
ATOM     72  C   UNL A   1      49.231  26.579  27.762  1.00  0.00     0.064 A 
ATOM     73  C   UNL A   1      49.794  26.478  26.482  1.00  0.00     0.173 A 
ATOM     74  C   UNL A   1      50.066  26.333  28.862  1.00  0.00     0.173 A 
ATOM     75  F   UNL A   1      49.031  26.684  25.398  1.00  0.00    -0.203 F 
ATOM     76  C   UNL A   1      51.128  26.120  26.306  1.00  0.00     0.198 A 
ATOM     77  C   UNL A   1      51.411  26.006  28.686  1.00  0.00     0.198 A 
ATOM     78  F   UNL A   1      49.581  26.422  30.108  1.00  0.00    -0.203 F 
ATOM     79  F   UNL A   1      51.626  25.980  25.069  1.00  0.00    -0.200 F 
ATOM     80  C   UNL A   1      51.938  25.889  27.408  1.00  0.00     0.200 A 
ATOM     81  F   UNL A   1      52.193  25.799  29.754  1.00  0.00    -0.200 F 
ATOM     82  F   UNL A   1      53.222  25.547  27.239  1.00  0.00    -0.200 F 
ENDBRANCH  48  72
BRANCH  60  83
ATOM     83  C   UNL A   1      45.928  32.284  30.012  1.00  0.00     0.064 A 
ATOM     84  C   UNL A   1      46.115  33.387  29.166  1.00  0.00     0.173 A 
ATOM     85  C   UNL A   1      46.191  32.455  31.380  1.00  0.00     0.173 A 
ATOM     86  F   UNL A   1      45.890  33.273  27.847  1.00  0.00    -0.203 F 
ATOM     87  C   UNL A   1      46.583  34.599  29.664  1.00  0.00     0.198 A 
ATOM     88  C   UNL A   1      46.624  33.678  31.880  1.00  0.00     0.198 A 
ATOM     89  F   UNL A   1      46.019  31.435  32.235  1.00  0.00    -0.203 F 
ATOM     90  F   UNL A   1      46.812  35.622  28.827  1.00  0.00    -0.200 F 
ATOM     91  C   UNL A   1      46.829  34.747  31.021  1.00  0.00     0.200 A 
ATOM     92  F   UNL A   1      46.844  33.824  33.195  1.00  0.00    -0.200 F 
ATOM     93  F   UNL A   1      47.274  35.917  31.499  1.00  0.00    -0.200 F 
ENDBRANCH  60  83
ENDBRANCH  34  35
ENDBRANCH  26  29
ENDBRANCH  24  25
ENDBRANCH  23  24
ENDBRANCH   1  23
TORSDOF 16
ENDMDL
MODEL 2
REMARK VINA RESULT:     -10.8      5.517     10.657
REMARK SMILES CCC(CC)Oc1cc(C(=O)NCCCNC(=O)c2ccc(-c3c4nc(c(-c5c(F)c(F)c(F)c(F)c5F)c5ccc([nH]5)c(-c5c(F)c(F)c(F)c(F)c5F)c5nc(c(-c6c(F)c(F)c(F)c(F)c6F)c6ccc3[nH]6)C=C5)C=C4)cc2)c(N)cc1OC
REMARK SMILES IDX 13 1 12 2 10 3 11 4 9 6 7 7 8 8 85 9 84 10 82 11 6 12 3 13
REMARK SMILES IDX 2 14 1 15 4 16 5 17 86 18 87 19 83 20 14 23 15 24 16 25
REMARK SMILES IDX 17 26 18 28 19 29 20 30 81 31 21 32 80 33 22 34 23 35 24 36
REMARK SMILES IDX 74 37 25 38 79 39 73 40 75 41 26 42 78 43 72 44 71 45 27 47
REMARK SMILES IDX 59 48 39 49 58 50 40 51 43 52 57 53 76 54 41 55 42 56 56 58
REMARK SMILES IDX 77 59 44 60 28 61 29 62 37 63 30 64 31 65 35 66 38 67 32 68
REMARK SMILES IDX 33 69 36 70 34 71 60 72 61 73 69 74 62 75 63 76 67 77 70 78
REMARK SMILES IDX 64 79 65 80 68 81 66 82 45 83 46 84 54 85 47 86 48 87 52 88
REMARK SMILES IDX 55 89 49 90 50 91 53 92 51 93
REMARK H PARENT 12 5 83 21 83 22 16 27 75 46 43 57
REMARK Flexibility Score: inf
ROOT
ATOM      1  C   UNL A   1      31.943  30.572  26.618  1.00  0.00     0.118 C 
ENDROOT
BRANCH   1   2
ATOM      2  N   UNL A   1      33.217  30.131  27.157  1.00  0.00    -0.352 N 
ATOM      3  C   UNL A   1      34.055  29.123  26.736  1.00  0.00     0.253 C 
ATOM      4  O   UNL A   1      35.133  29.001  27.321  1.00  0.00    -0.269 OA
ATOM      5  H   UNL A   1      33.531  30.631  27.945  1.00  0.00     0.163 HD
BRANCH   3   6
ATOM      6  C   UNL A   1      33.662  28.117  25.705  1.00  0.00     0.066 A 
ATOM      7  C   UNL A   1      32.995  25.772  25.407  1.00  0.00     0.162 A 
ATOM      8  C   UNL A   1      33.536  26.798  26.185  1.00  0.00     0.066 A 
ATOM      9  C   UNL A   1      32.589  26.072  24.102  1.00  0.00     0.162 A 
ATOM     10  C   UNL A   1      32.799  27.365  23.599  1.00  0.00     0.076 A 
ATOM     11  C   UNL A   1      33.427  28.368  24.348  1.00  0.00     0.048 A 
BRANCH   7  12
ATOM     12  O   UNL A   1      32.964  24.487  25.856  1.00  0.00    -0.487 OA
BRANCH  12  13
ATOM     13  C   UNL A   1      34.100  23.609  25.727  1.00  0.00     0.173 C 
BRANCH  13  14
ATOM     14  C   UNL A   1      35.365  24.283  25.169  1.00  0.00     0.042 C 
ATOM     15  C   UNL A   1      36.654  23.788  25.810  1.00  0.00     0.008 C 
ENDBRANCH  13  14
BRANCH  13  16
ATOM     16  C   UNL A   1      34.305  22.655  26.920  1.00  0.00     0.042 C 
ATOM     17  C   UNL A   1      33.113  22.447  27.841  1.00  0.00     0.008 C 
ENDBRANCH  13  16
ENDBRANCH  12  13
ENDBRANCH   7  12
BRANCH   9  18
ATOM     18  O   UNL A   1      31.974  25.259  23.188  1.00  0.00    -0.493 OA
ATOM     19  C   UNL A   1      32.701  24.867  22.036  1.00  0.00     0.278 C 
ENDBRANCH   9  18
BRANCH  11  20
ATOM     20  N   UNL A   1      33.744  29.560  23.704  1.00  0.00    -0.398 N 
ATOM     21  H   UNL A   1      33.674  29.622  22.724  1.00  0.00     0.156 HD
ATOM     22  H   UNL A   1      34.037  30.339  24.228  1.00  0.00     0.156 HD
ENDBRANCH  11  20
ENDBRANCH   3   6
ENDBRANCH   1   2
BRANCH   1  23
ATOM     23  C   UNL A   1      31.596  32.025  26.875  1.00  0.00     0.042 C 
BRANCH  23  24
ATOM     24  C   UNL A   1      32.781  32.963  27.014  1.00  0.00     0.118 C 
BRANCH  24  25
ATOM     25  N   UNL A   1      32.454  34.267  27.581  1.00  0.00    -0.352 N 
ATOM     26  C   UNL A   1      32.971  34.953  28.655  1.00  0.00     0.251 C 
ATOM     27  H   UNL A   1      31.733  34.741  27.109  1.00  0.00     0.163 HD
ATOM     28  O   UNL A   1      32.444  36.008  29.005  1.00  0.00    -0.269 OA
BRANCH  26  29
ATOM     29  C   UNL A   1      34.120  34.425  29.425  1.00  0.00     0.039 A 
ATOM     30  C   UNL A   1      33.885  33.748  30.627  1.00  0.00     0.014 A 
ATOM     31  C   UNL A   1      35.430  34.597  28.984  1.00  0.00     0.014 A 
ATOM     32  C   UNL A   1      34.952  33.177  31.327  1.00  0.00     0.010 A 
ATOM     33  C   UNL A   1      36.468  33.907  29.596  1.00  0.00     0.010 A 
ATOM     34  C   UNL A   1      36.250  33.210  30.792  1.00  0.00    -0.014 A 
BRANCH  34  35
ATOM     35  C   UNL A   1      37.403  32.573  31.482  1.00  0.00     0.031 A 
ATOM     36  C   UNL A   1      38.131  31.427  30.825  1.00  0.00     0.074 A 
ATOM     37  C   UNL A   1      37.754  32.972  32.720  1.00  0.00     0.049 A 
ATOM     38  N   UNL A   1      39.105  30.684  31.290  1.00  0.00    -0.248 NA
ATOM     39  C   UNL A   1      37.673  31.034  29.482  1.00  0.00     0.031 C 
ATOM     40  C   UNL A   1      37.096  34.029  33.491  1.00  0.00     0.029 A 
ATOM     41  N   UNL A   1      38.754  32.532  33.552  1.00  0.00    -0.354 N 
ATOM     42  C   UNL A   1      39.352  29.731  30.309  1.00  0.00     0.074 A 
ATOM     43  C   UNL A   1      38.375  29.934  29.265  1.00  0.00     0.031 C 
ATOM     44  C   UNL A   1      37.736  34.185  34.661  1.00  0.00     0.029 A 
ATOM     45  C   UNL A   1      38.821  33.213  34.743  1.00  0.00     0.049 A 
ATOM     46  H   UNL A   1      39.366  31.797  33.316  1.00  0.00     0.167 HD
ATOM     47  C   UNL A   1      40.330  28.795  30.261  1.00  0.00     0.037 A 
ATOM     48  C   UNL A   1      39.666  33.069  35.782  1.00  0.00     0.037 A 
ATOM     49  C   UNL A   1      41.325  28.621  31.285  1.00  0.00     0.049 A 
ATOM     50  C   UNL A   1      40.745  32.021  35.707  1.00  0.00     0.074 A 
ATOM     51  C   UNL A   1      42.393  27.743  31.312  1.00  0.00     0.029 A 
ATOM     52  N   UNL A   1      41.371  29.346  32.467  1.00  0.00    -0.354 N 
ATOM     53  N   UNL A   1      41.014  31.173  34.744  1.00  0.00    -0.248 NA
ATOM     54  C   UNL A   1      41.645  31.918  36.863  1.00  0.00     0.031 C 
ATOM     55  C   UNL A   1      43.057  27.902  32.533  1.00  0.00     0.029 A 
ATOM     56  C   UNL A   1      42.440  28.921  33.240  1.00  0.00     0.049 A 
ATOM     57  H   UNL A   1      40.738  30.056  32.720  1.00  0.00     0.167 HD
ATOM     58  C   UNL A   1      42.134  30.466  35.158  1.00  0.00     0.074 A 
ATOM     59  C   UNL A   1      42.502  30.993  36.456  1.00  0.00     0.031 C 
ATOM     60  C   UNL A   1      42.801  29.470  34.523  1.00  0.00     0.037 A 
BRANCH  47  61
ATOM     61  C   UNL A   1      40.371  27.900  29.054  1.00  0.00     0.064 A 
ATOM     62  C   UNL A   1      41.129  28.226  27.917  1.00  0.00     0.173 A 
ATOM     63  C   UNL A   1      39.649  26.697  29.032  1.00  0.00     0.173 A 
ATOM     64  F   UNL A   1      41.828  29.371  27.877  1.00  0.00    -0.203 F 
ATOM     65  C   UNL A   1      41.126  27.406  26.790  1.00  0.00     0.198 A 
ATOM     66  C   UNL A   1      39.680  25.860  27.919  1.00  0.00     0.198 A 
ATOM     67  F   UNL A   1      38.913  26.329  30.092  1.00  0.00    -0.203 F 
ATOM     68  F   UNL A   1      41.801  27.777  25.693  1.00  0.00    -0.200 F 
ATOM     69  C   UNL A   1      40.408  26.221  26.795  1.00  0.00     0.200 A 
ATOM     70  F   UNL A   1      38.998  24.707  27.930  1.00  0.00    -0.200 F 
ATOM     71  F   UNL A   1      40.408  25.432  25.712  1.00  0.00    -0.200 F 
ENDBRANCH  47  61
BRANCH  48  72
ATOM     72  C   UNL A   1      39.562  33.970  36.961  1.00  0.00     0.064 A 
ATOM     73  C   UNL A   1      38.813  33.595  38.086  1.00  0.00     0.173 A 
ATOM     74  C   UNL A   1      40.191  35.223  36.987  1.00  0.00     0.173 A 
ATOM     75  F   UNL A   1      38.176  32.415  38.101  1.00  0.00    -0.203 F 
ATOM     76  C   UNL A   1      38.677  34.446  39.180  1.00  0.00     0.198 A 
ATOM     77  C   UNL A   1      40.081  36.062  38.096  1.00  0.00     0.198 A 
ATOM     78  F   UNL A   1      40.924  35.629  35.940  1.00  0.00    -0.203 F 
ATOM     79  F   UNL A   1      37.913  34.083  40.219  1.00  0.00    -0.200 F 
ATOM     80  C   UNL A   1      39.316  35.678  39.186  1.00  0.00     0.200 A 
ATOM     81  F   UNL A   1      40.711  37.244  38.104  1.00  0.00    -0.200 F 
ATOM     82  F   UNL A   1      39.186  36.496  40.239  1.00  0.00    -0.200 F 
ENDBRANCH  48  72
BRANCH  60  83
ATOM     83  C   UNL A   1      44.028  28.926  35.195  1.00  0.00     0.064 A 
ATOM     84  C   UNL A   1      45.296  29.491  34.997  1.00  0.00     0.173 A 
ATOM     85  C   UNL A   1      43.925  27.839  36.079  1.00  0.00     0.173 A 
ATOM     86  F   UNL A   1      45.451  30.523  34.153  1.00  0.00    -0.203 F 
ATOM     87  C   UNL A   1      46.420  28.966  35.627  1.00  0.00     0.198 A 
ATOM     88  C   UNL A   1      45.045  27.340  36.735  1.00  0.00     0.198 A 
ATOM     89  F   UNL A   1      42.734  27.267  36.312  1.00  0.00    -0.203 F 
ATOM     90  F   UNL A   1      47.631  29.484  35.376  1.00  0.00    -0.200 F 
ATOM     91  C   UNL A   1      46.293  27.897  36.502  1.00  0.00     0.200 A 
ATOM     92  F   UNL A   1      44.917  26.318  37.594  1.00  0.00    -0.200 F 
ATOM     93  F   UNL A   1      47.376  27.396  37.113  1.00  0.00    -0.200 F 
ENDBRANCH  60  83
ENDBRANCH  34  35
ENDBRANCH  26  29
ENDBRANCH  24  25
ENDBRANCH  23  24
ENDBRANCH   1  23
TORSDOF 16
ENDMDL
MODEL 3
REMARK VINA RESULT:     -10.7      5.234      9.267
REMARK SMILES CCC(CC)Oc1cc(C(=O)NCCCNC(=O)c2ccc(-c3c4nc(c(-c5c(F)c(F)c(F)c(F)c5F)c5ccc([nH]5)c(-c5c(F)c(F)c(F)c(F)c5F)c5nc(c(-c6c(F)c(F)c(F)c(F)c6F)c6ccc3[nH]6)C=C5)C=C4)cc2)c(N)cc1OC
REMARK SMILES IDX 13 1 12 2 10 3 11 4 9 6 7 7 8 8 85 9 84 10 82 11 6 12 3 13
REMARK SMILES IDX 2 14 1 15 4 16 5 17 86 18 87 19 83 20 14 23 15 24 16 25
REMARK SMILES IDX 17 26 18 28 19 29 20 30 81 31 21 32 80 33 22 34 23 35 24 36
REMARK SMILES IDX 74 37 25 38 79 39 73 40 75 41 26 42 78 43 72 44 71 45 27 47
REMARK SMILES IDX 59 48 39 49 58 50 40 51 43 52 57 53 76 54 41 55 42 56 56 58
REMARK SMILES IDX 77 59 44 60 28 61 29 62 37 63 30 64 31 65 35 66 38 67 32 68
REMARK SMILES IDX 33 69 36 70 34 71 60 72 61 73 69 74 62 75 63 76 67 77 70 78
REMARK SMILES IDX 64 79 65 80 68 81 66 82 45 83 46 84 54 85 47 86 48 87 52 88
REMARK SMILES IDX 55 89 49 90 50 91 53 92 51 93
REMARK H PARENT 12 5 83 21 83 22 16 27 75 46 43 57
REMARK Flexibility Score: inf
ROOT
ATOM      1  C   UNL A   1      31.703  30.198  26.854  1.00  0.00     0.118 C 
ENDROOT
BRANCH   1   2
ATOM      2  N   UNL A   1      33.048  29.868  27.289  1.00  0.00    -0.352 N 
ATOM      3  C   UNL A   1      33.964  28.995  26.747  1.00  0.00     0.253 C 
ATOM      4  O   UNL A   1      35.083  28.955  27.262  1.00  0.00    -0.269 OA
ATOM      5  H   UNL A   1      33.353  30.343  28.095  1.00  0.00     0.163 HD
BRANCH   3   6
ATOM      6  C   UNL A   1      33.621  28.026  25.664  1.00  0.00     0.066 A 
ATOM      7  C   UNL A   1      33.006  25.685  25.248  1.00  0.00     0.162 A 
ATOM      8  C   UNL A   1      33.504  26.686  26.085  1.00  0.00     0.066 A 
ATOM      9  C   UNL A   1      32.635  26.032  23.944  1.00  0.00     0.162 A 
ATOM     10  C   UNL A   1      32.837  27.349  23.502  1.00  0.00     0.076 A 
ATOM     11  C   UNL A   1      33.424  28.330  24.311  1.00  0.00     0.048 A 
BRANCH   7  12
ATOM     12  O   UNL A   1      32.985  24.381  25.642  1.00  0.00    -0.487 OA
BRANCH  12  13
ATOM     13  C   UNL A   1      34.180  23.578  25.677  1.00  0.00     0.173 C 
BRANCH  13  14
ATOM     14  C   UNL A   1      34.517  22.998  27.062  1.00  0.00     0.042 C 
ATOM     15  C   UNL A   1      33.316  22.400  27.782  1.00  0.00     0.008 C 
ENDBRANCH  13  14
BRANCH  13  16
ATOM     16  C   UNL A   1      34.337  22.619  24.481  1.00  0.00     0.042 C 
ATOM     17  C   UNL A   1      33.105  21.825  24.076  1.00  0.00     0.008 C 
ENDBRANCH  13  16
ENDBRANCH  12  13
ENDBRANCH   7  12
BRANCH   9  18
ATOM     18  O   UNL A   1      32.063  25.248  22.979  1.00  0.00    -0.493 OA
ATOM     19  C   UNL A   1      32.872  24.806  21.902  1.00  0.00     0.278 C 
ENDBRANCH   9  18
BRANCH  11  20
ATOM     20  N   UNL A   1      33.739  29.552  23.727  1.00  0.00    -0.398 N 
ATOM     21  H   UNL A   1      33.970  29.595  22.771  1.00  0.00     0.156 HD
ATOM     22  H   UNL A   1      33.729  30.373  24.269  1.00  0.00     0.156 HD
ENDBRANCH  11  20
ENDBRANCH   3   6
ENDBRANCH   1   2
BRANCH   1  23
ATOM     23  C   UNL A   1      31.363  31.675  26.852  1.00  0.00     0.042 C 
BRANCH  23  24
ATOM     24  C   UNL A   1      32.544  32.615  26.679  1.00  0.00     0.118 C 
BRANCH  24  25
ATOM     25  N   UNL A   1      32.440  33.858  27.434  1.00  0.00    -0.352 N 
ATOM     26  C   UNL A   1      33.180  34.359  28.480  1.00  0.00     0.251 C 
ATOM     27  H   UNL A   1      31.706  34.445  27.143  1.00  0.00     0.163 HD
ATOM     28  O   UNL A   1      32.822  35.401  29.027  1.00  0.00    -0.269 OA
BRANCH  26  29
ATOM     29  C   UNL A   1      34.375  33.646  28.987  1.00  0.00     0.039 A 
ATOM     30  C   UNL A   1      35.633  34.244  28.858  1.00  0.00     0.014 A 
ATOM     31  C   UNL A   1      34.274  32.391  29.582  1.00  0.00     0.014 A 
ATOM     32  C   UNL A   1      36.761  33.621  29.401  1.00  0.00     0.010 A 
ATOM     33  C   UNL A   1      35.363  31.846  30.248  1.00  0.00     0.010 A 
ATOM     34  C   UNL A   1      36.629  32.438  30.144  1.00  0.00    -0.014 A 
BRANCH  34  35
ATOM     35  C   UNL A   1      37.798  31.770  30.777  1.00  0.00     0.031 A 
ATOM     36  C   UNL A   1      38.209  32.147  32.178  1.00  0.00     0.074 A 
ATOM     37  C   UNL A   1      38.530  30.881  30.077  1.00  0.00     0.049 A 
ATOM     38  N   UNL A   1      39.240  31.745  32.880  1.00  0.00    -0.248 NA
ATOM     39  C   UNL A   1      37.372  33.143  32.869  1.00  0.00     0.031 C 
ATOM     40  C   UNL A   1      38.275  30.473  28.694  1.00  0.00     0.029 A 
ATOM     41  N   UNL A   1      39.642  30.160  30.434  1.00  0.00    -0.354 N 
ATOM     42  C   UNL A   1      39.184  32.455  34.073  1.00  0.00     0.074 A 
ATOM     43  C   UNL A   1      38.072  33.371  33.969  1.00  0.00     0.031 C 
ATOM     44  C   UNL A   1      39.175  29.544  28.336  1.00  0.00     0.029 A 
ATOM     45  C   UNL A   1      40.097  29.322  29.446  1.00  0.00     0.049 A 
ATOM     46  H   UNL A   1      40.074  30.238  31.315  1.00  0.00     0.167 HD
ATOM     47  C   UNL A   1      39.963  32.330  35.174  1.00  0.00     0.037 A 
ATOM     48  C   UNL A   1      41.138  28.468  29.439  1.00  0.00     0.037 A 
ATOM     49  C   UNL A   1      41.045  31.390  35.288  1.00  0.00     0.049 A 
ATOM     50  C   UNL A   1      41.991  28.345  30.674  1.00  0.00     0.074 A 
ATOM     51  C   UNL A   1      41.862  31.140  36.376  1.00  0.00     0.029 A 
ATOM     52  N   UNL A   1      41.460  30.542  34.271  1.00  0.00    -0.354 N 
ATOM     53  N   UNL A   1      41.885  28.971  31.822  1.00  0.00    -0.248 NA
ATOM     54  C   UNL A   1      43.105  27.389  30.614  1.00  0.00     0.031 C 
ATOM     55  C   UNL A   1      42.803  30.176  36.002  1.00  0.00     0.029 A 
ATOM     56  C   UNL A   1      42.535  29.781  34.701  1.00  0.00     0.049 A 
ATOM     57  H   UNL A   1      41.053  30.490  33.377  1.00  0.00     0.167 HD
ATOM     58  C   UNL A   1      42.889  28.457  32.631  1.00  0.00     0.074 A 
ATOM     59  C   UNL A   1      43.585  27.459  31.847  1.00  0.00     0.031 C 
ATOM     60  C   UNL A   1      43.206  28.779  33.910  1.00  0.00     0.037 A 
BRANCH  47  61
ATOM     61  C   UNL A   1      39.657  33.226  36.342  1.00  0.00     0.064 A 
ATOM     62  C   UNL A   1      38.737  32.857  37.337  1.00  0.00     0.173 A 
ATOM     63  C   UNL A   1      40.296  34.469  36.474  1.00  0.00     0.173 A 
ATOM     64  F   UNL A   1      38.087  31.686  37.254  1.00  0.00    -0.203 F 
ATOM     65  C   UNL A   1      38.435  33.714  38.392  1.00  0.00     0.198 A 
ATOM     66  C   UNL A   1      40.021  35.307  37.552  1.00  0.00     0.198 A 
ATOM     67  F   UNL A   1      41.190  34.872  35.558  1.00  0.00    -0.203 F 
ATOM     68  F   UNL A   1      37.501  33.368  39.288  1.00  0.00    -0.200 F 
ATOM     69  C   UNL A   1      39.082  34.935  38.502  1.00  0.00     0.200 A 
ATOM     70  F   UNL A   1      40.658  36.480  37.666  1.00  0.00    -0.200 F 
ATOM     71  F   UNL A   1      38.793  35.758  39.519  1.00  0.00    -0.200 F 
ENDBRANCH  47  61
BRANCH  48  72
ATOM     72  C   UNL A   1      41.404  27.622  28.244  1.00  0.00     0.064 A 
ATOM     73  C   UNL A   1      40.775  26.378  28.093  1.00  0.00     0.173 A 
ATOM     74  C   UNL A   1      42.295  28.027  27.239  1.00  0.00     0.173 A 
ATOM     75  F   UNL A   1      39.930  25.937  29.036  1.00  0.00    -0.203 F 
ATOM     76  C   UNL A   1      41.045  25.561  26.997  1.00  0.00     0.198 A 
ATOM     77  C   UNL A   1      42.540  27.223  26.127  1.00  0.00     0.198 A 
ATOM     78  F   UNL A   1      42.919  29.211  27.331  1.00  0.00    -0.203 F 
ATOM     79  F   UNL A   1      40.469  24.355  26.905  1.00  0.00    -0.200 F 
ATOM     80  C   UNL A   1      41.923  25.986  26.012  1.00  0.00     0.200 A 
ATOM     81  F   UNL A   1      43.378  27.644  25.170  1.00  0.00    -0.200 F 
ATOM     82  F   UNL A   1      42.181  25.201  24.957  1.00  0.00    -0.200 F 
ENDBRANCH  48  72
BRANCH  60  83
ATOM     83  C   UNL A   1      44.318  28.007  34.559  1.00  0.00     0.064 A 
ATOM     84  C   UNL A   1      45.647  28.458  34.535  1.00  0.00     0.173 A 
ATOM     85  C   UNL A   1      44.043  26.813  35.243  1.00  0.00     0.173 A 
ATOM     86  F   UNL A   1      45.966  29.587  33.884  1.00  0.00    -0.203 F 
ATOM     87  C   UNL A   1      46.662  27.722  35.139  1.00  0.00     0.198 A 
ATOM     88  C   UNL A   1      45.055  26.099  35.877  1.00  0.00     0.198 A 
ATOM     89  F   UNL A   1      42.788  26.342  35.304  1.00  0.00    -0.203 F 
ATOM     90  F   UNL A   1      47.933  28.141  35.053  1.00  0.00    -0.200 F 
ATOM     91  C   UNL A   1      46.365  26.548  35.816  1.00  0.00     0.200 A 
ATOM     92  F   UNL A   1      44.763  24.974  36.545  1.00  0.00    -0.200 F 
ATOM     93  F   UNL A   1      47.344  25.845  36.402  1.00  0.00    -0.200 F 
ENDBRANCH  60  83
ENDBRANCH  34  35
ENDBRANCH  26  29
ENDBRANCH  24  25
ENDBRANCH  23  24
ENDBRANCH   1  23
TORSDOF 16
ENDMDL
