MODEL 1
REMARK VINA RESULT:     -11.4      0.000      0.000
REMARK SMILES CN(C)C(=O)CSc1ccc(C(=O)NCCCNC(=O)c2ccc(-c3c4nc(c(-c5c(F)c(F)c(F)c(F)c5F)c5ccc([nH]5)c(-c5c(F)c(F)c(F)c(F)c5F)c5nc(c(-c6c(F)c(F)c(F)c(F)c6F)c6ccc3[nH]6)C=C5)C=C4)cc2)cc1
REMARK SMILES IDX 15 1 14 2 12 3 13 4 11 6 8 7 9 8 85 9 10 10 84 11 7 12 6 13
REMARK SMILES IDX 4 14 1 15 2 16 3 17 5 18 16 19 17 20 18 21 19 22 20 24 21 25
REMARK SMILES IDX 22 26 83 27 23 28 82 29 24 30 25 31 26 32 76 33 27 34 81 35
REMARK SMILES IDX 75 36 77 37 28 38 80 39 74 40 73 41 29 43 61 44 41 45 60 46
REMARK SMILES IDX 42 47 45 48 59 49 78 50 43 51 44 52 58 54 79 55 46 56 30 57
REMARK SMILES IDX 31 58 39 59 32 60 33 61 37 62 40 63 34 64 35 65 38 66 36 67
REMARK SMILES IDX 62 68 63 69 71 70 64 71 65 72 69 73 72 74 66 75 67 76 70 77
REMARK SMILES IDX 68 78 47 79 48 80 56 81 49 82 50 83 54 84 57 85 51 86 52 87
REMARK SMILES IDX 55 88 53 89
REMARK H PARENT 14 5 18 23 77 42 45 53
REMARK Flexibility Score: inf
ROOT
ATOM      1  C   UNL A   1      31.696  30.595  26.858  1.00  0.00     0.118 C 
ENDROOT
BRANCH   1   2
ATOM      2  N   UNL A   1      32.987  30.247  27.422  1.00  0.00    -0.352 N 
ATOM      3  C   UNL A   1      33.936  29.341  27.026  1.00  0.00     0.251 C 
ATOM      4  O   UNL A   1      34.999  29.306  27.643  1.00  0.00    -0.269 OA
ATOM      5  H   UNL A   1      33.223  30.752  28.234  1.00  0.00     0.163 HD
BRANCH   3   6
ATOM      6  C   UNL A   1      33.748  28.455  25.850  1.00  0.00     0.039 A 
ATOM      7  C   UNL A   1      33.439  26.635  23.720  1.00  0.00     0.008 A 
ATOM      8  C   UNL A   1      33.540  26.177  25.035  1.00  0.00     0.016 A 
ATOM      9  C   UNL A   1      33.478  28.011  23.481  1.00  0.00     0.016 A 
ATOM     10  C   UNL A   1      33.677  27.080  26.094  1.00  0.00     0.015 A 
ATOM     11  C   UNL A   1      33.611  28.916  24.540  1.00  0.00     0.015 A 
BRANCH   7  12
ATOM     12  S   UNL A   1      33.408  25.532  22.320  1.00  0.00    -0.116 SA
BRANCH  12  13
ATOM     13  C   UNL A   1      33.114  23.903  23.095  1.00  0.00     0.175 C 
BRANCH  13  14
ATOM     14  C   UNL A   1      34.386  23.141  23.427  1.00  0.00     0.232 C 
ATOM     15  C   UNL A   1      35.591  21.427  24.653  1.00  0.00     0.146 C 
ATOM     16  N   UNL A   1      34.399  22.241  24.486  1.00  0.00    -0.348 N 
ATOM     17  C   UNL A   1      33.288  21.976  25.386  1.00  0.00     0.146 C 
ATOM     18  O   UNL A   1      35.403  23.339  22.752  1.00  0.00    -0.274 OA
ENDBRANCH  13  14
ENDBRANCH  12  13
ENDBRANCH   7  12
ENDBRANCH   3   6
ENDBRANCH   1   2
BRANCH   1  19
ATOM     19  C   UNL A   1      31.464  32.104  26.886  1.00  0.00     0.042 C 
BRANCH  19  20
ATOM     20  C   UNL A   1      32.748  32.923  26.990  1.00  0.00     0.118 C 
BRANCH  20  21
ATOM     21  N   UNL A   1      32.524  34.213  27.620  1.00  0.00    -0.352 N 
ATOM     22  C   UNL A   1      33.066  34.747  28.760  1.00  0.00     0.251 C 
ATOM     23  H   UNL A   1      31.881  34.796  27.154  1.00  0.00     0.163 HD
ATOM     24  O   UNL A   1      32.582  35.775  29.227  1.00  0.00    -0.269 OA
BRANCH  22  25
ATOM     25  C   UNL A   1      34.219  34.112  29.441  1.00  0.00     0.039 A 
ATOM     26  C   UNL A   1      35.507  34.443  29.007  1.00  0.00     0.014 A 
ATOM     27  C   UNL A   1      34.052  33.135  30.428  1.00  0.00     0.014 A 
ATOM     28  C   UNL A   1      36.620  33.814  29.568  1.00  0.00     0.010 A 
ATOM     29  C   UNL A   1      35.166  32.554  31.035  1.00  0.00     0.010 A 
ATOM     30  C   UNL A   1      36.459  32.869  30.592  1.00  0.00    -0.014 A 
BRANCH  30  31
ATOM     31  C   UNL A   1      37.638  32.171  31.167  1.00  0.00     0.031 A 
ATOM     32  C   UNL A   1      38.110  32.501  32.557  1.00  0.00     0.074 A 
ATOM     33  C   UNL A   1      38.295  31.255  30.433  1.00  0.00     0.049 A 
ATOM     34  N   UNL A   1      39.115  32.002  33.232  1.00  0.00    -0.248 NA
ATOM     35  C   UNL A   1      37.367  33.548  33.276  1.00  0.00     0.031 C 
ATOM     36  C   UNL A   1      37.966  30.881  29.057  1.00  0.00     0.029 A 
ATOM     37  N   UNL A   1      39.378  30.471  30.741  1.00  0.00    -0.354 N 
ATOM     38  C   UNL A   1      39.134  32.682  34.443  1.00  0.00     0.074 A 
ATOM     39  C   UNL A   1      38.070  33.662  34.393  1.00  0.00     0.031 C 
ATOM     40  C   UNL A   1      38.812  29.921  28.648  1.00  0.00     0.029 A 
ATOM     41  C   UNL A   1      39.755  29.628  29.725  1.00  0.00     0.049 A 
ATOM     42  H   UNL A   1      39.841  30.508  31.610  1.00  0.00     0.167 HD
ATOM     43  C   UNL A   1      39.949  32.493  35.508  1.00  0.00     0.037 A 
ATOM     44  C   UNL A   1      40.743  28.715  29.673  1.00  0.00     0.037 A 
ATOM     45  C   UNL A   1      40.987  31.498  35.570  1.00  0.00     0.049 A 
ATOM     46  C   UNL A   1      41.606  28.495  30.884  1.00  0.00     0.074 A 
ATOM     47  C   UNL A   1      41.837  31.198  36.619  1.00  0.00     0.029 A 
ATOM     48  N   UNL A   1      41.308  30.634  34.534  1.00  0.00    -0.354 N 
ATOM     49  N   UNL A   1      41.575  29.103  32.045  1.00  0.00    -0.248 NA
ATOM     50  C   UNL A   1      42.630  27.445  30.784  1.00  0.00     0.031 C 
ATOM     51  C   UNL A   1      42.694  30.169  36.209  1.00  0.00     0.029 A 
ATOM     52  C   UNL A   1      42.349  29.802  34.918  1.00  0.00     0.049 A 
ATOM     53  H   UNL A   1      40.864  30.613  33.656  1.00  0.00     0.167 HD
ATOM     54  C   UNL A   1      42.550  28.493  32.821  1.00  0.00     0.074 A 
ATOM     55  C   UNL A   1      43.147  27.456  32.004  1.00  0.00     0.031 C 
ATOM     56  C   UNL A   1      42.920  28.767  34.097  1.00  0.00     0.037 A 
BRANCH  43  57
ATOM     57  C   UNL A   1      39.744  33.382  36.701  1.00  0.00     0.064 A 
ATOM     58  C   UNL A   1      40.432  34.597  36.838  1.00  0.00     0.173 A 
ATOM     59  C   UNL A   1      38.830  33.029  37.705  1.00  0.00     0.173 A 
ATOM     60  F   UNL A   1      41.326  34.974  35.911  1.00  0.00    -0.203 F 
ATOM     61  C   UNL A   1      40.235  35.412  37.950  1.00  0.00     0.198 A 
ATOM     62  C   UNL A   1      38.615  33.860  38.802  1.00  0.00     0.198 A 
ATOM     63  F   UNL A   1      38.142  31.881  37.620  1.00  0.00    -0.203 F 
ATOM     64  F   UNL A   1      40.940  36.544  38.083  1.00  0.00    -0.200 F 
ATOM     65  C   UNL A   1      39.323  35.046  38.928  1.00  0.00     0.200 A 
ATOM     66  F   UNL A   1      37.724  33.511  39.741  1.00  0.00    -0.200 F 
ATOM     67  F   UNL A   1      39.131  35.833  39.995  1.00  0.00    -0.200 F 
ENDBRANCH  43  57
BRANCH  44  68
ATOM     68  C   UNL A   1      40.933  27.903  28.445  1.00  0.00     0.064 A 
ATOM     69  C   UNL A   1      41.758  28.355  27.405  1.00  0.00     0.173 A 
ATOM     70  C   UNL A   1      40.299  26.663  28.285  1.00  0.00     0.173 A 
ATOM     71  F   UNL A   1      42.369  29.545  27.506  1.00  0.00    -0.203 F 
ATOM     72  C   UNL A   1      41.926  27.607  26.242  1.00  0.00     0.198 A 
ATOM     73  C   UNL A   1      40.488  25.903  27.132  1.00  0.00     0.198 A 
ATOM     74  F   UNL A   1      39.506  26.184  29.254  1.00  0.00    -0.203 F 
ATOM     75  F   UNL A   1      42.687  28.081  25.248  1.00  0.00    -0.200 F 
ATOM     76  C   UNL A   1      41.295  26.379  26.109  1.00  0.00     0.200 A 
ATOM     77  F   UNL A   1      39.887  24.711  27.012  1.00  0.00    -0.200 F 
ATOM     78  F   UNL A   1      41.459  25.657  24.992  1.00  0.00    -0.200 F 
ENDBRANCH  44  68
BRANCH  56  79
ATOM     79  C   UNL A   1      43.989  27.904  34.697  1.00  0.00     0.064 A 
ATOM     80  C   UNL A   1      45.344  28.262  34.636  1.00  0.00     0.173 A 
ATOM     81  C   UNL A   1      43.651  26.714  35.359  1.00  0.00     0.173 A 
ATOM     82  F   UNL A   1      45.719  29.382  34.002  1.00  0.00    -0.203 F 
ATOM     83  C   UNL A   1      46.325  27.442  35.188  1.00  0.00     0.198 A 
ATOM     84  C   UNL A   1      44.632  25.911  35.933  1.00  0.00     0.198 A 
ATOM     85  F   UNL A   1      42.369  26.332  35.449  1.00  0.00    -0.203 F 
ATOM     86  F   UNL A   1      47.617  27.776  35.073  1.00  0.00    -0.200 F 
ATOM     87  C   UNL A   1      45.967  26.270  35.840  1.00  0.00     0.200 A 
ATOM     88  F   UNL A   1      44.284  24.783  36.569  1.00  0.00    -0.200 F 
ATOM     89  F   UNL A   1      46.914  25.481  36.369  1.00  0.00    -0.200 F 
ENDBRANCH  56  79
ENDBRANCH  30  31
ENDBRANCH  22  25
ENDBRANCH  20  21
ENDBRANCH  19  20
ENDBRANCH   1  19
TORSDOF 13
ENDMDL
MODEL 2
REMARK VINA RESULT:     -11.2      0.445      2.074
REMARK SMILES CN(C)C(=O)CSc1ccc(C(=O)NCCCNC(=O)c2ccc(-c3c4nc(c(-c5c(F)c(F)c(F)c(F)c5F)c5ccc([nH]5)c(-c5c(F)c(F)c(F)c(F)c5F)c5nc(c(-c6c(F)c(F)c(F)c(F)c6F)c6ccc3[nH]6)C=C5)C=C4)cc2)cc1
REMARK SMILES IDX 15 1 14 2 12 3 13 4 11 6 8 7 9 8 85 9 10 10 84 11 7 12 6 13
REMARK SMILES IDX 4 14 1 15 2 16 3 17 5 18 16 19 17 20 18 21 19 22 20 24 21 25
REMARK SMILES IDX 22 26 83 27 23 28 82 29 24 30 25 31 26 32 76 33 27 34 81 35
REMARK SMILES IDX 75 36 77 37 28 38 80 39 74 40 73 41 29 43 61 44 41 45 60 46
REMARK SMILES IDX 42 47 45 48 59 49 78 50 43 51 44 52 58 54 79 55 46 56 30 57
REMARK SMILES IDX 31 58 39 59 32 60 33 61 37 62 40 63 34 64 35 65 38 66 36 67
REMARK SMILES IDX 62 68 63 69 71 70 64 71 65 72 69 73 72 74 66 75 67 76 70 77
REMARK SMILES IDX 68 78 47 79 48 80 56 81 49 82 50 83 54 84 57 85 51 86 52 87
REMARK SMILES IDX 55 88 53 89
REMARK H PARENT 14 5 18 23 77 42 45 53
REMARK Flexibility Score: inf
ROOT
ATOM      1  C   UNL A   1      31.780  30.575  26.812  1.00  0.00     0.118 C 
ENDROOT
BRANCH   1   2
ATOM      2  N   UNL A   1      33.079  30.258  27.378  1.00  0.00    -0.352 N 
ATOM      3  C   UNL A   1      34.011  29.313  27.036  1.00  0.00     0.251 C 
ATOM      4  O   UNL A   1      35.086  29.313  27.634  1.00  0.00    -0.269 OA
ATOM      5  H   UNL A   1      33.335  30.822  28.143  1.00  0.00     0.163 HD
BRANCH   3   6
ATOM      6  C   UNL A   1      33.792  28.340  25.937  1.00  0.00     0.039 A 
ATOM      7  C   UNL A   1      33.401  26.361  23.967  1.00  0.00     0.008 A 
ATOM      8  C   UNL A   1      33.377  26.027  25.323  1.00  0.00     0.016 A 
ATOM      9  C   UNL A   1      33.607  27.696  23.606  1.00  0.00     0.016 A 
ATOM     10  C   UNL A   1      33.554  27.011  26.301  1.00  0.00     0.015 A 
ATOM     11  C   UNL A   1      33.781  28.681  24.584  1.00  0.00     0.015 A 
BRANCH   7  12
ATOM     12  S   UNL A   1      33.326  25.136  22.676  1.00  0.00    -0.116 SA
BRANCH  12  13
ATOM     13  C   UNL A   1      34.393  23.800  23.323  1.00  0.00     0.175 C 
BRANCH  13  14
ATOM     14  C   UNL A   1      33.628  22.568  23.780  1.00  0.00     0.232 C 
ATOM     15  C   UNL A   1      33.497  20.450  24.959  1.00  0.00     0.146 C 
ATOM     16  N   UNL A   1      34.303  21.526  24.404  1.00  0.00    -0.348 N 
ATOM     17  C   UNL A   1      35.737  21.461  24.634  1.00  0.00     0.146 C 
ATOM     18  O   UNL A   1      32.410  22.504  23.578  1.00  0.00    -0.274 OA
ENDBRANCH  13  14
ENDBRANCH  12  13
ENDBRANCH   7  12
ENDBRANCH   3   6
ENDBRANCH   1   2
BRANCH   1  19
ATOM     19  C   UNL A   1      31.497  32.075  26.874  1.00  0.00     0.042 C 
BRANCH  19  20
ATOM     20  C   UNL A   1      32.755  32.937  26.947  1.00  0.00     0.118 C 
BRANCH  20  21
ATOM     21  N   UNL A   1      32.508  34.209  27.604  1.00  0.00    -0.352 N 
ATOM     22  C   UNL A   1      33.034  34.724  28.760  1.00  0.00     0.251 C 
ATOM     23  H   UNL A   1      31.861  34.793  27.146  1.00  0.00     0.163 HD
ATOM     24  O   UNL A   1      32.531  35.735  29.246  1.00  0.00    -0.269 OA
BRANCH  22  25
ATOM     25  C   UNL A   1      34.189  34.089  29.436  1.00  0.00     0.039 A 
ATOM     26  C   UNL A   1      35.476  34.449  29.022  1.00  0.00     0.014 A 
ATOM     27  C   UNL A   1      34.028  33.087  30.398  1.00  0.00     0.014 A 
ATOM     28  C   UNL A   1      36.593  33.823  29.578  1.00  0.00     0.010 A 
ATOM     29  C   UNL A   1      35.146  32.508  31.001  1.00  0.00     0.010 A 
ATOM     30  C   UNL A   1      36.438  32.851  30.578  1.00  0.00    -0.014 A 
BRANCH  30  31
ATOM     31  C   UNL A   1      37.622  32.157  31.146  1.00  0.00     0.031 A 
ATOM     32  C   UNL A   1      38.102  32.492  32.532  1.00  0.00     0.074 A 
ATOM     33  C   UNL A   1      38.274  31.239  30.410  1.00  0.00     0.049 A 
ATOM     34  N   UNL A   1      39.113  31.996  33.202  1.00  0.00    -0.248 NA
ATOM     35  C   UNL A   1      37.363  33.540  33.253  1.00  0.00     0.031 C 
ATOM     36  C   UNL A   1      37.936  30.861  29.038  1.00  0.00     0.029 A 
ATOM     37  N   UNL A   1      39.361  30.458  30.713  1.00  0.00    -0.354 N 
ATOM     38  C   UNL A   1      39.139  32.680  34.411  1.00  0.00     0.074 A 
ATOM     39  C   UNL A   1      38.073  33.658  34.365  1.00  0.00     0.031 C 
ATOM     40  C   UNL A   1      38.780  29.901  28.627  1.00  0.00     0.029 A 
ATOM     41  C   UNL A   1      39.732  29.612  29.697  1.00  0.00     0.049 A 
ATOM     42  H   UNL A   1      39.830  30.499  31.579  1.00  0.00     0.167 HD
ATOM     43  C   UNL A   1      39.962  32.496  35.470  1.00  0.00     0.037 A 
ATOM     44  C   UNL A   1      40.720  28.701  29.641  1.00  0.00     0.037 A 
ATOM     45  C   UNL A   1      41.001  31.502  35.528  1.00  0.00     0.049 A 
ATOM     46  C   UNL A   1      41.593  28.485  30.847  1.00  0.00     0.074 A 
ATOM     47  C   UNL A   1      41.860  31.206  36.572  1.00  0.00     0.029 A 
ATOM     48  N   UNL A   1      41.317  30.635  34.492  1.00  0.00    -0.354 N 
ATOM     49  N   UNL A   1      41.568  29.097  32.006  1.00  0.00    -0.248 NA
ATOM     50  C   UNL A   1      42.617  27.437  30.743  1.00  0.00     0.031 C 
ATOM     51  C   UNL A   1      42.715  30.178  36.159  1.00  0.00     0.029 A 
ATOM     52  C   UNL A   1      42.362  29.806  34.871  1.00  0.00     0.049 A 
ATOM     53  H   UNL A   1      40.867  30.611  33.618  1.00  0.00     0.167 HD
ATOM     54  C   UNL A   1      42.550  28.491  32.777  1.00  0.00     0.074 A 
ATOM     55  C   UNL A   1      43.142  27.452  31.959  1.00  0.00     0.031 C 
ATOM     56  C   UNL A   1      42.928  28.769  34.049  1.00  0.00     0.037 A 
BRANCH  43  57
ATOM     57  C   UNL A   1      39.764  33.388  36.662  1.00  0.00     0.064 A 
ATOM     58  C   UNL A   1      38.876  33.048  37.693  1.00  0.00     0.173 A 
ATOM     59  C   UNL A   1      40.488  34.583  36.787  1.00  0.00     0.173 A 
ATOM     60  F   UNL A   1      38.149  31.922  37.615  1.00  0.00    -0.203 F 
ATOM     61  C   UNL A   1      38.699  33.885  38.792  1.00  0.00     0.198 A 
ATOM     62  C   UNL A   1      40.329  35.403  37.901  1.00  0.00     0.198 A 
ATOM     63  F   UNL A   1      41.355  34.952  35.832  1.00  0.00    -0.203 F 
ATOM     64  F   UNL A   1      37.808  33.563  39.742  1.00  0.00    -0.200 F 
ATOM     65  C   UNL A   1      39.429  35.059  38.898  1.00  0.00     0.200 A 
ATOM     66  F   UNL A   1      41.045  36.532  38.008  1.00  0.00    -0.200 F 
ATOM     67  F   UNL A   1      39.261  35.861  39.958  1.00  0.00    -0.200 F 
ENDBRANCH  43  57
BRANCH  44  68
ATOM     68  C   UNL A   1      40.903  27.885  28.414  1.00  0.00     0.064 A 
ATOM     69  C   UNL A   1      40.260  26.647  28.272  1.00  0.00     0.173 A 
ATOM     70  C   UNL A   1      41.719  28.323  27.362  1.00  0.00     0.173 A 
ATOM     71  F   UNL A   1      39.486  26.179  29.262  1.00  0.00    -0.203 F 
ATOM     72  C   UNL A   1      40.443  25.868  27.132  1.00  0.00     0.198 A 
ATOM     73  C   UNL A   1      41.881  27.555  26.210  1.00  0.00     0.198 A 
ATOM     74  F   UNL A   1      42.351  29.503  27.448  1.00  0.00    -0.203 F 
ATOM     75  F   UNL A   1      39.849  24.671  27.040  1.00  0.00    -0.200 F 
ATOM     76  C   UNL A   1      41.249  26.325  26.100  1.00  0.00     0.200 A 
ATOM     77  F   UNL A   1      42.651  28.005  25.210  1.00  0.00    -0.200 F 
ATOM     78  F   UNL A   1      41.421  25.578  25.001  1.00  0.00    -0.200 F 
ENDBRANCH  44  68
BRANCH  56  79
ATOM     79  C   UNL A   1      44.003  27.910  34.645  1.00  0.00     0.064 A 
ATOM     80  C   UNL A   1      43.704  26.713  35.312  1.00  0.00     0.173 A 
ATOM     81  C   UNL A   1      45.352  28.280  34.528  1.00  0.00     0.173 A 
ATOM     82  F   UNL A   1      42.429  26.324  35.461  1.00  0.00    -0.203 F 
ATOM     83  C   UNL A   1      44.714  25.934  35.870  1.00  0.00     0.198 A 
ATOM     84  C   UNL A   1      46.361  27.485  35.064  1.00  0.00     0.198 A 
ATOM     85  F   UNL A   1      45.690  29.412  33.895  1.00  0.00    -0.203 F 
ATOM     86  F   UNL A   1      44.402  24.821  36.547  1.00  0.00    -0.200 F 
ATOM     87  C   UNL A   1      46.041  26.318  35.741  1.00  0.00     0.200 A 
ATOM     88  F   UNL A   1      47.643  27.852  34.932  1.00  0.00    -0.200 F 
ATOM     89  F   UNL A   1      47.012  25.567  36.281  1.00  0.00    -0.200 F 
ENDBRANCH  56  79
ENDBRANCH  30  31
ENDBRANCH  22  25
ENDBRANCH  20  21
ENDBRANCH  19  20
ENDBRANCH   1  19
TORSDOF 13
ENDMDL
MODEL 3
REMARK VINA RESULT:     -11.2      1.365      7.786
REMARK SMILES CN(C)C(=O)CSc1ccc(C(=O)NCCCNC(=O)c2ccc(-c3c4nc(c(-c5c(F)c(F)c(F)c(F)c5F)c5ccc([nH]5)c(-c5c(F)c(F)c(F)c(F)c5F)c5nc(c(-c6c(F)c(F)c(F)c(F)c6F)c6ccc3[nH]6)C=C5)C=C4)cc2)cc1
REMARK SMILES IDX 15 1 14 2 12 3 13 4 11 6 8 7 9 8 85 9 10 10 84 11 7 12 6 13
REMARK SMILES IDX 4 14 1 15 2 16 3 17 5 18 16 19 17 20 18 21 19 22 20 24 21 25
REMARK SMILES IDX 22 26 83 27 23 28 82 29 24 30 25 31 26 32 76 33 27 34 81 35
REMARK SMILES IDX 75 36 77 37 28 38 80 39 74 40 73 41 29 43 61 44 41 45 60 46
REMARK SMILES IDX 42 47 45 48 59 49 78 50 43 51 44 52 58 54 79 55 46 56 30 57
REMARK SMILES IDX 31 58 39 59 32 60 33 61 37 62 40 63 34 64 35 65 38 66 36 67
REMARK SMILES IDX 62 68 63 69 71 70 64 71 65 72 69 73 72 74 66 75 67 76 70 77
REMARK SMILES IDX 68 78 47 79 48 80 56 81 49 82 50 83 54 84 57 85 51 86 52 87
REMARK SMILES IDX 55 88 53 89
REMARK H PARENT 14 5 18 23 77 42 45 53
REMARK Flexibility Score: inf
ROOT
ATOM      1  C   UNL A   1      31.682  30.813  26.620  1.00  0.00     0.118 C 
ENDROOT
BRANCH   1   2
ATOM      2  N   UNL A   1      32.940  30.366  27.191  1.00  0.00    -0.352 N 
ATOM      3  C   UNL A   1      33.539  29.134  27.211  1.00  0.00     0.251 C 
ATOM      4  O   UNL A   1      34.667  29.044  27.695  1.00  0.00    -0.269 OA
ATOM      5  H   UNL A   1      33.452  31.074  27.645  1.00  0.00     0.163 HD
BRANCH   3   6
ATOM      6  C   UNL A   1      32.906  27.930  26.617  1.00  0.00     0.039 A 
ATOM      7  C   UNL A   1      31.846  25.629  25.381  1.00  0.00     0.008 A 
ATOM      8  C   UNL A   1      33.190  25.968  25.214  1.00  0.00     0.016 A 
ATOM      9  C   UNL A   1      31.041  26.442  26.184  1.00  0.00     0.016 A 
ATOM     10  C   UNL A   1      33.721  27.100  25.840  1.00  0.00     0.015 A 
ATOM     11  C   UNL A   1      31.571  27.573  26.814  1.00  0.00     0.015 A 
BRANCH   7  12
ATOM     12  S   UNL A   1      31.079  24.285  24.498  1.00  0.00    -0.116 SA
BRANCH  12  13
ATOM     13  C   UNL A   1      30.693  23.094  25.829  1.00  0.00     0.175 C 
BRANCH  13  14
ATOM     14  C   UNL A   1      31.906  22.660  26.637  1.00  0.00     0.232 C 
ATOM     15  C   UNL A   1      33.983  21.427  26.877  1.00  0.00     0.146 C 
ATOM     16  N   UNL A   1      32.759  21.684  26.136  1.00  0.00    -0.348 N 
ATOM     17  C   UNL A   1      32.581  20.963  24.885  1.00  0.00     0.146 C 
ATOM     18  O   UNL A   1      32.112  23.175  27.741  1.00  0.00    -0.274 OA
ENDBRANCH  13  14
ENDBRANCH  12  13
ENDBRANCH   7  12
ENDBRANCH   3   6
ENDBRANCH   1   2
BRANCH   1  19
ATOM     19  C   UNL A   1      31.504  32.322  26.779  1.00  0.00     0.042 C 
BRANCH  19  20
ATOM     20  C   UNL A   1      32.793  33.061  27.126  1.00  0.00     0.118 C 
BRANCH  20  21
ATOM     21  N   UNL A   1      32.535  34.386  27.663  1.00  0.00    -0.352 N 
ATOM     22  C   UNL A   1      33.015  34.991  28.796  1.00  0.00     0.251 C 
ATOM     23  H   UNL A   1      31.919  34.937  27.129  1.00  0.00     0.163 HD
ATOM     24  O   UNL A   1      32.506  36.044  29.172  1.00  0.00    -0.269 OA
BRANCH  22  25
ATOM     25  C   UNL A   1      34.130  34.402  29.575  1.00  0.00     0.039 A 
ATOM     26  C   UNL A   1      35.427  34.520  29.065  1.00  0.00     0.014 A 
ATOM     27  C   UNL A   1      33.911  33.663  30.742  1.00  0.00     0.014 A 
ATOM     28  C   UNL A   1      36.498  33.917  29.727  1.00  0.00     0.010 A 
ATOM     29  C   UNL A   1      34.989  33.117  31.439  1.00  0.00     0.010 A 
ATOM     30  C   UNL A   1      36.290  33.216  30.924  1.00  0.00    -0.014 A 
BRANCH  30  31
ATOM     31  C   UNL A   1      37.421  32.543  31.611  1.00  0.00     0.031 A 
ATOM     32  C   UNL A   1      38.148  31.410  30.939  1.00  0.00     0.074 A 
ATOM     33  C   UNL A   1      37.783  32.938  32.845  1.00  0.00     0.049 A 
ATOM     34  N   UNL A   1      39.159  30.699  31.375  1.00  0.00    -0.248 NA
ATOM     35  C   UNL A   1      37.662  31.007  29.611  1.00  0.00     0.031 C 
ATOM     36  C   UNL A   1      37.128  33.991  33.621  1.00  0.00     0.029 A 
ATOM     37  N   UNL A   1      38.792  32.498  33.666  1.00  0.00    -0.354 N 
ATOM     38  C   UNL A   1      39.415  29.758  30.385  1.00  0.00     0.074 A 
ATOM     39  C   UNL A   1      38.427  29.958  29.347  1.00  0.00     0.031 C 
ATOM     40  C   UNL A   1      37.767  34.135  34.793  1.00  0.00     0.029 A 
ATOM     41  C   UNL A   1      38.862  33.171  34.861  1.00  0.00     0.049 A 
ATOM     42  H   UNL A   1      39.408  31.770  33.420  1.00  0.00     0.167 HD
ATOM     43  C   UNL A   1      40.399  28.828  30.335  1.00  0.00     0.037 A 
ATOM     44  C   UNL A   1      39.720  33.031  35.888  1.00  0.00     0.037 A 
ATOM     45  C   UNL A   1      41.400  28.650  31.353  1.00  0.00     0.049 A 
ATOM     46  C   UNL A   1      40.829  32.020  35.789  1.00  0.00     0.074 A 
ATOM     47  C   UNL A   1      42.464  27.766  31.376  1.00  0.00     0.029 A 
ATOM     48  N   UNL A   1      41.463  29.381  32.530  1.00  0.00    -0.354 N 
ATOM     49  N   UNL A   1      41.098  31.178  34.821  1.00  0.00    -0.248 NA
ATOM     50  C   UNL A   1      41.766  31.954  36.919  1.00  0.00     0.031 C 
ATOM     51  C   UNL A   1      43.156  27.942  32.580  1.00  0.00     0.029 A 
ATOM     52  C   UNL A   1      42.546  28.965  33.289  1.00  0.00     0.049 A 
ATOM     53  H   UNL A   1      40.832  30.091  32.789  1.00  0.00     0.167 HD
ATOM     54  C   UNL A   1      42.248  30.505  35.209  1.00  0.00     0.074 A 
ATOM     55  C   UNL A   1      42.635  31.047  36.496  1.00  0.00     0.031 C 
ATOM     56  C   UNL A   1      42.923  29.525  34.560  1.00  0.00     0.037 A 
BRANCH  43  57
ATOM     57  C   UNL A   1      40.441  27.932  29.130  1.00  0.00     0.064 A 
ATOM     58  C   UNL A   1      39.678  26.757  29.063  1.00  0.00     0.173 A 
ATOM     59  C   UNL A   1      41.232  28.266  28.021  1.00  0.00     0.173 A 
ATOM     60  F   UNL A   1      38.915  26.387  30.103  1.00  0.00    -0.203 F 
ATOM     61  C   UNL A   1      39.728  25.933  27.941  1.00  0.00     0.198 A 
ATOM     62  C   UNL A   1      41.258  27.453  26.890  1.00  0.00     0.198 A 
ATOM     63  F   UNL A   1      41.977  29.381  28.032  1.00  0.00    -0.203 F 
ATOM     64  F   UNL A   1      39.027  24.790  27.920  1.00  0.00    -0.200 F 
ATOM     65  C   UNL A   1      40.512  26.285  26.854  1.00  0.00     0.200 A 
ATOM     66  F   UNL A   1      42.008  27.800  25.834  1.00  0.00    -0.200 F 
ATOM     67  F   UNL A   1      40.556  25.493  25.774  1.00  0.00    -0.200 F 
ENDBRANCH  43  57
BRANCH  44  68
ATOM     68  C   UNL A   1      39.595  33.909  37.079  1.00  0.00     0.064 A 
ATOM     69  C   UNL A   1      38.876  33.490  38.207  1.00  0.00     0.173 A 
ATOM     70  C   UNL A   1      40.189  35.178  37.115  1.00  0.00     0.173 A 
ATOM     71  F   UNL A   1      38.274  32.292  38.210  1.00  0.00    -0.203 F 
ATOM     72  C   UNL A   1      38.739  34.317  39.320  1.00  0.00     0.198 A 
ATOM     73  C   UNL A   1      40.073  35.994  38.238  1.00  0.00     0.198 A 
ATOM     74  F   UNL A   1      40.892  35.620  36.062  1.00  0.00    -0.203 F 
ATOM     75  F   UNL A   1      38.013  33.909  40.369  1.00  0.00    -0.200 F 
ATOM     76  C   UNL A   1      39.342  35.566  39.337  1.00  0.00     0.200 A 
ATOM     77  F   UNL A   1      40.667  37.195  38.256  1.00  0.00    -0.200 F 
ATOM     78  F   UNL A   1      39.213  36.359  40.408  1.00  0.00    -0.200 F 
ENDBRANCH  44  68
BRANCH  56  79
ATOM     79  C   UNL A   1      44.172  29.010  35.211  1.00  0.00     0.064 A 
ATOM     80  C   UNL A   1      44.143  27.933  36.109  1.00  0.00     0.173 A 
ATOM     81  C   UNL A   1      45.415  29.591  34.917  1.00  0.00     0.173 A 
ATOM     82  F   UNL A   1      42.977  27.354  36.432  1.00  0.00    -0.203 F 
ATOM     83  C   UNL A   1      45.311  27.476  36.714  1.00  0.00     0.198 A 
ATOM     84  C   UNL A   1      46.583  29.113  35.504  1.00  0.00     0.198 A 
ATOM     85  F   UNL A   1      45.496  30.619  34.061  1.00  0.00    -0.203 F 
ATOM     86  F   UNL A   1      45.254  26.479  37.608  1.00  0.00    -0.200 F 
ATOM     87  C   UNL A   1      46.530  28.063  36.408  1.00  0.00     0.200 A 
ATOM     88  F   UNL A   1      47.762  29.676  35.201  1.00  0.00    -0.200 F 
ATOM     89  F   UNL A   1      47.652  27.622  36.993  1.00  0.00    -0.200 F 
ENDBRANCH  56  79
ENDBRANCH  30  31
ENDBRANCH  22  25
ENDBRANCH  20  21
ENDBRANCH  19  20
ENDBRANCH   1  19
TORSDOF 13
ENDMDL
