MODEL 1
REMARK VINA RESULT:     -11.8      0.000      0.000
REMARK SMILES CCOc1cccc(OCC)c1-c1ccc([C@@H](C)C(=O)NCCCNC(=O)c2ccc(-c3c4nc(c(-c5c(F)c(F)c(F)c(F)c5F)c5ccc([nH]5)c(-c5c(F)c(F)c(F)c(F)c5F)c5nc(c(-c6c(F)c(F)c(F)c(F)c6F)c6ccc3[nH]6)C=C5)C=C4)cc2)cc1F
REMARK SMILES IDX 22 1 21 2 19 3 20 4 17 6 18 7 16 8 13 9 14 10 92 11 15 12
REMARK SMILES IDX 91 13 93 14 12 15 4 16 5 17 6 18 8 19 7 20 3 21 2 22 1 23
REMARK SMILES IDX 9 24 10 25 11 26 23 27 24 28 25 29 26 30 27 32 28 33 29 34
REMARK SMILES IDX 90 35 30 36 89 37 31 38 32 39 33 40 83 41 34 42 88 43 82 44
REMARK SMILES IDX 84 45 35 46 87 47 81 48 80 49 36 51 68 52 48 53 67 54 49 55
REMARK SMILES IDX 52 56 66 57 85 58 50 59 51 60 65 62 86 63 53 64 37 65 38 66
REMARK SMILES IDX 46 67 39 68 40 69 44 70 47 71 41 72 42 73 45 74 43 75 69 76
REMARK SMILES IDX 70 77 78 78 71 79 72 80 76 81 79 82 73 83 74 84 77 85 75 86
REMARK SMILES IDX 54 87 55 88 63 89 56 90 57 91 61 92 64 93 58 94 59 95 62 96
REMARK SMILES IDX 60 97
REMARK H PARENT 21 5 25 31 84 50 52 61
REMARK Flexibility Score: inf
ROOT
ATOM      1  C   UNL A   1      32.135  27.727  26.934  1.00  0.00     0.117 C 
ENDROOT
BRANCH   1   2
ATOM      2  N   UNL A   1      30.997  26.819  26.932  1.00  0.00    -0.356 N 
ATOM      3  C   UNL A   1      30.521  25.885  26.060  1.00  0.00     0.227 C 
ATOM      4  O   UNL A   1      29.458  25.348  26.400  1.00  0.00    -0.274 OA
ATOM      5  H   UNL A   1      30.447  26.896  27.745  1.00  0.00     0.163 HD
BRANCH   3   6
ATOM      6  C   UNL A   1      31.178  25.474  24.720  1.00  0.00     0.105 C 
ATOM      7  C   UNL A   1      30.214  24.951  23.660  1.00  0.00     0.023 C 
BRANCH   6   8
ATOM      8  C   UNL A   1      32.416  24.611  24.889  1.00  0.00    -0.033 A 
ATOM      9  C   UNL A   1      34.594  22.786  25.088  1.00  0.00     0.025 A 
ATOM     10  C   UNL A   1      34.083  23.187  23.856  1.00  0.00     0.012 A 
ATOM     11  C   UNL A   1      33.985  23.319  26.232  1.00  0.00     0.131 A 
ATOM     12  C   UNL A   1      33.112  24.172  23.772  1.00  0.00     0.005 A 
ATOM     13  C   UNL A   1      32.883  24.187  26.140  1.00  0.00     0.044 A 
ATOM     14  F   UNL A   1      34.420  22.976  27.454  1.00  0.00    -0.206 F 
BRANCH   9  15
ATOM     15  C   UNL A   1      35.652  21.762  25.104  1.00  0.00     0.069 A 
ATOM     16  C   UNL A   1      35.238  20.402  25.040  1.00  0.00     0.130 A 
ATOM     17  C   UNL A   1      36.144  19.343  24.941  1.00  0.00     0.047 A 
ATOM     18  C   UNL A   1      37.500  19.614  24.877  1.00  0.00     0.008 A 
ATOM     19  C   UNL A   1      37.042  22.020  25.058  1.00  0.00     0.130 A 
ATOM     20  C   UNL A   1      37.937  20.935  24.946  1.00  0.00     0.047 A 
BRANCH  16  21
ATOM     21  O   UNL A   1      33.900  20.098  25.157  1.00  0.00    -0.493 OA
BRANCH  21  22
ATOM     22  C   UNL A   1      33.449  19.142  24.195  1.00  0.00     0.226 C 
ATOM     23  C   UNL A   1      32.344  19.776  23.364  1.00  0.00     0.049 C 
ENDBRANCH  21  22
ENDBRANCH  16  21
BRANCH  19  24
ATOM     24  O   UNL A   1      37.758  23.185  25.142  1.00  0.00    -0.493 OA
BRANCH  24  25
ATOM     25  C   UNL A   1      37.804  24.037  26.275  1.00  0.00     0.226 C 
ATOM     26  C   UNL A   1      39.164  23.948  26.955  1.00  0.00     0.049 C 
ENDBRANCH  24  25
ENDBRANCH  19  24
ENDBRANCH   9  15
ENDBRANCH   6   8
ENDBRANCH   3   6
ENDBRANCH   1   2
BRANCH   1  27
ATOM     27  C   UNL A   1      32.266  28.499  25.614  1.00  0.00     0.042 C 
BRANCH  27  28
ATOM     28  C   UNL A   1      33.418  29.488  25.535  1.00  0.00     0.118 C 
BRANCH  28  29
ATOM     29  N   UNL A   1      33.089  30.767  26.137  1.00  0.00    -0.352 N 
ATOM     30  C   UNL A   1      33.658  31.457  27.175  1.00  0.00     0.251 C 
ATOM     31  H   UNL A   1      32.319  31.220  25.725  1.00  0.00     0.163 HD
ATOM     32  O   UNL A   1      33.052  32.442  27.611  1.00  0.00    -0.269 OA
BRANCH  30  33
ATOM     33  C   UNL A   1      34.954  31.080  27.797  1.00  0.00     0.039 A 
ATOM     34  C   UNL A   1      35.085  29.776  28.296  1.00  0.00     0.014 A 
ATOM     35  C   UNL A   1      35.999  31.985  28.002  1.00  0.00     0.014 A 
ATOM     36  C   UNL A   1      36.243  29.385  28.977  1.00  0.00     0.010 A 
ATOM     37  C   UNL A   1      37.194  31.569  28.601  1.00  0.00     0.010 A 
ATOM     38  C   UNL A   1      37.316  30.276  29.129  1.00  0.00    -0.014 A 
BRANCH  38  39
ATOM     39  C   UNL A   1      38.533  29.879  29.888  1.00  0.00     0.031 A 
ATOM     40  C   UNL A   1      38.757  30.384  31.291  1.00  0.00     0.074 A 
ATOM     41  C   UNL A   1      39.453  29.080  29.315  1.00  0.00     0.049 A 
ATOM     42  N   UNL A   1      39.748  30.140  32.113  1.00  0.00    -0.248 NA
ATOM     43  C   UNL A   1      37.749  31.308  31.831  1.00  0.00     0.031 C 
ATOM     44  C   UNL A   1      39.392  28.572  27.944  1.00  0.00     0.029 A 
ATOM     45  N   UNL A   1      40.621  28.558  29.813  1.00  0.00    -0.354 N 
ATOM     46  C   UNL A   1      39.494  30.898  33.250  1.00  0.00     0.074 A 
ATOM     47  C   UNL A   1      38.285  31.648  32.994  1.00  0.00     0.031 C 
ATOM     48  C   UNL A   1      40.459  27.790  27.719  1.00  0.00     0.029 A 
ATOM     49  C   UNL A   1      41.290  27.758  28.919  1.00  0.00     0.049 A 
ATOM     50  H   UNL A   1      40.948  28.740  30.724  1.00  0.00     0.167 HD
ATOM     51  C   UNL A   1      40.188  30.946  34.414  1.00  0.00     0.037 A 
ATOM     52  C   UNL A   1      42.439  27.069  29.056  1.00  0.00     0.037 A 
ATOM     53  C   UNL A   1      41.369  30.168  34.686  1.00  0.00     0.049 A 
ATOM     54  C   UNL A   1      43.161  27.089  30.374  1.00  0.00     0.074 A 
ATOM     55  C   UNL A   1      42.101  30.089  35.858  1.00  0.00     0.029 A 
ATOM     56  N   UNL A   1      41.991  29.332  33.771  1.00  0.00    -0.354 N 
ATOM     57  N   UNL A   1      42.865  27.744  31.471  1.00  0.00    -0.248 NA
ATOM     58  C   UNL A   1      44.367  26.256  30.481  1.00  0.00     0.031 C 
ATOM     59  C   UNL A   1      43.188  29.235  35.640  1.00  0.00     0.029 A 
ATOM     60  C   UNL A   1      43.107  28.745  34.347  1.00  0.00     0.049 A 
ATOM     61  H   UNL A   1      41.685  29.179  32.847  1.00  0.00     0.167 HD
ATOM     62  C   UNL A   1      43.831  27.388  32.401  1.00  0.00     0.074 A 
ATOM     63  C   UNL A   1      44.711  26.442  31.747  1.00  0.00     0.031 C 
ATOM     64  C   UNL A   1      43.976  27.807  33.683  1.00  0.00     0.037 A 
BRANCH  51  65
ATOM     65  C   UNL A   1      39.685  31.875  35.482  1.00  0.00     0.064 A 
ATOM     66  C   UNL A   1      38.686  31.486  36.388  1.00  0.00     0.173 A 
ATOM     67  C   UNL A   1      40.219  33.166  35.612  1.00  0.00     0.173 A 
ATOM     68  F   UNL A   1      38.133  30.267  36.302  1.00  0.00    -0.203 F 
ATOM     69  C   UNL A   1      38.215  32.367  37.358  1.00  0.00     0.198 A 
ATOM     70  C   UNL A   1      39.767  34.033  36.603  1.00  0.00     0.198 A 
ATOM     71  F   UNL A   1      41.180  33.587  34.776  1.00  0.00    -0.203 F 
ATOM     72  F   UNL A   1      37.218  31.993  38.173  1.00  0.00    -0.200 F 
ATOM     73  C   UNL A   1      38.758  33.638  37.468  1.00  0.00     0.200 A 
ATOM     74  F   UNL A   1      40.302  35.257  36.715  1.00  0.00    -0.200 F 
ATOM     75  F   UNL A   1      38.303  34.485  38.403  1.00  0.00    -0.200 F 
ENDBRANCH  51  65
BRANCH  52  76
ATOM     76  C   UNL A   1      42.948  26.259  27.918  1.00  0.00     0.064 A 
ATOM     77  C   UNL A   1      42.643  24.895  27.812  1.00  0.00     0.173 A 
ATOM     78  C   UNL A   1      43.730  26.836  26.907  1.00  0.00     0.173 A 
ATOM     79  F   UNL A   1      41.915  24.295  28.765  1.00  0.00    -0.203 F 
ATOM     80  C   UNL A   1      43.114  24.134  26.745  1.00  0.00     0.198 A 
ATOM     81  C   UNL A   1      44.178  26.079  25.827  1.00  0.00     0.198 A 
ATOM     82  F   UNL A   1      44.042  28.138  26.961  1.00  0.00    -0.203 F 
ATOM     83  F   UNL A   1      42.837  22.824  26.685  1.00  0.00    -0.200 F 
ATOM     84  C   UNL A   1      43.874  24.729  25.748  1.00  0.00     0.200 A 
ATOM     85  F   UNL A   1      44.901  26.660  24.859  1.00  0.00    -0.200 F 
ATOM     86  F   UNL A   1      44.319  23.999  24.717  1.00  0.00    -0.200 F 
ENDBRANCH  52  76
BRANCH  64  87
ATOM     87  C   UNL A   1      45.115  27.225  34.469  1.00  0.00     0.064 A 
ATOM     88  C   UNL A   1      44.970  26.038  35.204  1.00  0.00     0.173 A 
ATOM     89  C   UNL A   1      46.369  27.851  34.473  1.00  0.00     0.173 A 
ATOM     90  F   UNL A   1      43.786  25.409  35.244  1.00  0.00    -0.203 F 
ATOM     91  C   UNL A   1      46.031  25.520  35.942  1.00  0.00     0.198 A 
ATOM     92  C   UNL A   1      47.437  27.315  35.188  1.00  0.00     0.198 A 
ATOM     93  F   UNL A   1      46.563  28.983  33.780  1.00  0.00    -0.203 F 
ATOM     94  F   UNL A   1      45.854  24.417  36.681  1.00  0.00    -0.200 F 
ATOM     95  C   UNL A   1      47.264  26.156  35.930  1.00  0.00     0.200 A 
ATOM     96  F   UNL A   1      48.630  27.924  35.167  1.00  0.00    -0.200 F 
ATOM     97  F   UNL A   1      48.283  25.656  36.642  1.00  0.00    -0.200 F 
ENDBRANCH  64  87
ENDBRANCH  38  39
ENDBRANCH  30  33
ENDBRANCH  28  29
ENDBRANCH  27  28
ENDBRANCH   1  27
TORSDOF 16
ENDMDL
MODEL 2
REMARK VINA RESULT:     -11.8      0.726      2.273
REMARK SMILES CCOc1cccc(OCC)c1-c1ccc([C@@H](C)C(=O)NCCCNC(=O)c2ccc(-c3c4nc(c(-c5c(F)c(F)c(F)c(F)c5F)c5ccc([nH]5)c(-c5c(F)c(F)c(F)c(F)c5F)c5nc(c(-c6c(F)c(F)c(F)c(F)c6F)c6ccc3[nH]6)C=C5)C=C4)cc2)cc1F
REMARK SMILES IDX 22 1 21 2 19 3 20 4 17 6 18 7 16 8 13 9 14 10 92 11 15 12
REMARK SMILES IDX 91 13 93 14 12 15 4 16 5 17 6 18 8 19 7 20 3 21 2 22 1 23
REMARK SMILES IDX 9 24 10 25 11 26 23 27 24 28 25 29 26 30 27 32 28 33 29 34
REMARK SMILES IDX 90 35 30 36 89 37 31 38 32 39 33 40 83 41 34 42 88 43 82 44
REMARK SMILES IDX 84 45 35 46 87 47 81 48 80 49 36 51 68 52 48 53 67 54 49 55
REMARK SMILES IDX 52 56 66 57 85 58 50 59 51 60 65 62 86 63 53 64 37 65 38 66
REMARK SMILES IDX 46 67 39 68 40 69 44 70 47 71 41 72 42 73 45 74 43 75 69 76
REMARK SMILES IDX 70 77 78 78 71 79 72 80 76 81 79 82 73 83 74 84 77 85 75 86
REMARK SMILES IDX 54 87 55 88 63 89 56 90 57 91 61 92 64 93 58 94 59 95 62 96
REMARK SMILES IDX 60 97
REMARK H PARENT 21 5 25 31 84 50 52 61
REMARK Flexibility Score: inf
ROOT
ATOM      1  C   UNL A   1      31.656  28.038  27.554  1.00  0.00     0.117 C 
ENDROOT
BRANCH   1   2
ATOM      2  N   UNL A   1      31.049  26.913  26.857  1.00  0.00    -0.356 N 
ATOM      3  C   UNL A   1      31.399  26.154  25.780  1.00  0.00     0.227 C 
ATOM      4  O   UNL A   1      30.561  25.305  25.446  1.00  0.00    -0.274 OA
ATOM      5  H   UNL A   1      30.190  26.639  27.253  1.00  0.00     0.163 HD
BRANCH   3   6
ATOM      6  C   UNL A   1      32.709  26.281  24.966  1.00  0.00     0.105 C 
ATOM      7  C   UNL A   1      32.545  26.849  23.560  1.00  0.00     0.023 C 
BRANCH   6   8
ATOM      8  C   UNL A   1      33.579  25.037  25.016  1.00  0.00    -0.033 A 
ATOM      9  C   UNL A   1      35.010  22.574  24.971  1.00  0.00     0.025 A 
ATOM     10  C   UNL A   1      34.698  23.263  23.801  1.00  0.00     0.012 A 
ATOM     11  C   UNL A   1      34.584  23.146  26.177  1.00  0.00     0.131 A 
ATOM     12  C   UNL A   1      34.118  24.521  23.847  1.00  0.00     0.005 A 
ATOM     13  C   UNL A   1      33.841  24.339  26.203  1.00  0.00     0.044 A 
ATOM     14  F   UNL A   1      34.843  22.538  27.345  1.00  0.00    -0.206 F 
BRANCH   9  15
ATOM     15  C   UNL A   1      35.660  21.258  24.853  1.00  0.00     0.069 A 
ATOM     16  C   UNL A   1      37.082  21.233  24.897  1.00  0.00     0.130 A 
ATOM     17  C   UNL A   1      37.814  20.042  24.901  1.00  0.00     0.047 A 
ATOM     18  C   UNL A   1      37.141  18.832  24.888  1.00  0.00     0.008 A 
ATOM     19  C   UNL A   1      34.989  20.014  24.819  1.00  0.00     0.130 A 
ATOM     20  C   UNL A   1      35.748  18.825  24.837  1.00  0.00     0.047 A 
BRANCH  16  21
ATOM     21  O   UNL A   1      37.779  22.419  24.854  1.00  0.00    -0.493 OA
BRANCH  21  22
ATOM     22  C   UNL A   1      38.517  22.686  26.049  1.00  0.00     0.226 C 
ATOM     23  C   UNL A   1      38.231  24.115  26.484  1.00  0.00     0.049 C 
ENDBRANCH  21  22
ENDBRANCH  16  21
BRANCH  19  24
ATOM     24  O   UNL A   1      33.660  19.695  24.730  1.00  0.00    -0.493 OA
BRANCH  24  25
ATOM     25  C   UNL A   1      33.120  18.653  23.933  1.00  0.00     0.226 C 
ATOM     26  C   UNL A   1      32.229  19.226  22.838  1.00  0.00     0.049 C 
ENDBRANCH  24  25
ENDBRANCH  19  24
ENDBRANCH   9  15
ENDBRANCH   6   8
ENDBRANCH   3   6
ENDBRANCH   1   2
BRANCH   1  27
ATOM     27  C   UNL A   1      31.407  29.371  26.836  1.00  0.00     0.042 C 
BRANCH  27  28
ATOM     28  C   UNL A   1      32.644  30.090  26.323  1.00  0.00     0.118 C 
BRANCH  28  29
ATOM     29  N   UNL A   1      32.628  31.507  26.636  1.00  0.00    -0.352 N 
ATOM     30  C   UNL A   1      33.441  32.275  27.428  1.00  0.00     0.251 C 
ATOM     31  H   UNL A   1      31.901  32.008  26.199  1.00  0.00     0.163 HD
ATOM     32  O   UNL A   1      33.081  33.430  27.673  1.00  0.00    -0.269 OA
BRANCH  30  33
ATOM     33  C   UNL A   1      34.723  31.785  28.002  1.00  0.00     0.039 A 
ATOM     34  C   UNL A   1      34.764  30.468  28.481  1.00  0.00     0.014 A 
ATOM     35  C   UNL A   1      35.842  32.601  28.184  1.00  0.00     0.014 A 
ATOM     36  C   UNL A   1      35.908  29.975  29.119  1.00  0.00     0.010 A 
ATOM     37  C   UNL A   1      37.019  32.082  28.738  1.00  0.00     0.010 A 
ATOM     38  C   UNL A   1      37.053  30.776  29.246  1.00  0.00    -0.014 A 
BRANCH  38  39
ATOM     39  C   UNL A   1      38.258  30.271  29.959  1.00  0.00     0.031 A 
ATOM     40  C   UNL A   1      38.533  30.688  31.382  1.00  0.00     0.074 A 
ATOM     41  C   UNL A   1      39.121  29.454  29.328  1.00  0.00     0.049 A 
ATOM     42  N   UNL A   1      39.522  30.346  32.171  1.00  0.00    -0.248 NA
ATOM     43  C   UNL A   1      37.588  31.637  31.989  1.00  0.00     0.031 C 
ATOM     44  C   UNL A   1      39.009  29.023  27.934  1.00  0.00     0.029 A 
ATOM     45  N   UNL A   1      40.266  28.841  29.775  1.00  0.00    -0.354 N 
ATOM     46  C   UNL A   1      39.330  31.055  33.351  1.00  0.00     0.074 A 
ATOM     47  C   UNL A   1      38.161  31.884  33.157  1.00  0.00     0.031 C 
ATOM     48  C   UNL A   1      40.027  28.196  27.647  1.00  0.00     0.029 A 
ATOM     49  C   UNL A   1      40.874  28.054  28.828  1.00  0.00     0.049 A 
ATOM     50  H   UNL A   1      40.618  28.956  30.688  1.00  0.00     0.167 HD
ATOM     51  C   UNL A   1      40.045  31.002  34.501  1.00  0.00     0.037 A 
ATOM     52  C   UNL A   1      41.984  27.295  28.906  1.00  0.00     0.037 A 
ATOM     53  C   UNL A   1      41.184  30.147  34.710  1.00  0.00     0.049 A 
ATOM     54  C   UNL A   1      42.728  27.205  30.210  1.00  0.00     0.074 A 
ATOM     55  C   UNL A   1      41.929  29.965  35.862  1.00  0.00     0.029 A 
ATOM     56  N   UNL A   1      41.743  29.327  33.741  1.00  0.00    -0.354 N 
ATOM     57  N   UNL A   1      42.487  27.816  31.344  1.00  0.00    -0.248 NA
ATOM     58  C   UNL A   1      43.886  26.302  30.250  1.00  0.00     0.031 C 
ATOM     59  C   UNL A   1      42.963  29.063  35.579  1.00  0.00     0.029 A 
ATOM     60  C   UNL A   1      42.832  28.648  34.264  1.00  0.00     0.049 A 
ATOM     61  H   UNL A   1      41.413  29.240  32.817  1.00  0.00     0.167 HD
ATOM     62  C   UNL A   1      43.446  27.358  32.237  1.00  0.00     0.074 A 
ATOM     63  C   UNL A   1      44.260  26.400  31.517  1.00  0.00     0.031 C 
ATOM     64  C   UNL A   1      43.636  27.700  33.535  1.00  0.00     0.037 A 
BRANCH  51  65
ATOM     65  C   UNL A   1      39.613  31.900  35.627  1.00  0.00     0.064 A 
ATOM     66  C   UNL A   1      38.589  31.531  36.514  1.00  0.00     0.173 A 
ATOM     67  C   UNL A   1      40.241  33.138  35.830  1.00  0.00     0.173 A 
ATOM     68  F   UNL A   1      37.948  30.363  36.358  1.00  0.00    -0.203 F 
ATOM     69  C   UNL A   1      38.186  32.385  37.537  1.00  0.00     0.198 A 
ATOM     70  C   UNL A   1      39.855  33.975  36.874  1.00  0.00     0.198 A 
ATOM     71  F   UNL A   1      41.229  33.537  35.016  1.00  0.00    -0.203 F 
ATOM     72  F   UNL A   1      37.165  32.037  38.334  1.00  0.00    -0.200 F 
ATOM     73  C   UNL A   1      38.821  33.604  37.720  1.00  0.00     0.200 A 
ATOM     74  F   UNL A   1      40.478  35.148  37.056  1.00  0.00    -0.200 F 
ATOM     75  F   UNL A   1      38.431  34.424  38.706  1.00  0.00    -0.200 F 
ENDBRANCH  51  65
BRANCH  52  76
ATOM     76  C   UNL A   1      42.427  26.520  27.719  1.00  0.00     0.064 A 
ATOM     77  C   UNL A   1      43.382  27.041  26.834  1.00  0.00     0.173 A 
ATOM     78  C   UNL A   1      41.921  25.240  27.455  1.00  0.00     0.173 A 
ATOM     79  F   UNL A   1      43.881  28.269  27.035  1.00  0.00    -0.203 F 
ATOM     80  C   UNL A   1      43.804  26.316  25.723  1.00  0.00     0.198 A 
ATOM     81  C   UNL A   1      42.363  24.505  26.357  1.00  0.00     0.198 A 
ATOM     82  F   UNL A   1      41.010  24.697  28.275  1.00  0.00    -0.203 F 
ATOM     83  F   UNL A   1      44.693  26.851  24.874  1.00  0.00    -0.200 F 
ATOM     84  C   UNL A   1      43.300  25.045  25.489  1.00  0.00     0.200 A 
ATOM     85  F   UNL A   1      41.883  23.273  26.142  1.00  0.00    -0.200 F 
ATOM     86  F   UNL A   1      43.712  24.343  24.425  1.00  0.00    -0.200 F 
ENDBRANCH  52  76
BRANCH  64  87
ATOM     87  C   UNL A   1      44.752  27.014  34.267  1.00  0.00     0.064 A 
ATOM     88  C   UNL A   1      44.550  25.807  34.954  1.00  0.00     0.173 A 
ATOM     89  C   UNL A   1      46.044  27.561  34.269  1.00  0.00     0.173 A 
ATOM     90  F   UNL A   1      43.329  25.250  34.995  1.00  0.00    -0.203 F 
ATOM     91  C   UNL A   1      45.591  25.192  35.643  1.00  0.00     0.198 A 
ATOM     92  C   UNL A   1      47.090  26.928  34.934  1.00  0.00     0.198 A 
ATOM     93  F   UNL A   1      46.293  28.709  33.621  1.00  0.00    -0.203 F 
ATOM     94  F   UNL A   1      45.361  24.070  36.338  1.00  0.00    -0.200 F 
ATOM     95  C   UNL A   1      46.861  25.751  35.629  1.00  0.00     0.200 A 
ATOM     96  F   UNL A   1      48.318  27.463  34.910  1.00  0.00    -0.200 F 
ATOM     97  F   UNL A   1      47.862  25.157  36.294  1.00  0.00    -0.200 F 
ENDBRANCH  64  87
ENDBRANCH  38  39
ENDBRANCH  30  33
ENDBRANCH  28  29
ENDBRANCH  27  28
ENDBRANCH   1  27
TORSDOF 16
ENDMDL
MODEL 3
REMARK VINA RESULT:     -11.8      1.715      3.153
REMARK SMILES CCOc1cccc(OCC)c1-c1ccc([C@@H](C)C(=O)NCCCNC(=O)c2ccc(-c3c4nc(c(-c5c(F)c(F)c(F)c(F)c5F)c5ccc([nH]5)c(-c5c(F)c(F)c(F)c(F)c5F)c5nc(c(-c6c(F)c(F)c(F)c(F)c6F)c6ccc3[nH]6)C=C5)C=C4)cc2)cc1F
REMARK SMILES IDX 22 1 21 2 19 3 20 4 17 6 18 7 16 8 13 9 14 10 92 11 15 12
REMARK SMILES IDX 91 13 93 14 12 15 4 16 5 17 6 18 8 19 7 20 3 21 2 22 1 23
REMARK SMILES IDX 9 24 10 25 11 26 23 27 24 28 25 29 26 30 27 32 28 33 29 34
REMARK SMILES IDX 90 35 30 36 89 37 31 38 32 39 33 40 83 41 34 42 88 43 82 44
REMARK SMILES IDX 84 45 35 46 87 47 81 48 80 49 36 51 68 52 48 53 67 54 49 55
REMARK SMILES IDX 52 56 66 57 85 58 50 59 51 60 65 62 86 63 53 64 37 65 38 66
REMARK SMILES IDX 46 67 39 68 40 69 44 70 47 71 41 72 42 73 45 74 43 75 69 76
REMARK SMILES IDX 70 77 78 78 71 79 72 80 76 81 79 82 73 83 74 84 77 85 75 86
REMARK SMILES IDX 54 87 55 88 63 89 56 90 57 91 61 92 64 93 58 94 59 95 62 96
REMARK SMILES IDX 60 97
REMARK H PARENT 21 5 25 31 84 50 52 61
REMARK Flexibility Score: inf
ROOT
ATOM      1  C   UNL A   1      32.119  30.088  26.683  1.00  0.00     0.117 C 
ENDROOT
BRANCH   1   2
ATOM      2  N   UNL A   1      31.479  29.449  25.543  1.00  0.00    -0.356 N 
ATOM      3  C   UNL A   1      31.923  28.700  24.493  1.00  0.00     0.227 C 
ATOM      4  O   UNL A   1      31.051  28.384  23.673  1.00  0.00    -0.274 OA
ATOM      5  H   UNL A   1      30.505  29.589  25.525  1.00  0.00     0.163 HD
BRANCH   3   6
ATOM      6  C   UNL A   1      33.383  28.247  24.253  1.00  0.00     0.105 C 
ATOM      7  C   UNL A   1      34.039  28.813  22.998  1.00  0.00     0.023 C 
BRANCH   6   8
ATOM      8  C   UNL A   1      33.591  26.752  24.420  1.00  0.00    -0.033 A 
ATOM      9  C   UNL A   1      33.718  23.915  24.654  1.00  0.00     0.025 A 
ATOM     10  C   UNL A   1      33.491  24.542  23.431  1.00  0.00     0.012 A 
ATOM     11  C   UNL A   1      33.879  24.746  25.772  1.00  0.00     0.131 A 
ATOM     12  C   UNL A   1      33.562  25.920  23.310  1.00  0.00     0.005 A 
ATOM     13  C   UNL A   1      33.776  26.144  25.669  1.00  0.00     0.044 A 
ATOM     14  F   UNL A   1      34.096  24.215  26.984  1.00  0.00    -0.206 F 
BRANCH   9  15
ATOM     15  C   UNL A   1      33.665  22.445  24.705  1.00  0.00     0.069 A 
ATOM     16  C   UNL A   1      34.897  21.748  24.560  1.00  0.00     0.130 A 
ATOM     17  C   UNL A   1      34.997  20.360  24.695  1.00  0.00     0.047 A 
ATOM     18  C   UNL A   1      33.866  19.625  25.007  1.00  0.00     0.008 A 
ATOM     19  C   UNL A   1      32.515  21.677  25.003  1.00  0.00     0.130 A 
ATOM     20  C   UNL A   1      32.644  20.279  25.147  1.00  0.00     0.047 A 
BRANCH  16  21
ATOM     21  O   UNL A   1      36.027  22.444  24.196  1.00  0.00    -0.493 OA
BRANCH  21  22
ATOM     22  C   UNL A   1      37.105  22.301  25.123  1.00  0.00     0.226 C 
ATOM     23  C   UNL A   1      37.396  23.661  25.739  1.00  0.00     0.049 C 
ENDBRANCH  21  22
ENDBRANCH  16  21
BRANCH  19  24
ATOM     24  O   UNL A   1      31.200  22.025  25.158  1.00  0.00    -0.493 OA
BRANCH  24  25
ATOM     25  C   UNL A   1      30.635  22.590  26.330  1.00  0.00     0.226 C 
ATOM     26  C   UNL A   1      30.381  24.080  26.134  1.00  0.00     0.049 C 
ENDBRANCH  24  25
ENDBRANCH  19  24
ENDBRANCH   9  15
ENDBRANCH   6   8
ENDBRANCH   3   6
ENDBRANCH   1   2
BRANCH   1  27
ATOM     27  C   UNL A   1      31.602  31.514  26.917  1.00  0.00     0.042 C 
BRANCH  27  28
ATOM     28  C   UNL A   1      32.519  32.637  26.460  1.00  0.00     0.118 C 
BRANCH  28  29
ATOM     29  N   UNL A   1      32.383  33.828  27.277  1.00  0.00    -0.352 N 
ATOM     30  C   UNL A   1      33.066  34.256  28.385  1.00  0.00     0.251 C 
ATOM     31  H   UNL A   1      31.670  34.440  26.982  1.00  0.00     0.163 HD
ATOM     32  O   UNL A   1      32.610  35.224  29.004  1.00  0.00    -0.269 OA
BRANCH  30  33
ATOM     33  C   UNL A   1      34.315  33.615  28.875  1.00  0.00     0.039 A 
ATOM     34  C   UNL A   1      34.204  32.381  29.532  1.00  0.00     0.014 A 
ATOM     35  C   UNL A   1      35.569  34.228  28.807  1.00  0.00     0.014 A 
ATOM     36  C   UNL A   1      35.326  31.771  30.100  1.00  0.00     0.010 A 
ATOM     37  C   UNL A   1      36.708  33.576  29.294  1.00  0.00     0.010 A 
ATOM     38  C   UNL A   1      36.595  32.358  29.978  1.00  0.00    -0.014 A 
BRANCH  38  39
ATOM     39  C   UNL A   1      37.786  31.733  30.616  1.00  0.00     0.031 A 
ATOM     40  C   UNL A   1      38.192  32.117  32.016  1.00  0.00     0.074 A 
ATOM     41  C   UNL A   1      38.521  30.835  29.934  1.00  0.00     0.049 A 
ATOM     42  N   UNL A   1      39.190  31.676  32.742  1.00  0.00    -0.248 NA
ATOM     43  C   UNL A   1      37.388  33.155  32.678  1.00  0.00     0.031 C 
ATOM     44  C   UNL A   1      38.277  30.421  28.552  1.00  0.00     0.029 A 
ATOM     45  N   UNL A   1      39.624  30.109  30.309  1.00  0.00    -0.354 N 
ATOM     46  C   UNL A   1      39.146  32.398  33.928  1.00  0.00     0.074 A 
ATOM     47  C   UNL A   1      38.057  33.340  33.806  1.00  0.00     0.031 C 
ATOM     48  C   UNL A   1      39.186  29.496  28.204  1.00  0.00     0.029 A 
ATOM     49  C   UNL A   1      40.089  29.267  29.329  1.00  0.00     0.049 A 
ATOM     50  H   UNL A   1      40.044  30.186  31.197  1.00  0.00     0.167 HD
ATOM     51  C   UNL A   1      39.924  32.271  35.031  1.00  0.00     0.037 A 
ATOM     52  C   UNL A   1      41.120  28.400  29.339  1.00  0.00     0.037 A 
ATOM     53  C   UNL A   1      40.983  31.305  35.170  1.00  0.00     0.049 A 
ATOM     54  C   UNL A   1      41.933  28.234  30.593  1.00  0.00     0.074 A 
ATOM     55  C   UNL A   1      41.778  31.046  36.273  1.00  0.00     0.029 A 
ATOM     56  N   UNL A   1      41.393  30.435  34.171  1.00  0.00    -0.354 N 
ATOM     57  N   UNL A   1      41.827  28.863  31.738  1.00  0.00    -0.248 NA
ATOM     58  C   UNL A   1      42.995  27.218  30.563  1.00  0.00     0.031 C 
ATOM     59  C   UNL A   1      42.696  30.046  35.928  1.00  0.00     0.029 A 
ATOM     60  C   UNL A   1      42.441  29.650  34.626  1.00  0.00     0.049 A 
ATOM     61  H   UNL A   1      40.998  30.384  33.270  1.00  0.00     0.167 HD
ATOM     62  C   UNL A   1      42.791  28.309  32.569  1.00  0.00     0.074 A 
ATOM     63  C   UNL A   1      43.457  27.276  31.803  1.00  0.00     0.031 C 
ATOM     64  C   UNL A   1      43.097  28.627  33.852  1.00  0.00     0.037 A 
BRANCH  51  65
ATOM     65  C   UNL A   1      39.657  33.205  36.178  1.00  0.00     0.064 A 
ATOM     66  C   UNL A   1      38.734  32.890  37.187  1.00  0.00     0.173 A 
ATOM     67  C   UNL A   1      40.345  34.424  36.277  1.00  0.00     0.173 A 
ATOM     68  F   UNL A   1      38.041  31.742  37.135  1.00  0.00    -0.203 F 
ATOM     69  C   UNL A   1      38.482  33.777  38.231  1.00  0.00     0.198 A 
ATOM     70  C   UNL A   1      40.112  35.295  37.340  1.00  0.00     0.198 A 
ATOM     71  F   UNL A   1      41.243  34.772  35.343  1.00  0.00    -0.203 F 
ATOM     72  F   UNL A   1      37.552  33.480  39.150  1.00  0.00    -0.200 F 
ATOM     73  C   UNL A   1      39.174  34.976  38.309  1.00  0.00     0.200 A 
ATOM     74  F   UNL A   1      40.791  36.447  37.419  1.00  0.00    -0.200 F 
ATOM     75  F   UNL A   1      38.929  35.828  39.314  1.00  0.00    -0.200 F 
ENDBRANCH  51  65
BRANCH  52  76
ATOM     76  C   UNL A   1      41.406  27.588  28.129  1.00  0.00     0.064 A 
ATOM     77  C   UNL A   1      42.284  28.053  27.140  1.00  0.00     0.173 A 
ATOM     78  C   UNL A   1      40.826  26.325  27.947  1.00  0.00     0.173 A 
ATOM     79  F   UNL A   1      42.848  29.263  27.261  1.00  0.00    -0.203 F 
ATOM     80  C   UNL A   1      42.559  27.292  26.006  1.00  0.00     0.198 A 
ATOM     81  C   UNL A   1      41.122  25.554  26.825  1.00  0.00     0.198 A 
ATOM     82  F   UNL A   1      39.985  25.833  28.868  1.00  0.00    -0.203 F 
ATOM     83  F   UNL A   1      43.374  27.776  25.059  1.00  0.00    -0.200 F 
ATOM     84  C   UNL A   1      41.983  26.039  25.854  1.00  0.00     0.200 A 
ATOM     85  F   UNL A   1      40.575  24.338  26.687  1.00  0.00    -0.200 F 
ATOM     86  F   UNL A   1      42.255  25.303  24.767  1.00  0.00    -0.200 F 
ENDBRANCH  52  76
BRANCH  64  87
ATOM     87  C   UNL A   1      44.183  27.830  34.514  1.00  0.00     0.064 A 
ATOM     88  C   UNL A   1      45.519  28.259  34.506  1.00  0.00     0.173 A 
ATOM     89  C   UNL A   1      43.882  26.633  35.178  1.00  0.00     0.173 A 
ATOM     90  F   UNL A   1      45.861  29.391  33.871  1.00  0.00    -0.203 F 
ATOM     91  C   UNL A   1      46.518  27.500  35.109  1.00  0.00     0.198 A 
ATOM     92  C   UNL A   1      44.879  25.890  35.806  1.00  0.00     0.198 A 
ATOM     93  F   UNL A   1      42.619  26.182  35.222  1.00  0.00    -0.203 F 
ATOM     94  F   UNL A   1      47.794  27.901  35.041  1.00  0.00    -0.200 F 
ATOM     95  C   UNL A   1      46.196  26.319  35.763  1.00  0.00     0.200 A 
ATOM     96  F   UNL A   1      44.565  24.756  36.446  1.00  0.00    -0.200 F 
ATOM     97  F   UNL A   1      47.160  25.589  36.342  1.00  0.00    -0.200 F 
ENDBRANCH  64  87
ENDBRANCH  38  39
ENDBRANCH  30  33
ENDBRANCH  28  29
ENDBRANCH  27  28
ENDBRANCH   1  27
TORSDOF 16
ENDMDL
