MODEL 1
REMARK VINA RESULT:     -11.7      0.000      0.000
REMARK SMILES CC[C@](C)(NS(=O)(=O)c1ccc(C(=O)OC)cc1)C(=O)NCCCNC(=O)c1ccc(-c2c3nc(c(-c4c(F)c(F)c(F)c(F)c4F)c4ccc([nH]4)c(-c4c(F)c(F)c(F)c(F)c4F)c4nc(c(-c5c(F)c(F)c(F)c(F)c5F)c5ccc2[nH]5)C=C4)C=C3)cc1
REMARK SMILES IDX 19 1 20 2 21 3 3 5 4 6 2 7 1 8 5 9 6 11 7 12 8 13 9 14 10 15
REMARK SMILES IDX 18 16 11 17 17 18 12 19 13 20 14 21 15 22 16 23 22 24 23 25
REMARK SMILES IDX 24 26 25 27 26 28 27 30 28 31 29 32 90 33 30 34 89 35 31 36
REMARK SMILES IDX 32 37 33 38 83 39 34 40 88 41 82 42 84 43 35 44 87 45 81 46
REMARK SMILES IDX 80 47 36 49 68 50 48 51 67 52 49 53 52 54 66 55 85 56 50 57
REMARK SMILES IDX 51 58 65 60 86 61 53 62 37 63 38 64 46 65 39 66 40 67 44 68
REMARK SMILES IDX 47 69 41 70 42 71 45 72 43 73 69 74 70 75 78 76 71 77 72 78
REMARK SMILES IDX 76 79 79 80 73 81 74 82 77 83 75 84 54 85 55 86 63 87 56 88
REMARK SMILES IDX 57 89 61 90 64 91 58 92 59 93 62 94 60 95
REMARK H PARENT 21 4 5 10 25 29 84 48 52 59
REMARK Flexibility Score: inf
ROOT
ATOM      1  C   UNL A   1      33.011  28.805  24.734  1.00  0.00     0.241 C 
ATOM      2  O   UNL A   1      33.992  28.853  23.973  1.00  0.00    -0.273 OA
ATOM      3  N   UNL A   1      32.470  30.033  24.991  1.00  0.00    -0.354 N 
ATOM      4  H   UNL A   1      33.076  30.753  24.701  1.00  0.00     0.163 HD
ENDROOT
BRANCH   1   5
ATOM      5  C   UNL A   1      32.580  27.433  25.313  1.00  0.00     0.108 C 
ATOM      6  C   UNL A   1      32.704  27.491  26.873  1.00  0.00     0.040 C 
BRANCH   5   7
ATOM      7  C   UNL A   1      33.506  26.281  24.831  1.00  0.00     0.030 C 
ATOM      8  C   UNL A   1      33.611  25.091  25.789  1.00  0.00     0.006 C 
ENDBRANCH   5   7
BRANCH   5   9
ATOM      9  N   UNL A   1      31.169  27.007  25.133  1.00  0.00    -0.196 NA
ATOM     10  H   UNL A   1      30.629  27.766  25.547  1.00  0.00     0.142 HD
BRANCH   9  11
ATOM     11  S   UNL A   1      30.321  26.615  23.755  1.00  0.00     0.241 S 
ATOM     12  O   UNL A   1      31.242  25.921  22.884  1.00  0.00    -0.207 OA
ATOM     13  O   UNL A   1      29.143  25.927  24.247  1.00  0.00    -0.207 OA
BRANCH  11  14
ATOM     14  C   UNL A   1      29.750  28.053  22.879  1.00  0.00     0.082 A 
ATOM     15  C   UNL A   1      28.459  28.469  23.174  1.00  0.00     0.022 A 
ATOM     16  C   UNL A   1      30.570  28.923  22.164  1.00  0.00     0.022 A 
ATOM     17  C   UNL A   1      27.919  29.655  22.713  1.00  0.00     0.017 A 
ATOM     18  C   UNL A   1      30.053  30.169  21.728  1.00  0.00     0.017 A 
ATOM     19  C   UNL A   1      28.723  30.536  22.008  1.00  0.00     0.060 A 
BRANCH  19  20
ATOM     20  C   UNL A   1      28.093  31.843  21.700  1.00  0.00     0.337 C 
ATOM     21  O   UNL A   1      27.817  32.178  20.556  1.00  0.00    -0.246 OA
BRANCH  20  22
ATOM     22  O   UNL A   1      27.859  32.579  22.810  1.00  0.00    -0.465 OA
ATOM     23  C   UNL A   1      28.937  33.478  23.083  1.00  0.00     0.282 C 
ENDBRANCH  20  22
ENDBRANCH  19  20
ENDBRANCH  11  14
ENDBRANCH   9  11
ENDBRANCH   5   9
ENDBRANCH   1   5
BRANCH   3  24
ATOM     24  C   UNL A   1      31.252  30.581  25.575  1.00  0.00     0.117 C 
BRANCH  24  25
ATOM     25  C   UNL A   1      31.254  31.852  26.459  1.00  0.00     0.042 C 
BRANCH  25  26
ATOM     26  C   UNL A   1      32.483  32.624  26.980  1.00  0.00     0.118 C 
BRANCH  26  27
ATOM     27  N   UNL A   1      32.297  33.997  27.397  1.00  0.00    -0.352 N 
ATOM     28  C   UNL A   1      33.017  34.667  28.370  1.00  0.00     0.251 C 
ATOM     29  H   UNL A   1      31.586  34.506  26.943  1.00  0.00     0.163 HD
ATOM     30  O   UNL A   1      32.677  35.791  28.726  1.00  0.00    -0.269 OA
BRANCH  28  31
ATOM     31  C   UNL A   1      34.182  34.023  29.032  1.00  0.00     0.039 A 
ATOM     32  C   UNL A   1      33.957  33.096  30.054  1.00  0.00     0.014 A 
ATOM     33  C   UNL A   1      35.492  34.399  28.721  1.00  0.00     0.014 A 
ATOM     34  C   UNL A   1      35.042  32.510  30.727  1.00  0.00     0.010 A 
ATOM     35  C   UNL A   1      36.578  33.793  29.378  1.00  0.00     0.010 A 
ATOM     36  C   UNL A   1      36.367  32.835  30.384  1.00  0.00    -0.014 A 
BRANCH  36  37
ATOM     37  C   UNL A   1      37.513  32.141  31.048  1.00  0.00     0.031 A 
ATOM     38  C   UNL A   1      38.284  31.048  30.354  1.00  0.00     0.074 A 
ATOM     39  C   UNL A   1      37.862  32.490  32.304  1.00  0.00     0.049 A 
ATOM     40  N   UNL A   1      39.322  30.365  30.780  1.00  0.00    -0.248 NA
ATOM     41  C   UNL A   1      37.827  30.665  29.012  1.00  0.00     0.031 C 
ATOM     42  C   UNL A   1      37.186  33.506  33.110  1.00  0.00     0.029 A 
ATOM     43  N   UNL A   1      38.867  32.030  33.124  1.00  0.00    -0.354 N 
ATOM     44  C   UNL A   1      39.643  29.477  29.760  1.00  0.00     0.074 A 
ATOM     45  C   UNL A   1      38.662  29.678  28.713  1.00  0.00     0.031 C 
ATOM     46  C   UNL A   1      37.804  33.608  34.297  1.00  0.00     0.029 A 
ATOM     47  C   UNL A   1      38.901  32.646  34.353  1.00  0.00     0.049 A 
ATOM     48  H   UNL A   1      39.501  31.327  32.856  1.00  0.00     0.167 HD
ATOM     49  C   UNL A   1      40.666  28.588  29.696  1.00  0.00     0.037 A 
ATOM     50  C   UNL A   1      39.717  32.458  35.409  1.00  0.00     0.037 A 
ATOM     51  C   UNL A   1      41.645  28.383  30.735  1.00  0.00     0.049 A 
ATOM     52  C   UNL A   1      40.829  31.446  35.321  1.00  0.00     0.074 A 
ATOM     53  C   UNL A   1      42.744  27.539  30.733  1.00  0.00     0.029 A 
ATOM     54  N   UNL A   1      41.640  29.021  31.967  1.00  0.00    -0.354 N 
ATOM     55  N   UNL A   1      41.166  30.670  34.321  1.00  0.00    -0.248 NA
ATOM     56  C   UNL A   1      41.681  31.289  36.511  1.00  0.00     0.031 C 
ATOM     57  C   UNL A   1      43.371  27.625  31.981  1.00  0.00     0.029 A 
ATOM     58  C   UNL A   1      42.698  28.566  32.742  1.00  0.00     0.049 A 
ATOM     59  H   UNL A   1      40.982  29.696  32.250  1.00  0.00     0.167 HD
ATOM     60  C   UNL A   1      42.279  29.957  34.747  1.00  0.00     0.074 A 
ATOM     61  C   UNL A   1      42.573  30.403  36.092  1.00  0.00     0.031 C 
ATOM     62  C   UNL A   1      42.991  29.018  34.079  1.00  0.00     0.037 A 
BRANCH  49  63
ATOM     63  C   UNL A   1      40.785  27.752  28.450  1.00  0.00     0.064 A 
ATOM     64  C   UNL A   1      40.132  26.516  28.330  1.00  0.00     0.173 A 
ATOM     65  C   UNL A   1      41.514  28.217  27.344  1.00  0.00     0.173 A 
ATOM     66  F   UNL A   1      39.421  26.025  29.357  1.00  0.00    -0.203 F 
ATOM     67  C   UNL A   1      40.232  25.762  27.163  1.00  0.00     0.198 A 
ATOM     68  C   UNL A   1      41.586  27.475  26.168  1.00  0.00     0.198 A 
ATOM     69  F   UNL A   1      42.142  29.402  27.396  1.00  0.00    -0.203 F 
ATOM     70  F   UNL A   1      39.637  24.564  27.088  1.00  0.00    -0.200 F 
ATOM     71  C   UNL A   1      40.954  26.244  26.081  1.00  0.00     0.200 A 
ATOM     72  F   UNL A   1      42.268  27.951  25.117  1.00  0.00    -0.200 F 
ATOM     73  F   UNL A   1      41.042  25.520  24.957  1.00  0.00    -0.200 F 
ENDBRANCH  49  63
BRANCH  50  74
ATOM     74  C   UNL A   1      39.527  33.264  36.646  1.00  0.00     0.064 A 
ATOM     75  C   UNL A   1      40.195  34.483  36.823  1.00  0.00     0.173 A 
ATOM     76  C   UNL A   1      38.684  32.826  37.678  1.00  0.00     0.173 A 
ATOM     77  F   UNL A   1      41.034  34.933  35.878  1.00  0.00    -0.203 F 
ATOM     78  C   UNL A   1      40.042  35.225  37.994  1.00  0.00     0.198 A 
ATOM     79  C   UNL A   1      38.507  33.583  38.834  1.00  0.00     0.198 A 
ATOM     80  F   UNL A   1      38.023  31.666  37.559  1.00  0.00    -0.203 F 
ATOM     81  F   UNL A   1      40.729  36.363  38.158  1.00  0.00    -0.200 F 
ATOM     82  C   UNL A   1      39.193  34.778  38.995  1.00  0.00     0.200 A 
ATOM     83  F   UNL A   1      37.677  33.154  39.794  1.00  0.00    -0.200 F 
ATOM     84  F   UNL A   1      39.042  35.494  40.117  1.00  0.00    -0.200 F 
ENDBRANCH  50  74
BRANCH  62  85
ATOM     85  C   UNL A   1      44.184  28.426  34.776  1.00  0.00     0.064 A 
ATOM     86  C   UNL A   1      45.448  29.030  34.718  1.00  0.00     0.173 A 
ATOM     87  C   UNL A   1      44.049  27.262  35.549  1.00  0.00     0.173 A 
ATOM     88  F   UNL A   1      45.635  30.135  33.980  1.00  0.00    -0.203 F 
ATOM     89  C   UNL A   1      46.539  28.478  35.388  1.00  0.00     0.198 A 
ATOM     90  C   UNL A   1      45.134  26.730  36.241  1.00  0.00     0.198 A 
ATOM     91  F   UNL A   1      42.861  26.647  35.644  1.00  0.00    -0.203 F 
ATOM     92  F   UNL A   1      47.747  29.048  35.281  1.00  0.00    -0.200 F 
ATOM     93  C   UNL A   1      46.379  27.334  36.155  1.00  0.00     0.200 A 
ATOM     94  F   UNL A   1      44.974  25.632  36.993  1.00  0.00    -0.200 F 
ATOM     95  F   UNL A   1      47.426  26.811  36.807  1.00  0.00    -0.200 F 
ENDBRANCH  62  85
ENDBRANCH  36  37
ENDBRANCH  28  31
ENDBRANCH  26  27
ENDBRANCH  25  26
ENDBRANCH  24  25
ENDBRANCH   3  24
TORSDOF 16
ENDMDL
MODEL 2
REMARK VINA RESULT:     -11.7      6.175     10.456
REMARK SMILES CC[C@](C)(NS(=O)(=O)c1ccc(C(=O)OC)cc1)C(=O)NCCCNC(=O)c1ccc(-c2c3nc(c(-c4c(F)c(F)c(F)c(F)c4F)c4ccc([nH]4)c(-c4c(F)c(F)c(F)c(F)c4F)c4nc(c(-c5c(F)c(F)c(F)c(F)c5F)c5ccc2[nH]5)C=C4)C=C3)cc1
REMARK SMILES IDX 19 1 20 2 21 3 3 5 4 6 2 7 1 8 5 9 6 11 7 12 8 13 9 14 10 15
REMARK SMILES IDX 18 16 11 17 17 18 12 19 13 20 14 21 15 22 16 23 22 24 23 25
REMARK SMILES IDX 24 26 25 27 26 28 27 30 28 31 29 32 90 33 30 34 89 35 31 36
REMARK SMILES IDX 32 37 33 38 83 39 34 40 88 41 82 42 84 43 35 44 87 45 81 46
REMARK SMILES IDX 80 47 36 49 68 50 48 51 67 52 49 53 52 54 66 55 85 56 50 57
REMARK SMILES IDX 51 58 65 60 86 61 53 62 37 63 38 64 46 65 39 66 40 67 44 68
REMARK SMILES IDX 47 69 41 70 42 71 45 72 43 73 69 74 70 75 78 76 71 77 72 78
REMARK SMILES IDX 76 79 79 80 73 81 74 82 77 83 75 84 54 85 55 86 63 87 56 88
REMARK SMILES IDX 57 89 61 90 64 91 58 92 59 93 62 94 60 95
REMARK H PARENT 21 4 5 10 25 29 84 48 52 59
REMARK Flexibility Score: inf
ROOT
ATOM      1  C   UNL A   1      34.830  22.023  26.308  1.00  0.00     0.241 C 
ATOM      2  O   UNL A   1      34.412  21.974  27.477  1.00  0.00    -0.273 OA
ATOM      3  N   UNL A   1      35.794  21.093  26.043  1.00  0.00    -0.354 N 
ATOM      4  H   UNL A   1      36.134  20.691  26.875  1.00  0.00     0.163 HD
ENDROOT
BRANCH   1   5
ATOM      5  C   UNL A   1      34.275  23.119  25.360  1.00  0.00     0.108 C 
ATOM      6  C   UNL A   1      35.483  23.826  24.658  1.00  0.00     0.040 C 
BRANCH   5   7
ATOM      7  C   UNL A   1      33.498  24.220  26.135  1.00  0.00     0.030 C 
ATOM      8  C   UNL A   1      33.825  25.657  25.719  1.00  0.00     0.006 C 
ENDBRANCH   5   7
BRANCH   5   9
ATOM      9  N   UNL A   1      33.453  22.692  24.201  1.00  0.00    -0.196 NA
ATOM     10  H   UNL A   1      34.137  22.340  23.531  1.00  0.00     0.142 HD
BRANCH   9  11
ATOM     11  S   UNL A   1      32.196  21.604  24.102  1.00  0.00     0.241 S 
ATOM     12  O   UNL A   1      31.308  21.896  25.204  1.00  0.00    -0.207 OA
ATOM     13  O   UNL A   1      31.716  21.739  22.740  1.00  0.00    -0.207 OA
BRANCH  11  14
ATOM     14  C   UNL A   1      32.740  19.923  24.294  1.00  0.00     0.082 A 
ATOM     15  C   UNL A   1      32.588  19.379  25.563  1.00  0.00     0.022 A 
ATOM     16  C   UNL A   1      33.028  19.057  23.242  1.00  0.00     0.022 A 
ATOM     17  C   UNL A   1      32.802  18.043  25.847  1.00  0.00     0.017 A 
ATOM     18  C   UNL A   1      33.199  17.674  23.503  1.00  0.00     0.017 A 
ATOM     19  C   UNL A   1      33.081  17.167  24.811  1.00  0.00     0.060 A 
BRANCH  19  20
ATOM     20  C   UNL A   1      33.135  15.737  25.203  1.00  0.00     0.337 C 
ATOM     21  O   UNL A   1      32.217  15.192  25.801  1.00  0.00    -0.246 OA
BRANCH  20  22
ATOM     22  O   UNL A   1      34.282  15.137  24.813  1.00  0.00    -0.465 OA
ATOM     23  C   UNL A   1      35.430  15.781  25.372  1.00  0.00     0.282 C 
ENDBRANCH  20  22
ENDBRANCH  19  20
ENDBRANCH  11  14
ENDBRANCH   9  11
ENDBRANCH   5   9
ENDBRANCH   1   5
BRANCH   3  24
ATOM     24  C   UNL A   1      36.463  20.526  24.879  1.00  0.00     0.117 C 
BRANCH  24  25
ATOM     25  C   UNL A   1      37.781  19.719  24.989  1.00  0.00     0.042 C 
BRANCH  25  26
ATOM     26  C   UNL A   1      39.036  20.091  25.804  1.00  0.00     0.118 C 
BRANCH  26  27
ATOM     27  N   UNL A   1      40.112  19.126  25.873  1.00  0.00    -0.352 N 
ATOM     28  C   UNL A   1      41.447  19.397  26.116  1.00  0.00     0.251 C 
ATOM     29  H   UNL A   1      39.870  18.182  25.732  1.00  0.00     0.163 HD
ATOM     30  O   UNL A   1      42.285  18.506  26.019  1.00  0.00    -0.269 OA
BRANCH  28  31
ATOM     31  C   UNL A   1      41.894  20.775  26.454  1.00  0.00     0.039 A 
ATOM     32  C   UNL A   1      42.113  21.690  25.420  1.00  0.00     0.014 A 
ATOM     33  C   UNL A   1      42.193  21.138  27.770  1.00  0.00     0.014 A 
ATOM     34  C   UNL A   1      42.581  22.983  25.710  1.00  0.00     0.010 A 
ATOM     35  C   UNL A   1      42.638  22.440  28.061  1.00  0.00     0.010 A 
ATOM     36  C   UNL A   1      42.830  23.382  27.035  1.00  0.00    -0.014 A 
BRANCH  36  37
ATOM     37  C   UNL A   1      43.245  24.786  27.338  1.00  0.00     0.031 A 
ATOM     38  C   UNL A   1      44.646  25.271  27.068  1.00  0.00     0.074 A 
ATOM     39  C   UNL A   1      42.351  25.640  27.877  1.00  0.00     0.049 A 
ATOM     40  N   UNL A   1      45.160  26.467  27.247  1.00  0.00    -0.248 NA
ATOM     41  C   UNL A   1      45.597  24.286  26.538  1.00  0.00     0.031 C 
ATOM     42  C   UNL A   1      40.971  25.301  28.221  1.00  0.00     0.029 A 
ATOM     43  N   UNL A   1      42.466  26.965  28.231  1.00  0.00    -0.354 N 
ATOM     44  C   UNL A   1      46.489  26.378  26.849  1.00  0.00     0.074 A 
ATOM     45  C   UNL A   1      46.713  25.000  26.461  1.00  0.00     0.031 C 
ATOM     46  C   UNL A   1      40.361  26.390  28.717  1.00  0.00     0.029 A 
ATOM     47  C   UNL A   1      41.312  27.498  28.755  1.00  0.00     0.049 A 
ATOM     48  H   UNL A   1      43.296  27.482  28.118  1.00  0.00     0.167 HD
ATOM     49  C   UNL A   1      47.429  27.354  26.798  1.00  0.00     0.037 A 
ATOM     50  C   UNL A   1      41.046  28.735  29.221  1.00  0.00     0.037 A 
ATOM     51  C   UNL A   1      47.212  28.727  27.183  1.00  0.00     0.049 A 
ATOM     52  C   UNL A   1      42.116  29.794  29.177  1.00  0.00     0.074 A 
ATOM     53  C   UNL A   1      48.095  29.793  27.118  1.00  0.00     0.029 A 
ATOM     54  N   UNL A   1      46.032  29.224  27.718  1.00  0.00    -0.354 N 
ATOM     55  N   UNL A   1      43.343  29.714  28.725  1.00  0.00    -0.248 NA
ATOM     56  C   UNL A   1      41.759  31.121  29.703  1.00  0.00     0.031 C 
ATOM     57  C   UNL A   1      47.468  30.921  27.660  1.00  0.00     0.029 A 
ATOM     58  C   UNL A   1      46.175  30.573  28.012  1.00  0.00     0.049 A 
ATOM     59  H   UNL A   1      45.214  28.697  27.865  1.00  0.00     0.167 HD
ATOM     60  C   UNL A   1      43.894  30.978  28.885  1.00  0.00     0.074 A 
ATOM     61  C   UNL A   1      42.863  31.815  29.461  1.00  0.00     0.031 C 
ATOM     62  C   UNL A   1      45.143  31.404  28.580  1.00  0.00     0.037 A 
BRANCH  49  63
ATOM     63  C   UNL A   1      48.800  26.976  26.307  1.00  0.00     0.064 A 
ATOM     64  C   UNL A   1      49.774  26.457  27.174  1.00  0.00     0.173 A 
ATOM     65  C   UNL A   1      49.126  27.081  24.946  1.00  0.00     0.173 A 
ATOM     66  F   UNL A   1      49.515  26.334  28.485  1.00  0.00    -0.203 F 
ATOM     67  C   UNL A   1      51.032  26.089  26.702  1.00  0.00     0.198 A 
ATOM     68  C   UNL A   1      50.375  26.684  24.473  1.00  0.00     0.198 A 
ATOM     69  F   UNL A   1      48.227  27.553  24.068  1.00  0.00    -0.203 F 
ATOM     70  F   UNL A   1      51.961  25.638  27.557  1.00  0.00    -0.200 F 
ATOM     71  C   UNL A   1      51.330  26.197  25.353  1.00  0.00     0.200 A 
ATOM     72  F   UNL A   1      50.654  26.771  23.165  1.00  0.00    -0.200 F 
ATOM     73  F   UNL A   1      52.539  25.836  24.900  1.00  0.00    -0.200 F 
ENDBRANCH  49  63
BRANCH  50  74
ATOM     74  C   UNL A   1      39.694  29.051  29.755  1.00  0.00     0.064 A 
ATOM     75  C   UNL A   1      39.398  28.885  31.115  1.00  0.00     0.173 A 
ATOM     76  C   UNL A   1      38.668  29.511  28.916  1.00  0.00     0.173 A 
ATOM     77  F   UNL A   1      40.336  28.422  31.954  1.00  0.00    -0.203 F 
ATOM     78  C   UNL A   1      38.123  29.152  31.613  1.00  0.00     0.198 A 
ATOM     79  C   UNL A   1      37.403  29.806  29.420  1.00  0.00     0.198 A 
ATOM     80  F   UNL A   1      38.898  29.685  27.607  1.00  0.00    -0.203 F 
ATOM     81  F   UNL A   1      37.853  28.940  32.908  1.00  0.00    -0.200 F 
ATOM     82  C   UNL A   1      37.129  29.618  30.766  1.00  0.00     0.200 A 
ATOM     83  F   UNL A   1      36.448  30.268  28.601  1.00  0.00    -0.200 F 
ATOM     84  F   UNL A   1      35.905  29.879  31.246  1.00  0.00    -0.200 F 
ENDBRANCH  50  74
BRANCH  62  85
ATOM     85  C   UNL A   1      45.464  32.851  28.830  1.00  0.00     0.064 A 
ATOM     86  C   UNL A   1      46.049  33.281  30.030  1.00  0.00     0.173 A 
ATOM     87  C   UNL A   1      45.222  33.815  27.838  1.00  0.00     0.173 A 
ATOM     88  F   UNL A   1      46.286  32.404  31.017  1.00  0.00    -0.203 F 
ATOM     89  C   UNL A   1      46.359  34.624  30.237  1.00  0.00     0.198 A 
ATOM     90  C   UNL A   1      45.560  35.151  28.037  1.00  0.00     0.198 A 
ATOM     91  F   UNL A   1      44.669  33.458  26.669  1.00  0.00    -0.203 F 
ATOM     92  F   UNL A   1      46.877  35.017  31.409  1.00  0.00    -0.200 F 
ATOM     93  C   UNL A   1      46.122  35.556  29.237  1.00  0.00     0.200 A 
ATOM     94  F   UNL A   1      45.342  36.047  27.064  1.00  0.00    -0.200 F 
ATOM     95  F   UNL A   1      46.430  36.845  29.434  1.00  0.00    -0.200 F 
ENDBRANCH  62  85
ENDBRANCH  36  37
ENDBRANCH  28  31
ENDBRANCH  26  27
ENDBRANCH  25  26
ENDBRANCH  24  25
ENDBRANCH   3  24
TORSDOF 16
ENDMDL
MODEL 3
REMARK VINA RESULT:     -11.7      6.150     11.630
REMARK SMILES CC[C@](C)(NS(=O)(=O)c1ccc(C(=O)OC)cc1)C(=O)NCCCNC(=O)c1ccc(-c2c3nc(c(-c4c(F)c(F)c(F)c(F)c4F)c4ccc([nH]4)c(-c4c(F)c(F)c(F)c(F)c4F)c4nc(c(-c5c(F)c(F)c(F)c(F)c5F)c5ccc2[nH]5)C=C4)C=C3)cc1
REMARK SMILES IDX 19 1 20 2 21 3 3 5 4 6 2 7 1 8 5 9 6 11 7 12 8 13 9 14 10 15
REMARK SMILES IDX 18 16 11 17 17 18 12 19 13 20 14 21 15 22 16 23 22 24 23 25
REMARK SMILES IDX 24 26 25 27 26 28 27 30 28 31 29 32 90 33 30 34 89 35 31 36
REMARK SMILES IDX 32 37 33 38 83 39 34 40 88 41 82 42 84 43 35 44 87 45 81 46
REMARK SMILES IDX 80 47 36 49 68 50 48 51 67 52 49 53 52 54 66 55 85 56 50 57
REMARK SMILES IDX 51 58 65 60 86 61 53 62 37 63 38 64 46 65 39 66 40 67 44 68
REMARK SMILES IDX 47 69 41 70 42 71 45 72 43 73 69 74 70 75 78 76 71 77 72 78
REMARK SMILES IDX 76 79 79 80 73 81 74 82 77 83 75 84 54 85 55 86 63 87 56 88
REMARK SMILES IDX 57 89 61 90 64 91 58 92 59 93 62 94 60 95
REMARK H PARENT 21 4 5 10 25 29 84 48 52 59
REMARK Flexibility Score: inf
ROOT
ATOM      1  C   UNL A   1      35.102  22.338  26.196  1.00  0.00     0.241 C 
ATOM      2  O   UNL A   1      34.786  22.533  27.381  1.00  0.00    -0.273 OA
ATOM      3  N   UNL A   1      35.889  21.235  26.024  1.00  0.00    -0.354 N 
ATOM      4  H   UNL A   1      36.237  20.913  26.887  1.00  0.00     0.163 HD
ENDROOT
BRANCH   1   5
ATOM      5  C   UNL A   1      34.636  23.354  25.121  1.00  0.00     0.108 C 
ATOM      6  C   UNL A   1      35.857  23.704  24.205  1.00  0.00     0.040 C 
BRANCH   5   7
ATOM      7  C   UNL A   1      34.151  24.689  25.752  1.00  0.00     0.030 C 
ATOM      8  C   UNL A   1      34.020  25.859  24.773  1.00  0.00     0.006 C 
ENDBRANCH   5   7
BRANCH   5   9
ATOM      9  N   UNL A   1      33.625  22.911  24.128  1.00  0.00    -0.196 NA
ATOM     10  H   UNL A   1      34.154  22.318  23.488  1.00  0.00     0.142 HD
BRANCH   9  11
ATOM     11  S   UNL A   1      32.186  22.099  24.332  1.00  0.00     0.241 S 
ATOM     12  O   UNL A   1      31.628  22.553  25.585  1.00  0.00    -0.207 OA
ATOM     13  O   UNL A   1      31.465  22.339  23.098  1.00  0.00    -0.207 OA
BRANCH  11  14
ATOM     14  C   UNL A   1      32.414  20.340  24.463  1.00  0.00     0.082 A 
ATOM     15  C   UNL A   1      32.527  19.653  23.262  1.00  0.00     0.022 A 
ATOM     16  C   UNL A   1      32.759  19.670  25.634  1.00  0.00     0.022 A 
ATOM     17  C   UNL A   1      32.871  18.317  23.181  1.00  0.00     0.017 A 
ATOM     18  C   UNL A   1      33.167  18.315  25.569  1.00  0.00     0.017 A 
ATOM     19  C   UNL A   1      33.226  17.638  24.335  1.00  0.00     0.060 A 
BRANCH  19  20
ATOM     20  C   UNL A   1      33.729  16.260  24.117  1.00  0.00     0.337 C 
ATOM     21  O   UNL A   1      34.109  15.873  23.020  1.00  0.00    -0.246 OA
BRANCH  20  22
ATOM     22  O   UNL A   1      33.728  15.523  25.250  1.00  0.00    -0.465 OA
ATOM     23  C   UNL A   1      32.528  14.754  25.377  1.00  0.00     0.282 C 
ENDBRANCH  20  22
ENDBRANCH  19  20
ENDBRANCH  11  14
ENDBRANCH   9  11
ENDBRANCH   5   9
ENDBRANCH   1   5
BRANCH   3  24
ATOM     24  C   UNL A   1      36.361  20.400  24.927  1.00  0.00     0.117 C 
BRANCH  24  25
ATOM     25  C   UNL A   1      37.686  19.603  25.001  1.00  0.00     0.042 C 
BRANCH  25  26
ATOM     26  C   UNL A   1      38.974  20.001  25.749  1.00  0.00     0.118 C 
BRANCH  26  27
ATOM     27  N   UNL A   1      40.016  19.008  25.888  1.00  0.00    -0.352 N 
ATOM     28  C   UNL A   1      41.353  19.247  26.150  1.00  0.00     0.251 C 
ATOM     29  H   UNL A   1      39.747  18.066  25.785  1.00  0.00     0.163 HD
ATOM     30  O   UNL A   1      42.164  18.326  26.114  1.00  0.00    -0.269 OA
BRANCH  28  31
ATOM     31  C   UNL A   1      41.838  20.624  26.434  1.00  0.00     0.039 A 
ATOM     32  C   UNL A   1      41.978  21.527  25.377  1.00  0.00     0.014 A 
ATOM     33  C   UNL A   1      42.248  20.999  27.717  1.00  0.00     0.014 A 
ATOM     34  C   UNL A   1      42.478  22.818  25.612  1.00  0.00     0.010 A 
ATOM     35  C   UNL A   1      42.726  22.299  27.956  1.00  0.00     0.010 A 
ATOM     36  C   UNL A   1      42.840  23.229  26.908  1.00  0.00    -0.014 A 
BRANCH  36  37
ATOM     37  C   UNL A   1      43.290  24.632  27.160  1.00  0.00     0.031 A 
ATOM     38  C   UNL A   1      42.354  25.674  27.715  1.00  0.00     0.074 A 
ATOM     39  C   UNL A   1      44.562  24.982  26.875  1.00  0.00     0.049 A 
ATOM     40  N   UNL A   1      42.595  26.929  28.019  1.00  0.00    -0.248 NA
ATOM     41  C   UNL A   1      40.966  25.258  27.952  1.00  0.00     0.031 C 
ATOM     42  C   UNL A   1      45.568  24.088  26.304  1.00  0.00     0.029 A 
ATOM     43  N   UNL A   1      45.225  26.178  27.023  1.00  0.00    -0.354 N 
ATOM     44  C   UNL A   1      41.393  27.450  28.484  1.00  0.00     0.074 A 
ATOM     45  C   UNL A   1      40.414  26.387  28.382  1.00  0.00     0.031 C 
ATOM     46  C   UNL A   1      46.724  24.758  26.168  1.00  0.00     0.029 A 
ATOM     47  C   UNL A   1      46.536  26.136  26.613  1.00  0.00     0.049 A 
ATOM     48  H   UNL A   1      44.800  26.988  27.388  1.00  0.00     0.167 HD
ATOM     49  C   UNL A   1      41.132  28.692  28.965  1.00  0.00     0.037 A 
ATOM     50  C   UNL A   1      47.483  27.096  26.590  1.00  0.00     0.037 A 
ATOM     51  C   UNL A   1      42.102  29.755  29.069  1.00  0.00     0.049 A 
ATOM     52  C   UNL A   1      47.160  28.474  27.105  1.00  0.00     0.074 A 
ATOM     53  C   UNL A   1      41.936  31.028  29.589  1.00  0.00     0.029 A 
ATOM     54  N   UNL A   1      43.417  29.674  28.635  1.00  0.00    -0.354 N 
ATOM     55  N   UNL A   1      46.041  28.927  27.614  1.00  0.00    -0.248 NA
ATOM     56  C   UNL A   1      48.238  29.474  27.049  1.00  0.00     0.031 C 
ATOM     57  C   UNL A   1      43.133  31.734  29.422  1.00  0.00     0.029 A 
ATOM     58  C   UNL A   1      44.063  30.883  28.849  1.00  0.00     0.049 A 
ATOM     59  H   UNL A   1      43.830  28.876  28.234  1.00  0.00     0.167 HD
ATOM     60  C   UNL A   1      46.286  30.248  27.962  1.00  0.00     0.074 A 
ATOM     61  C   UNL A   1      47.665  30.523  27.623  1.00  0.00     0.031 C 
ATOM     62  C   UNL A   1      45.440  31.150  28.516  1.00  0.00     0.037 A 
BRANCH  49  63
ATOM     63  C   UNL A   1      39.727  28.982  29.419  1.00  0.00     0.064 A 
ATOM     64  C   UNL A   1      38.750  29.452  28.528  1.00  0.00     0.173 A 
ATOM     65  C   UNL A   1      39.339  28.735  30.745  1.00  0.00     0.173 A 
ATOM     66  F   UNL A   1      39.066  29.703  27.249  1.00  0.00    -0.203 F 
ATOM     67  C   UNL A   1      37.446  29.695  28.956  1.00  0.00     0.198 A 
ATOM     68  C   UNL A   1      38.028  28.951  31.162  1.00  0.00     0.198 A 
ATOM     69  F   UNL A   1      40.228  28.268  31.635  1.00  0.00    -0.203 F 
ATOM     70  F   UNL A   1      36.542  30.186  28.098  1.00  0.00    -0.200 F 
ATOM     71  C   UNL A   1      37.085  29.440  30.270  1.00  0.00     0.200 A 
ATOM     72  F   UNL A   1      37.675  28.685  32.427  1.00  0.00    -0.200 F 
ATOM     73  F   UNL A   1      35.829  29.668  30.678  1.00  0.00    -0.200 F 
ENDBRANCH  49  63
BRANCH  50  74
ATOM     74  C   UNL A   1      48.844  26.782  26.076  1.00  0.00     0.064 A 
ATOM     75  C   UNL A   1      49.837  26.272  26.924  1.00  0.00     0.173 A 
ATOM     76  C   UNL A   1      49.182  26.998  24.732  1.00  0.00     0.173 A 
ATOM     77  F   UNL A   1      49.572  26.074  28.224  1.00  0.00    -0.203 F 
ATOM     78  C   UNL A   1      51.121  26.007  26.451  1.00  0.00     0.198 A 
ATOM     79  C   UNL A   1      50.457  26.703  24.253  1.00  0.00     0.198 A 
ATOM     80  F   UNL A   1      48.270  27.486  23.880  1.00  0.00    -0.203 F 
ATOM     81  F   UNL A   1      52.065  25.565  27.293  1.00  0.00    -0.200 F 
ATOM     82  C   UNL A   1      51.428  26.216  25.116  1.00  0.00     0.200 A 
ATOM     83  F   UNL A   1      50.747  26.895  22.960  1.00  0.00    -0.200 F 
ATOM     84  F   UNL A   1      52.661  25.955  24.660  1.00  0.00    -0.200 F 
ENDBRANCH  50  74
BRANCH  62  85
ATOM     85  C   UNL A   1      45.986  32.517  28.823  1.00  0.00     0.064 A 
ATOM     86  C   UNL A   1      45.900  33.570  27.900  1.00  0.00     0.173 A 
ATOM     87  C   UNL A   1      46.563  32.787  30.073  1.00  0.00     0.173 A 
ATOM     88  F   UNL A   1      45.372  33.362  26.685  1.00  0.00    -0.203 F 
ATOM     89  C   UNL A   1      46.393  34.837  28.210  1.00  0.00     0.198 A 
ATOM     90  C   UNL A   1      47.028  34.060  30.390  1.00  0.00     0.198 A 
ATOM     91  F   UNL A   1      46.665  31.817  30.994  1.00  0.00    -0.203 F 
ATOM     92  F   UNL A   1      46.340  35.816  27.296  1.00  0.00    -0.200 F 
ATOM     93  C   UNL A   1      46.948  35.083  29.457  1.00  0.00     0.200 A 
ATOM     94  F   UNL A   1      47.552  34.299  31.600  1.00  0.00    -0.200 F 
ATOM     95  F   UNL A   1      47.413  36.303  29.756  1.00  0.00    -0.200 F 
ENDBRANCH  62  85
ENDBRANCH  36  37
ENDBRANCH  28  31
ENDBRANCH  26  27
ENDBRANCH  25  26
ENDBRANCH  24  25
ENDBRANCH   3  24
TORSDOF 16
ENDMDL
