MODEL 1
REMARK VINA RESULT:     -12.7      0.000      0.000
REMARK SMILES O=C(Nc1cccc(F)c1)N[C@@H]1C=C[C@@H](C(=O)NCCCNC(=O)c2ccc(-c3c4nc(c(-c5c(F)c(F)c(F)c(F)c5F)c5ccc([nH]5)c(-c5c(F)c(F)c(F)c(F)c5F)c5nc(c(-c6c(F)c(F)c(F)c(F)c6F)c6ccc3[nH]6)C=C5)C=C4)cc2)C1
REMARK SMILES IDX 20 1 19 2 18 3 16 4 17 5 15 7 12 8 13 9 88 10 14 11 11 12
REMARK SMILES IDX 1 13 2 14 3 15 4 18 5 19 10 20 6 21 8 22 7 23 9 24 21 25
REMARK SMILES IDX 22 26 23 27 24 29 25 30 26 31 87 32 27 33 86 34 28 35 29 36
REMARK SMILES IDX 30 37 80 38 31 39 85 40 79 41 81 42 32 43 84 44 78 45 77 46
REMARK SMILES IDX 33 48 65 49 45 50 64 51 46 52 49 53 63 54 82 55 47 56 48 57
REMARK SMILES IDX 62 59 83 60 50 61 34 62 35 63 43 64 36 65 37 66 41 67 44 68
REMARK SMILES IDX 38 69 39 70 42 71 40 72 66 73 67 74 75 75 68 76 69 77 73 78
REMARK SMILES IDX 76 79 70 80 71 81 74 82 72 83 51 84 52 85 60 86 53 87 54 88
REMARK SMILES IDX 58 89 61 90 55 91 56 92 59 93 57 94
REMARK H PARENT 18 6 3 16 11 17 22 28 81 47 49 58
REMARK Flexibility Score: inf
ROOT
ATOM      1  C   UNL A   1      37.979  19.591  25.035  1.00  0.00     0.042 C 
ENDROOT
BRANCH   1   2
ATOM      2  C   UNL A   1      36.815  20.570  24.979  1.00  0.00     0.117 C 
BRANCH   2   3
ATOM      3  N   UNL A   1      35.526  19.900  24.984  1.00  0.00    -0.356 N 
ATOM      4  C   UNL A   1      34.269  20.361  25.232  1.00  0.00     0.227 C 
ATOM      5  O   UNL A   1      33.346  19.548  25.121  1.00  0.00    -0.274 OA
ATOM      6  H   UNL A   1      35.570  18.941  24.770  1.00  0.00     0.163 HD
BRANCH   4   7
ATOM      7  C   UNL A   1      33.972  21.808  25.630  1.00  0.00     0.103 C 
ATOM      8  C   UNL A   1      31.919  22.920  26.409  1.00  0.00     0.107 C 
ATOM      9  C   UNL A   1      32.864  22.624  27.530  1.00  0.00    -0.006 C 
ATOM     10  C   UNL A   1      32.607  22.334  25.168  1.00  0.00     0.047 C 
ATOM     11  C   UNL A   1      33.985  22.029  27.110  1.00  0.00    -0.016 C 
BRANCH   8  12
ATOM     12  N   UNL A   1      31.805  24.351  26.342  1.00  0.00    -0.332 N 
ATOM     13  O   UNL A   1      29.601  24.476  26.905  1.00  0.00    -0.248 OA
ATOM     14  C   UNL A   1      30.644  25.025  26.572  1.00  0.00     0.319 C 
ATOM     15  N   UNL A   1      30.736  26.391  26.534  1.00  0.00    -0.308 N 
ATOM     16  H   UNL A   1      30.017  26.873  27.004  1.00  0.00     0.171 HD
ATOM     17  H   UNL A   1      32.610  24.872  26.117  1.00  0.00     0.165 HD
BRANCH  15  18
ATOM     18  C   UNL A   1      31.707  27.206  25.925  1.00  0.00     0.045 A 
ATOM     19  C   UNL A   1      32.900  27.564  26.568  1.00  0.00     0.026 A 
ATOM     20  C   UNL A   1      31.475  27.643  24.621  1.00  0.00     0.065 A 
ATOM     21  C   UNL A   1      33.822  28.404  25.940  1.00  0.00     0.005 A 
ATOM     22  C   UNL A   1      32.392  28.494  24.012  1.00  0.00     0.125 A 
ATOM     23  C   UNL A   1      33.558  28.884  24.661  1.00  0.00     0.039 A 
ATOM     24  F   UNL A   1      32.139  28.959  22.782  1.00  0.00    -0.207 F 
ENDBRANCH  15  18
ENDBRANCH   8  12
ENDBRANCH   4   7
ENDBRANCH   2   3
ENDBRANCH   1   2
BRANCH   1  25
ATOM     25  C   UNL A   1      39.190  20.118  25.793  1.00  0.00     0.118 C 
BRANCH  25  26
ATOM     26  N   UNL A   1      40.269  19.143  25.872  1.00  0.00    -0.352 N 
ATOM     27  C   UNL A   1      41.613  19.321  26.086  1.00  0.00     0.251 C 
ATOM     28  H   UNL A   1      39.989  18.206  25.755  1.00  0.00     0.163 HD
ATOM     29  O   UNL A   1      42.383  18.378  25.929  1.00  0.00    -0.269 OA
BRANCH  27  30
ATOM     30  C   UNL A   1      42.145  20.642  26.485  1.00  0.00     0.039 A 
ATOM     31  C   UNL A   1      42.615  21.506  25.491  1.00  0.00     0.014 A 
ATOM     32  C   UNL A   1      42.216  21.020  27.829  1.00  0.00     0.014 A 
ATOM     33  C   UNL A   1      43.093  22.771  25.840  1.00  0.00     0.010 A 
ATOM     34  C   UNL A   1      42.618  22.309  28.167  1.00  0.00     0.010 A 
ATOM     35  C   UNL A   1      43.065  23.195  27.178  1.00  0.00    -0.014 A 
BRANCH  35  36
ATOM     36  C   UNL A   1      43.508  24.557  27.564  1.00  0.00     0.031 A 
ATOM     37  C   UNL A   1      42.494  25.609  27.916  1.00  0.00     0.074 A 
ATOM     38  C   UNL A   1      44.818  24.863  27.547  1.00  0.00     0.049 A 
ATOM     39  N   UNL A   1      42.679  26.872  28.206  1.00  0.00    -0.248 NA
ATOM     40  C   UNL A   1      41.084  25.192  27.921  1.00  0.00     0.031 C 
ATOM     41  C   UNL A   1      45.895  23.938  27.195  1.00  0.00     0.029 A 
ATOM     42  N   UNL A   1      45.467  26.038  27.831  1.00  0.00    -0.354 N 
ATOM     43  C   UNL A   1      41.412  27.400  28.417  1.00  0.00     0.074 A 
ATOM     44  C   UNL A   1      40.463  26.336  28.167  1.00  0.00     0.031 C 
ATOM     45  C   UNL A   1      47.073  24.567  27.324  1.00  0.00     0.029 A 
ATOM     46  C   UNL A   1      46.833  25.950  27.725  1.00  0.00     0.049 A 
ATOM     47  H   UNL A   1      44.998  26.865  28.087  1.00  0.00     0.167 HD
ATOM     48  C   UNL A   1      41.072  28.650  28.812  1.00  0.00     0.037 A 
ATOM     49  C   UNL A   1      47.785  26.881  27.931  1.00  0.00     0.037 A 
ATOM     50  C   UNL A   1      42.018  29.701  29.077  1.00  0.00     0.049 A 
ATOM     51  C   UNL A   1      47.383  28.269  28.339  1.00  0.00     0.074 A 
ATOM     52  C   UNL A   1      41.774  30.993  29.508  1.00  0.00     0.029 A 
ATOM     53  N   UNL A   1      43.393  29.577  28.942  1.00  0.00    -0.354 N 
ATOM     54  N   UNL A   1      46.184  28.751  28.557  1.00  0.00    -0.248 NA
ATOM     55  C   UNL A   1      48.466  29.245  28.525  1.00  0.00     0.031 C 
ATOM     56  C   UNL A   1      42.998  31.662  29.599  1.00  0.00     0.029 A 
ATOM     57  C   UNL A   1      44.010  30.775  29.268  1.00  0.00     0.049 A 
ATOM     58  H   UNL A   1      43.862  28.760  28.657  1.00  0.00     0.167 HD
ATOM     59  C   UNL A   1      46.366  30.076  28.926  1.00  0.00     0.074 A 
ATOM     60  C   UNL A   1      47.794  30.321  28.911  1.00  0.00     0.031 C 
ATOM     61  C   UNL A   1      45.433  31.003  29.250  1.00  0.00     0.037 A 
BRANCH  48  62
ATOM     62  C   UNL A   1      39.611  28.943  28.991  1.00  0.00     0.064 A 
ATOM     63  C   UNL A   1      38.826  29.362  27.908  1.00  0.00     0.173 A 
ATOM     64  C   UNL A   1      38.994  28.834  30.246  1.00  0.00     0.173 A 
ATOM     65  F   UNL A   1      39.368  29.487  26.686  1.00  0.00    -0.203 F 
ATOM     66  C   UNL A   1      37.476  29.663  28.075  1.00  0.00     0.198 A 
ATOM     67  C   UNL A   1      37.638  29.106  30.404  1.00  0.00     0.198 A 
ATOM     68  F   UNL A   1      39.698  28.423  31.312  1.00  0.00    -0.203 F 
ATOM     69  F   UNL A   1      36.750  30.080  27.029  1.00  0.00    -0.200 F 
ATOM     70  C   UNL A   1      36.882  29.527  29.320  1.00  0.00     0.200 A 
ATOM     71  F   UNL A   1      37.059  28.948  31.603  1.00  0.00    -0.200 F 
ATOM     72  F   UNL A   1      35.578  29.795  29.475  1.00  0.00    -0.200 F 
ENDBRANCH  48  62
BRANCH  49  73
ATOM     73  C   UNL A   1      49.213  26.498  27.805  1.00  0.00     0.064 A 
ATOM     74  C   UNL A   1      50.021  26.286  28.931  1.00  0.00     0.173 A 
ATOM     75  C   UNL A   1      49.809  26.391  26.541  1.00  0.00     0.173 A 
ATOM     76  F   UNL A   1      49.496  26.383  30.161  1.00  0.00    -0.203 F 
ATOM     77  C   UNL A   1      51.378  26.006  28.797  1.00  0.00     0.198 A 
ATOM     78  C   UNL A   1      51.162  26.089  26.407  1.00  0.00     0.198 A 
ATOM     79  F   UNL A   1      49.069  26.567  25.436  1.00  0.00    -0.203 F 
ATOM     80  F   UNL A   1      52.139  25.841  29.888  1.00  0.00    -0.200 F 
ATOM     81  C   UNL A   1      51.948  25.906  27.535  1.00  0.00     0.200 A 
ATOM     82  F   UNL A   1      51.703  25.976  25.187  1.00  0.00    -0.200 F 
ATOM     83  F   UNL A   1      53.254  25.634  27.406  1.00  0.00    -0.200 F 
ENDBRANCH  49  73
BRANCH  61  84
ATOM     84  C   UNL A   1      45.916  32.369  29.635  1.00  0.00     0.064 A 
ATOM     85  C   UNL A   1      46.091  33.361  28.658  1.00  0.00     0.173 A 
ATOM     86  C   UNL A   1      46.277  32.672  30.955  1.00  0.00     0.173 A 
ATOM     87  F   UNL A   1      45.765  33.116  27.380  1.00  0.00    -0.203 F 
ATOM     88  C   UNL A   1      46.627  34.603  28.987  1.00  0.00     0.198 A 
ATOM     89  C   UNL A   1      46.789  33.925  31.285  1.00  0.00     0.198 A 
ATOM     90  F   UNL A   1      46.114  31.762  31.926  1.00  0.00    -0.203 F 
ATOM     91  F   UNL A   1      46.816  35.524  28.032  1.00  0.00    -0.200 F 
ATOM     92  C   UNL A   1      46.972  34.884  30.300  1.00  0.00     0.200 A 
ATOM     93  F   UNL A   1      47.104  34.204  32.558  1.00  0.00    -0.200 F 
ATOM     94  F   UNL A   1      47.483  36.083  30.617  1.00  0.00    -0.200 F 
ENDBRANCH  61  84
ENDBRANCH  35  36
ENDBRANCH  27  30
ENDBRANCH  25  26
ENDBRANCH   1  25
TORSDOF 12
ENDMDL
MODEL 2
REMARK VINA RESULT:     -12.7      5.334     10.626
REMARK SMILES O=C(Nc1cccc(F)c1)N[C@@H]1C=C[C@@H](C(=O)NCCCNC(=O)c2ccc(-c3c4nc(c(-c5c(F)c(F)c(F)c(F)c5F)c5ccc([nH]5)c(-c5c(F)c(F)c(F)c(F)c5F)c5nc(c(-c6c(F)c(F)c(F)c(F)c6F)c6ccc3[nH]6)C=C5)C=C4)cc2)C1
REMARK SMILES IDX 20 1 19 2 18 3 16 4 17 5 15 7 12 8 13 9 88 10 14 11 11 12
REMARK SMILES IDX 1 13 2 14 3 15 4 18 5 19 10 20 6 21 8 22 7 23 9 24 21 25
REMARK SMILES IDX 22 26 23 27 24 29 25 30 26 31 87 32 27 33 86 34 28 35 29 36
REMARK SMILES IDX 30 37 80 38 31 39 85 40 79 41 81 42 32 43 84 44 78 45 77 46
REMARK SMILES IDX 33 48 65 49 45 50 64 51 46 52 49 53 63 54 82 55 47 56 48 57
REMARK SMILES IDX 62 59 83 60 50 61 34 62 35 63 43 64 36 65 37 66 41 67 44 68
REMARK SMILES IDX 38 69 39 70 42 71 40 72 66 73 67 74 75 75 68 76 69 77 73 78
REMARK SMILES IDX 76 79 70 80 71 81 74 82 72 83 51 84 52 85 60 86 53 87 54 88
REMARK SMILES IDX 58 89 61 90 55 91 56 92 59 93 57 94
REMARK H PARENT 18 6 3 16 11 17 22 28 81 47 49 58
REMARK Flexibility Score: inf
ROOT
ATOM      1  C   UNL A   1      31.387  31.826  26.498  1.00  0.00     0.042 C 
ENDROOT
BRANCH   1   2
ATOM      2  C   UNL A   1      31.636  30.527  25.744  1.00  0.00     0.117 C 
BRANCH   2   3
ATOM      3  N   UNL A   1      30.704  30.335  24.647  1.00  0.00    -0.356 N 
ATOM      4  C   UNL A   1      30.482  29.272  23.826  1.00  0.00     0.227 C 
ATOM      5  O   UNL A   1      29.577  29.391  22.993  1.00  0.00    -0.274 OA
ATOM      6  H   UNL A   1      30.129  31.112  24.465  1.00  0.00     0.163 HD
BRANCH   4   7
ATOM      7  C   UNL A   1      31.291  27.976  23.898  1.00  0.00     0.103 C 
ATOM      8  C   UNL A   1      30.742  25.728  24.739  1.00  0.00     0.107 C 
ATOM      9  C   UNL A   1      30.677  25.808  23.247  1.00  0.00    -0.006 C 
ATOM     10  C   UNL A   1      31.082  27.159  25.180  1.00  0.00     0.047 C 
ATOM     11  C   UNL A   1      30.984  27.023  22.785  1.00  0.00    -0.016 C 
BRANCH   8  12
ATOM     12  N   UNL A   1      31.793  24.799  25.051  1.00  0.00    -0.332 N 
ATOM     13  O   UNL A   1      31.098  24.299  27.162  1.00  0.00    -0.248 OA
ATOM     14  C   UNL A   1      31.908  24.169  26.252  1.00  0.00     0.319 C 
ATOM     15  N   UNL A   1      32.930  23.263  26.349  1.00  0.00    -0.308 N 
ATOM     16  H   UNL A   1      32.828  22.590  27.060  1.00  0.00     0.171 HD
ATOM     17  H   UNL A   1      32.466  24.608  24.358  1.00  0.00     0.165 HD
BRANCH  15  18
ATOM     18  C   UNL A   1      34.103  23.152  25.581  1.00  0.00     0.045 A 
ATOM     19  C   UNL A   1      34.156  22.415  24.391  1.00  0.00     0.026 A 
ATOM     20  C   UNL A   1      35.241  23.830  26.016  1.00  0.00     0.065 A 
ATOM     21  C   UNL A   1      35.350  22.301  23.676  1.00  0.00     0.005 A 
ATOM     22  C   UNL A   1      36.430  23.696  25.307  1.00  0.00     0.125 A 
ATOM     23  C   UNL A   1      36.497  22.933  24.146  1.00  0.00     0.039 A 
ATOM     24  F   UNL A   1      37.536  24.302  25.758  1.00  0.00    -0.207 F 
ENDBRANCH  15  18
ENDBRANCH   8  12
ENDBRANCH   4   7
ENDBRANCH   2   3
ENDBRANCH   1   2
BRANCH   1  25
ATOM     25  C   UNL A   1      32.640  32.421  27.128  1.00  0.00     0.118 C 
BRANCH  25  26
ATOM     26  N   UNL A   1      32.471  33.820  27.495  1.00  0.00    -0.352 N 
ATOM     27  C   UNL A   1      33.098  34.567  28.461  1.00  0.00     0.251 C 
ATOM     28  H   UNL A   1      31.800  34.309  26.965  1.00  0.00     0.163 HD
ATOM     29  O   UNL A   1      32.674  35.686  28.735  1.00  0.00    -0.269 OA
BRANCH  27  30
ATOM     30  C   UNL A   1      34.269  34.029  29.187  1.00  0.00     0.039 A 
ATOM     31  C   UNL A   1      34.056  33.104  30.214  1.00  0.00     0.014 A 
ATOM     32  C   UNL A   1      35.566  34.455  28.889  1.00  0.00     0.014 A 
ATOM     33  C   UNL A   1      35.147  32.558  30.894  1.00  0.00     0.010 A 
ATOM     34  C   UNL A   1      36.655  33.852  29.512  1.00  0.00     0.010 A 
ATOM     35  C   UNL A   1      36.457  32.902  30.523  1.00  0.00    -0.014 A 
BRANCH  35  36
ATOM     36  C   UNL A   1      37.632  32.287  31.188  1.00  0.00     0.031 A 
ATOM     37  C   UNL A   1      38.423  31.219  30.487  1.00  0.00     0.074 A 
ATOM     38  C   UNL A   1      37.956  32.652  32.443  1.00  0.00     0.049 A 
ATOM     39  N   UNL A   1      39.433  30.512  30.929  1.00  0.00    -0.248 NA
ATOM     40  C   UNL A   1      38.011  30.886  29.115  1.00  0.00     0.031 C 
ATOM     41  C   UNL A   1      37.249  33.655  33.238  1.00  0.00     0.029 A 
ATOM     42  N   UNL A   1      38.962  32.220  33.269  1.00  0.00    -0.354 N 
ATOM     43  C   UNL A   1      39.768  29.647  29.896  1.00  0.00     0.074 A 
ATOM     44  C   UNL A   1      38.820  29.877  28.826  1.00  0.00     0.031 C 
ATOM     45  C   UNL A   1      37.867  33.791  34.422  1.00  0.00     0.029 A 
ATOM     46  C   UNL A   1      38.987  32.857  34.484  1.00  0.00     0.049 A 
ATOM     47  H   UNL A   1      39.606  31.519  33.014  1.00  0.00     0.167 HD
ATOM     48  C   UNL A   1      40.790  28.762  29.833  1.00  0.00     0.037 A 
ATOM     49  C   UNL A   1      39.820  32.705  35.532  1.00  0.00     0.037 A 
ATOM     50  C   UNL A   1      41.742  28.547  30.890  1.00  0.00     0.049 A 
ATOM     51  C   UNL A   1      40.928  31.695  35.452  1.00  0.00     0.074 A 
ATOM     52  C   UNL A   1      42.830  27.692  30.912  1.00  0.00     0.029 A 
ATOM     53  N   UNL A   1      41.723  29.201  32.114  1.00  0.00    -0.354 N 
ATOM     54  N   UNL A   1      41.250  30.898  34.463  1.00  0.00    -0.248 NA
ATOM     55  C   UNL A   1      41.789  31.560  36.636  1.00  0.00     0.031 C 
ATOM     56  C   UNL A   1      43.448  27.802  32.161  1.00  0.00     0.029 A 
ATOM     57  C   UNL A   1      42.772  28.758  32.904  1.00  0.00     0.049 A 
ATOM     58  H   UNL A   1      41.061  29.880  32.383  1.00  0.00     0.167 HD
ATOM     59  C   UNL A   1      42.359  30.183  34.892  1.00  0.00     0.074 A 
ATOM     60  C   UNL A   1      42.661  30.647  36.231  1.00  0.00     0.031 C 
ATOM     61  C   UNL A   1      43.062  29.231  34.234  1.00  0.00     0.037 A 
BRANCH  48  62
ATOM     62  C   UNL A   1      40.936  27.965  28.570  1.00  0.00     0.064 A 
ATOM     63  C   UNL A   1      40.359  26.693  28.453  1.00  0.00     0.173 A 
ATOM     64  C   UNL A   1      41.674  28.454  27.481  1.00  0.00     0.173 A 
ATOM     65  F   UNL A   1      39.647  26.177  29.467  1.00  0.00    -0.203 F 
ATOM     66  C   UNL A   1      40.515  25.938  27.293  1.00  0.00     0.198 A 
ATOM     67  C   UNL A   1      41.804  27.710  26.312  1.00  0.00     0.198 A 
ATOM     68  F   UNL A   1      42.236  29.671  27.537  1.00  0.00    -0.203 F 
ATOM     69  F   UNL A   1      39.971  24.717  27.211  1.00  0.00    -0.200 F 
ATOM     70  C   UNL A   1      41.231  26.450  26.221  1.00  0.00     0.200 A 
ATOM     71  F   UNL A   1      42.473  28.218  25.267  1.00  0.00    -0.200 F 
ATOM     72  F   UNL A   1      41.362  25.733  25.097  1.00  0.00    -0.200 F 
ENDBRANCH  48  62
BRANCH  49  73
ATOM     73  C   UNL A   1      39.658  33.578  36.720  1.00  0.00     0.064 A 
ATOM     74  C   UNL A   1      38.847  33.207  37.802  1.00  0.00     0.173 A 
ATOM     75  C   UNL A   1      40.276  34.836  36.765  1.00  0.00     0.173 A 
ATOM     76  F   UNL A   1      38.231  32.016  37.802  1.00  0.00    -0.203 F 
ATOM     77  C   UNL A   1      38.642  34.072  38.875  1.00  0.00     0.198 A 
ATOM     78  C   UNL A   1      40.087  35.692  37.848  1.00  0.00     0.198 A 
ATOM     79  F   UNL A   1      41.075  35.224  35.761  1.00  0.00    -0.203 F 
ATOM     80  F   UNL A   1      37.835  33.710  39.881  1.00  0.00    -0.200 F 
ATOM     81  C   UNL A   1      39.262  35.314  38.897  1.00  0.00     0.200 A 
ATOM     82  F   UNL A   1      40.703  36.881  37.874  1.00  0.00    -0.200 F 
ATOM     83  F   UNL A   1      39.066  36.145  39.929  1.00  0.00    -0.200 F 
ENDBRANCH  49  73
BRANCH  61  84
ATOM     84  C   UNL A   1      44.244  28.631  34.936  1.00  0.00     0.064 A 
ATOM     85  C   UNL A   1      45.521  29.190  34.777  1.00  0.00     0.173 A 
ATOM     86  C   UNL A   1      44.125  27.461  35.698  1.00  0.00     0.173 A 
ATOM     87  F   UNL A   1      45.686  30.306  34.051  1.00  0.00    -0.203 F 
ATOM     88  C   UNL A   1      46.640  28.589  35.346  1.00  0.00     0.198 A 
ATOM     89  C   UNL A   1      45.244  26.876  36.287  1.00  0.00     0.198 A 
ATOM     90  F   UNL A   1      42.923  26.898  35.889  1.00  0.00    -0.203 F 
ATOM     91  F   UNL A   1      47.855  29.122  35.156  1.00  0.00    -0.200 F 
ATOM     92  C   UNL A   1      46.500  27.435  36.102  1.00  0.00     0.200 A 
ATOM     93  F   UNL A   1      45.106  25.773  37.035  1.00  0.00    -0.200 F 
ATOM     94  F   UNL A   1      47.578  26.860  36.655  1.00  0.00    -0.200 F 
ENDBRANCH  61  84
ENDBRANCH  35  36
ENDBRANCH  27  30
ENDBRANCH  25  26
ENDBRANCH   1  25
TORSDOF 12
ENDMDL
MODEL 3
REMARK VINA RESULT:     -12.6      1.216      2.168
REMARK SMILES O=C(Nc1cccc(F)c1)N[C@@H]1C=C[C@@H](C(=O)NCCCNC(=O)c2ccc(-c3c4nc(c(-c5c(F)c(F)c(F)c(F)c5F)c5ccc([nH]5)c(-c5c(F)c(F)c(F)c(F)c5F)c5nc(c(-c6c(F)c(F)c(F)c(F)c6F)c6ccc3[nH]6)C=C5)C=C4)cc2)C1
REMARK SMILES IDX 20 1 19 2 18 3 16 4 17 5 15 7 12 8 13 9 88 10 14 11 11 12
REMARK SMILES IDX 1 13 2 14 3 15 4 18 5 19 10 20 6 21 8 22 7 23 9 24 21 25
REMARK SMILES IDX 22 26 23 27 24 29 25 30 26 31 87 32 27 33 86 34 28 35 29 36
REMARK SMILES IDX 30 37 80 38 31 39 85 40 79 41 81 42 32 43 84 44 78 45 77 46
REMARK SMILES IDX 33 48 65 49 45 50 64 51 46 52 49 53 63 54 82 55 47 56 48 57
REMARK SMILES IDX 62 59 83 60 50 61 34 62 35 63 43 64 36 65 37 66 41 67 44 68
REMARK SMILES IDX 38 69 39 70 42 71 40 72 66 73 67 74 75 75 68 76 69 77 73 78
REMARK SMILES IDX 76 79 70 80 71 81 74 82 72 83 51 84 52 85 60 86 53 87 54 88
REMARK SMILES IDX 58 89 61 90 55 91 56 92 59 93 57 94
REMARK H PARENT 18 6 3 16 11 17 22 28 81 47 49 58
REMARK Flexibility Score: inf
ROOT
ATOM      1  C   UNL A   1      37.727  19.738  24.990  1.00  0.00     0.042 C 
ENDROOT
BRANCH   1   2
ATOM      2  C   UNL A   1      36.544  20.696  25.005  1.00  0.00     0.117 C 
BRANCH   2   3
ATOM      3  N   UNL A   1      35.268  20.003  25.009  1.00  0.00    -0.356 N 
ATOM      4  C   UNL A   1      33.992  20.457  24.871  1.00  0.00     0.227 C 
ATOM      5  O   UNL A   1      33.095  19.609  24.877  1.00  0.00    -0.274 OA
ATOM      6  H   UNL A   1      35.339  19.030  25.133  1.00  0.00     0.163 HD
BRANCH   4   7
ATOM      7  C   UNL A   1      33.645  21.939  24.713  1.00  0.00     0.103 C 
ATOM      8  C   UNL A   1      32.199  23.137  23.121  1.00  0.00     0.107 C 
ATOM      9  C   UNL A   1      31.543  22.948  24.453  1.00  0.00    -0.006 C 
ATOM     10  C   UNL A   1      33.552  22.425  23.260  1.00  0.00     0.047 C 
ATOM     11  C   UNL A   1      32.329  22.306  25.323  1.00  0.00    -0.016 C 
BRANCH   8  12
ATOM     12  N   UNL A   1      32.347  24.555  22.940  1.00  0.00    -0.332 N 
ATOM     13  O   UNL A   1      33.278  24.469  20.863  1.00  0.00    -0.248 OA
ATOM     14  C   UNL A   1      32.900  25.118  21.830  1.00  0.00     0.319 C 
ATOM     15  N   UNL A   1      32.896  26.487  21.797  1.00  0.00    -0.308 N 
ATOM     16  H   UNL A   1      32.984  26.885  20.901  1.00  0.00     0.171 HD
ATOM     17  H   UNL A   1      32.032  25.152  23.657  1.00  0.00     0.165 HD
BRANCH  15  18
ATOM     18  C   UNL A   1      32.784  27.407  22.855  1.00  0.00     0.045 A 
ATOM     19  C   UNL A   1      33.842  27.676  23.734  1.00  0.00     0.026 A 
ATOM     20  C   UNL A   1      31.580  28.093  23.006  1.00  0.00     0.065 A 
ATOM     21  C   UNL A   1      33.678  28.571  24.793  1.00  0.00     0.005 A 
ATOM     22  C   UNL A   1      31.420  28.968  24.075  1.00  0.00     0.125 A 
ATOM     23  C   UNL A   1      32.454  29.208  24.973  1.00  0.00     0.039 A 
ATOM     24  F   UNL A   1      30.243  29.582  24.251  1.00  0.00    -0.207 F 
ENDBRANCH  15  18
ENDBRANCH   8  12
ENDBRANCH   4   7
ENDBRANCH   2   3
ENDBRANCH   1   2
BRANCH   1  25
ATOM     25  C   UNL A   1      38.947  20.255  25.741  1.00  0.00     0.118 C 
BRANCH  25  26
ATOM     26  N   UNL A   1      39.996  19.252  25.861  1.00  0.00    -0.352 N 
ATOM     27  C   UNL A   1      41.342  19.398  26.089  1.00  0.00     0.251 C 
ATOM     28  H   UNL A   1      39.692  18.321  25.765  1.00  0.00     0.163 HD
ATOM     29  O   UNL A   1      42.087  18.430  25.967  1.00  0.00    -0.269 OA
BRANCH  27  30
ATOM     30  C   UNL A   1      41.905  20.713  26.461  1.00  0.00     0.039 A 
ATOM     31  C   UNL A   1      42.254  21.608  25.444  1.00  0.00     0.014 A 
ATOM     32  C   UNL A   1      42.125  21.057  27.798  1.00  0.00     0.014 A 
ATOM     33  C   UNL A   1      42.759  22.869  25.771  1.00  0.00     0.010 A 
ATOM     34  C   UNL A   1      42.552  22.341  28.124  1.00  0.00     0.010 A 
ATOM     35  C   UNL A   1      42.879  23.257  27.115  1.00  0.00    -0.014 A 
BRANCH  35  36
ATOM     36  C   UNL A   1      43.352  24.613  27.486  1.00  0.00     0.031 A 
ATOM     37  C   UNL A   1      42.365  25.677  27.878  1.00  0.00     0.074 A 
ATOM     38  C   UNL A   1      44.664  24.904  27.418  1.00  0.00     0.049 A 
ATOM     39  N   UNL A   1      42.575  26.937  28.163  1.00  0.00    -0.248 NA
ATOM     40  C   UNL A   1      40.951  25.275  27.938  1.00  0.00     0.031 C 
ATOM     41  C   UNL A   1      45.716  23.967  27.023  1.00  0.00     0.029 A 
ATOM     42  N   UNL A   1      45.337  26.071  27.678  1.00  0.00    -0.354 N 
ATOM     43  C   UNL A   1      41.324  27.478  28.424  1.00  0.00     0.074 A 
ATOM     44  C   UNL A   1      40.354  26.426  28.210  1.00  0.00     0.031 C 
ATOM     45  C   UNL A   1      46.905  24.583  27.106  1.00  0.00     0.029 A 
ATOM     46  C   UNL A   1      46.696  25.968  27.519  1.00  0.00     0.049 A 
ATOM     47  H   UNL A   1      44.888  26.903  27.953  1.00  0.00     0.167 HD
ATOM     48  C   UNL A   1      41.014  28.731  28.833  1.00  0.00     0.037 A 
ATOM     49  C   UNL A   1      47.666  26.887  27.689  1.00  0.00     0.037 A 
ATOM     50  C   UNL A   1      41.981  29.771  29.063  1.00  0.00     0.049 A 
ATOM     51  C   UNL A   1      47.297  28.279  28.114  1.00  0.00     0.074 A 
ATOM     52  C   UNL A   1      41.769  31.065  29.505  1.00  0.00     0.029 A 
ATOM     53  N   UNL A   1      43.349  29.632  28.874  1.00  0.00    -0.354 N 
ATOM     54  N   UNL A   1      46.113  28.774  28.380  1.00  0.00    -0.248 NA
ATOM     55  C   UNL A   1      48.398  29.242  28.260  1.00  0.00     0.031 C 
ATOM     56  C   UNL A   1      43.004  31.720  29.550  1.00  0.00     0.029 A 
ATOM     57  C   UNL A   1      43.992  30.821  29.178  1.00  0.00     0.049 A 
ATOM     58  H   UNL A   1      43.797  28.809  28.570  1.00  0.00     0.167 HD
ATOM     59  C   UNL A   1      46.325  30.097  28.743  1.00  0.00     0.074 A 
ATOM     60  C   UNL A   1      47.754  30.325  28.673  1.00  0.00     0.031 C 
ATOM     61  C   UNL A   1      45.416  31.034  29.105  1.00  0.00     0.037 A 
BRANCH  48  62
ATOM     62  C   UNL A   1      39.565  29.041  29.069  1.00  0.00     0.064 A 
ATOM     63  C   UNL A   1      38.995  28.880  30.340  1.00  0.00     0.173 A 
ATOM     64  C   UNL A   1      38.732  29.473  28.026  1.00  0.00     0.173 A 
ATOM     65  F   UNL A   1      39.746  28.466  31.372  1.00  0.00    -0.203 F 
ATOM     66  C   UNL A   1      37.644  29.140  30.558  1.00  0.00     0.198 A 
ATOM     67  C   UNL A   1      37.389  29.759  28.253  1.00  0.00     0.198 A 
ATOM     68  F   UNL A   1      39.231  29.655  26.794  1.00  0.00    -0.203 F 
ATOM     69  F   UNL A   1      37.116  28.961  31.776  1.00  0.00    -0.200 F 
ATOM     70  C   UNL A   1      36.844  29.586  29.516  1.00  0.00     0.200 A 
ATOM     71  F   UNL A   1      36.624  30.217  27.251  1.00  0.00    -0.200 F 
ATOM     72  F   UNL A   1      35.549  29.857  29.731  1.00  0.00    -0.200 F 
ENDBRANCH  48  62
BRANCH  49  73
ATOM     73  C   UNL A   1      49.084  26.488  27.507  1.00  0.00     0.064 A 
ATOM     74  C   UNL A   1      49.929  26.252  28.600  1.00  0.00     0.173 A 
ATOM     75  C   UNL A   1      49.633  26.390  26.220  1.00  0.00     0.173 A 
ATOM     76  F   UNL A   1      49.450  26.339  29.850  1.00  0.00    -0.203 F 
ATOM     77  C   UNL A   1      51.277  25.956  28.414  1.00  0.00     0.198 A 
ATOM     78  C   UNL A   1      50.976  26.073  26.034  1.00  0.00     0.198 A 
ATOM     79  F   UNL A   1      48.857  26.589  25.145  1.00  0.00    -0.203 F 
ATOM     80  F   UNL A   1      52.074  25.768  29.474  1.00  0.00    -0.200 F 
ATOM     81  C   UNL A   1      51.800  25.866  27.131  1.00  0.00     0.200 A 
ATOM     82  F   UNL A   1      51.472  25.969  24.794  1.00  0.00    -0.200 F 
ATOM     83  F   UNL A   1      53.096  25.579  26.952  1.00  0.00    -0.200 F 
ENDBRANCH  49  73
BRANCH  61  84
ATOM     84  C   UNL A   1      45.929  32.394  29.473  1.00  0.00     0.064 A 
ATOM     85  C   UNL A   1      46.260  32.690  30.805  1.00  0.00     0.173 A 
ATOM     86  C   UNL A   1      46.018  33.423  28.526  1.00  0.00     0.173 A 
ATOM     87  F   UNL A   1      46.185  31.739  31.748  1.00  0.00    -0.203 F 
ATOM     88  C   UNL A   1      46.648  33.974  31.176  1.00  0.00     0.198 A 
ATOM     89  C   UNL A   1      46.430  34.700  28.897  1.00  0.00     0.198 A 
ATOM     90  F   UNL A   1      45.725  33.184  27.239  1.00  0.00    -0.203 F 
ATOM     91  F   UNL A   1      46.929  34.243  32.459  1.00  0.00    -0.200 F 
ATOM     92  C   UNL A   1      46.735  34.976  30.222  1.00  0.00     0.200 A 
ATOM     93  F   UNL A   1      46.535  35.664  27.972  1.00  0.00    -0.200 F 
ATOM     94  F   UNL A   1      47.115  36.212  30.580  1.00  0.00    -0.200 F 
ENDBRANCH  61  84
ENDBRANCH  35  36
ENDBRANCH  27  30
ENDBRANCH  25  26
ENDBRANCH   1  25
TORSDOF 12
ENDMDL
