MODEL 1
REMARK VINA RESULT:     -10.4      0.000      0.000
REMARK SMILES CC(C)CN(C)/C=C\C(=O)NCCCNC(=O)c1ccc(-c2c3nc(c(-c4c(F)c(F)c(F)c(F)c4F)c4ccc([nH]4)c(-c4c(F)c(F)c(F)c(F)c4F)c4nc(c(-c5c(F)c(F)c(F)c(F)c5F)c5ccc2[nH]5)C=C4)C=C3)cc1
REMARK SMILES IDX 12 1 11 2 9 3 10 4 8 6 7 7 5 8 6 9 4 10 2 11 1 12 3 13 13 14
REMARK SMILES IDX 14 15 15 16 16 17 17 19 18 20 19 21 80 22 20 23 79 24 21 25
REMARK SMILES IDX 22 26 23 27 73 28 24 29 78 30 72 31 74 32 25 33 77 34 71 35
REMARK SMILES IDX 70 36 26 38 58 39 38 40 57 41 39 42 42 43 56 44 75 45 40 46
REMARK SMILES IDX 41 47 55 49 76 50 43 51 27 52 28 53 36 54 29 55 30 56 34 57
REMARK SMILES IDX 37 58 31 59 32 60 35 61 33 62 59 63 60 64 68 65 61 66 62 67
REMARK SMILES IDX 66 68 69 69 63 70 64 71 67 72 65 73 44 74 45 75 53 76 46 77
REMARK SMILES IDX 47 78 51 79 54 80 48 81 49 82 52 83 50 84
REMARK H PARENT 11 5 15 18 74 37 42 48
REMARK Flexibility Score: inf
ROOT
ATOM      1  C   UNL A   1      31.480  30.830  25.992  1.00  0.00     0.118 C 
ENDROOT
BRANCH   1   2
ATOM      2  N   UNL A   1      32.714  30.132  26.313  1.00  0.00    -0.352 N 
ATOM      3  C   UNL A   1      32.927  28.887  26.821  1.00  0.00     0.245 C 
ATOM      4  O   UNL A   1      34.072  28.437  26.864  1.00  0.00    -0.270 OA
ATOM      5  H   UNL A   1      33.534  30.645  26.130  1.00  0.00     0.163 HD
BRANCH   3   6
ATOM      6  C   UNL A   1      31.795  28.039  27.231  1.00  0.00     0.088 C 
ATOM      7  C   UNL A   1      31.119  27.143  26.500  1.00  0.00     0.086 C 
BRANCH   7   8
ATOM      8  N   UNL A   1      31.191  26.717  25.181  1.00  0.00    -0.380 N 
ATOM      9  C   UNL A   1      30.369  27.364  24.155  1.00  0.00     0.143 C 
BRANCH   8  10
ATOM     10  C   UNL A   1      32.081  25.650  24.702  1.00  0.00     0.118 C 
BRANCH  10  11
ATOM     11  C   UNL A   1      32.942  24.974  25.774  1.00  0.00     0.002 C 
ATOM     12  C   UNL A   1      32.649  23.486  25.945  1.00  0.00     0.009 C 
ATOM     13  C   UNL A   1      34.414  25.162  25.375  1.00  0.00     0.009 C 
ENDBRANCH  10  11
ENDBRANCH   8  10
ENDBRANCH   7   8
ENDBRANCH   3   6
ENDBRANCH   1   2
BRANCH   1  14
ATOM     14  C   UNL A   1      31.385  32.274  26.505  1.00  0.00     0.042 C 
BRANCH  14  15
ATOM     15  C   UNL A   1      32.590  32.817  27.280  1.00  0.00     0.118 C 
BRANCH  15  16
ATOM     16  N   UNL A   1      32.442  34.223  27.603  1.00  0.00    -0.352 N 
ATOM     17  C   UNL A   1      32.978  34.951  28.634  1.00  0.00     0.251 C 
ATOM     18  H   UNL A   1      31.868  34.733  26.987  1.00  0.00     0.163 HD
ATOM     19  O   UNL A   1      32.524  36.074  28.864  1.00  0.00    -0.269 OA
BRANCH  17  20
ATOM     20  C   UNL A   1      34.088  34.446  29.482  1.00  0.00     0.039 A 
ATOM     21  C   UNL A   1      35.377  34.433  28.936  1.00  0.00     0.014 A 
ATOM     22  C   UNL A   1      33.868  33.847  30.728  1.00  0.00     0.014 A 
ATOM     23  C   UNL A   1      36.435  33.829  29.624  1.00  0.00     0.010 A 
ATOM     24  C   UNL A   1      34.936  33.266  31.430  1.00  0.00     0.010 A 
ATOM     25  C   UNL A   1      36.227  33.231  30.877  1.00  0.00    -0.014 A 
BRANCH  25  26
ATOM     26  C   UNL A   1      37.355  32.547  31.575  1.00  0.00     0.031 A 
ATOM     27  C   UNL A   1      38.083  31.398  30.925  1.00  0.00     0.074 A 
ATOM     28  C   UNL A   1      37.741  32.960  32.799  1.00  0.00     0.049 A 
ATOM     29  N   UNL A   1      39.100  30.701  31.375  1.00  0.00    -0.248 NA
ATOM     30  C   UNL A   1      37.603  30.970  29.603  1.00  0.00     0.031 C 
ATOM     31  C   UNL A   1      37.119  34.044  33.557  1.00  0.00     0.029 A 
ATOM     32  N   UNL A   1      38.750  32.514  33.621  1.00  0.00    -0.354 N 
ATOM     33  C   UNL A   1      39.373  29.750  30.400  1.00  0.00     0.074 A 
ATOM     34  C   UNL A   1      38.398  29.938  29.346  1.00  0.00     0.031 C 
ATOM     35  C   UNL A   1      37.759  34.181  34.732  1.00  0.00     0.029 A 
ATOM     36  C   UNL A   1      38.823  33.184  34.817  1.00  0.00     0.049 A 
ATOM     37  H   UNL A   1      39.362  31.784  33.374  1.00  0.00     0.167 HD
ATOM     38  C   UNL A   1      40.354  28.814  30.377  1.00  0.00     0.037 A 
ATOM     39  C   UNL A   1      39.649  33.014  35.870  1.00  0.00     0.037 A 
ATOM     40  C   UNL A   1      41.351  28.639  31.401  1.00  0.00     0.049 A 
ATOM     41  C   UNL A   1      40.730  31.967  35.815  1.00  0.00     0.074 A 
ATOM     42  C   UNL A   1      42.428  27.766  31.415  1.00  0.00     0.029 A 
ATOM     43  N   UNL A   1      41.396  29.343  32.593  1.00  0.00    -0.354 N 
ATOM     44  N   UNL A   1      41.025  31.132  34.850  1.00  0.00    -0.248 NA
ATOM     45  C   UNL A   1      41.602  31.848  36.994  1.00  0.00     0.031 C 
ATOM     46  C   UNL A   1      43.098  27.913  32.633  1.00  0.00     0.029 A 
ATOM     47  C   UNL A   1      42.464  28.905  33.361  1.00  0.00     0.049 A 
ATOM     48  H   UNL A   1      40.762  30.049  32.856  1.00  0.00     0.167 HD
ATOM     49  C   UNL A   1      42.126  30.410  35.293  1.00  0.00     0.074 A 
ATOM     50  C   UNL A   1      42.458  30.913  36.607  1.00  0.00     0.031 C 
ATOM     51  C   UNL A   1      42.798  29.416  34.664  1.00  0.00     0.037 A 
BRANCH  38  52
ATOM     52  C   UNL A   1      40.416  27.890  29.196  1.00  0.00     0.064 A 
ATOM     53  C   UNL A   1      39.648  26.720  29.139  1.00  0.00     0.173 A 
ATOM     54  C   UNL A   1      41.180  28.232  28.069  1.00  0.00     0.173 A 
ATOM     55  F   UNL A   1      38.903  26.349  30.192  1.00  0.00    -0.203 F 
ATOM     56  C   UNL A   1      39.649  25.918  28.001  1.00  0.00     0.198 A 
ATOM     57  C   UNL A   1      41.162  27.439  26.924  1.00  0.00     0.198 A 
ATOM     58  F   UNL A   1      41.924  29.349  28.070  1.00  0.00    -0.203 F 
ATOM     59  F   UNL A   1      38.921  24.792  27.975  1.00  0.00    -0.200 F 
ATOM     60  C   UNL A   1      40.398  26.283  26.891  1.00  0.00     0.200 A 
ATOM     61  F   UNL A   1      41.875  27.801  25.848  1.00  0.00    -0.200 F 
ATOM     62  F   UNL A   1      40.382  25.519  25.790  1.00  0.00    -0.200 F 
ENDBRANCH  38  52
BRANCH  39  63
ATOM     63  C   UNL A   1      39.491  33.860  37.081  1.00  0.00     0.064 A 
ATOM     64  C   UNL A   1      40.112  35.113  37.176  1.00  0.00     0.173 A 
ATOM     65  C   UNL A   1      38.741  33.417  38.180  1.00  0.00     0.173 A 
ATOM     66  F   UNL A   1      40.861  35.567  36.160  1.00  0.00    -0.203 F 
ATOM     67  C   UNL A   1      40.011  35.879  38.334  1.00  0.00     0.198 A 
ATOM     68  C   UNL A   1      38.618  34.196  39.327  1.00  0.00     0.198 A 
ATOM     69  F   UNL A   1      38.128  32.225  38.139  1.00  0.00    -0.203 F 
ATOM     70  F   UNL A   1      40.658  37.050  38.420  1.00  0.00    -0.200 F 
ATOM     71  C   UNL A   1      39.261  35.423  39.408  1.00  0.00     0.200 A 
ATOM     72  F   UNL A   1      37.884  33.756  40.358  1.00  0.00    -0.200 F 
ATOM     73  F   UNL A   1      39.166  36.159  40.523  1.00  0.00    -0.200 F 
ENDBRANCH  39  63
BRANCH  51  74
ATOM     74  C   UNL A   1      43.979  28.822  35.372  1.00  0.00     0.064 A 
ATOM     75  C   UNL A   1      43.858  27.668  36.161  1.00  0.00     0.173 A 
ATOM     76  C   UNL A   1      45.255  29.390  35.232  1.00  0.00     0.173 A 
ATOM     77  F   UNL A   1      42.657  27.096  36.339  1.00  0.00    -0.203 F 
ATOM     78  C   UNL A   1      44.967  27.117  36.800  1.00  0.00     0.198 A 
ATOM     79  C   UNL A   1      46.365  28.823  35.851  1.00  0.00     0.198 A 
ATOM     80  F   UNL A   1      45.425  30.491  34.485  1.00  0.00    -0.203 F 
ATOM     81  F   UNL A   1      44.820  26.039  37.581  1.00  0.00    -0.200 F 
ATOM     82  C   UNL A   1      46.219  27.691  36.638  1.00  0.00     0.200 A 
ATOM     83  F   UNL A   1      47.576  29.372  35.687  1.00  0.00    -0.200 F 
ATOM     84  F   UNL A   1      47.285  27.157  37.251  1.00  0.00    -0.200 F 
ENDBRANCH  51  74
ENDBRANCH  25  26
ENDBRANCH  17  20
ENDBRANCH  15  16
ENDBRANCH  14  15
ENDBRANCH   1  14
TORSDOF 13
ENDMDL
MODEL 2
REMARK VINA RESULT:     -10.3      0.767      7.721
REMARK SMILES CC(C)CN(C)/C=C\C(=O)NCCCNC(=O)c1ccc(-c2c3nc(c(-c4c(F)c(F)c(F)c(F)c4F)c4ccc([nH]4)c(-c4c(F)c(F)c(F)c(F)c4F)c4nc(c(-c5c(F)c(F)c(F)c(F)c5F)c5ccc2[nH]5)C=C4)C=C3)cc1
REMARK SMILES IDX 12 1 11 2 9 3 10 4 8 6 7 7 5 8 6 9 4 10 2 11 1 12 3 13 13 14
REMARK SMILES IDX 14 15 15 16 16 17 17 19 18 20 19 21 80 22 20 23 79 24 21 25
REMARK SMILES IDX 22 26 23 27 73 28 24 29 78 30 72 31 74 32 25 33 77 34 71 35
REMARK SMILES IDX 70 36 26 38 58 39 38 40 57 41 39 42 42 43 56 44 75 45 40 46
REMARK SMILES IDX 41 47 55 49 76 50 43 51 27 52 28 53 36 54 29 55 30 56 34 57
REMARK SMILES IDX 37 58 31 59 32 60 35 61 33 62 59 63 60 64 68 65 61 66 62 67
REMARK SMILES IDX 66 68 69 69 63 70 64 71 67 72 65 73 44 74 45 75 53 76 46 77
REMARK SMILES IDX 47 78 51 79 54 80 48 81 49 82 52 83 50 84
REMARK H PARENT 11 5 15 18 74 37 42 48
REMARK Flexibility Score: inf
ROOT
ATOM      1  C   UNL A   1      31.427  30.859  26.010  1.00  0.00     0.118 C 
ENDROOT
BRANCH   1   2
ATOM      2  N   UNL A   1      32.676  30.156  26.253  1.00  0.00    -0.352 N 
ATOM      3  C   UNL A   1      32.915  28.886  26.681  1.00  0.00     0.245 C 
ATOM      4  O   UNL A   1      34.065  28.446  26.665  1.00  0.00    -0.270 OA
ATOM      5  H   UNL A   1      33.486  30.688  26.077  1.00  0.00     0.163 HD
BRANCH   3   6
ATOM      6  C   UNL A   1      31.803  28.004  27.073  1.00  0.00     0.088 C 
ATOM      7  C   UNL A   1      31.170  27.084  26.334  1.00  0.00     0.086 C 
BRANCH   7   8
ATOM      8  N   UNL A   1      31.280  26.656  25.019  1.00  0.00    -0.380 N 
ATOM      9  C   UNL A   1      30.637  27.416  23.943  1.00  0.00     0.143 C 
BRANCH   8  10
ATOM     10  C   UNL A   1      32.044  25.476  24.592  1.00  0.00     0.118 C 
BRANCH  10  11
ATOM     11  C   UNL A   1      33.452  25.756  24.056  1.00  0.00     0.002 C 
ATOM     12  C   UNL A   1      34.544  24.947  24.751  1.00  0.00     0.009 C 
ATOM     13  C   UNL A   1      33.451  25.428  22.555  1.00  0.00     0.009 C 
ENDBRANCH  10  11
ENDBRANCH   8  10
ENDBRANCH   7   8
ENDBRANCH   3   6
ENDBRANCH   1   2
BRANCH   1  14
ATOM     14  C   UNL A   1      31.353  32.287  26.567  1.00  0.00     0.042 C 
BRANCH  14  15
ATOM     15  C   UNL A   1      32.636  32.864  27.174  1.00  0.00     0.118 C 
BRANCH  15  16
ATOM     16  N   UNL A   1      32.460  34.230  27.629  1.00  0.00    -0.352 N 
ATOM     17  C   UNL A   1      33.017  34.882  28.699  1.00  0.00     0.251 C 
ATOM     18  H   UNL A   1      31.844  34.773  27.084  1.00  0.00     0.163 HD
ATOM     19  O   UNL A   1      32.539  35.964  29.047  1.00  0.00    -0.269 OA
BRANCH  17  20
ATOM     20  C   UNL A   1      34.176  34.342  29.453  1.00  0.00     0.039 A 
ATOM     21  C   UNL A   1      35.454  34.526  28.910  1.00  0.00     0.014 A 
ATOM     22  C   UNL A   1      34.025  33.534  30.587  1.00  0.00     0.014 A 
ATOM     23  C   UNL A   1      36.569  33.909  29.491  1.00  0.00     0.010 A 
ATOM     24  C   UNL A   1      35.148  32.940  31.185  1.00  0.00     0.010 A 
ATOM     25  C   UNL A   1      36.429  33.103  30.631  1.00  0.00    -0.014 A 
BRANCH  25  26
ATOM     26  C   UNL A   1      37.620  32.413  31.209  1.00  0.00     0.031 A 
ATOM     27  C   UNL A   1      38.147  32.791  32.570  1.00  0.00     0.074 A 
ATOM     28  C   UNL A   1      38.233  31.432  30.517  1.00  0.00     0.049 A 
ATOM     29  N   UNL A   1      39.156  32.283  33.237  1.00  0.00    -0.248 NA
ATOM     30  C   UNL A   1      37.458  33.885  33.269  1.00  0.00     0.031 C 
ATOM     31  C   UNL A   1      37.848  30.975  29.183  1.00  0.00     0.029 A 
ATOM     32  N   UNL A   1      39.314  30.645  30.840  1.00  0.00    -0.354 N 
ATOM     33  C   UNL A   1      39.229  33.000  34.425  1.00  0.00     0.074 A 
ATOM     34  C   UNL A   1      38.181  33.998  34.377  1.00  0.00     0.031 C 
ATOM     35  C   UNL A   1      38.676  29.987  28.802  1.00  0.00     0.029 A 
ATOM     36  C   UNL A   1      39.662  29.754  29.855  1.00  0.00     0.049 A 
ATOM     37  H   UNL A   1      39.793  30.714  31.697  1.00  0.00     0.167 HD
ATOM     38  C   UNL A   1      40.081  32.834  35.467  1.00  0.00     0.037 A 
ATOM     39  C   UNL A   1      40.665  28.855  29.798  1.00  0.00     0.037 A 
ATOM     40  C   UNL A   1      41.103  31.823  35.544  1.00  0.00     0.049 A 
ATOM     41  C   UNL A   1      41.595  28.692  30.972  1.00  0.00     0.074 A 
ATOM     42  C   UNL A   1      41.955  31.537  36.599  1.00  0.00     0.029 A 
ATOM     43  N   UNL A   1      41.418  30.935  34.528  1.00  0.00    -0.354 N 
ATOM     44  N   UNL A   1      41.597  29.323  32.120  1.00  0.00    -0.248 NA
ATOM     45  C   UNL A   1      42.656  27.681  30.845  1.00  0.00     0.031 C 
ATOM     46  C   UNL A   1      42.814  30.506  36.206  1.00  0.00     0.029 A 
ATOM     47  C   UNL A   1      42.469  30.121  34.921  1.00  0.00     0.049 A 
ATOM     48  H   UNL A   1      40.964  30.890  33.656  1.00  0.00     0.167 HD
ATOM     49  C   UNL A   1      42.637  28.771  32.857  1.00  0.00     0.074 A 
ATOM     50  C   UNL A   1      43.236  27.743  32.035  1.00  0.00     0.031 C 
ATOM     51  C   UNL A   1      43.056  29.092  34.104  1.00  0.00     0.037 A 
BRANCH  38  52
ATOM     52  C   UNL A   1      39.951  33.766  36.636  1.00  0.00     0.064 A 
ATOM     53  C   UNL A   1      40.627  34.993  36.674  1.00  0.00     0.173 A 
ATOM     54  C   UNL A   1      39.065  33.469  37.683  1.00  0.00     0.173 A 
ATOM     55  F   UNL A   1      41.487  35.321  35.696  1.00  0.00    -0.203 F 
ATOM     56  C   UNL A   1      40.430  35.887  37.723  1.00  0.00     0.198 A 
ATOM     57  C   UNL A   1      38.853  34.375  38.720  1.00  0.00     0.198 A 
ATOM     58  F   UNL A   1      38.385  32.313  37.687  1.00  0.00    -0.203 F 
ATOM     59  F   UNL A   1      41.101  37.047  37.749  1.00  0.00    -0.200 F 
ATOM     60  C   UNL A   1      39.536  35.582  38.740  1.00  0.00     0.200 A 
ATOM     61  F   UNL A   1      37.979  34.085  39.694  1.00  0.00    -0.200 F 
ATOM     62  F   UNL A   1      39.333  36.452  39.739  1.00  0.00    -0.200 F 
ENDBRANCH  38  52
BRANCH  39  63
ATOM     63  C   UNL A   1      40.850  28.025  28.580  1.00  0.00     0.064 A 
ATOM     64  C   UNL A   1      41.629  28.479  27.506  1.00  0.00     0.173 A 
ATOM     65  C   UNL A   1      40.224  26.777  28.453  1.00  0.00     0.173 A 
ATOM     66  F   UNL A   1      42.226  29.678  27.572  1.00  0.00    -0.203 F 
ATOM     67  C   UNL A   1      41.755  27.726  26.341  1.00  0.00     0.198 A 
ATOM     68  C   UNL A   1      40.373  26.013  27.298  1.00  0.00     0.198 A 
ATOM     69  F   UNL A   1      39.468  26.300  29.451  1.00  0.00    -0.203 F 
ATOM     70  F   UNL A   1      42.463  28.205  25.309  1.00  0.00    -0.200 F 
ATOM     71  C   UNL A   1      41.131  26.492  26.239  1.00  0.00     0.200 A 
ATOM     72  F   UNL A   1      39.776  24.817  27.207  1.00  0.00    -0.200 F 
ATOM     73  F   UNL A   1      41.249  25.769  25.117  1.00  0.00    -0.200 F 
ENDBRANCH  39  63
BRANCH  51  74
ATOM     74  C   UNL A   1      44.201  28.307  34.674  1.00  0.00     0.064 A 
ATOM     75  C   UNL A   1      43.995  27.106  35.367  1.00  0.00     0.173 A 
ATOM     76  C   UNL A   1      45.524  28.742  34.492  1.00  0.00     0.173 A 
ATOM     77  F   UNL A   1      42.749  26.656  35.581  1.00  0.00    -0.203 F 
ATOM     78  C   UNL A   1      45.069  26.379  35.876  1.00  0.00     0.198 A 
ATOM     79  C   UNL A   1      46.596  28.001  34.980  1.00  0.00     0.198 A 
ATOM     80  F   UNL A   1      45.775  29.883  33.832  1.00  0.00    -0.203 F 
ATOM     81  F   UNL A   1      44.846  25.256  36.571  1.00  0.00    -0.200 F 
ATOM     82  C   UNL A   1      46.367  26.823  35.676  1.00  0.00     0.200 A 
ATOM     83  F   UNL A   1      47.850  28.426  34.778  1.00  0.00    -0.200 F 
ATOM     84  F   UNL A   1      47.400  26.120  36.163  1.00  0.00    -0.200 F 
ENDBRANCH  51  74
ENDBRANCH  25  26
ENDBRANCH  17  20
ENDBRANCH  15  16
ENDBRANCH  14  15
ENDBRANCH   1  14
TORSDOF 13
ENDMDL
MODEL 3
REMARK VINA RESULT:     -10.3      2.004      8.243
REMARK SMILES CC(C)CN(C)/C=C\C(=O)NCCCNC(=O)c1ccc(-c2c3nc(c(-c4c(F)c(F)c(F)c(F)c4F)c4ccc([nH]4)c(-c4c(F)c(F)c(F)c(F)c4F)c4nc(c(-c5c(F)c(F)c(F)c(F)c5F)c5ccc2[nH]5)C=C4)C=C3)cc1
REMARK SMILES IDX 12 1 11 2 9 3 10 4 8 6 7 7 5 8 6 9 4 10 2 11 1 12 3 13 13 14
REMARK SMILES IDX 14 15 15 16 16 17 17 19 18 20 19 21 80 22 20 23 79 24 21 25
REMARK SMILES IDX 22 26 23 27 73 28 24 29 78 30 72 31 74 32 25 33 77 34 71 35
REMARK SMILES IDX 70 36 26 38 58 39 38 40 57 41 39 42 42 43 56 44 75 45 40 46
REMARK SMILES IDX 41 47 55 49 76 50 43 51 27 52 28 53 36 54 29 55 30 56 34 57
REMARK SMILES IDX 37 58 31 59 32 60 35 61 33 62 59 63 60 64 68 65 61 66 62 67
REMARK SMILES IDX 66 68 69 69 63 70 64 71 67 72 65 73 44 74 45 75 53 76 46 77
REMARK SMILES IDX 47 78 51 79 54 80 48 81 49 82 52 83 50 84
REMARK H PARENT 11 5 15 18 74 37 42 48
REMARK Flexibility Score: inf
ROOT
ATOM      1  C   UNL A   1      32.323  27.151  26.781  1.00  0.00     0.118 C 
ENDROOT
BRANCH   1   2
ATOM      2  N   UNL A   1      31.281  26.140  26.858  1.00  0.00    -0.352 N 
ATOM      3  C   UNL A   1      31.225  24.878  26.350  1.00  0.00     0.245 C 
ATOM      4  O   UNL A   1      30.300  24.133  26.675  1.00  0.00    -0.270 OA
ATOM      5  H   UNL A   1      30.482  26.413  27.363  1.00  0.00     0.163 HD
BRANCH   3   6
ATOM      6  C   UNL A   1      32.306  24.365  25.493  1.00  0.00     0.088 C 
ATOM      7  C   UNL A   1      32.737  24.845  24.319  1.00  0.00     0.086 C 
BRANCH   7   8
ATOM      8  N   UNL A   1      32.350  25.901  23.504  1.00  0.00    -0.380 N 
ATOM      9  C   UNL A   1      33.318  26.938  23.137  1.00  0.00     0.143 C 
BRANCH   8  10
ATOM     10  C   UNL A   1      31.007  26.054  22.930  1.00  0.00     0.118 C 
BRANCH  10  11
ATOM     11  C   UNL A   1      30.127  27.128  23.578  1.00  0.00     0.002 C 
ATOM     12  C   UNL A   1      29.840  28.318  22.665  1.00  0.00     0.009 C 
ATOM     13  C   UNL A   1      28.802  26.463  23.981  1.00  0.00     0.009 C 
ENDBRANCH  10  11
ENDBRANCH   8  10
ENDBRANCH   7   8
ENDBRANCH   3   6
ENDBRANCH   1   2
BRANCH   1  14
ATOM     14  C   UNL A   1      31.838  28.580  26.499  1.00  0.00     0.042 C 
BRANCH  14  15
ATOM     15  C   UNL A   1      32.846  29.543  25.862  1.00  0.00     0.118 C 
BRANCH  15  16
ATOM     16  N   UNL A   1      32.617  30.917  26.262  1.00  0.00    -0.352 N 
ATOM     17  C   UNL A   1      33.290  31.695  27.168  1.00  0.00     0.251 C 
ATOM     18  H   UNL A   1      31.860  31.360  25.814  1.00  0.00     0.163 HD
ATOM     19  O   UNL A   1      32.776  32.753  27.538  1.00  0.00    -0.269 OA
BRANCH  17  20
ATOM     20  C   UNL A   1      34.617  31.320  27.719  1.00  0.00     0.039 A 
ATOM     21  C   UNL A   1      34.783  30.015  28.197  1.00  0.00     0.014 A 
ATOM     22  C   UNL A   1      35.640  32.256  27.917  1.00  0.00     0.014 A 
ATOM     23  C   UNL A   1      35.956  29.646  28.866  1.00  0.00     0.010 A 
ATOM     24  C   UNL A   1      36.828  31.876  28.564  1.00  0.00     0.010 A 
ATOM     25  C   UNL A   1      36.990  30.573  29.065  1.00  0.00    -0.014 A 
BRANCH  25  26
ATOM     26  C   UNL A   1      38.213  30.179  29.824  1.00  0.00     0.031 A 
ATOM     27  C   UNL A   1      38.433  30.656  31.237  1.00  0.00     0.074 A 
ATOM     28  C   UNL A   1      39.134  29.378  29.251  1.00  0.00     0.049 A 
ATOM     29  N   UNL A   1      39.425  30.394  32.055  1.00  0.00    -0.248 NA
ATOM     30  C   UNL A   1      37.412  31.549  31.803  1.00  0.00     0.031 C 
ATOM     31  C   UNL A   1      39.065  28.856  27.887  1.00  0.00     0.029 A 
ATOM     32  N   UNL A   1      40.311  28.865  29.745  1.00  0.00    -0.354 N 
ATOM     33  C   UNL A   1      39.153  31.096  33.223  1.00  0.00     0.074 A 
ATOM     34  C   UNL A   1      37.918  31.818  33.000  1.00  0.00     0.031 C 
ATOM     35  C   UNL A   1      40.149  28.097  27.653  1.00  0.00     0.029 A 
ATOM     36  C   UNL A   1      40.998  28.093  28.842  1.00  0.00     0.049 A 
ATOM     37  H   UNL A   1      40.630  29.037  30.660  1.00  0.00     0.167 HD
ATOM     38  C   UNL A   1      39.859  31.125  34.380  1.00  0.00     0.037 A 
ATOM     39  C   UNL A   1      42.182  27.457  28.952  1.00  0.00     0.037 A 
ATOM     40  C   UNL A   1      41.069  30.383  34.627  1.00  0.00     0.049 A 
ATOM     41  C   UNL A   1      42.943  27.506  30.251  1.00  0.00     0.074 A 
ATOM     42  C   UNL A   1      41.802  30.296  35.801  1.00  0.00     0.029 A 
ATOM     43  N   UNL A   1      41.728  29.607  33.690  1.00  0.00    -0.354 N 
ATOM     44  N   UNL A   1      42.630  28.107  31.371  1.00  0.00    -0.248 NA
ATOM     45  C   UNL A   1      44.220  26.777  30.302  1.00  0.00     0.031 C 
ATOM     46  C   UNL A   1      42.927  29.501  35.560  1.00  0.00     0.029 A 
ATOM     47  C   UNL A   1      42.873  29.060  34.249  1.00  0.00     0.049 A 
ATOM     48  H   UNL A   1      41.429  29.464  32.763  1.00  0.00     0.167 HD
ATOM     49  C   UNL A   1      43.652  27.809  32.264  1.00  0.00     0.074 A 
ATOM     50  C   UNL A   1      44.590  26.961  31.561  1.00  0.00     0.031 C 
ATOM     51  C   UNL A   1      43.798  28.207  33.550  1.00  0.00     0.037 A 
BRANCH  38  52
ATOM     52  C   UNL A   1      39.346  31.988  35.495  1.00  0.00     0.064 A 
ATOM     53  C   UNL A   1      38.479  31.482  36.474  1.00  0.00     0.173 A 
ATOM     54  C   UNL A   1      39.805  33.306  35.639  1.00  0.00     0.173 A 
ATOM     55  F   UNL A   1      38.012  30.228  36.379  1.00  0.00    -0.203 F 
ATOM     56  C   UNL A   1      38.081  32.269  37.551  1.00  0.00     0.198 A 
ATOM     57  C   UNL A   1      39.421  34.083  36.730  1.00  0.00     0.198 A 
ATOM     58  F   UNL A   1      40.645  33.832  34.735  1.00  0.00    -0.203 F 
ATOM     59  F   UNL A   1      37.236  31.772  38.466  1.00  0.00    -0.200 F 
ATOM     60  C   UNL A   1      38.559  33.565  37.684  1.00  0.00     0.200 A 
ATOM     61  F   UNL A   1      39.897  35.329  36.863  1.00  0.00    -0.200 F 
ATOM     62  F   UNL A   1      38.190  34.313  38.732  1.00  0.00    -0.200 F 
ENDBRANCH  38  52
BRANCH  39  63
ATOM     63  C   UNL A   1      42.732  26.707  27.794  1.00  0.00     0.064 A 
ATOM     64  C   UNL A   1      42.478  25.338  27.629  1.00  0.00     0.173 A 
ATOM     65  C   UNL A   1      43.551  27.339  26.846  1.00  0.00     0.173 A 
ATOM     66  F   UNL A   1      41.722  24.686  28.524  1.00  0.00    -0.203 F 
ATOM     67  C   UNL A   1      43.042  24.624  26.574  1.00  0.00     0.198 A 
ATOM     68  C   UNL A   1      44.092  26.630  25.777  1.00  0.00     0.198 A 
ATOM     69  F   UNL A   1      43.824  28.647  26.960  1.00  0.00    -0.203 F 
ATOM     70  F   UNL A   1      42.825  23.307  26.468  1.00  0.00    -0.200 F 
ATOM     71  C   UNL A   1      43.844  25.271  25.646  1.00  0.00     0.200 A 
ATOM     72  F   UNL A   1      44.858  27.261  24.877  1.00  0.00    -0.200 F 
ATOM     73  F   UNL A   1      44.389  24.584  24.633  1.00  0.00    -0.200 F 
ENDBRANCH  39  63
BRANCH  51  74
ATOM     74  C   UNL A   1      45.001  27.710  34.297  1.00  0.00     0.064 A 
ATOM     75  C   UNL A   1      46.195  28.443  34.336  1.00  0.00     0.173 A 
ATOM     76  C   UNL A   1      44.946  26.505  35.014  1.00  0.00     0.173 A 
ATOM     77  F   UNL A   1      46.303  29.594  33.654  1.00  0.00    -0.203 F 
ATOM     78  C   UNL A   1      47.299  27.978  35.047  1.00  0.00     0.198 A 
ATOM     79  C   UNL A   1      46.042  26.054  35.744  1.00  0.00     0.198 A 
ATOM     80  F   UNL A   1      43.825  25.768  35.013  1.00  0.00    -0.203 F 
ATOM     81  F   UNL A   1      48.443  28.675  35.036  1.00  0.00    -0.200 F 
ATOM     82  C   UNL A   1      47.219  26.788  35.756  1.00  0.00     0.200 A 
ATOM     83  F   UNL A   1      45.961  24.910  36.436  1.00  0.00    -0.200 F 
ATOM     84  F   UNL A   1      48.281  26.344  36.443  1.00  0.00    -0.200 F 
ENDBRANCH  51  74
ENDBRANCH  25  26
ENDBRANCH  17  20
ENDBRANCH  15  16
ENDBRANCH  14  15
ENDBRANCH   1  14
TORSDOF 13
ENDMDL
