MODEL 1
REMARK VINA RESULT:     -12.5      0.000      0.000
REMARK SMILES CC1(CNS(=O)(=O)Cc2ccc(C(=O)NCCCNC(=O)c3ccc(-c4c5nc(c(-c6c(F)c(F)c(F)c(F)c6F)c6ccc([nH]6)c(-c6c(F)c(F)c(F)c(F)c6F)c6nc(c(-c7c(F)c(F)c(F)c(F)c7F)c7ccc4[nH]7)C=C6)C=C5)cc3)cc2)COC1
REMARK SMILES IDX 13 1 14 2 15 3 12 5 9 6 10 7 86 8 11 9 85 10 8 11 5 12 6 13
REMARK SMILES IDX 7 14 4 15 3 17 2 18 1 19 87 20 89 21 88 22 16 23 17 24 18 25
REMARK SMILES IDX 19 26 20 27 21 29 22 30 23 31 84 32 24 33 83 34 25 35 26 36
REMARK SMILES IDX 27 37 77 38 28 39 82 40 76 41 78 42 29 43 81 44 75 45 74 46
REMARK SMILES IDX 30 48 62 49 42 50 61 51 43 52 46 53 60 54 79 55 44 56 45 57
REMARK SMILES IDX 59 59 80 60 47 61 31 62 32 63 40 64 33 65 34 66 38 67 41 68
REMARK SMILES IDX 35 69 36 70 39 71 37 72 63 73 64 74 72 75 65 76 66 77 70 78
REMARK SMILES IDX 73 79 67 80 68 81 71 82 69 83 48 84 49 85 57 86 50 87 51 88
REMARK SMILES IDX 55 89 58 90 52 91 53 92 56 93 54 94
REMARK H PARENT 15 4 4 16 19 28 78 47 46 58
REMARK Flexibility Score: inf
ROOT
ATOM      1  C   UNL A   1      37.218  23.139  25.479  1.00  0.00     0.251 C 
ATOM      2  O   UNL A   1      37.753  24.006  26.169  1.00  0.00    -0.269 OA
ATOM      3  N   UNL A   1      37.770  21.886  25.481  1.00  0.00    -0.352 N 
ATOM      4  H   UNL A   1      38.592  21.808  26.017  1.00  0.00     0.163 HD
ENDROOT
BRANCH   1   5
ATOM      5  C   UNL A   1      35.980  23.473  24.725  1.00  0.00     0.039 A 
ATOM      6  C   UNL A   1      33.601  24.233  23.415  1.00  0.00    -0.032 A 
ATOM      7  C   UNL A   1      33.902  24.735  24.686  1.00  0.00     0.005 A 
ATOM      8  C   UNL A   1      34.497  23.344  22.811  1.00  0.00     0.005 A 
ATOM      9  C   UNL A   1      35.084  24.363  25.332  1.00  0.00     0.014 A 
ATOM     10  C   UNL A   1      35.689  22.998  23.446  1.00  0.00     0.014 A 
BRANCH   6  11
ATOM     11  C   UNL A   1      32.367  24.674  22.677  1.00  0.00     0.189 C 
BRANCH  11  12
ATOM     12  S   UNL A   1      32.777  25.978  21.497  1.00  0.00     0.215 S 
ATOM     13  O   UNL A   1      32.885  25.386  20.179  1.00  0.00    -0.212 OA
ATOM     14  O   UNL A   1      33.848  26.795  22.020  1.00  0.00    -0.212 OA
BRANCH  12  15
ATOM     15  N   UNL A   1      31.409  26.964  21.484  1.00  0.00    -0.214 NA
ATOM     16  H   UNL A   1      31.711  27.902  21.222  1.00  0.00     0.141 HD
BRANCH  15  17
ATOM     17  C   UNL A   1      30.643  27.080  22.737  1.00  0.00     0.110 C 
BRANCH  17  18
ATOM     18  C   UNL A   1      30.388  28.536  23.133  1.00  0.00     0.028 C 
ATOM     19  C   UNL A   1      30.923  28.930  24.502  1.00  0.00     0.018 C 
ATOM     20  C   UNL A   1      28.911  28.925  22.917  1.00  0.00     0.170 C 
ATOM     21  C   UNL A   1      30.643  29.544  21.996  1.00  0.00     0.170 C 
ATOM     22  O   UNL A   1      29.234  29.540  21.644  1.00  0.00    -0.380 OA
ENDBRANCH  17  18
ENDBRANCH  15  17
ENDBRANCH  12  15
ENDBRANCH  11  12
ENDBRANCH   6  11
ENDBRANCH   1   5
BRANCH   3  23
ATOM     23  C   UNL A   1      37.364  20.653  24.834  1.00  0.00     0.118 C 
BRANCH  23  24
ATOM     24  C   UNL A   1      38.429  19.572  25.009  1.00  0.00     0.042 C 
BRANCH  24  25
ATOM     25  C   UNL A   1      39.411  19.885  26.131  1.00  0.00     0.118 C 
BRANCH  25  26
ATOM     26  N   UNL A   1      40.552  18.980  26.113  1.00  0.00    -0.352 N 
ATOM     27  C   UNL A   1      41.894  19.255  26.067  1.00  0.00     0.251 C 
ATOM     28  H   UNL A   1      40.325  18.023  26.137  1.00  0.00     0.163 HD
ATOM     29  O   UNL A   1      42.688  18.360  25.792  1.00  0.00    -0.269 OA
BRANCH  27  30
ATOM     30  C   UNL A   1      42.387  20.618  26.346  1.00  0.00     0.039 A 
ATOM     31  C   UNL A   1      42.719  21.447  25.270  1.00  0.00     0.014 A 
ATOM     32  C   UNL A   1      42.565  21.065  27.658  1.00  0.00     0.014 A 
ATOM     33  C   UNL A   1      43.187  22.738  25.512  1.00  0.00     0.010 A 
ATOM     34  C   UNL A   1      42.949  22.381  27.895  1.00  0.00     0.010 A 
ATOM     35  C   UNL A   1      43.275  23.226  26.826  1.00  0.00    -0.014 A 
BRANCH  35  36
ATOM     36  C   UNL A   1      43.710  24.618  27.098  1.00  0.00     0.031 A 
ATOM     37  C   UNL A   1      42.724  25.637  27.595  1.00  0.00     0.074 A 
ATOM     38  C   UNL A   1      44.979  24.976  26.832  1.00  0.00     0.049 A 
ATOM     39  N   UNL A   1      42.901  26.912  27.835  1.00  0.00    -0.248 NA
ATOM     40  C   UNL A   1      41.349  25.167  27.823  1.00  0.00     0.031 C 
ATOM     41  C   UNL A   1      46.010  24.087  26.295  1.00  0.00     0.029 A 
ATOM     42  N   UNL A   1      45.615  26.184  26.962  1.00  0.00    -0.354 N 
ATOM     43  C   UNL A   1      41.660  27.396  28.227  1.00  0.00     0.074 A 
ATOM     44  C   UNL A   1      40.727  26.294  28.132  1.00  0.00     0.031 C 
ATOM     45  C   UNL A   1      47.156  24.772  26.162  1.00  0.00     0.029 A 
ATOM     46  C   UNL A   1      46.928  26.158  26.563  1.00  0.00     0.049 A 
ATOM     47  H   UNL A   1      45.173  26.992  27.309  1.00  0.00     0.167 HD
ATOM     48  C   UNL A   1      41.334  28.642  28.650  1.00  0.00     0.037 A 
ATOM     49  C   UNL A   1      47.844  27.144  26.512  1.00  0.00     0.037 A 
ATOM     50  C   UNL A   1      42.274  29.729  28.746  1.00  0.00     0.049 A 
ATOM     51  C   UNL A   1      47.459  28.522  26.975  1.00  0.00     0.074 A 
ATOM     52  C   UNL A   1      42.065  31.012  29.221  1.00  0.00     0.029 A 
ATOM     53  N   UNL A   1      43.602  29.664  28.345  1.00  0.00    -0.354 N 
ATOM     54  N   UNL A   1      46.304  28.953  27.421  1.00  0.00    -0.248 NA
ATOM     55  C   UNL A   1      48.508  29.549  26.934  1.00  0.00     0.031 C 
ATOM     56  C   UNL A   1      43.246  31.741  29.045  1.00  0.00     0.029 A 
ATOM     57  C   UNL A   1      44.215  30.894  28.528  1.00  0.00     0.049 A 
ATOM     58  H   UNL A   1      44.044  28.862  27.983  1.00  0.00     0.167 HD
ATOM     59  C   UNL A   1      46.490  30.291  27.737  1.00  0.00     0.074 A 
ATOM     60  C   UNL A   1      47.877  30.596  27.446  1.00  0.00     0.031 C 
ATOM     61  C   UNL A   1      45.595  31.185  28.227  1.00  0.00     0.037 A 
BRANCH  48  62
ATOM     62  C   UNL A   1      39.899  28.892  29.021  1.00  0.00     0.064 A 
ATOM     63  C   UNL A   1      39.428  28.708  30.331  1.00  0.00     0.173 A 
ATOM     64  C   UNL A   1      38.977  29.321  28.052  1.00  0.00     0.173 A 
ATOM     65  F   UNL A   1      40.261  28.291  31.297  1.00  0.00    -0.203 F 
ATOM     66  C   UNL A   1      38.083  28.893  30.646  1.00  0.00     0.198 A 
ATOM     67  C   UNL A   1      37.642  29.544  28.379  1.00  0.00     0.198 A 
ATOM     68  F   UNL A   1      39.371  29.521  26.786  1.00  0.00    -0.203 F 
ATOM     69  F   UNL A   1      37.645  28.639  31.886  1.00  0.00    -0.200 F 
ATOM     70  C   UNL A   1      37.192  29.316  29.670  1.00  0.00     0.200 A 
ATOM     71  F   UNL A   1      36.786  29.968  27.439  1.00  0.00    -0.200 F 
ATOM     72  F   UNL A   1      35.899  29.492  29.973  1.00  0.00    -0.200 F 
ENDBRANCH  48  62
BRANCH  49  73
ATOM     73  C   UNL A   1      49.215  26.843  26.027  1.00  0.00     0.064 A 
ATOM     74  C   UNL A   1      50.187  26.319  26.889  1.00  0.00     0.173 A 
ATOM     75  C   UNL A   1      49.570  27.037  24.683  1.00  0.00     0.173 A 
ATOM     76  F   UNL A   1      49.901  26.132  28.185  1.00  0.00    -0.203 F 
ATOM     77  C   UNL A   1      51.465  26.010  26.429  1.00  0.00     0.198 A 
ATOM     78  C   UNL A   1      50.838  26.700  24.217  1.00  0.00     0.198 A 
ATOM     79  F   UNL A   1      48.672  27.528  23.816  1.00  0.00    -0.203 F 
ATOM     80  F   UNL A   1      52.387  25.542  27.281  1.00  0.00    -0.200 F 
ATOM     81  C   UNL A   1      51.787  26.192  25.091  1.00  0.00     0.200 A 
ATOM     82  F   UNL A   1      51.138  26.859  22.921  1.00  0.00    -0.200 F 
ATOM     83  F   UNL A   1      53.011  25.879  24.646  1.00  0.00    -0.200 F 
ENDBRANCH  49  73
BRANCH  61  84
ATOM     84  C   UNL A   1      46.093  32.575  28.508  1.00  0.00     0.064 A 
ATOM     85  C   UNL A   1      46.663  32.923  29.742  1.00  0.00     0.173 A 
ATOM     86  C   UNL A   1      46.035  33.563  27.512  1.00  0.00     0.173 A 
ATOM     87  F   UNL A   1      46.728  32.021  30.734  1.00  0.00    -0.203 F 
ATOM     88  C   UNL A   1      47.129  34.213  29.977  1.00  0.00     0.198 A 
ATOM     89  C   UNL A   1      46.536  34.841  27.739  1.00  0.00     0.198 A 
ATOM     90  F   UNL A   1      45.507  33.283  26.311  1.00  0.00    -0.203 F 
ATOM     91  F   UNL A   1      47.621  34.536  31.182  1.00  0.00    -0.200 F 
ATOM     92  C   UNL A   1      47.074  35.168  28.973  1.00  0.00     0.200 A 
ATOM     93  F   UNL A   1      46.497  35.757  26.762  1.00  0.00    -0.200 F 
ATOM     94  F   UNL A   1      47.534  36.406  29.199  1.00  0.00    -0.200 F 
ENDBRANCH  61  84
ENDBRANCH  35  36
ENDBRANCH  27  30
ENDBRANCH  25  26
ENDBRANCH  24  25
ENDBRANCH  23  24
ENDBRANCH   3  23
TORSDOF 15
ENDMDL
MODEL 2
REMARK VINA RESULT:     -12.2      6.064     11.482
REMARK SMILES CC1(CNS(=O)(=O)Cc2ccc(C(=O)NCCCNC(=O)c3ccc(-c4c5nc(c(-c6c(F)c(F)c(F)c(F)c6F)c6ccc([nH]6)c(-c6c(F)c(F)c(F)c(F)c6F)c6nc(c(-c7c(F)c(F)c(F)c(F)c7F)c7ccc4[nH]7)C=C6)C=C5)cc3)cc2)COC1
REMARK SMILES IDX 13 1 14 2 15 3 12 5 9 6 10 7 86 8 11 9 85 10 8 11 5 12 6 13
REMARK SMILES IDX 7 14 4 15 3 17 2 18 1 19 87 20 89 21 88 22 16 23 17 24 18 25
REMARK SMILES IDX 19 26 20 27 21 29 22 30 23 31 84 32 24 33 83 34 25 35 26 36
REMARK SMILES IDX 27 37 77 38 28 39 82 40 76 41 78 42 29 43 81 44 75 45 74 46
REMARK SMILES IDX 30 48 62 49 42 50 61 51 43 52 46 53 60 54 79 55 44 56 45 57
REMARK SMILES IDX 59 59 80 60 47 61 31 62 32 63 40 64 33 65 34 66 38 67 41 68
REMARK SMILES IDX 35 69 36 70 39 71 37 72 63 73 64 74 72 75 65 76 66 77 70 78
REMARK SMILES IDX 73 79 67 80 68 81 71 82 69 83 48 84 49 85 57 86 50 87 51 88
REMARK SMILES IDX 55 89 58 90 52 91 53 92 56 93 54 94
REMARK H PARENT 15 4 4 16 19 28 78 47 46 58
REMARK Flexibility Score: inf
ROOT
ATOM      1  C   UNL A   1      33.596  29.192  27.132  1.00  0.00     0.251 C 
ATOM      2  O   UNL A   1      34.748  29.121  27.559  1.00  0.00    -0.269 OA
ATOM      3  N   UNL A   1      33.014  30.429  27.059  1.00  0.00    -0.352 N 
ATOM      4  H   UNL A   1      33.574  31.160  27.404  1.00  0.00     0.163 HD
ENDROOT
BRANCH   1   5
ATOM      5  C   UNL A   1      32.915  27.951  26.672  1.00  0.00     0.039 A 
ATOM      6  C   UNL A   1      31.783  25.540  25.747  1.00  0.00    -0.032 A 
ATOM      7  C   UNL A   1      33.106  25.869  25.432  1.00  0.00     0.005 A 
ATOM      8  C   UNL A   1      31.032  26.431  26.523  1.00  0.00     0.005 A 
ATOM      9  C   UNL A   1      33.668  27.062  25.895  1.00  0.00     0.014 A 
ATOM     10  C   UNL A   1      31.606  27.605  27.008  1.00  0.00     0.014 A 
BRANCH   6  11
ATOM     11  C   UNL A   1      31.182  24.232  25.313  1.00  0.00     0.189 C 
BRANCH  11  12
ATOM     12  S   UNL A   1      31.293  23.020  26.647  1.00  0.00     0.215 S 
ATOM     13  O   UNL A   1      30.082  23.097  27.438  1.00  0.00    -0.212 OA
ATOM     14  O   UNL A   1      32.588  23.107  27.283  1.00  0.00    -0.212 OA
BRANCH  12  15
ATOM     15  N   UNL A   1      31.269  21.532  25.852  1.00  0.00    -0.214 NA
ATOM     16  H   UNL A   1      31.504  20.815  26.538  1.00  0.00     0.141 HD
BRANCH  15  17
ATOM     17  C   UNL A   1      32.177  21.360  24.705  1.00  0.00     0.110 C 
BRANCH  17  18
ATOM     18  C   UNL A   1      33.141  20.186  24.893  1.00  0.00     0.028 C 
ATOM     19  C   UNL A   1      34.614  20.537  24.740  1.00  0.00     0.018 C 
ATOM     20  C   UNL A   1      32.711  18.967  24.053  1.00  0.00     0.170 C 
ATOM     21  C   UNL A   1      32.787  19.277  26.086  1.00  0.00     0.170 C 
ATOM     22  O   UNL A   1      32.072  18.366  25.209  1.00  0.00    -0.380 OA
ENDBRANCH  17  18
ENDBRANCH  15  17
ENDBRANCH  12  15
ENDBRANCH  11  12
ENDBRANCH   6  11
ENDBRANCH   1   5
BRANCH   3  23
ATOM     23  C   UNL A   1      31.718  30.855  26.564  1.00  0.00     0.118 C 
BRANCH  23  24
ATOM     24  C   UNL A   1      31.514  32.351  26.798  1.00  0.00     0.042 C 
BRANCH  24  25
ATOM     25  C   UNL A   1      32.812  33.082  27.122  1.00  0.00     0.118 C 
BRANCH  25  26
ATOM     26  N   UNL A   1      32.558  34.407  27.672  1.00  0.00    -0.352 N 
ATOM     27  C   UNL A   1      33.046  34.997  28.809  1.00  0.00     0.251 C 
ATOM     28  H   UNL A   1      31.942  34.965  27.146  1.00  0.00     0.163 HD
ATOM     29  O   UNL A   1      32.513  36.014  29.241  1.00  0.00    -0.269 OA
BRANCH  27  30
ATOM     30  C   UNL A   1      34.207  34.416  29.513  1.00  0.00     0.039 A 
ATOM     31  C   UNL A   1      33.989  33.707  30.698  1.00  0.00     0.014 A 
ATOM     32  C   UNL A   1      35.507  34.604  29.036  1.00  0.00     0.014 A 
ATOM     33  C   UNL A   1      35.071  33.150  31.378  1.00  0.00     0.010 A 
ATOM     34  C   UNL A   1      36.574  33.976  29.669  1.00  0.00     0.010 A 
ATOM     35  C   UNL A   1      36.369  33.254  30.853  1.00  0.00    -0.014 A 
BRANCH  35  36
ATOM     36  C   UNL A   1      37.523  32.614  31.529  1.00  0.00     0.031 A 
ATOM     37  C   UNL A   1      38.228  31.452  30.891  1.00  0.00     0.074 A 
ATOM     38  C   UNL A   1      37.889  33.040  32.752  1.00  0.00     0.049 A 
ATOM     39  N   UNL A   1      39.216  30.727  31.352  1.00  0.00    -0.248 NA
ATOM     40  C   UNL A   1      37.737  31.028  29.570  1.00  0.00     0.031 C 
ATOM     41  C   UNL A   1      37.244  34.123  33.495  1.00  0.00     0.029 A 
ATOM     42  N   UNL A   1      38.883  32.606  33.592  1.00  0.00    -0.354 N 
ATOM     43  C   UNL A   1      39.453  29.757  30.387  1.00  0.00     0.074 A 
ATOM     44  C   UNL A   1      38.466  29.945  29.347  1.00  0.00     0.031 C 
ATOM     45  C   UNL A   1      37.871  34.285  34.669  1.00  0.00     0.029 A 
ATOM     46  C   UNL A   1      38.933  33.290  34.781  1.00  0.00     0.049 A 
ATOM     47  H   UNL A   1      39.502  31.876  33.363  1.00  0.00     0.167 HD
ATOM     48  C   UNL A   1      40.422  28.809  30.363  1.00  0.00     0.037 A 
ATOM     49  C   UNL A   1      39.736  33.124  35.848  1.00  0.00     0.037 A 
ATOM     50  C   UNL A   1      41.403  28.635  31.402  1.00  0.00     0.049 A 
ATOM     51  C   UNL A   1      40.797  32.059  35.806  1.00  0.00     0.074 A 
ATOM     52  C   UNL A   1      42.465  27.750  31.448  1.00  0.00     0.029 A 
ATOM     53  N   UNL A   1      41.433  29.356  32.590  1.00  0.00    -0.354 N 
ATOM     54  N   UNL A   1      41.067  31.198  34.855  1.00  0.00    -0.248 NA
ATOM     55  C   UNL A   1      41.670  31.949  36.981  1.00  0.00     0.031 C 
ATOM     56  C   UNL A   1      43.096  27.887  32.690  1.00  0.00     0.029 A 
ATOM     57  C   UNL A   1      42.473  28.909  33.391  1.00  0.00     0.049 A 
ATOM     58  H   UNL A   1      40.807  30.077  32.828  1.00  0.00     0.167 HD
ATOM     59  C   UNL A   1      42.153  30.459  35.304  1.00  0.00     0.074 A 
ATOM     60  C   UNL A   1      42.502  30.987  36.608  1.00  0.00     0.031 C 
ATOM     61  C   UNL A   1      42.804  29.439  34.690  1.00  0.00     0.037 A 
BRANCH  48  62
ATOM     62  C   UNL A   1      40.450  27.881  29.179  1.00  0.00     0.064 A 
ATOM     63  C   UNL A   1      39.697  26.696  29.147  1.00  0.00     0.173 A 
ATOM     64  C   UNL A   1      41.241  28.180  28.059  1.00  0.00     0.173 A 
ATOM     65  F   UNL A   1      38.929  26.354  30.193  1.00  0.00    -0.203 F 
ATOM     66  C   UNL A   1      39.775  25.823  28.065  1.00  0.00     0.198 A 
ATOM     67  C   UNL A   1      41.286  27.324  26.961  1.00  0.00     0.198 A 
ATOM     68  F   UNL A   1      41.975  29.302  28.029  1.00  0.00    -0.203 F 
ATOM     69  F   UNL A   1      39.105  24.663  28.092  1.00  0.00    -0.200 F 
ATOM     70  C   UNL A   1      40.565  26.140  26.970  1.00  0.00     0.200 A 
ATOM     71  F   UNL A   1      42.038  27.641  25.897  1.00  0.00    -0.200 F 
ATOM     72  F   UNL A   1      40.641  25.299  25.931  1.00  0.00    -0.200 F 
ENDBRANCH  48  62
BRANCH  49  73
ATOM     73  C   UNL A   1      39.574  34.010  37.030  1.00  0.00     0.064 A 
ATOM     74  C   UNL A   1      38.800  33.615  38.128  1.00  0.00     0.173 A 
ATOM     75  C   UNL A   1      40.221  35.253  37.101  1.00  0.00     0.173 A 
ATOM     76  F   UNL A   1      38.148  32.443  38.100  1.00  0.00    -0.203 F 
ATOM     77  C   UNL A   1      38.670  34.432  39.248  1.00  0.00     0.198 A 
ATOM     78  C   UNL A   1      40.115  36.057  38.233  1.00  0.00     0.198 A 
ATOM     79  F   UNL A   1      40.982  35.673  36.079  1.00  0.00    -0.203 F 
ATOM     80  F   UNL A   1      37.896  34.045  40.271  1.00  0.00    -0.200 F 
ATOM     81  C   UNL A   1      39.335  35.648  39.304  1.00  0.00     0.200 A 
ATOM     82  F   UNL A   1      40.775  37.221  38.291  1.00  0.00    -0.200 F 
ATOM     83  F   UNL A   1      39.222  36.427  40.389  1.00  0.00    -0.200 F 
ENDBRANCH  49  73
BRANCH  61  84
ATOM     84  C   UNL A   1      43.981  28.843  35.409  1.00  0.00     0.064 A 
ATOM     85  C   UNL A   1      45.270  29.387  35.299  1.00  0.00     0.173 A 
ATOM     86  C   UNL A   1      43.808  27.733  36.251  1.00  0.00     0.173 A 
ATOM     87  F   UNL A   1      45.494  30.438  34.495  1.00  0.00    -0.203 F 
ATOM     88  C   UNL A   1      46.345  28.825  35.984  1.00  0.00     0.198 A 
ATOM     89  C   UNL A   1      44.878  27.198  36.962  1.00  0.00     0.198 A 
ATOM     90  F   UNL A   1      42.596  27.177  36.398  1.00  0.00    -0.203 F 
ATOM     91  F   UNL A   1      47.576  29.330  35.822  1.00  0.00    -0.200 F 
ATOM     92  C   UNL A   1      46.146  27.737  36.821  1.00  0.00     0.200 A 
ATOM     93  F   UNL A   1      44.681  26.158  37.784  1.00  0.00    -0.200 F 
ATOM     94  F   UNL A   1      47.181  27.206  37.487  1.00  0.00    -0.200 F 
ENDBRANCH  61  84
ENDBRANCH  35  36
ENDBRANCH  27  30
ENDBRANCH  25  26
ENDBRANCH  24  25
ENDBRANCH  23  24
ENDBRANCH   3  23
TORSDOF 15
ENDMDL
MODEL 3
REMARK VINA RESULT:     -12.2      0.578      1.814
REMARK SMILES CC1(CNS(=O)(=O)Cc2ccc(C(=O)NCCCNC(=O)c3ccc(-c4c5nc(c(-c6c(F)c(F)c(F)c(F)c6F)c6ccc([nH]6)c(-c6c(F)c(F)c(F)c(F)c6F)c6nc(c(-c7c(F)c(F)c(F)c(F)c7F)c7ccc4[nH]7)C=C6)C=C5)cc3)cc2)COC1
REMARK SMILES IDX 13 1 14 2 15 3 12 5 9 6 10 7 86 8 11 9 85 10 8 11 5 12 6 13
REMARK SMILES IDX 7 14 4 15 3 17 2 18 1 19 87 20 89 21 88 22 16 23 17 24 18 25
REMARK SMILES IDX 19 26 20 27 21 29 22 30 23 31 84 32 24 33 83 34 25 35 26 36
REMARK SMILES IDX 27 37 77 38 28 39 82 40 76 41 78 42 29 43 81 44 75 45 74 46
REMARK SMILES IDX 30 48 62 49 42 50 61 51 43 52 46 53 60 54 79 55 44 56 45 57
REMARK SMILES IDX 59 59 80 60 47 61 31 62 32 63 40 64 33 65 34 66 38 67 41 68
REMARK SMILES IDX 35 69 36 70 39 71 37 72 63 73 64 74 72 75 65 76 66 77 70 78
REMARK SMILES IDX 73 79 67 80 68 81 71 82 69 83 48 84 49 85 57 86 50 87 51 88
REMARK SMILES IDX 55 89 58 90 52 91 53 92 56 93 54 94
REMARK H PARENT 15 4 4 16 19 28 78 47 46 58
REMARK Flexibility Score: inf
ROOT
ATOM      1  C   UNL A   1      37.374  23.185  25.529  1.00  0.00     0.251 C 
ATOM      2  O   UNL A   1      37.955  24.006  26.238  1.00  0.00    -0.269 OA
ATOM      3  N   UNL A   1      37.879  21.914  25.475  1.00  0.00    -0.352 N 
ATOM      4  H   UNL A   1      38.707  21.785  25.991  1.00  0.00     0.163 HD
ENDROOT
BRANCH   1   5
ATOM      5  C   UNL A   1      36.136  23.593  24.813  1.00  0.00     0.039 A 
ATOM      6  C   UNL A   1      33.829  24.248  23.329  1.00  0.00    -0.032 A 
ATOM      7  C   UNL A   1      34.825  23.439  22.771  1.00  0.00     0.005 A 
ATOM      8  C   UNL A   1      34.002  24.730  24.631  1.00  0.00     0.005 A 
ATOM      9  C   UNL A   1      35.965  23.110  23.509  1.00  0.00     0.014 A 
ATOM     10  C   UNL A   1      35.126  24.376  25.375  1.00  0.00     0.014 A 
BRANCH   6  11
ATOM     11  C   UNL A   1      32.565  24.557  22.574  1.00  0.00     0.189 C 
BRANCH  11  12
ATOM     12  S   UNL A   1      32.828  25.955  21.462  1.00  0.00     0.215 S 
ATOM     13  O   UNL A   1      32.852  25.459  20.100  1.00  0.00    -0.212 OA
ATOM     14  O   UNL A   1      33.907  26.781  21.957  1.00  0.00    -0.212 OA
BRANCH  12  15
ATOM     15  N   UNL A   1      31.427  26.879  21.625  1.00  0.00    -0.214 NA
ATOM     16  H   UNL A   1      31.098  27.104  20.687  1.00  0.00     0.141 HD
BRANCH  15  17
ATOM     17  C   UNL A   1      31.532  28.145  22.373  1.00  0.00     0.110 C 
BRANCH  17  18
ATOM     18  C   UNL A   1      30.526  28.230  23.523  1.00  0.00     0.028 C 
ATOM     19  C   UNL A   1      30.013  29.631  23.822  1.00  0.00     0.018 C 
ATOM     20  C   UNL A   1      31.039  27.485  24.772  1.00  0.00     0.170 C 
ATOM     21  C   UNL A   1      29.463  27.115  23.503  1.00  0.00     0.170 C 
ATOM     22  O   UNL A   1      30.246  26.319  24.432  1.00  0.00    -0.380 OA
ENDBRANCH  17  18
ENDBRANCH  15  17
ENDBRANCH  12  15
ENDBRANCH  11  12
ENDBRANCH   6  11
ENDBRANCH   1   5
BRANCH   3  23
ATOM     23  C   UNL A   1      37.413  20.721  24.793  1.00  0.00     0.118 C 
BRANCH  23  24
ATOM     24  C   UNL A   1      38.383  19.561  25.006  1.00  0.00     0.042 C 
BRANCH  24  25
ATOM     25  C   UNL A   1      39.337  19.793  26.173  1.00  0.00     0.118 C 
BRANCH  25  26
ATOM     26  N   UNL A   1      40.479  18.891  26.120  1.00  0.00    -0.352 N 
ATOM     27  C   UNL A   1      41.819  19.170  26.046  1.00  0.00     0.251 C 
ATOM     28  H   UNL A   1      40.254  17.933  26.140  1.00  0.00     0.163 HD
ATOM     29  O   UNL A   1      42.609  18.280  25.744  1.00  0.00    -0.269 OA
BRANCH  27  30
ATOM     30  C   UNL A   1      42.314  20.532  26.327  1.00  0.00     0.039 A 
ATOM     31  C   UNL A   1      42.671  21.353  25.254  1.00  0.00     0.014 A 
ATOM     32  C   UNL A   1      42.471  20.984  27.640  1.00  0.00     0.014 A 
ATOM     33  C   UNL A   1      43.141  22.643  25.497  1.00  0.00     0.010 A 
ATOM     34  C   UNL A   1      42.859  22.299  27.877  1.00  0.00     0.010 A 
ATOM     35  C   UNL A   1      43.209  23.137  26.810  1.00  0.00    -0.014 A 
BRANCH  35  36
ATOM     36  C   UNL A   1      43.647  24.527  27.083  1.00  0.00     0.031 A 
ATOM     37  C   UNL A   1      42.663  25.550  27.574  1.00  0.00     0.074 A 
ATOM     38  C   UNL A   1      44.919  24.880  26.823  1.00  0.00     0.049 A 
ATOM     39  N   UNL A   1      42.842  26.824  27.813  1.00  0.00    -0.248 NA
ATOM     40  C   UNL A   1      41.285  25.085  27.796  1.00  0.00     0.031 C 
ATOM     41  C   UNL A   1      45.950  23.988  26.293  1.00  0.00     0.029 A 
ATOM     42  N   UNL A   1      45.559  26.087  26.955  1.00  0.00    -0.354 N 
ATOM     43  C   UNL A   1      41.601  27.313  28.198  1.00  0.00     0.074 A 
ATOM     44  C   UNL A   1      40.665  26.215  28.100  1.00  0.00     0.031 C 
ATOM     45  C   UNL A   1      47.098  24.669  26.165  1.00  0.00     0.029 A 
ATOM     46  C   UNL A   1      46.874  26.056  26.564  1.00  0.00     0.049 A 
ATOM     47  H   UNL A   1      45.118  26.897  27.299  1.00  0.00     0.167 HD
ATOM     48  C   UNL A   1      41.277  28.561  28.619  1.00  0.00     0.037 A 
ATOM     49  C   UNL A   1      47.793  27.039  26.517  1.00  0.00     0.037 A 
ATOM     50  C   UNL A   1      42.220  29.645  28.718  1.00  0.00     0.049 A 
ATOM     51  C   UNL A   1      47.411  28.418  26.976  1.00  0.00     0.074 A 
ATOM     52  C   UNL A   1      42.013  30.929  29.191  1.00  0.00     0.029 A 
ATOM     53  N   UNL A   1      43.550  29.575  28.325  1.00  0.00    -0.354 N 
ATOM     54  N   UNL A   1      46.254  28.854  27.415  1.00  0.00    -0.248 NA
ATOM     55  C   UNL A   1      48.463  29.442  26.940  1.00  0.00     0.031 C 
ATOM     56  C   UNL A   1      43.198  31.654  29.020  1.00  0.00     0.029 A 
ATOM     57  C   UNL A   1      44.166  30.803  28.509  1.00  0.00     0.049 A 
ATOM     58  H   UNL A   1      43.991  28.771  27.966  1.00  0.00     0.167 HD
ATOM     59  C   UNL A   1      46.443  30.192  27.731  1.00  0.00     0.074 A 
ATOM     60  C   UNL A   1      47.833  30.492  27.447  1.00  0.00     0.031 C 
ATOM     61  C   UNL A   1      45.549  31.089  28.216  1.00  0.00     0.037 A 
BRANCH  48  62
ATOM     62  C   UNL A   1      39.841  28.816  28.982  1.00  0.00     0.064 A 
ATOM     63  C   UNL A   1      38.903  29.262  28.037  1.00  0.00     0.173 A 
ATOM     64  C   UNL A   1      39.392  28.611  30.297  1.00  0.00     0.173 A 
ATOM     65  F   UNL A   1      39.277  29.483  26.766  1.00  0.00    -0.203 F 
ATOM     66  C   UNL A   1      37.589  29.542  28.403  1.00  0.00     0.198 A 
ATOM     67  C   UNL A   1      38.067  28.854  30.650  1.00  0.00     0.198 A 
ATOM     68  F   UNL A   1      40.240  28.178  31.241  1.00  0.00    -0.203 F 
ATOM     69  F   UNL A   1      36.734  30.038  27.498  1.00  0.00    -0.200 F 
ATOM     70  C   UNL A   1      37.170  29.333  29.708  1.00  0.00     0.200 A 
ATOM     71  F   UNL A   1      37.661  28.636  31.910  1.00  0.00    -0.200 F 
ATOM     72  F   UNL A   1      35.907  29.605  30.060  1.00  0.00    -0.200 F 
ENDBRANCH  48  62
BRANCH  49  73
ATOM     73  C   UNL A   1      49.166  26.733  26.038  1.00  0.00     0.064 A 
ATOM     74  C   UNL A   1      49.537  26.973  24.709  1.00  0.00     0.173 A 
ATOM     75  C   UNL A   1      50.145  26.232  26.910  1.00  0.00     0.173 A 
ATOM     76  F   UNL A   1      48.631  27.435  23.834  1.00  0.00    -0.203 F 
ATOM     77  C   UNL A   1      50.832  26.713  24.266  1.00  0.00     0.198 A 
ATOM     78  C   UNL A   1      51.447  26.001  26.473  1.00  0.00     0.198 A 
ATOM     79  F   UNL A   1      49.842  25.995  28.194  1.00  0.00    -0.203 F 
ATOM     80  F   UNL A   1      51.152  26.919  22.981  1.00  0.00    -0.200 F 
ATOM     81  C   UNL A   1      51.788  26.237  25.150  1.00  0.00     0.200 A 
ATOM     82  F   UNL A   1      52.372  25.559  27.335  1.00  0.00    -0.200 F 
ATOM     83  F   UNL A   1      53.038  26.003  24.727  1.00  0.00    -0.200 F 
ENDBRANCH  49  73
BRANCH  61  84
ATOM     84  C   UNL A   1      46.050  32.477  28.497  1.00  0.00     0.064 A 
ATOM     85  C   UNL A   1      46.649  32.815  29.721  1.00  0.00     0.173 A 
ATOM     86  C   UNL A   1      45.966  33.475  27.513  1.00  0.00     0.173 A 
ATOM     87  F   UNL A   1      46.741  31.903  30.702  1.00  0.00    -0.203 F 
ATOM     88  C   UNL A   1      47.118  34.104  29.957  1.00  0.00     0.198 A 
ATOM     89  C   UNL A   1      46.469  34.752  27.740  1.00  0.00     0.198 A 
ATOM     90  F   UNL A   1      45.409  33.205  26.323  1.00  0.00    -0.203 F 
ATOM     91  F   UNL A   1      47.638  34.417  31.153  1.00  0.00    -0.200 F 
ATOM     92  C   UNL A   1      47.036  35.069  28.964  1.00  0.00     0.200 A 
ATOM     93  F   UNL A   1      46.404  35.677  26.773  1.00  0.00    -0.200 F 
ATOM     94  F   UNL A   1      47.497  36.306  29.191  1.00  0.00    -0.200 F 
ENDBRANCH  61  84
ENDBRANCH  35  36
ENDBRANCH  27  30
ENDBRANCH  25  26
ENDBRANCH  24  25
ENDBRANCH  23  24
ENDBRANCH   3  23
TORSDOF 15
ENDMDL
