MODEL 1
REMARK VINA RESULT:     -10.8      0.000      0.000
REMARK SMILES COc1ccccc1C[N@@H+](C)[C@@H](C)c1ccc(C(=O)NCCCNC(=O)c2ccc(-c3c4nc(c(-c5c(F)c(F)c(F)c(F)c5F)c5ccc([nH]5)c(-c5c(F)c(F)c(F)c(F)c5F)c5nc(c(-c6c(F)c(F)c(F)c(F)c6F)c6ccc3[nH]6)C=C5)C=C4)cc2)o1
REMARK SMILES IDX 18 1 19 2 20 3 17 5 14 6 15 7 90 8 16 9 12 10 13 11 10 12
REMARK SMILES IDX 11 13 9 15 8 16 3 17 4 18 5 19 7 20 6 21 2 22 1 23 21 24
REMARK SMILES IDX 22 25 23 26 24 27 25 28 26 30 27 31 28 32 89 33 29 34 88 35
REMARK SMILES IDX 30 36 31 37 32 38 82 39 33 40 87 41 81 42 83 43 34 44 86 45
REMARK SMILES IDX 80 46 79 47 35 49 67 50 47 51 66 52 48 53 51 54 65 55 84 56
REMARK SMILES IDX 49 57 50 58 64 60 85 61 52 62 36 63 37 64 45 65 38 66 39 67
REMARK SMILES IDX 43 68 46 69 40 70 41 71 44 72 42 73 68 74 69 75 77 76 70 77
REMARK SMILES IDX 71 78 75 79 78 80 72 81 73 82 76 83 74 84 53 85 54 86 62 87
REMARK SMILES IDX 55 88 56 89 60 90 63 91 57 92 58 93 61 94 59 95
REMARK H PARENT 20 4 10 14 24 29 83 48 51 59
REMARK Flexibility Score: inf
ROOT
ATOM      1  C   UNL A   1      44.063  19.072  25.444  1.00  0.00     0.287 C 
ATOM      2  O   UNL A   1      44.787  18.077  25.318  1.00  0.00    -0.266 OA
ATOM      3  N   UNL A   1      42.865  18.839  26.078  1.00  0.00    -0.349 N 
ATOM      4  H   UNL A   1      42.868  18.082  26.707  1.00  0.00     0.163 HD
ENDROOT
BRANCH   1   5
ATOM      5  C   UNL A   1      44.436  20.405  25.023  1.00  0.00     0.191 A 
ATOM      6  C   UNL A   1      44.462  22.600  25.335  1.00  0.00     0.161 A 
ATOM      7  C   UNL A   1      44.950  22.380  24.064  1.00  0.00     0.053 A 
ATOM      8  O   UNL A   1      44.221  21.405  25.935  1.00  0.00    -0.450 OA
ATOM      9  C   UNL A   1      44.963  20.974  23.877  1.00  0.00     0.057 A 
BRANCH   6  10
ATOM     10  C   UNL A   1      44.249  23.850  26.144  1.00  0.00     0.248 C 
ATOM     11  C   UNL A   1      43.558  24.930  25.300  1.00  0.00     0.084 C 
BRANCH  10  12
ATOM     12  N   UNL A   1      45.445  24.265  26.931  1.00  0.00    -0.325 N 
ATOM     13  C   UNL A   1      45.269  23.884  28.340  1.00  0.00     0.333 C 
ATOM     14  H   UNL A   1      46.228  23.781  26.492  1.00  0.00     0.348 HD
BRANCH  12  15
ATOM     15  C   UNL A   1      45.755  25.711  26.885  1.00  0.00     0.303 C 
BRANCH  15  16
ATOM     16  C   UNL A   1      46.899  26.127  25.993  1.00  0.00     0.048 A 
ATOM     17  C   UNL A   1      48.114  25.427  25.970  1.00  0.00     0.127 A 
ATOM     18  C   UNL A   1      49.146  25.813  25.111  1.00  0.00     0.047 A 
ATOM     19  C   UNL A   1      48.975  26.896  24.249  1.00  0.00     0.004 A 
ATOM     20  C   UNL A   1      46.741  27.215  25.114  1.00  0.00     0.013 A 
ATOM     21  C   UNL A   1      47.773  27.599  24.253  1.00  0.00     0.001 A 
BRANCH  17  22
ATOM     22  O   UNL A   1      48.383  24.460  26.903  1.00  0.00    -0.496 OA
ATOM     23  C   UNL A   1      49.391  24.868  27.819  1.00  0.00     0.278 C 
ENDBRANCH  17  22
ENDBRANCH  15  16
ENDBRANCH  12  15
ENDBRANCH  10  12
ENDBRANCH   6  10
ENDBRANCH   1   5
BRANCH   3  24
ATOM     24  C   UNL A   1      41.602  19.533  25.961  1.00  0.00     0.118 C 
BRANCH  24  25
ATOM     25  C   UNL A   1      41.196  20.053  27.338  1.00  0.00     0.042 C 
BRANCH  25  26
ATOM     26  C   UNL A   1      40.782  21.524  27.290  1.00  0.00     0.118 C 
BRANCH  26  27
ATOM     27  N   UNL A   1      39.626  21.716  26.426  1.00  0.00    -0.352 N 
ATOM     28  C   UNL A   1      38.809  22.812  26.312  1.00  0.00     0.251 C 
ATOM     29  H   UNL A   1      39.400  20.956  25.844  1.00  0.00     0.163 HD
ATOM     30  O   UNL A   1      37.720  22.712  25.753  1.00  0.00    -0.269 OA
BRANCH  28  31
ATOM     31  C   UNL A   1      39.239  24.113  26.863  1.00  0.00     0.039 A 
ATOM     32  C   UNL A   1      39.965  24.987  26.050  1.00  0.00     0.014 A 
ATOM     33  C   UNL A   1      38.966  24.452  28.192  1.00  0.00     0.014 A 
ATOM     34  C   UNL A   1      40.387  26.216  26.558  1.00  0.00     0.010 A 
ATOM     35  C   UNL A   1      39.326  25.706  28.676  1.00  0.00     0.010 A 
ATOM     36  C   UNL A   1      40.055  26.593  27.869  1.00  0.00    -0.014 A 
BRANCH  36  37
ATOM     37  C   UNL A   1      40.492  27.897  28.430  1.00  0.00     0.031 A 
ATOM     38  C   UNL A   1      41.941  28.119  28.768  1.00  0.00     0.074 A 
ATOM     39  C   UNL A   1      39.582  28.859  28.678  1.00  0.00     0.049 A 
ATOM     40  N   UNL A   1      42.512  29.152  29.333  1.00  0.00    -0.248 NA
ATOM     41  C   UNL A   1      42.869  27.021  28.451  1.00  0.00     0.031 C 
ATOM     42  C   UNL A   1      38.145  28.748  28.426  1.00  0.00     0.029 A 
ATOM     43  N   UNL A   1      39.731  30.116  29.206  1.00  0.00    -0.354 N 
ATOM     44  C   UNL A   1      43.856  28.824  29.450  1.00  0.00     0.074 A 
ATOM     45  C   UNL A   1      44.009  27.476  28.949  1.00  0.00     0.031 C 
ATOM     46  C   UNL A   1      37.547  29.897  28.779  1.00  0.00     0.029 A 
ATOM     47  C   UNL A   1      38.552  30.811  29.316  1.00  0.00     0.049 A 
ATOM     48  H   UNL A   1      40.601  30.485  29.481  1.00  0.00     0.167 HD
ATOM     49  C   UNL A   1      44.877  29.588  29.907  1.00  0.00     0.037 A 
ATOM     50  C   UNL A   1      38.310  32.043  29.801  1.00  0.00     0.037 A 
ATOM     51  C   UNL A   1      44.725  30.939  30.380  1.00  0.00     0.049 A 
ATOM     52  C   UNL A   1      39.462  32.866  30.313  1.00  0.00     0.074 A 
ATOM     53  C   UNL A   1      45.700  31.810  30.835  1.00  0.00     0.029 A 
ATOM     54  N   UNL A   1      43.517  31.617  30.453  1.00  0.00    -0.354 N 
ATOM     55  N   UNL A   1      40.737  32.564  30.371  1.00  0.00    -0.248 NA
ATOM     56  C   UNL A   1      39.142  34.208  30.820  1.00  0.00     0.031 C 
ATOM     57  C   UNL A   1      45.077  33.004  31.215  1.00  0.00     0.029 A 
ATOM     58  C   UNL A   1      43.721  32.893  30.953  1.00  0.00     0.049 A 
ATOM     59  H   UNL A   1      42.645  31.246  30.188  1.00  0.00     0.167 HD
ATOM     60  C   UNL A   1      41.373  33.687  30.882  1.00  0.00     0.074 A 
ATOM     61  C   UNL A   1      40.346  34.682  31.107  1.00  0.00     0.031 C 
ATOM     62  C   UNL A   1      42.688  33.877  31.145  1.00  0.00     0.037 A 
BRANCH  49  63
ATOM     63  C   UNL A   1      46.252  28.987  29.905  1.00  0.00     0.064 A 
ATOM     64  C   UNL A   1      47.029  28.944  28.737  1.00  0.00     0.173 A 
ATOM     65  C   UNL A   1      46.819  28.490  31.088  1.00  0.00     0.173 A 
ATOM     66  F   UNL A   1      46.529  29.395  27.576  1.00  0.00    -0.203 F 
ATOM     67  C   UNL A   1      48.313  28.404  28.748  1.00  0.00     0.198 A 
ATOM     68  C   UNL A   1      48.114  27.978  31.101  1.00  0.00     0.198 A 
ATOM     69  F   UNL A   1      46.122  28.512  32.233  1.00  0.00    -0.203 F 
ATOM     70  F   UNL A   1      49.018  28.333  27.611  1.00  0.00    -0.200 F 
ATOM     71  C   UNL A   1      48.857  27.930  29.932  1.00  0.00     0.200 A 
ATOM     72  F   UNL A   1      48.644  27.532  32.249  1.00  0.00    -0.200 F 
ATOM     73  F   UNL A   1      50.096  27.419  29.943  1.00  0.00    -0.200 F 
ENDBRANCH  49  63
BRANCH  50  74
ATOM     74  C   UNL A   1      36.928  32.591  29.804  1.00  0.00     0.064 A 
ATOM     75  C   UNL A   1      36.429  33.285  28.692  1.00  0.00     0.173 A 
ATOM     76  C   UNL A   1      36.091  32.461  30.920  1.00  0.00     0.173 A 
ATOM     77  F   UNL A   1      37.201  33.453  27.607  1.00  0.00    -0.203 F 
ATOM     78  C   UNL A   1      35.157  33.852  28.708  1.00  0.00     0.198 A 
ATOM     79  C   UNL A   1      34.806  33.002  30.924  1.00  0.00     0.198 A 
ATOM     80  F   UNL A   1      36.517  31.801  32.008  1.00  0.00    -0.203 F 
ATOM     81  F   UNL A   1      34.728  34.558  27.653  1.00  0.00    -0.200 F 
ATOM     82  C   UNL A   1      34.345  33.708  29.822  1.00  0.00     0.200 A 
ATOM     83  F   UNL A   1      34.019  32.849  31.997  1.00  0.00    -0.200 F 
ATOM     84  F   UNL A   1      33.124  34.257  29.839  1.00  0.00    -0.200 F 
ENDBRANCH  50  74
BRANCH  62  85
ATOM     85  C   UNL A   1      43.101  35.230  31.648  1.00  0.00     0.064 A 
ATOM     86  C   UNL A   1      43.556  36.233  30.781  1.00  0.00     0.173 A 
ATOM     87  C   UNL A   1      43.007  35.533  33.015  1.00  0.00     0.173 A 
ATOM     88  F   UNL A   1      43.678  35.987  29.468  1.00  0.00    -0.203 F 
ATOM     89  C   UNL A   1      43.926  37.484  31.268  1.00  0.00     0.198 A 
ATOM     90  C   UNL A   1      43.349  36.794  33.494  1.00  0.00     0.198 A 
ATOM     91  F   UNL A   1      42.571  34.609  33.885  1.00  0.00    -0.203 F 
ATOM     92  F   UNL A   1      44.404  38.413  30.429  1.00  0.00    -0.200 F 
ATOM     93  C   UNL A   1      43.816  37.765  32.622  1.00  0.00     0.200 A 
ATOM     94  F   UNL A   1      43.230  37.067  34.801  1.00  0.00    -0.200 F 
ATOM     95  F   UNL A   1      44.169  38.971  33.088  1.00  0.00    -0.200 F 
ENDBRANCH  62  85
ENDBRANCH  36  37
ENDBRANCH  28  31
ENDBRANCH  26  27
ENDBRANCH  25  26
ENDBRANCH  24  25
ENDBRANCH   3  24
TORSDOF 15
ENDMDL
MODEL 2
REMARK VINA RESULT:     -10.8      3.997     10.629
REMARK SMILES COc1ccccc1C[N@@H+](C)[C@@H](C)c1ccc(C(=O)NCCCNC(=O)c2ccc(-c3c4nc(c(-c5c(F)c(F)c(F)c(F)c5F)c5ccc([nH]5)c(-c5c(F)c(F)c(F)c(F)c5F)c5nc(c(-c6c(F)c(F)c(F)c(F)c6F)c6ccc3[nH]6)C=C5)C=C4)cc2)o1
REMARK SMILES IDX 18 1 19 2 20 3 17 5 14 6 15 7 90 8 16 9 12 10 13 11 10 12
REMARK SMILES IDX 11 13 9 15 8 16 3 17 4 18 5 19 7 20 6 21 2 22 1 23 21 24
REMARK SMILES IDX 22 25 23 26 24 27 25 28 26 30 27 31 28 32 89 33 29 34 88 35
REMARK SMILES IDX 30 36 31 37 32 38 82 39 33 40 87 41 81 42 83 43 34 44 86 45
REMARK SMILES IDX 80 46 79 47 35 49 67 50 47 51 66 52 48 53 51 54 65 55 84 56
REMARK SMILES IDX 49 57 50 58 64 60 85 61 52 62 36 63 37 64 45 65 38 66 39 67
REMARK SMILES IDX 43 68 46 69 40 70 41 71 44 72 42 73 68 74 69 75 77 76 70 77
REMARK SMILES IDX 71 78 75 79 78 80 72 81 73 82 76 83 74 84 53 85 54 86 62 87
REMARK SMILES IDX 55 88 56 89 60 90 63 91 57 92 58 93 61 94 59 95
REMARK H PARENT 20 4 10 14 24 29 83 48 51 59
REMARK Flexibility Score: inf
ROOT
ATOM      1  C   UNL A   1      36.388  22.734  23.567  1.00  0.00     0.287 C 
ATOM      2  O   UNL A   1      36.678  23.157  22.441  1.00  0.00    -0.266 OA
ATOM      3  N   UNL A   1      37.117  21.643  23.979  1.00  0.00    -0.349 N 
ATOM      4  H   UNL A   1      38.014  21.566  23.581  1.00  0.00     0.163 HD
ENDROOT
BRANCH   1   5
ATOM      5  C   UNL A   1      35.408  23.347  24.437  1.00  0.00     0.191 A 
ATOM      6  C   UNL A   1      33.306  23.674  25.062  1.00  0.00     0.161 A 
ATOM      7  C   UNL A   1      34.071  24.569  25.779  1.00  0.00     0.053 A 
ATOM      8  O   UNL A   1      34.122  22.891  24.309  1.00  0.00    -0.450 OA
ATOM      9  C   UNL A   1      35.418  24.339  25.402  1.00  0.00     0.057 A 
BRANCH   6  10
ATOM     10  C   UNL A   1      31.831  23.378  25.041  1.00  0.00     0.248 C 
ATOM     11  C   UNL A   1      31.300  23.380  23.602  1.00  0.00     0.084 C 
BRANCH  10  12
ATOM     12  N   UNL A   1      31.052  24.145  26.054  1.00  0.00    -0.325 N 
ATOM     13  C   UNL A   1      30.190  23.230  26.815  1.00  0.00     0.333 C 
ATOM     14  H   UNL A   1      31.756  24.595  26.641  1.00  0.00     0.348 HD
BRANCH  12  15
ATOM     15  C   UNL A   1      30.201  25.223  25.505  1.00  0.00     0.303 C 
BRANCH  15  16
ATOM     16  C   UNL A   1      30.778  26.617  25.529  1.00  0.00     0.048 A 
ATOM     17  C   UNL A   1      30.688  27.477  24.425  1.00  0.00     0.127 A 
ATOM     18  C   UNL A   1      31.203  28.774  24.484  1.00  0.00     0.047 A 
ATOM     19  C   UNL A   1      31.804  29.239  25.653  1.00  0.00     0.004 A 
ATOM     20  C   UNL A   1      31.384  27.104  26.703  1.00  0.00     0.013 A 
ATOM     21  C   UNL A   1      31.897  28.403  26.762  1.00  0.00     0.001 A 
BRANCH  17  22
ATOM     22  O   UNL A   1      30.249  27.015  23.212  1.00  0.00    -0.496 OA
ATOM     23  C   UNL A   1      31.302  26.929  22.261  1.00  0.00     0.278 C 
ENDBRANCH  17  22
ENDBRANCH  15  16
ENDBRANCH  12  15
ENDBRANCH  10  12
ENDBRANCH   6  10
ENDBRANCH   1   5
BRANCH   3  24
ATOM     24  C   UNL A   1      36.767  20.590  24.907  1.00  0.00     0.118 C 
BRANCH  24  25
ATOM     25  C   UNL A   1      37.935  19.611  25.006  1.00  0.00     0.042 C 
BRANCH  25  26
ATOM     26  C   UNL A   1      39.056  20.154  25.892  1.00  0.00     0.118 C 
BRANCH  26  27
ATOM     27  N   UNL A   1      40.153  19.202  25.994  1.00  0.00    -0.352 N 
ATOM     28  C   UNL A   1      41.500  19.445  26.077  1.00  0.00     0.251 C 
ATOM     29  H   UNL A   1      39.891  18.253  26.006  1.00  0.00     0.163 HD
ATOM     30  O   UNL A   1      42.302  18.538  25.873  1.00  0.00    -0.269 OA
BRANCH  28  31
ATOM     31  C   UNL A   1      41.986  20.799  26.413  1.00  0.00     0.039 A 
ATOM     32  C   UNL A   1      42.187  21.721  25.383  1.00  0.00     0.014 A 
ATOM     33  C   UNL A   1      42.285  21.143  27.735  1.00  0.00     0.014 A 
ATOM     34  C   UNL A   1      42.654  23.002  25.683  1.00  0.00     0.010 A 
ATOM     35  C   UNL A   1      42.684  22.441  28.040  1.00  0.00     0.010 A 
ATOM     36  C   UNL A   1      42.888  23.378  27.015  1.00  0.00    -0.014 A 
BRANCH  36  37
ATOM     37  C   UNL A   1      43.384  24.735  27.357  1.00  0.00     0.031 A 
ATOM     38  C   UNL A   1      42.445  25.749  27.950  1.00  0.00     0.074 A 
ATOM     39  C   UNL A   1      44.662  25.068  27.092  1.00  0.00     0.049 A 
ATOM     40  N   UNL A   1      42.660  27.005  28.248  1.00  0.00    -0.248 NA
ATOM     41  C   UNL A   1      41.070  25.297  28.222  1.00  0.00     0.031 C 
ATOM     42  C   UNL A   1      45.658  24.183  26.486  1.00  0.00     0.029 A 
ATOM     43  N   UNL A   1      45.339  26.245  27.289  1.00  0.00    -0.354 N 
ATOM     44  C   UNL A   1      41.451  27.492  28.727  1.00  0.00     0.074 A 
ATOM     45  C   UNL A   1      40.491  26.416  28.629  1.00  0.00     0.031 C 
ATOM     46  C   UNL A   1      46.824  24.840  26.381  1.00  0.00     0.029 A 
ATOM     47  C   UNL A   1      46.648  26.203  26.877  1.00  0.00     0.049 A 
ATOM     48  H   UNL A   1      44.925  27.044  27.687  1.00  0.00     0.167 HD
ATOM     49  C   UNL A   1      41.173  28.719  29.229  1.00  0.00     0.037 A 
ATOM     50  C   UNL A   1      47.596  27.159  26.893  1.00  0.00     0.037 A 
ATOM     51  C   UNL A   1      42.138  29.780  29.349  1.00  0.00     0.049 A 
ATOM     52  C   UNL A   1      47.256  28.517  27.446  1.00  0.00     0.074 A 
ATOM     53  C   UNL A   1      41.965  31.050  29.873  1.00  0.00     0.029 A 
ATOM     54  N   UNL A   1      43.461  29.691  28.943  1.00  0.00    -0.354 N 
ATOM     55  N   UNL A   1      46.123  28.950  27.943  1.00  0.00    -0.248 NA
ATOM     56  C   UNL A   1      48.332  29.518  27.449  1.00  0.00     0.031 C 
ATOM     57  C   UNL A   1      43.176  31.740  29.753  1.00  0.00     0.029 A 
ATOM     58  C   UNL A   1      44.114  30.886  29.197  1.00  0.00     0.049 A 
ATOM     59  H   UNL A   1      43.874  28.897  28.534  1.00  0.00     0.167 HD
ATOM     60  C   UNL A   1      46.359  30.255  28.352  1.00  0.00     0.074 A 
ATOM     61  C   UNL A   1      47.747  30.541  28.056  1.00  0.00     0.031 C 
ATOM     62  C   UNL A   1      45.504  31.140  28.919  1.00  0.00     0.037 A 
BRANCH  49  63
ATOM     63  C   UNL A   1      39.771  28.977  29.701  1.00  0.00     0.064 A 
ATOM     64  C   UNL A   1      39.401  28.770  31.039  1.00  0.00     0.173 A 
ATOM     65  C   UNL A   1      38.800  29.479  28.822  1.00  0.00     0.173 A 
ATOM     66  F   UNL A   1      40.289  28.278  31.917  1.00  0.00    -0.203 F 
ATOM     67  C   UNL A   1      38.104  29.032  31.473  1.00  0.00     0.198 A 
ATOM     68  C   UNL A   1      37.513  29.768  29.267  1.00  0.00     0.198 A 
ATOM     69  F   UNL A   1      39.103  29.701  27.535  1.00  0.00    -0.203 F 
ATOM     70  F   UNL A   1      37.762  28.783  32.745  1.00  0.00    -0.200 F 
ATOM     71  C   UNL A   1      37.163  29.539  30.590  1.00  0.00     0.200 A 
ATOM     72  F   UNL A   1      36.608  30.271  28.415  1.00  0.00    -0.200 F 
ATOM     73  F   UNL A   1      35.919  29.800  31.011  1.00  0.00    -0.200 F 
ENDBRANCH  49  63
BRANCH  50  74
ATOM     74  C   UNL A   1      48.966  26.866  26.395  1.00  0.00     0.064 A 
ATOM     75  C   UNL A   1      49.300  27.078  25.049  1.00  0.00     0.173 A 
ATOM     76  C   UNL A   1      49.956  26.342  27.237  1.00  0.00     0.173 A 
ATOM     77  F   UNL A   1      48.380  27.558  24.199  1.00  0.00    -0.203 F 
ATOM     78  C   UNL A   1      50.563  26.751  24.560  1.00  0.00     0.198 A 
ATOM     79  C   UNL A   1      51.229  26.044  26.754  1.00  0.00     0.198 A 
ATOM     80  F   UNL A   1      49.690  26.125  28.534  1.00  0.00    -0.203 F 
ATOM     81  F   UNL A   1      50.837  26.912  23.259  1.00  0.00    -0.200 F 
ATOM     82  C   UNL A   1      51.527  26.237  25.413  1.00  0.00     0.200 A 
ATOM     83  F   UNL A   1      52.163  25.561  27.584  1.00  0.00    -0.200 F 
ATOM     84  F   UNL A   1      52.740  25.919  24.942  1.00  0.00    -0.200 F 
ENDBRANCH  50  74
BRANCH  62  85
ATOM     85  C   UNL A   1      46.058  32.479  29.310  1.00  0.00     0.064 A 
ATOM     86  C   UNL A   1      46.017  33.578  28.440  1.00  0.00     0.173 A 
ATOM     87  C   UNL A   1      46.607  32.670  30.588  1.00  0.00     0.173 A 
ATOM     88  F   UNL A   1      45.516  33.442  27.204  1.00  0.00    -0.203 F 
ATOM     89  C   UNL A   1      46.530  34.814  28.826  1.00  0.00     0.198 A 
ATOM     90  C   UNL A   1      47.091  33.914  30.980  1.00  0.00     0.198 A 
ATOM     91  F   UNL A   1      46.663  31.651  31.459  1.00  0.00    -0.203 F 
ATOM     92  F   UNL A   1      46.525  35.838  27.962  1.00  0.00    -0.200 F 
ATOM     93  C   UNL A   1      47.060  34.982  30.097  1.00  0.00     0.200 A 
ATOM     94  F   UNL A   1      47.591  34.078  32.213  1.00  0.00    -0.200 F 
ATOM     95  F   UNL A   1      47.548  36.174  30.469  1.00  0.00    -0.200 F 
ENDBRANCH  62  85
ENDBRANCH  36  37
ENDBRANCH  28  31
ENDBRANCH  26  27
ENDBRANCH  25  26
ENDBRANCH  24  25
ENDBRANCH   3  24
TORSDOF 15
ENDMDL
MODEL 3
REMARK VINA RESULT:     -10.8      5.497     10.315
REMARK SMILES COc1ccccc1C[N@@H+](C)[C@@H](C)c1ccc(C(=O)NCCCNC(=O)c2ccc(-c3c4nc(c(-c5c(F)c(F)c(F)c(F)c5F)c5ccc([nH]5)c(-c5c(F)c(F)c(F)c(F)c5F)c5nc(c(-c6c(F)c(F)c(F)c(F)c6F)c6ccc3[nH]6)C=C5)C=C4)cc2)o1
REMARK SMILES IDX 18 1 19 2 20 3 17 5 14 6 15 7 90 8 16 9 12 10 13 11 10 12
REMARK SMILES IDX 11 13 9 15 8 16 3 17 4 18 5 19 7 20 6 21 2 22 1 23 21 24
REMARK SMILES IDX 22 25 23 26 24 27 25 28 26 30 27 31 28 32 89 33 29 34 88 35
REMARK SMILES IDX 30 36 31 37 32 38 82 39 33 40 87 41 81 42 83 43 34 44 86 45
REMARK SMILES IDX 80 46 79 47 35 49 67 50 47 51 66 52 48 53 51 54 65 55 84 56
REMARK SMILES IDX 49 57 50 58 64 60 85 61 52 62 36 63 37 64 45 65 38 66 39 67
REMARK SMILES IDX 43 68 46 69 40 70 41 71 44 72 42 73 68 74 69 75 77 76 70 77
REMARK SMILES IDX 71 78 75 79 78 80 72 81 73 82 76 83 74 84 53 85 54 86 62 87
REMARK SMILES IDX 55 88 56 89 60 90 63 91 57 92 58 93 61 94 59 95
REMARK H PARENT 20 4 10 14 24 29 83 48 51 59
REMARK Flexibility Score: inf
ROOT
ATOM      1  C   UNL A   1      33.114  29.288  26.609  1.00  0.00     0.287 C 
ATOM      2  O   UNL A   1      34.238  29.282  27.128  1.00  0.00    -0.266 OA
ATOM      3  N   UNL A   1      32.658  30.530  26.233  1.00  0.00    -0.349 N 
ATOM      4  H   UNL A   1      33.361  31.185  26.021  1.00  0.00     0.163 HD
ENDROOT
BRANCH   1   5
ATOM      5  C   UNL A   1      32.336  28.097  26.346  1.00  0.00     0.191 A 
ATOM      6  C   UNL A   1      31.663  26.482  24.984  1.00  0.00     0.161 A 
ATOM      7  C   UNL A   1      30.891  26.381  26.122  1.00  0.00     0.053 A 
ATOM      8  O   UNL A   1      32.580  27.471  25.152  1.00  0.00    -0.450 OA
ATOM      9  C   UNL A   1      31.343  27.394  27.005  1.00  0.00     0.057 A 
BRANCH   6  10
ATOM     10  C   UNL A   1      31.717  25.681  23.712  1.00  0.00     0.248 C 
ATOM     11  C   UNL A   1      30.767  24.478  23.790  1.00  0.00     0.084 C 
BRANCH  10  12
ATOM     12  N   UNL A   1      33.102  25.423  23.225  1.00  0.00    -0.325 N 
ATOM     13  C   UNL A   1      33.269  25.992  21.880  1.00  0.00     0.333 C 
ATOM     14  H   UNL A   1      33.709  25.868  23.914  1.00  0.00     0.348 HD
BRANCH  12  15
ATOM     15  C   UNL A   1      33.491  23.997  23.169  1.00  0.00     0.303 C 
BRANCH  15  16
ATOM     16  C   UNL A   1      34.733  23.607  23.932  1.00  0.00     0.048 A 
ATOM     17  C   UNL A   1      34.797  23.680  25.331  1.00  0.00     0.127 A 
ATOM     18  C   UNL A   1      35.948  23.282  26.016  1.00  0.00     0.047 A 
ATOM     19  C   UNL A   1      37.049  22.791  25.316  1.00  0.00     0.004 A 
ATOM     20  C   UNL A   1      35.852  23.105  23.241  1.00  0.00     0.013 A 
ATOM     21  C   UNL A   1      37.002  22.706  23.927  1.00  0.00     0.001 A 
BRANCH  17  22
ATOM     22  O   UNL A   1      33.805  24.298  26.047  1.00  0.00    -0.496 OA
ATOM     23  C   UNL A   1      33.047  23.372  26.814  1.00  0.00     0.278 C 
ENDBRANCH  17  22
ENDBRANCH  15  16
ENDBRANCH  12  15
ENDBRANCH  10  12
ENDBRANCH   6  10
ENDBRANCH   1   5
BRANCH   3  24
ATOM     24  C   UNL A   1      31.304  31.021  26.103  1.00  0.00     0.118 C 
BRANCH  24  25
ATOM     25  C   UNL A   1      31.289  32.516  26.412  1.00  0.00     0.042 C 
BRANCH  25  26
ATOM     26  C   UNL A   1      32.504  32.935  27.240  1.00  0.00     0.118 C 
BRANCH  26  27
ATOM     27  N   UNL A   1      32.414  34.335  27.634  1.00  0.00    -0.352 N 
ATOM     28  C   UNL A   1      33.041  34.981  28.668  1.00  0.00     0.251 C 
ATOM     29  H   UNL A   1      31.822  34.894  27.081  1.00  0.00     0.163 HD
ATOM     30  O   UNL A   1      32.644  36.083  29.036  1.00  0.00    -0.269 OA
BRANCH  28  31
ATOM     31  C   UNL A   1      34.194  34.349  29.341  1.00  0.00     0.039 A 
ATOM     32  C   UNL A   1      35.476  34.557  28.827  1.00  0.00     0.014 A 
ATOM     33  C   UNL A   1      34.008  33.517  30.449  1.00  0.00     0.014 A 
ATOM     34  C   UNL A   1      36.576  33.960  29.445  1.00  0.00     0.010 A 
ATOM     35  C   UNL A   1      35.111  32.979  31.106  1.00  0.00     0.010 A 
ATOM     36  C   UNL A   1      36.403  33.182  30.601  1.00  0.00    -0.014 A 
BRANCH  36  37
ATOM     37  C   UNL A   1      37.559  32.538  31.276  1.00  0.00     0.031 A 
ATOM     38  C   UNL A   1      38.284  31.405  30.603  1.00  0.00     0.074 A 
ATOM     39  C   UNL A   1      37.924  32.941  32.508  1.00  0.00     0.049 A 
ATOM     40  N   UNL A   1      39.264  30.663  31.053  1.00  0.00    -0.248 NA
ATOM     41  C   UNL A   1      37.828  31.039  29.251  1.00  0.00     0.031 C 
ATOM     42  C   UNL A   1      37.277  34.005  33.276  1.00  0.00     0.029 A 
ATOM     43  N   UNL A   1      38.925  32.495  33.335  1.00  0.00    -0.354 N 
ATOM     44  C   UNL A   1      39.530  29.740  30.050  1.00  0.00     0.074 A 
ATOM     45  C   UNL A   1      38.575  29.977  28.991  1.00  0.00     0.031 C 
ATOM     46  C   UNL A   1      37.910  34.144  34.453  1.00  0.00     0.029 A 
ATOM     47  C   UNL A   1      38.982  33.157  34.537  1.00  0.00     0.049 A 
ATOM     48  H   UNL A   1      39.543  31.769  33.089  1.00  0.00     0.167 HD
ATOM     49  C   UNL A   1      40.503  28.799  30.004  1.00  0.00     0.037 A 
ATOM     50  C   UNL A   1      39.804  32.980  35.588  1.00  0.00     0.037 A 
ATOM     51  C   UNL A   1      41.469  28.584  31.050  1.00  0.00     0.049 A 
ATOM     52  C   UNL A   1      40.868  31.919  35.514  1.00  0.00     0.074 A 
ATOM     53  C   UNL A   1      42.514  27.677  31.087  1.00  0.00     0.029 A 
ATOM     54  N   UNL A   1      41.509  29.291  32.242  1.00  0.00    -0.354 N 
ATOM     55  N   UNL A   1      41.144  31.086  34.539  1.00  0.00    -0.248 NA
ATOM     56  C   UNL A   1      41.745  31.778  36.686  1.00  0.00     0.031 C 
ATOM     57  C   UNL A   1      43.167  27.813  32.317  1.00  0.00     0.029 A 
ATOM     58  C   UNL A   1      42.557  28.835  33.026  1.00  0.00     0.049 A 
ATOM     59  H   UNL A   1      40.886  30.010  32.493  1.00  0.00     0.167 HD
ATOM     60  C   UNL A   1      42.244  30.353  34.962  1.00  0.00     0.074 A 
ATOM     61  C   UNL A   1      42.594  30.846  36.278  1.00  0.00     0.031 C 
ATOM     62  C   UNL A   1      42.904  29.358  34.321  1.00  0.00     0.037 A 
BRANCH  49  63
ATOM     63  C   UNL A   1      40.582  27.938  28.777  1.00  0.00     0.064 A 
ATOM     64  C   UNL A   1      39.845  26.749  28.670  1.00  0.00     0.173 A 
ATOM     65  C   UNL A   1      41.364  28.326  27.679  1.00  0.00     0.173 A 
ATOM     66  F   UNL A   1      39.091  26.326  29.697  1.00  0.00    -0.203 F 
ATOM     67  C   UNL A   1      39.907  25.966  27.519  1.00  0.00     0.198 A 
ATOM     68  C   UNL A   1      41.400  27.556  26.519  1.00  0.00     0.198 A 
ATOM     69  F   UNL A   1      42.083  29.456  27.726  1.00  0.00    -0.203 F 
ATOM     70  F   UNL A   1      39.229  24.812  27.459  1.00  0.00    -0.200 F 
ATOM     71  C   UNL A   1      40.677  26.375  26.441  1.00  0.00     0.200 A 
ATOM     72  F   UNL A   1      42.135  27.960  25.472  1.00  0.00    -0.200 F 
ATOM     73  F   UNL A   1      40.728  25.627  25.331  1.00  0.00    -0.200 F 
ENDBRANCH  49  63
BRANCH  50  74
ATOM     74  C   UNL A   1      39.676  33.842  36.793  1.00  0.00     0.064 A 
ATOM     75  C   UNL A   1      38.886  33.442  37.880  1.00  0.00     0.173 A 
ATOM     76  C   UNL A   1      40.312  35.089  36.873  1.00  0.00     0.173 A 
ATOM     77  F   UNL A   1      38.241  32.266  37.841  1.00  0.00    -0.203 F 
ATOM     78  C   UNL A   1      38.713  34.268  38.988  1.00  0.00     0.198 A 
ATOM     79  C   UNL A   1      40.163  35.902  37.996  1.00  0.00     0.198 A 
ATOM     80  F   UNL A   1      41.084  35.516  35.863  1.00  0.00    -0.203 F 
ATOM     81  F   UNL A   1      37.907  33.885  39.987  1.00  0.00    -0.200 F 
ATOM     82  C   UNL A   1      39.354  35.496  39.046  1.00  0.00     0.200 A 
ATOM     83  F   UNL A   1      40.795  37.081  38.055  1.00  0.00    -0.200 F 
ATOM     84  F   UNL A   1      39.184  36.292  40.110  1.00  0.00    -0.200 F 
ENDBRANCH  50  74
BRANCH  62  85
ATOM     85  C   UNL A   1      44.106  28.777  35.007  1.00  0.00     0.064 A 
ATOM     86  C   UNL A   1      45.388  29.322  34.837  1.00  0.00     0.173 A 
ATOM     87  C   UNL A   1      43.966  27.681  35.871  1.00  0.00     0.173 A 
ATOM     88  F   UNL A   1      45.576  30.360  34.010  1.00  0.00    -0.203 F 
ATOM     89  C   UNL A   1      46.489  28.773  35.488  1.00  0.00     0.198 A 
ATOM     90  C   UNL A   1      45.064  27.154  36.544  1.00  0.00     0.198 A 
ATOM     91  F   UNL A   1      42.760  27.128  36.072  1.00  0.00    -0.203 F 
ATOM     92  F   UNL A   1      47.711  29.278  35.275  1.00  0.00    -0.200 F 
ATOM     93  C   UNL A   1      46.325  27.694  36.345  1.00  0.00     0.200 A 
ATOM     94  F   UNL A   1      44.902  26.120  37.381  1.00  0.00    -0.200 F 
ATOM     95  F   UNL A   1      47.386  27.170  36.976  1.00  0.00    -0.200 F 
ENDBRANCH  62  85
ENDBRANCH  36  37
ENDBRANCH  28  31
ENDBRANCH  26  27
ENDBRANCH  25  26
ENDBRANCH  24  25
ENDBRANCH   3  24
TORSDOF 15
ENDMDL
