MODEL 1
REMARK VINA RESULT:     -12.3      0.000      0.000
REMARK SMILES C[C@H](C[C@H]1CSc2ccccc21)C(=O)NCCCNC(=O)c1ccc(-c2c3nc(c(-c4c(F)c(F)c(F)c(F)c4F)c4ccc([nH]4)c(-c4c(F)c(F)c(F)c(F)c4F)c4nc(c(-c5c(F)c(F)c(F)c(F)c5F)c5ccc2[nH]5)C=C4)C=C3)cc1
REMARK SMILES IDX 17 1 16 2 15 3 13 4 14 5 2 7 1 8 3 9 4 10 5 11 12 12 6 13
REMARK SMILES IDX 7 14 11 15 8 16 10 17 9 18 18 19 19 20 20 21 21 23 22 24
REMARK SMILES IDX 23 25 84 26 24 27 83 28 25 29 26 30 27 31 77 32 28 33 82 34
REMARK SMILES IDX 76 35 78 36 29 37 81 38 75 39 74 40 30 42 62 43 42 44 61 45
REMARK SMILES IDX 43 46 46 47 60 48 79 49 44 50 45 51 59 53 80 54 47 55 31 56
REMARK SMILES IDX 32 57 40 58 33 59 34 60 38 61 41 62 35 63 36 64 39 65 37 66
REMARK SMILES IDX 63 67 64 68 72 69 65 70 66 71 70 72 73 73 67 74 68 75 71 76
REMARK SMILES IDX 69 77 48 78 49 79 57 80 50 81 51 82 55 83 58 84 52 85 53 86
REMARK SMILES IDX 56 87 54 88
REMARK H PARENT 15 6 19 22 78 41 46 52
REMARK Flexibility Score: inf
ROOT
ATOM      1  C   UNL A   1      31.677  28.941  26.247  1.00  0.00     0.042 C 
ENDROOT
BRANCH   1   2
ATOM      2  C   UNL A   1      31.959  27.865  27.273  1.00  0.00     0.117 C 
BRANCH   2   3
ATOM      3  N   UNL A   1      31.471  26.574  26.833  1.00  0.00    -0.356 N 
ATOM      4  C   UNL A   1      32.076  25.624  26.080  1.00  0.00     0.222 C 
ATOM      5  O   UNL A   1      31.429  24.612  25.807  1.00  0.00    -0.275 OA
ATOM      6  H   UNL A   1      30.559  26.352  27.125  1.00  0.00     0.163 HD
BRANCH   4   7
ATOM      7  C   UNL A   1      33.492  25.814  25.566  1.00  0.00     0.076 C 
ATOM      8  C   UNL A   1      33.504  26.323  24.122  1.00  0.00     0.018 C 
BRANCH   7   9
ATOM      9  C   UNL A   1      34.351  24.558  25.854  1.00  0.00     0.022 C 
BRANCH   9  10
ATOM     10  C   UNL A   1      35.013  23.807  24.661  1.00  0.00     0.031 C 
ATOM     11  C   UNL A   1      36.512  23.509  24.896  1.00  0.00     0.083 C 
ATOM     12  C   UNL A   1      34.376  22.483  24.328  1.00  0.00    -0.030 A 
ATOM     13  S   UNL A   1      36.636  21.804  25.514  1.00  0.00    -0.125 SA
ATOM     14  C   UNL A   1      35.071  21.371  24.814  1.00  0.00     0.011 A 
ATOM     15  C   UNL A   1      33.116  22.333  23.753  1.00  0.00     0.005 A 
ATOM     16  C   UNL A   1      34.486  20.115  24.819  1.00  0.00     0.015 A 
ATOM     17  C   UNL A   1      32.515  21.074  23.770  1.00  0.00     0.000 A 
ATOM     18  C   UNL A   1      33.190  19.975  24.315  1.00  0.00     0.001 A 
ENDBRANCH   9  10
ENDBRANCH   7   9
ENDBRANCH   4   7
ENDBRANCH   2   3
ENDBRANCH   1   2
BRANCH   1  19
ATOM     19  C   UNL A   1      32.826  29.916  26.072  1.00  0.00     0.118 C 
BRANCH  19  20
ATOM     20  N   UNL A   1      32.525  31.261  26.553  1.00  0.00    -0.352 N 
ATOM     21  C   UNL A   1      33.304  32.065  27.354  1.00  0.00     0.251 C 
ATOM     22  H   UNL A   1      31.661  31.638  26.270  1.00  0.00     0.163 HD
ATOM     23  O   UNL A   1      32.893  33.131  27.792  1.00  0.00    -0.269 OA
BRANCH  21  24
ATOM     24  C   UNL A   1      34.646  31.569  27.705  1.00  0.00     0.039 A 
ATOM     25  C   UNL A   1      34.803  30.214  28.004  1.00  0.00     0.014 A 
ATOM     26  C   UNL A   1      35.674  32.483  27.932  1.00  0.00     0.014 A 
ATOM     27  C   UNL A   1      35.908  29.816  28.738  1.00  0.00     0.010 A 
ATOM     28  C   UNL A   1      36.839  32.049  28.565  1.00  0.00     0.010 A 
ATOM     29  C   UNL A   1      36.938  30.727  29.029  1.00  0.00    -0.014 A 
BRANCH  29  30
ATOM     30  C   UNL A   1      38.100  30.276  29.835  1.00  0.00     0.031 A 
ATOM     31  C   UNL A   1      39.166  29.399  29.238  1.00  0.00     0.074 A 
ATOM     32  C   UNL A   1      38.218  30.719  31.101  1.00  0.00     0.049 A 
ATOM     33  N   UNL A   1      40.210  28.859  29.816  1.00  0.00    -0.248 NA
ATOM     34  C   UNL A   1      39.049  29.079  27.805  1.00  0.00     0.031 C 
ATOM     35  C   UNL A   1      37.267  31.605  31.775  1.00  0.00     0.029 A 
ATOM     36  N   UNL A   1      39.199  30.516  32.036  1.00  0.00    -0.354 N 
ATOM     37  C   UNL A   1      40.847  28.110  28.835  1.00  0.00     0.074 A 
ATOM     38  C   UNL A   1      40.071  28.255  27.622  1.00  0.00     0.031 C 
ATOM     39  C   UNL A   1      37.744  31.927  32.983  1.00  0.00     0.029 A 
ATOM     40  C   UNL A   1      38.983  31.193  33.210  1.00  0.00     0.049 A 
ATOM     41  H   UNL A   1      39.984  29.940  31.880  1.00  0.00     0.167 HD
ATOM     42  C   UNL A   1      41.979  27.372  28.943  1.00  0.00     0.037 A 
ATOM     43  C   UNL A   1      39.685  31.199  34.356  1.00  0.00     0.037 A 
ATOM     44  C   UNL A   1      42.765  27.267  30.146  1.00  0.00     0.049 A 
ATOM     45  C   UNL A   1      40.910  30.341  34.459  1.00  0.00     0.074 A 
ATOM     46  C   UNL A   1      43.928  26.548  30.358  1.00  0.00     0.029 A 
ATOM     47  N   UNL A   1      42.473  27.914  31.338  1.00  0.00    -0.354 N 
ATOM     48  N   UNL A   1      41.469  29.590  33.543  1.00  0.00    -0.248 NA
ATOM     49  C   UNL A   1      41.585  30.312  35.761  1.00  0.00     0.031 C 
ATOM     50  C   UNL A   1      44.322  26.733  31.687  1.00  0.00     0.029 A 
ATOM     51  C   UNL A   1      43.428  27.600  32.293  1.00  0.00     0.049 A 
ATOM     52  H   UNL A   1      41.703  28.509  31.484  1.00  0.00     0.167 HD
ATOM     53  C   UNL A   1      42.560  28.994  34.156  1.00  0.00     0.074 A 
ATOM     54  C   UNL A   1      42.601  29.496  35.514  1.00  0.00     0.031 C 
ATOM     55  C   UNL A   1      43.441  28.102  33.643  1.00  0.00     0.037 A 
BRANCH  42  56
ATOM     56  C   UNL A   1      42.436  26.601  27.738  1.00  0.00     0.064 A 
ATOM     57  C   UNL A   1      43.367  27.128  26.833  1.00  0.00     0.173 A 
ATOM     58  C   UNL A   1      41.987  25.287  27.526  1.00  0.00     0.173 A 
ATOM     59  F   UNL A   1      43.816  28.383  26.982  1.00  0.00    -0.203 F 
ATOM     60  C   UNL A   1      43.824  26.374  25.755  1.00  0.00     0.198 A 
ATOM     61  C   UNL A   1      42.464  24.528  26.461  1.00  0.00     0.198 A 
ATOM     62  F   UNL A   1      41.099  24.732  28.365  1.00  0.00    -0.203 F 
ATOM     63  F   UNL A   1      44.692  26.910  24.885  1.00  0.00    -0.200 F 
ATOM     64  C   UNL A   1      43.380  25.073  25.574  1.00  0.00     0.200 A 
ATOM     65  F   UNL A   1      42.041  23.266  26.296  1.00  0.00    -0.200 F 
ATOM     66  F   UNL A   1      43.833  24.344  24.544  1.00  0.00    -0.200 F 
ENDBRANCH  42  56
BRANCH  43  67
ATOM     67  C   UNL A   1      39.217  32.030  35.493  1.00  0.00     0.064 A 
ATOM     68  C   UNL A   1      38.398  31.486  36.491  1.00  0.00     0.173 A 
ATOM     69  C   UNL A   1      39.622  33.366  35.634  1.00  0.00     0.173 A 
ATOM     70  F   UNL A   1      37.972  30.218  36.388  1.00  0.00    -0.203 F 
ATOM     71  C   UNL A   1      38.003  32.247  37.588  1.00  0.00     0.198 A 
ATOM     72  C   UNL A   1      39.251  34.117  36.745  1.00  0.00     0.198 A 
ATOM     73  F   UNL A   1      40.411  33.930  34.707  1.00  0.00    -0.203 F 
ATOM     74  F   UNL A   1      37.201  31.711  38.517  1.00  0.00    -0.200 F 
ATOM     75  C   UNL A   1      38.438  33.558  37.720  1.00  0.00     0.200 A 
ATOM     76  F   UNL A   1      39.691  35.375  36.879  1.00  0.00    -0.200 F 
ATOM     77  F   UNL A   1      38.076  34.281  38.787  1.00  0.00    -0.200 F 
ENDBRANCH  43  67
BRANCH  55  78
ATOM     78  C   UNL A   1      44.523  27.616  34.558  1.00  0.00     0.064 A 
ATOM     79  C   UNL A   1      45.728  28.320  34.696  1.00  0.00     0.173 A 
ATOM     80  C   UNL A   1      44.341  26.459  35.328  1.00  0.00     0.173 A 
ATOM     81  F   UNL A   1      45.953  29.423  33.967  1.00  0.00    -0.203 F 
ATOM     82  C   UNL A   1      46.723  27.868  35.559  1.00  0.00     0.198 A 
ATOM     83  C   UNL A   1      45.326  26.024  36.208  1.00  0.00     0.198 A 
ATOM     84  F   UNL A   1      43.202  25.756  35.232  1.00  0.00    -0.203 F 
ATOM     85  F   UNL A   1      47.884  28.532  35.646  1.00  0.00    -0.200 F 
ATOM     86  C   UNL A   1      46.519  26.725  36.318  1.00  0.00     0.200 A 
ATOM     87  F   UNL A   1      45.125  24.926  36.948  1.00  0.00    -0.200 F 
ATOM     88  F   UNL A   1      47.475  26.294  37.152  1.00  0.00    -0.200 F 
ENDBRANCH  55  78
ENDBRANCH  29  30
ENDBRANCH  21  24
ENDBRANCH  19  20
ENDBRANCH   1  19
TORSDOF 12
ENDMDL
MODEL 2
REMARK VINA RESULT:     -12.2      0.208      2.018
REMARK SMILES C[C@H](C[C@H]1CSc2ccccc21)C(=O)NCCCNC(=O)c1ccc(-c2c3nc(c(-c4c(F)c(F)c(F)c(F)c4F)c4ccc([nH]4)c(-c4c(F)c(F)c(F)c(F)c4F)c4nc(c(-c5c(F)c(F)c(F)c(F)c5F)c5ccc2[nH]5)C=C4)C=C3)cc1
REMARK SMILES IDX 17 1 16 2 15 3 13 4 14 5 2 7 1 8 3 9 4 10 5 11 12 12 6 13
REMARK SMILES IDX 7 14 11 15 8 16 10 17 9 18 18 19 19 20 20 21 21 23 22 24
REMARK SMILES IDX 23 25 84 26 24 27 83 28 25 29 26 30 27 31 77 32 28 33 82 34
REMARK SMILES IDX 76 35 78 36 29 37 81 38 75 39 74 40 30 42 62 43 42 44 61 45
REMARK SMILES IDX 43 46 46 47 60 48 79 49 44 50 45 51 59 53 80 54 47 55 31 56
REMARK SMILES IDX 32 57 40 58 33 59 34 60 38 61 41 62 35 63 36 64 39 65 37 66
REMARK SMILES IDX 63 67 64 68 72 69 65 70 66 71 70 72 73 73 67 74 68 75 71 76
REMARK SMILES IDX 69 77 48 78 49 79 57 80 50 81 51 82 55 83 58 84 52 85 53 86
REMARK SMILES IDX 56 87 54 88
REMARK H PARENT 15 6 19 22 78 41 46 52
REMARK Flexibility Score: inf
ROOT
ATOM      1  C   UNL A   1      31.743  28.907  26.176  1.00  0.00     0.042 C 
ENDROOT
BRANCH   1   2
ATOM      2  C   UNL A   1      31.898  27.887  27.282  1.00  0.00     0.117 C 
BRANCH   2   3
ATOM      3  N   UNL A   1      31.418  26.583  26.869  1.00  0.00    -0.356 N 
ATOM      4  C   UNL A   1      32.015  25.636  26.107  1.00  0.00     0.222 C 
ATOM      5  O   UNL A   1      31.376  24.611  25.864  1.00  0.00    -0.275 OA
ATOM      6  H   UNL A   1      30.519  26.350  27.193  1.00  0.00     0.163 HD
BRANCH   4   7
ATOM      7  C   UNL A   1      33.410  25.844  25.546  1.00  0.00     0.076 C 
ATOM      8  C   UNL A   1      33.369  26.281  24.080  1.00  0.00     0.018 C 
BRANCH   7   9
ATOM      9  C   UNL A   1      34.316  24.631  25.872  1.00  0.00     0.022 C 
BRANCH   9  10
ATOM     10  C   UNL A   1      35.012  23.874  24.703  1.00  0.00     0.031 C 
ATOM     11  C   UNL A   1      36.493  23.542  25.000  1.00  0.00     0.083 C 
ATOM     12  C   UNL A   1      34.363  22.565  24.333  1.00  0.00    -0.030 A 
ATOM     13  S   UNL A   1      36.555  21.831  25.610  1.00  0.00    -0.125 SA
ATOM     14  C   UNL A   1      35.013  21.436  24.840  1.00  0.00     0.011 A 
ATOM     15  C   UNL A   1      33.125  22.446  23.704  1.00  0.00     0.005 A 
ATOM     16  C   UNL A   1      34.402  20.193  24.812  1.00  0.00     0.015 A 
ATOM     17  C   UNL A   1      32.498  21.201  23.686  1.00  0.00     0.000 A 
ATOM     18  C   UNL A   1      33.126  20.084  24.251  1.00  0.00     0.001 A 
ENDBRANCH   9  10
ENDBRANCH   7   9
ENDBRANCH   4   7
ENDBRANCH   2   3
ENDBRANCH   1   2
BRANCH   1  19
ATOM     19  C   UNL A   1      32.916  29.864  26.076  1.00  0.00     0.118 C 
BRANCH  19  20
ATOM     20  N   UNL A   1      32.619  31.202  26.579  1.00  0.00    -0.352 N 
ATOM     21  C   UNL A   1      33.393  31.982  27.408  1.00  0.00     0.251 C 
ATOM     22  H   UNL A   1      31.764  31.593  26.290  1.00  0.00     0.163 HD
ATOM     23  O   UNL A   1      32.984  33.043  27.862  1.00  0.00    -0.269 OA
BRANCH  21  24
ATOM     24  C   UNL A   1      34.723  31.466  27.772  1.00  0.00     0.039 A 
ATOM     25  C   UNL A   1      34.856  30.110  28.080  1.00  0.00     0.014 A 
ATOM     26  C   UNL A   1      35.765  32.364  28.001  1.00  0.00     0.014 A 
ATOM     27  C   UNL A   1      35.949  29.699  28.824  1.00  0.00     0.010 A 
ATOM     28  C   UNL A   1      36.918  31.915  28.644  1.00  0.00     0.010 A 
ATOM     29  C   UNL A   1      36.992  30.594  29.117  1.00  0.00    -0.014 A 
BRANCH  29  30
ATOM     30  C   UNL A   1      38.140  30.128  29.934  1.00  0.00     0.031 A 
ATOM     31  C   UNL A   1      39.200  29.236  29.347  1.00  0.00     0.074 A 
ATOM     32  C   UNL A   1      38.255  30.573  31.200  1.00  0.00     0.049 A 
ATOM     33  N   UNL A   1      40.231  28.683  29.935  1.00  0.00    -0.248 NA
ATOM     34  C   UNL A   1      39.090  28.914  27.914  1.00  0.00     0.031 C 
ATOM     35  C   UNL A   1      37.311  31.474  31.864  1.00  0.00     0.029 A 
ATOM     36  N   UNL A   1      39.225  30.358  32.143  1.00  0.00    -0.354 N 
ATOM     37  C   UNL A   1      40.866  27.922  28.962  1.00  0.00     0.074 A 
ATOM     38  C   UNL A   1      40.102  28.075  27.742  1.00  0.00     0.031 C 
ATOM     39  C   UNL A   1      37.782  31.792  33.075  1.00  0.00     0.029 A 
ATOM     40  C   UNL A   1      39.008  31.041  33.313  1.00  0.00     0.049 A 
ATOM     41  H   UNL A   1      40.003  29.772  31.995  1.00  0.00     0.167 HD
ATOM     42  C   UNL A   1      41.986  27.168  29.080  1.00  0.00     0.037 A 
ATOM     43  C   UNL A   1      39.701  31.040  34.466  1.00  0.00     0.037 A 
ATOM     44  C   UNL A   1      42.760  27.056  30.290  1.00  0.00     0.049 A 
ATOM     45  C   UNL A   1      40.913  30.166  34.581  1.00  0.00     0.074 A 
ATOM     46  C   UNL A   1      43.911  26.321  30.513  1.00  0.00     0.029 A 
ATOM     47  N   UNL A   1      42.468  27.709  31.478  1.00  0.00    -0.354 N 
ATOM     48  N   UNL A   1      41.469  29.405  33.671  1.00  0.00    -0.248 NA
ATOM     49  C   UNL A   1      41.577  30.130  35.889  1.00  0.00     0.031 C 
ATOM     50  C   UNL A   1      44.297  26.503  31.846  1.00  0.00     0.029 A 
ATOM     51  C   UNL A   1      43.410  27.384  32.442  1.00  0.00     0.049 A 
ATOM     52  H   UNL A   1      41.705  28.315  31.617  1.00  0.00     0.167 HD
ATOM     53  C   UNL A   1      42.547  28.795  34.294  1.00  0.00     0.074 A 
ATOM     54  C   UNL A   1      42.583  29.299  35.652  1.00  0.00     0.031 C 
ATOM     55  C   UNL A   1      43.419  27.889  33.790  1.00  0.00     0.037 A 
BRANCH  42  56
ATOM     56  C   UNL A   1      42.442  26.388  27.881  1.00  0.00     0.064 A 
ATOM     57  C   UNL A   1      41.896  25.138  27.561  1.00  0.00     0.173 A 
ATOM     58  C   UNL A   1      43.390  26.933  27.001  1.00  0.00     0.173 A 
ATOM     59  F   UNL A   1      40.996  24.566  28.376  1.00  0.00    -0.203 F 
ATOM     60  C   UNL A   1      42.288  24.457  26.411  1.00  0.00     0.198 A 
ATOM     61  C   UNL A   1      43.763  26.261  25.840  1.00  0.00     0.198 A 
ATOM     62  F   UNL A   1      43.941  28.130  27.257  1.00  0.00    -0.203 F 
ATOM     63  F   UNL A   1      41.774  23.249  26.142  1.00  0.00    -0.200 F 
ATOM     64  C   UNL A   1      43.214  25.022  25.547  1.00  0.00     0.200 A 
ATOM     65  F   UNL A   1      44.650  26.816  25.001  1.00  0.00    -0.200 F 
ATOM     66  F   UNL A   1      43.580  24.371  24.434  1.00  0.00    -0.200 F 
ENDBRANCH  42  56
BRANCH  43  67
ATOM     67  C   UNL A   1      39.236  31.880  35.596  1.00  0.00     0.064 A 
ATOM     68  C   UNL A   1      39.593  33.232  35.681  1.00  0.00     0.173 A 
ATOM     69  C   UNL A   1      38.382  31.365  36.584  1.00  0.00     0.173 A 
ATOM     70  F   UNL A   1      40.420  33.763  34.769  1.00  0.00    -0.203 F 
ATOM     71  C   UNL A   1      39.113  34.038  36.710  1.00  0.00     0.198 A 
ATOM     72  C   UNL A   1      37.879  32.178  37.595  1.00  0.00     0.198 A 
ATOM     73  F   UNL A   1      38.007  30.078  36.543  1.00  0.00    -0.203 F 
ATOM     74  F   UNL A   1      39.487  35.322  36.782  1.00  0.00    -0.200 F 
ATOM     75  C   UNL A   1      38.248  33.514  37.660  1.00  0.00     0.200 A 
ATOM     76  F   UNL A   1      37.028  31.673  38.498  1.00  0.00    -0.200 F 
ATOM     77  F   UNL A   1      37.769  34.295  38.637  1.00  0.00    -0.200 F 
ENDBRANCH  43  67
BRANCH  55  78
ATOM     78  C   UNL A   1      44.487  27.390  34.715  1.00  0.00     0.064 A 
ATOM     79  C   UNL A   1      44.309  26.219  35.466  1.00  0.00     0.173 A 
ATOM     80  C   UNL A   1      45.709  28.067  34.826  1.00  0.00     0.173 A 
ATOM     81  F   UNL A   1      43.149  25.548  35.405  1.00  0.00    -0.203 F 
ATOM     82  C   UNL A   1      45.312  25.755  36.312  1.00  0.00     0.198 A 
ATOM     83  C   UNL A   1      46.719  27.587  35.654  1.00  0.00     0.198 A 
ATOM     84  F   UNL A   1      45.926  29.189  34.124  1.00  0.00    -0.203 F 
ATOM     85  F   UNL A   1      45.106  24.657  37.053  1.00  0.00    -0.200 F 
ATOM     86  C   UNL A   1      46.517  26.436  36.401  1.00  0.00     0.200 A 
ATOM     87  F   UNL A   1      47.887  28.240  35.731  1.00  0.00    -0.200 F 
ATOM     88  F   UNL A   1      47.483  25.985  37.213  1.00  0.00    -0.200 F 
ENDBRANCH  55  78
ENDBRANCH  29  30
ENDBRANCH  21  24
ENDBRANCH  19  20
ENDBRANCH   1  19
TORSDOF 12
ENDMDL
MODEL 3
REMARK VINA RESULT:     -12.0      2.620      8.493
REMARK SMILES C[C@H](C[C@H]1CSc2ccccc21)C(=O)NCCCNC(=O)c1ccc(-c2c3nc(c(-c4c(F)c(F)c(F)c(F)c4F)c4ccc([nH]4)c(-c4c(F)c(F)c(F)c(F)c4F)c4nc(c(-c5c(F)c(F)c(F)c(F)c5F)c5ccc2[nH]5)C=C4)C=C3)cc1
REMARK SMILES IDX 17 1 16 2 15 3 13 4 14 5 2 7 1 8 3 9 4 10 5 11 12 12 6 13
REMARK SMILES IDX 7 14 11 15 8 16 10 17 9 18 18 19 19 20 20 21 21 23 22 24
REMARK SMILES IDX 23 25 84 26 24 27 83 28 25 29 26 30 27 31 77 32 28 33 82 34
REMARK SMILES IDX 76 35 78 36 29 37 81 38 75 39 74 40 30 42 62 43 42 44 61 45
REMARK SMILES IDX 43 46 46 47 60 48 79 49 44 50 45 51 59 53 80 54 47 55 31 56
REMARK SMILES IDX 32 57 40 58 33 59 34 60 38 61 41 62 35 63 36 64 39 65 37 66
REMARK SMILES IDX 63 67 64 68 72 69 65 70 66 71 70 72 73 73 67 74 68 75 71 76
REMARK SMILES IDX 69 77 48 78 49 79 57 80 50 81 51 82 55 83 58 84 52 85 53 86
REMARK SMILES IDX 56 87 54 88
REMARK H PARENT 15 6 19 22 78 41 46 52
REMARK Flexibility Score: inf
ROOT
ATOM      1  C   UNL A   1      32.137  31.687  26.958  1.00  0.00     0.042 C 
ENDROOT
BRANCH   1   2
ATOM      2  C   UNL A   1      32.685  30.283  26.824  1.00  0.00     0.117 C 
BRANCH   2   3
ATOM      3  N   UNL A   1      33.238  30.055  25.504  1.00  0.00    -0.356 N 
ATOM      4  C   UNL A   1      33.274  28.925  24.758  1.00  0.00     0.222 C 
ATOM      5  O   UNL A   1      33.842  28.979  23.666  1.00  0.00    -0.275 OA
ATOM      6  H   UNL A   1      33.652  30.842  25.085  1.00  0.00     0.163 HD
BRANCH   4   7
ATOM      7  C   UNL A   1      32.663  27.630  25.263  1.00  0.00     0.076 C 
ATOM      8  C   UNL A   1      33.392  26.406  24.703  1.00  0.00     0.018 C 
BRANCH   7   9
ATOM      9  C   UNL A   1      31.125  27.647  25.089  1.00  0.00     0.022 C 
BRANCH   9  10
ATOM     10  C   UNL A   1      30.514  27.197  23.729  1.00  0.00     0.031 C 
ATOM     11  C   UNL A   1      29.532  26.012  23.876  1.00  0.00     0.083 C 
ATOM     12  C   UNL A   1      29.755  28.274  22.999  1.00  0.00    -0.030 A 
ATOM     13  S   UNL A   1      27.852  26.703  23.941  1.00  0.00    -0.125 SA
ATOM     14  C   UNL A   1      28.365  28.187  23.126  1.00  0.00     0.011 A 
ATOM     15  C   UNL A   1      30.341  29.384  22.394  1.00  0.00     0.005 A 
ATOM     16  C   UNL A   1      27.550  29.238  22.740  1.00  0.00     0.015 A 
ATOM     17  C   UNL A   1      29.527  30.452  22.018  1.00  0.00     0.000 A 
ATOM     18  C   UNL A   1      28.141  30.386  22.205  1.00  0.00     0.001 A 
ENDBRANCH   9  10
ENDBRANCH   7   9
ENDBRANCH   4   7
ENDBRANCH   2   3
ENDBRANCH   1   2
BRANCH   1  19
ATOM     19  C   UNL A   1      33.138  32.668  27.538  1.00  0.00     0.118 C 
BRANCH  19  20
ATOM     20  N   UNL A   1      32.600  34.012  27.714  1.00  0.00    -0.352 N 
ATOM     21  C   UNL A   1      32.999  34.970  28.618  1.00  0.00     0.251 C 
ATOM     22  H   UNL A   1      31.863  34.265  27.112  1.00  0.00     0.163 HD
ATOM     23  O   UNL A   1      32.391  36.024  28.753  1.00  0.00    -0.269 OA
BRANCH  21  24
ATOM     24  C   UNL A   1      34.167  34.657  29.459  1.00  0.00     0.039 A 
ATOM     25  C   UNL A   1      35.438  34.699  28.883  1.00  0.00     0.014 A 
ATOM     26  C   UNL A   1      33.969  34.131  30.735  1.00  0.00     0.014 A 
ATOM     27  C   UNL A   1      36.472  34.010  29.496  1.00  0.00     0.010 A 
ATOM     28  C   UNL A   1      35.044  33.544  31.401  1.00  0.00     0.010 A 
ATOM     29  C   UNL A   1      36.288  33.423  30.760  1.00  0.00    -0.014 A 
BRANCH  29  30
ATOM     30  C   UNL A   1      37.409  32.673  31.381  1.00  0.00     0.031 A 
ATOM     31  C   UNL A   1      37.863  32.976  32.783  1.00  0.00     0.074 A 
ATOM     32  C   UNL A   1      37.974  31.666  30.689  1.00  0.00     0.049 A 
ATOM     33  N   UNL A   1      38.867  32.467  33.453  1.00  0.00    -0.248 NA
ATOM     34  C   UNL A   1      37.099  33.986  33.534  1.00  0.00     0.031 C 
ATOM     35  C   UNL A   1      37.590  31.255  29.337  1.00  0.00     0.029 A 
ATOM     36  N   UNL A   1      38.966  30.786  31.033  1.00  0.00    -0.354 N 
ATOM     37  C   UNL A   1      38.878  33.117  34.681  1.00  0.00     0.074 A 
ATOM     38  C   UNL A   1      37.786  34.067  34.665  1.00  0.00     0.031 C 
ATOM     39  C   UNL A   1      38.283  30.162  28.995  1.00  0.00     0.029 A 
ATOM     40  C   UNL A   1      39.230  29.854  30.060  1.00  0.00     0.049 A 
ATOM     41  H   UNL A   1      39.443  30.817  31.895  1.00  0.00     0.167 HD
ATOM     42  C   UNL A   1      39.724  32.932  35.723  1.00  0.00     0.037 A 
ATOM     43  C   UNL A   1      40.154  28.879  30.013  1.00  0.00     0.037 A 
ATOM     44  C   UNL A   1      40.782  31.955  35.741  1.00  0.00     0.049 A 
ATOM     45  C   UNL A   1      41.102  28.725  31.163  1.00  0.00     0.074 A 
ATOM     46  C   UNL A   1      41.693  31.686  36.749  1.00  0.00     0.029 A 
ATOM     47  N   UNL A   1      41.063  31.076  34.706  1.00  0.00    -0.354 N 
ATOM     48  N   UNL A   1      41.140  29.385  32.294  1.00  0.00    -0.248 NA
ATOM     49  C   UNL A   1      42.150  27.708  31.021  1.00  0.00     0.031 C 
ATOM     50  C   UNL A   1      42.545  30.667  36.310  1.00  0.00     0.029 A 
ATOM     51  C   UNL A   1      42.141  30.272  35.046  1.00  0.00     0.049 A 
ATOM     52  H   UNL A   1      40.570  31.028  33.856  1.00  0.00     0.167 HD
ATOM     53  C   UNL A   1      42.217  28.869  32.999  1.00  0.00     0.074 A 
ATOM     54  C   UNL A   1      42.787  27.819  32.179  1.00  0.00     0.031 C 
ATOM     55  C   UNL A   1      42.698  29.241  34.209  1.00  0.00     0.037 A 
BRANCH  42  56
ATOM     56  C   UNL A   1      39.559  33.810  36.930  1.00  0.00     0.064 A 
ATOM     57  C   UNL A   1      40.115  35.094  36.991  1.00  0.00     0.173 A 
ATOM     58  C   UNL A   1      38.773  33.384  38.013  1.00  0.00     0.173 A 
ATOM     59  F   UNL A   1      40.886  35.544  35.989  1.00  0.00    -0.203 F 
ATOM     60  C   UNL A   1      39.900  35.917  38.095  1.00  0.00     0.198 A 
ATOM     61  C   UNL A   1      38.541  34.217  39.104  1.00  0.00     0.198 A 
ATOM     62  F   UNL A   1      38.213  32.164  38.004  1.00  0.00    -0.203 F 
ATOM     63  F   UNL A   1      40.468  37.130  38.144  1.00  0.00    -0.200 F 
ATOM     64  C   UNL A   1      39.107  35.482  39.146  1.00  0.00     0.200 A 
ATOM     65  F   UNL A   1      37.763  33.798  40.113  1.00  0.00    -0.200 F 
ATOM     66  F   UNL A   1      38.890  36.281  40.200  1.00  0.00    -0.200 F 
ENDBRANCH  42  56
BRANCH  43  67
ATOM     67  C   UNL A   1      40.228  28.003  28.819  1.00  0.00     0.064 A 
ATOM     68  C   UNL A   1      40.961  28.389  27.689  1.00  0.00     0.173 A 
ATOM     69  C   UNL A   1      39.615  26.741  28.801  1.00  0.00     0.173 A 
ATOM     70  F   UNL A   1      41.549  29.594  27.654  1.00  0.00    -0.203 F 
ATOM     71  C   UNL A   1      41.079  27.545  26.588  1.00  0.00     0.198 A 
ATOM     72  C   UNL A   1      39.758  25.886  27.713  1.00  0.00     0.198 A 
ATOM     73  F   UNL A   1      38.907  26.324  29.862  1.00  0.00    -0.203 F 
ATOM     74  F   UNL A   1      41.766  27.947  25.510  1.00  0.00    -0.200 F 
ATOM     75  C   UNL A   1      40.487  26.290  26.604  1.00  0.00     0.200 A 
ATOM     76  F   UNL A   1      39.202  24.667  27.742  1.00  0.00    -0.200 F 
ATOM     77  F   UNL A   1      40.620  25.470  25.554  1.00  0.00    -0.200 F 
ENDBRANCH  43  67
BRANCH  55  78
ATOM     78  C   UNL A   1      43.898  28.502  34.717  1.00  0.00     0.064 A 
ATOM     79  C   UNL A   1      43.765  27.305  35.435  1.00  0.00     0.173 A 
ATOM     80  C   UNL A   1      45.192  28.974  34.454  1.00  0.00     0.173 A 
ATOM     81  F   UNL A   1      42.547  26.825  35.725  1.00  0.00    -0.203 F 
ATOM     82  C   UNL A   1      44.886  26.619  35.891  1.00  0.00     0.198 A 
ATOM     83  C   UNL A   1      46.310  28.272  34.889  1.00  0.00     0.198 A 
ATOM     84  F   UNL A   1      45.368  30.113  33.766  1.00  0.00    -0.203 F 
ATOM     85  F   UNL A   1      44.736  25.499  36.613  1.00  0.00    -0.200 F 
ATOM     86  C   UNL A   1      46.157  27.099  35.613  1.00  0.00     0.200 A 
ATOM     87  F   UNL A   1      47.538  28.732  34.611  1.00  0.00    -0.200 F 
ATOM     88  F   UNL A   1      47.236  26.434  36.049  1.00  0.00    -0.200 F 
ENDBRANCH  55  78
ENDBRANCH  29  30
ENDBRANCH  21  24
ENDBRANCH  19  20
ENDBRANCH   1  19
TORSDOF 12
ENDMDL
