MODEL 1
REMARK VINA RESULT:     -12.9      0.000      0.000
REMARK SMILES C[C@@]1(CNC(=O)N2CCC(CC(=O)NCCCNC(=O)c3ccc(-c4c5nc(c(-c6c(F)c(F)c(F)c(F)c6F)c6ccc([nH]6)c(-c6c(F)c(F)c(F)c(F)c6F)c6nc(c(-c7c(F)c(F)c(F)c(F)c7F)c7ccc4[nH]7)C=C6)C=C5)cc3)CC2)CCCO1
REMARK SMILES IDX 15 1 14 2 12 3 13 4 11 6 10 7 4 8 5 9 6 11 7 12 8 13 85 14
REMARK SMILES IDX 9 15 84 16 3 17 2 18 1 19 86 20 89 21 87 22 88 23 16 24
REMARK SMILES IDX 17 25 18 26 19 27 20 29 21 30 22 31 83 32 23 33 82 34 24 35
REMARK SMILES IDX 25 36 26 37 76 38 27 39 81 40 75 41 77 42 28 43 80 44 74 45
REMARK SMILES IDX 73 46 29 48 61 49 41 50 60 51 42 52 45 53 59 54 78 55 43 56
REMARK SMILES IDX 44 57 58 59 79 60 46 61 30 62 31 63 39 64 32 65 33 66 37 67
REMARK SMILES IDX 40 68 34 69 35 70 38 71 36 72 62 73 63 74 71 75 64 76 65 77
REMARK SMILES IDX 69 78 72 79 66 80 67 81 70 82 68 83 47 84 48 85 56 86 49 87
REMARK SMILES IDX 50 88 54 89 57 90 51 91 52 92 55 93 53 94
REMARK H PARENT 14 5 4 10 18 28 77 47 45 58
REMARK Flexibility Score: inf
ROOT
ATOM      1  C   UNL A   1      30.800  30.364  24.897  1.00  0.00     0.117 C 
ENDROOT
BRANCH   1   2
ATOM      2  N   UNL A   1      30.620  29.946  23.513  1.00  0.00    -0.356 N 
ATOM      3  C   UNL A   1      30.122  28.797  22.976  1.00  0.00     0.220 C 
ATOM      4  O   UNL A   1      30.086  28.700  21.747  1.00  0.00    -0.275 OA
ATOM      5  H   UNL A   1      30.909  30.613  22.848  1.00  0.00     0.163 HD
BRANCH   3   6
ATOM      6  C   UNL A   1      29.663  27.652  23.858  1.00  0.00     0.103 C 
BRANCH   6   7
ATOM      7  C   UNL A   1      30.702  26.519  23.917  1.00  0.00     0.002 C 
ATOM      8  N   UNL A   1      31.169  21.829  25.779  1.00  0.00    -0.335 N 
ATOM      9  C   UNL A   1      31.081  23.167  26.023  1.00  0.00     0.317 C 
ATOM     10  H   UNL A   1      30.513  21.246  26.224  1.00  0.00     0.165 HD
ATOM     11  O   UNL A   1      30.653  23.566  27.102  1.00  0.00    -0.249 OA
ATOM     12  N   UNL A   1      31.582  24.002  25.053  1.00  0.00    -0.325 N 
ATOM     13  C   UNL A   1      32.247  25.223  25.453  1.00  0.00     0.121 C 
ATOM     14  C   UNL A   1      31.032  24.001  23.701  1.00  0.00     0.121 C 
ATOM     15  C   UNL A   1      31.314  26.411  25.320  1.00  0.00     0.026 C 
ATOM     16  C   UNL A   1      30.064  25.175  23.515  1.00  0.00     0.026 C 
BRANCH   8  17
ATOM     17  C   UNL A   1      32.151  21.189  24.913  1.00  0.00     0.152 C 
BRANCH  17  18
ATOM     18  C   UNL A   1      33.200  20.339  25.687  1.00  0.00     0.083 C 
ATOM     19  C   UNL A   1      33.829  21.066  26.877  1.00  0.00     0.044 C 
ATOM     20  C   UNL A   1      34.286  19.820  24.740  1.00  0.00     0.039 C 
ATOM     21  O   UNL A   1      32.532  19.152  26.177  1.00  0.00    -0.373 OA
ATOM     22  C   UNL A   1      33.644  18.592  24.150  1.00  0.00     0.031 C 
ATOM     23  C   UNL A   1      32.873  18.043  25.331  1.00  0.00     0.161 C 
ENDBRANCH  17  18
ENDBRANCH   8  17
ENDBRANCH   6   7
ENDBRANCH   3   6
ENDBRANCH   1   2
BRANCH   1  24
ATOM     24  C   UNL A   1      32.151  29.949  25.483  1.00  0.00     0.042 C 
BRANCH  24  25
ATOM     25  C   UNL A   1      32.416  30.451  26.898  1.00  0.00     0.118 C 
BRANCH  25  26
ATOM     26  N   UNL A   1      32.574  31.894  26.938  1.00  0.00    -0.352 N 
ATOM     27  C   UNL A   1      33.535  32.656  27.553  1.00  0.00     0.251 C 
ATOM     28  H   UNL A   1      31.886  32.402  26.450  1.00  0.00     0.163 HD
ATOM     29  O   UNL A   1      33.350  33.867  27.664  1.00  0.00    -0.269 OA
BRANCH  27  30
ATOM     30  C   UNL A   1      34.793  32.066  28.079  1.00  0.00     0.039 A 
ATOM     31  C   UNL A   1      34.777  30.726  28.487  1.00  0.00     0.014 A 
ATOM     32  C   UNL A   1      35.945  32.830  28.287  1.00  0.00     0.014 A 
ATOM     33  C   UNL A   1      35.902  30.157  29.094  1.00  0.00     0.010 A 
ATOM     34  C   UNL A   1      37.088  32.247  28.841  1.00  0.00     0.010 A 
ATOM     35  C   UNL A   1      37.068  30.914  29.279  1.00  0.00    -0.014 A 
BRANCH  35  36
ATOM     36  C   UNL A   1      38.232  30.349  30.013  1.00  0.00     0.031 A 
ATOM     37  C   UNL A   1      38.458  30.713  31.457  1.00  0.00     0.074 A 
ATOM     38  C   UNL A   1      39.097  29.525  29.394  1.00  0.00     0.049 A 
ATOM     39  N   UNL A   1      39.430  30.360  32.261  1.00  0.00    -0.248 NA
ATOM     40  C   UNL A   1      37.469  31.613  32.073  1.00  0.00     0.031 C 
ATOM     41  C   UNL A   1      39.018  29.112  27.993  1.00  0.00     0.029 A 
ATOM     42  N   UNL A   1      40.216  28.887  29.869  1.00  0.00    -0.354 N 
ATOM     43  C   UNL A   1      39.188  31.018  33.460  1.00  0.00     0.074 A 
ATOM     44  C   UNL A   1      37.991  31.809  33.274  1.00  0.00     0.031 C 
ATOM     45  C   UNL A   1      40.035  28.275  27.727  1.00  0.00     0.029 A 
ATOM     46  C   UNL A   1      40.844  28.104  28.932  1.00  0.00     0.049 A 
ATOM     47  H   UNL A   1      40.539  28.982  30.794  1.00  0.00     0.167 HD
ATOM     48  C   UNL A   1      39.890  30.958  34.617  1.00  0.00     0.037 A 
ATOM     49  C   UNL A   1      41.941  27.332  29.035  1.00  0.00     0.037 A 
ATOM     50  C   UNL A   1      41.046  30.132  34.833  1.00  0.00     0.049 A 
ATOM     51  C   UNL A   1      42.663  27.229  30.350  1.00  0.00     0.074 A 
ATOM     52  C   UNL A   1      41.792  29.971  35.988  1.00  0.00     0.029 A 
ATOM     53  N   UNL A   1      41.617  29.313  33.871  1.00  0.00    -0.354 N 
ATOM     54  N   UNL A   1      42.404  27.830  31.484  1.00  0.00    -0.248 NA
ATOM     55  C   UNL A   1      43.825  26.327  30.401  1.00  0.00     0.031 C 
ATOM     56  C   UNL A   1      42.823  29.062  35.722  1.00  0.00     0.029 A 
ATOM     57  C   UNL A   1      42.703  28.642  34.408  1.00  0.00     0.049 A 
ATOM     58  H   UNL A   1      41.297  29.221  32.944  1.00  0.00     0.167 HD
ATOM     59  C   UNL A   1      43.353  27.368  32.386  1.00  0.00     0.074 A 
ATOM     60  C   UNL A   1      44.191  26.428  31.671  1.00  0.00     0.031 C 
ATOM     61  C   UNL A   1      43.516  27.698  33.689  1.00  0.00     0.037 A 
BRANCH  48  62
ATOM     62  C   UNL A   1      39.417  31.815  35.751  1.00  0.00     0.064 A 
ATOM     63  C   UNL A   1      38.428  31.373  36.640  1.00  0.00     0.173 A 
ATOM     64  C   UNL A   1      39.978  33.082  35.965  1.00  0.00     0.173 A 
ATOM     65  F   UNL A   1      37.853  30.175  36.467  1.00  0.00    -0.203 F 
ATOM     66  C   UNL A   1      38.003  32.179  37.693  1.00  0.00     0.198 A 
ATOM     67  C   UNL A   1      39.564  33.876  37.030  1.00  0.00     0.198 A 
ATOM     68  F   UNL A   1      40.930  33.547  35.141  1.00  0.00    -0.203 F 
ATOM     69  F   UNL A   1      37.030  31.754  38.509  1.00  0.00    -0.200 F 
ATOM     70  C   UNL A   1      38.574  33.427  37.890  1.00  0.00     0.200 A 
ATOM     71  F   UNL A   1      40.121  35.081  37.223  1.00  0.00    -0.200 F 
ATOM     72  F   UNL A   1      38.163  34.201  38.904  1.00  0.00    -0.200 F 
ENDBRANCH  48  62
BRANCH  49  73
ATOM     73  C   UNL A   1      42.405  26.556  27.860  1.00  0.00     0.064 A 
ATOM     74  C   UNL A   1      41.920  25.264  27.620  1.00  0.00     0.173 A 
ATOM     75  C   UNL A   1      43.338  27.085  26.960  1.00  0.00     0.173 A 
ATOM     76  F   UNL A   1      41.045  24.710  28.471  1.00  0.00    -0.203 F 
ATOM     77  C   UNL A   1      42.360  24.524  26.526  1.00  0.00     0.198 A 
ATOM     78  C   UNL A   1      43.766  26.350  25.856  1.00  0.00     0.198 A 
ATOM     79  F   UNL A   1      43.833  28.317  27.153  1.00  0.00    -0.203 F 
ATOM     80  F   UNL A   1      41.907  23.277  26.337  1.00  0.00    -0.200 F 
ATOM     81  C   UNL A   1      43.280  25.069  25.643  1.00  0.00     0.200 A 
ATOM     82  F   UNL A   1      44.654  26.880  25.003  1.00  0.00    -0.200 F 
ATOM     83  F   UNL A   1      43.706  24.356  24.591  1.00  0.00    -0.200 F 
ENDBRANCH  49  73
BRANCH  61  84
ATOM     84  C   UNL A   1      44.620  27.017  34.436  1.00  0.00     0.064 A 
ATOM     85  C   UNL A   1      45.899  27.582  34.523  1.00  0.00     0.173 A 
ATOM     86  C   UNL A   1      44.385  25.808  35.107  1.00  0.00     0.173 A 
ATOM     87  F   UNL A   1      46.174  28.730  33.887  1.00  0.00    -0.203 F 
ATOM     88  C   UNL A   1      46.910  26.952  35.243  1.00  0.00     0.198 A 
ATOM     89  C   UNL A   1      45.393  25.189  35.840  1.00  0.00     0.198 A 
ATOM     90  F   UNL A   1      43.175  25.231  35.054  1.00  0.00    -0.203 F 
ATOM     91  F   UNL A   1      48.134  27.494  35.291  1.00  0.00    -0.200 F 
ATOM     92  C   UNL A   1      46.656  25.760  35.905  1.00  0.00     0.200 A 
ATOM     93  F   UNL A   1      45.145  24.039  36.481  1.00  0.00    -0.200 F 
ATOM     94  F   UNL A   1      47.629  25.156  36.600  1.00  0.00    -0.200 F 
ENDBRANCH  61  84
ENDBRANCH  35  36
ENDBRANCH  27  30
ENDBRANCH  25  26
ENDBRANCH  24  25
ENDBRANCH   1  24
TORSDOF 13
ENDMDL
MODEL 2
REMARK VINA RESULT:     -12.9      0.063      1.593
REMARK SMILES C[C@@]1(CNC(=O)N2CCC(CC(=O)NCCCNC(=O)c3ccc(-c4c5nc(c(-c6c(F)c(F)c(F)c(F)c6F)c6ccc([nH]6)c(-c6c(F)c(F)c(F)c(F)c6F)c6nc(c(-c7c(F)c(F)c(F)c(F)c7F)c7ccc4[nH]7)C=C6)C=C5)cc3)CC2)CCCO1
REMARK SMILES IDX 15 1 14 2 12 3 13 4 11 6 10 7 4 8 5 9 6 11 7 12 8 13 85 14
REMARK SMILES IDX 9 15 84 16 3 17 2 18 1 19 86 20 89 21 87 22 88 23 16 24
REMARK SMILES IDX 17 25 18 26 19 27 20 29 21 30 22 31 83 32 23 33 82 34 24 35
REMARK SMILES IDX 25 36 26 37 76 38 27 39 81 40 75 41 77 42 28 43 80 44 74 45
REMARK SMILES IDX 73 46 29 48 61 49 41 50 60 51 42 52 45 53 59 54 78 55 43 56
REMARK SMILES IDX 44 57 58 59 79 60 46 61 30 62 31 63 39 64 32 65 33 66 37 67
REMARK SMILES IDX 40 68 34 69 35 70 38 71 36 72 62 73 63 74 71 75 64 76 65 77
REMARK SMILES IDX 69 78 72 79 66 80 67 81 70 82 68 83 47 84 48 85 56 86 49 87
REMARK SMILES IDX 50 88 54 89 57 90 51 91 52 92 55 93 53 94
REMARK H PARENT 14 5 4 10 18 28 77 47 45 58
REMARK Flexibility Score: inf
ROOT
ATOM      1  C   UNL A   1      30.781  30.352  24.912  1.00  0.00     0.117 C 
ENDROOT
BRANCH   1   2
ATOM      2  N   UNL A   1      30.570  29.943  23.530  1.00  0.00    -0.356 N 
ATOM      3  C   UNL A   1      30.057  28.799  22.996  1.00  0.00     0.220 C 
ATOM      4  O   UNL A   1      29.996  28.710  21.768  1.00  0.00    -0.275 OA
ATOM      5  H   UNL A   1      30.848  30.613  22.862  1.00  0.00     0.163 HD
BRANCH   3   6
ATOM      6  C   UNL A   1      29.613  27.651  23.880  1.00  0.00     0.103 C 
BRANCH   6   7
ATOM      7  C   UNL A   1      30.662  26.527  23.935  1.00  0.00     0.002 C 
ATOM      8  N   UNL A   1      31.165  21.827  25.761  1.00  0.00    -0.335 N 
ATOM      9  C   UNL A   1      31.063  23.162  26.016  1.00  0.00     0.317 C 
ATOM     10  H   UNL A   1      30.513  21.234  26.199  1.00  0.00     0.165 HD
ATOM     11  O   UNL A   1      30.626  23.548  27.096  1.00  0.00    -0.249 OA
ATOM     12  N   UNL A   1      31.561  24.009  25.055  1.00  0.00    -0.325 N 
ATOM     13  C   UNL A   1      32.211  25.234  25.468  1.00  0.00     0.121 C 
ATOM     14  C   UNL A   1      31.018  24.015  23.701  1.00  0.00     0.121 C 
ATOM     15  C   UNL A   1      31.268  26.414  25.340  1.00  0.00     0.026 C 
ATOM     16  C   UNL A   1      30.039  25.180  23.519  1.00  0.00     0.026 C 
BRANCH   8  17
ATOM     17  C   UNL A   1      32.158  21.204  24.896  1.00  0.00     0.152 C 
BRANCH  17  18
ATOM     18  C   UNL A   1      33.201  20.344  25.667  1.00  0.00     0.083 C 
ATOM     19  C   UNL A   1      33.827  21.060  26.865  1.00  0.00     0.044 C 
ATOM     20  C   UNL A   1      34.289  19.831  24.719  1.00  0.00     0.039 C 
ATOM     21  O   UNL A   1      32.528  19.155  26.144  1.00  0.00    -0.373 OA
ATOM     22  C   UNL A   1      33.646  18.609  24.116  1.00  0.00     0.031 C 
ATOM     23  C   UNL A   1      32.869  18.052  25.290  1.00  0.00     0.161 C 
ENDBRANCH  17  18
ENDBRANCH   8  17
ENDBRANCH   6   7
ENDBRANCH   3   6
ENDBRANCH   1   2
BRANCH   1  24
ATOM     24  C   UNL A   1      32.157  29.963  25.454  1.00  0.00     0.042 C 
BRANCH  24  25
ATOM     25  C   UNL A   1      32.436  30.424  26.881  1.00  0.00     0.118 C 
BRANCH  25  26
ATOM     26  N   UNL A   1      32.570  31.867  26.966  1.00  0.00    -0.352 N 
ATOM     27  C   UNL A   1      33.515  32.626  27.608  1.00  0.00     0.251 C 
ATOM     28  H   UNL A   1      31.876  32.378  26.490  1.00  0.00     0.163 HD
ATOM     29  O   UNL A   1      33.310  33.830  27.755  1.00  0.00    -0.269 OA
BRANCH  27  30
ATOM     30  C   UNL A   1      34.780  32.041  28.122  1.00  0.00     0.039 A 
ATOM     31  C   UNL A   1      34.774  30.702  28.532  1.00  0.00     0.014 A 
ATOM     32  C   UNL A   1      35.932  32.810  28.318  1.00  0.00     0.014 A 
ATOM     33  C   UNL A   1      35.907  30.137  29.127  1.00  0.00     0.010 A 
ATOM     34  C   UNL A   1      37.083  32.231  28.861  1.00  0.00     0.010 A 
ATOM     35  C   UNL A   1      37.072  30.899  29.301  1.00  0.00    -0.014 A 
BRANCH  35  36
ATOM     36  C   UNL A   1      38.244  30.339  30.024  1.00  0.00     0.031 A 
ATOM     37  C   UNL A   1      38.486  30.709  31.464  1.00  0.00     0.074 A 
ATOM     38  C   UNL A   1      39.104  29.514  29.398  1.00  0.00     0.049 A 
ATOM     39  N   UNL A   1      39.468  30.361  32.259  1.00  0.00    -0.248 NA
ATOM     40  C   UNL A   1      37.503  31.609  32.088  1.00  0.00     0.031 C 
ATOM     41  C   UNL A   1      39.011  29.095  28.000  1.00  0.00     0.029 A 
ATOM     42  N   UNL A   1      40.230  28.880  29.863  1.00  0.00    -0.354 N 
ATOM     43  C   UNL A   1      39.238  31.023  33.457  1.00  0.00     0.074 A 
ATOM     44  C   UNL A   1      38.037  31.812  33.282  1.00  0.00     0.031 C 
ATOM     45  C   UNL A   1      40.026  28.259  27.726  1.00  0.00     0.029 A 
ATOM     46  C   UNL A   1      40.849  28.095  28.922  1.00  0.00     0.049 A 
ATOM     47  H   UNL A   1      40.563  28.979  30.784  1.00  0.00     0.167 HD
ATOM     48  C   UNL A   1      39.953  30.969  34.607  1.00  0.00     0.037 A 
ATOM     49  C   UNL A   1      41.948  27.325  29.015  1.00  0.00     0.037 A 
ATOM     50  C   UNL A   1      41.113  30.146  34.813  1.00  0.00     0.049 A 
ATOM     51  C   UNL A   1      42.685  27.228  30.323  1.00  0.00     0.074 A 
ATOM     52  C   UNL A   1      41.873  29.991  35.959  1.00  0.00     0.029 A 
ATOM     53  N   UNL A   1      41.675  29.324  33.848  1.00  0.00    -0.354 N 
ATOM     54  N   UNL A   1      42.438  27.833  31.457  1.00  0.00    -0.248 NA
ATOM     55  C   UNL A   1      43.849  26.328  30.364  1.00  0.00     0.031 C 
ATOM     56  C   UNL A   1      42.903  29.083  35.685  1.00  0.00     0.029 A 
ATOM     57  C   UNL A   1      42.769  28.658  34.375  1.00  0.00     0.049 A 
ATOM     58  H   UNL A   1      41.345  29.228  32.925  1.00  0.00     0.167 HD
ATOM     59  C   UNL A   1      43.398  27.377  32.350  1.00  0.00     0.074 A 
ATOM     60  C   UNL A   1      44.229  26.436  31.630  1.00  0.00     0.031 C 
ATOM     61  C   UNL A   1      43.575  27.712  33.650  1.00  0.00     0.037 A 
BRANCH  48  62
ATOM     62  C   UNL A   1      39.491  31.830  35.742  1.00  0.00     0.064 A 
ATOM     63  C   UNL A   1      40.020  33.111  35.952  1.00  0.00     0.173 A 
ATOM     64  C   UNL A   1      38.491  31.379  36.614  1.00  0.00     0.173 A 
ATOM     65  F   UNL A   1      40.988  33.579  35.152  1.00  0.00    -0.203 F 
ATOM     66  C   UNL A   1      39.577  33.902  37.008  1.00  0.00     0.198 A 
ATOM     67  C   UNL A   1      38.036  32.180  37.657  1.00  0.00     0.198 A 
ATOM     68  F   UNL A   1      37.952  30.160  36.452  1.00  0.00    -0.203 F 
ATOM     69  F   UNL A   1      40.122  35.108  37.213  1.00  0.00    -0.200 F 
ATOM     70  C   UNL A   1      38.583  33.439  37.856  1.00  0.00     0.200 A 
ATOM     71  F   UNL A   1      37.071  31.734  38.473  1.00  0.00    -0.200 F 
ATOM     72  F   UNL A   1      38.158  34.202  38.872  1.00  0.00    -0.200 F 
ENDBRANCH  48  62
BRANCH  49  73
ATOM     73  C   UNL A   1      42.401  26.545  27.839  1.00  0.00     0.064 A 
ATOM     74  C   UNL A   1      43.362  27.066  26.962  1.00  0.00     0.173 A 
ATOM     75  C   UNL A   1      41.885  25.272  27.568  1.00  0.00     0.173 A 
ATOM     76  F   UNL A   1      43.862  28.292  27.172  1.00  0.00    -0.203 F 
ATOM     77  C   UNL A   1      43.783  26.344  25.849  1.00  0.00     0.198 A 
ATOM     78  C   UNL A   1      42.320  24.544  26.461  1.00  0.00     0.198 A 
ATOM     79  F   UNL A   1      40.961  24.735  28.378  1.00  0.00    -0.203 F 
ATOM     80  F   UNL A   1      44.678  26.878  25.006  1.00  0.00    -0.200 F 
ATOM     81  C   UNL A   1      43.264  25.082  25.601  1.00  0.00     0.200 A 
ATOM     82  F   UNL A   1      41.818  23.323  26.226  1.00  0.00    -0.200 F 
ATOM     83  F   UNL A   1      43.668  24.389  24.528  1.00  0.00    -0.200 F 
ENDBRANCH  49  73
BRANCH  61  84
ATOM     84  C   UNL A   1      44.689  27.036  34.388  1.00  0.00     0.064 A 
ATOM     85  C   UNL A   1      45.968  27.602  34.455  1.00  0.00     0.173 A 
ATOM     86  C   UNL A   1      44.462  25.831  35.069  1.00  0.00     0.173 A 
ATOM     87  F   UNL A   1      46.235  28.746  33.808  1.00  0.00    -0.203 F 
ATOM     88  C   UNL A   1      46.989  26.977  35.166  1.00  0.00     0.198 A 
ATOM     89  C   UNL A   1      45.480  25.217  35.793  1.00  0.00     0.198 A 
ATOM     90  F   UNL A   1      43.252  25.254  35.035  1.00  0.00    -0.203 F 
ATOM     91  F   UNL A   1      48.213  27.519  35.195  1.00  0.00    -0.200 F 
ATOM     92  C   UNL A   1      46.743  25.788  35.839  1.00  0.00     0.200 A 
ATOM     93  F   UNL A   1      45.240  24.071  36.444  1.00  0.00    -0.200 F 
ATOM     94  F   UNL A   1      47.725  25.189  36.525  1.00  0.00    -0.200 F 
ENDBRANCH  61  84
ENDBRANCH  35  36
ENDBRANCH  27  30
ENDBRANCH  25  26
ENDBRANCH  24  25
ENDBRANCH   1  24
TORSDOF 13
ENDMDL
MODEL 3
REMARK VINA RESULT:     -12.8      0.463      1.683
REMARK SMILES C[C@@]1(CNC(=O)N2CCC(CC(=O)NCCCNC(=O)c3ccc(-c4c5nc(c(-c6c(F)c(F)c(F)c(F)c6F)c6ccc([nH]6)c(-c6c(F)c(F)c(F)c(F)c6F)c6nc(c(-c7c(F)c(F)c(F)c(F)c7F)c7ccc4[nH]7)C=C6)C=C5)cc3)CC2)CCCO1
REMARK SMILES IDX 15 1 14 2 12 3 13 4 11 6 10 7 4 8 5 9 6 11 7 12 8 13 85 14
REMARK SMILES IDX 9 15 84 16 3 17 2 18 1 19 86 20 89 21 87 22 88 23 16 24
REMARK SMILES IDX 17 25 18 26 19 27 20 29 21 30 22 31 83 32 23 33 82 34 24 35
REMARK SMILES IDX 25 36 26 37 76 38 27 39 81 40 75 41 77 42 28 43 80 44 74 45
REMARK SMILES IDX 73 46 29 48 61 49 41 50 60 51 42 52 45 53 59 54 78 55 43 56
REMARK SMILES IDX 44 57 58 59 79 60 46 61 30 62 31 63 39 64 32 65 33 66 37 67
REMARK SMILES IDX 40 68 34 69 35 70 38 71 36 72 62 73 63 74 71 75 64 76 65 77
REMARK SMILES IDX 69 78 72 79 66 80 67 81 70 82 68 83 47 84 48 85 56 86 49 87
REMARK SMILES IDX 50 88 54 89 57 90 51 91 52 92 55 93 53 94
REMARK H PARENT 14 5 4 10 18 28 77 47 45 58
REMARK Flexibility Score: inf
ROOT
ATOM      1  C   UNL A   1      32.300  29.536  24.651  1.00  0.00     0.117 C 
ENDROOT
BRANCH   1   2
ATOM      2  N   UNL A   1      31.511  29.334  23.443  1.00  0.00    -0.356 N 
ATOM      3  C   UNL A   1      30.591  28.384  23.115  1.00  0.00     0.220 C 
ATOM      4  O   UNL A   1      30.066  28.447  22.001  1.00  0.00    -0.275 OA
ATOM      5  H   UNL A   1      31.671  30.004  22.738  1.00  0.00     0.163 HD
BRANCH   3   6
ATOM      6  C   UNL A   1      30.250  27.259  24.071  1.00  0.00     0.103 C 
BRANCH   6   7
ATOM      7  C   UNL A   1      31.142  26.025  23.850  1.00  0.00     0.002 C 
ATOM      8  N   UNL A   1      31.573  21.252  25.494  1.00  0.00    -0.335 N 
ATOM      9  C   UNL A   1      31.694  22.582  25.762  1.00  0.00     0.317 C 
ATOM     10  H   UNL A   1      30.997  20.722  26.091  1.00  0.00     0.165 HD
ATOM     11  O   UNL A   1      31.605  22.985  26.918  1.00  0.00    -0.249 OA
ATOM     12  N   UNL A   1      32.014  23.394  24.700  1.00  0.00    -0.325 N 
ATOM     13  C   UNL A   1      32.885  24.528  24.921  1.00  0.00     0.121 C 
ATOM     14  C   UNL A   1      31.136  23.496  23.538  1.00  0.00     0.121 C 
ATOM     15  C   UNL A   1      32.081  25.808  25.044  1.00  0.00     0.026 C 
ATOM     16  C   UNL A   1      30.283  24.767  23.619  1.00  0.00     0.026 C 
BRANCH   8  17
ATOM     17  C   UNL A   1      32.225  20.546  24.398  1.00  0.00     0.152 C 
BRANCH  17  18
ATOM     18  C   UNL A   1      33.372  19.602  24.862  1.00  0.00     0.083 C 
ATOM     19  C   UNL A   1      34.688  20.325  25.153  1.00  0.00     0.044 C 
ATOM     20  C   UNL A   1      33.591  18.473  23.849  1.00  0.00     0.039 C 
ATOM     21  O   UNL A   1      32.936  18.939  26.073  1.00  0.00    -0.373 OA
ATOM     22  C   UNL A   1      32.535  17.474  24.242  1.00  0.00     0.031 C 
ATOM     23  C   UNL A   1      32.528  17.600  25.751  1.00  0.00     0.161 C 
ENDBRANCH  17  18
ENDBRANCH   8  17
ENDBRANCH   6   7
ENDBRANCH   3   6
ENDBRANCH   1   2
BRANCH   1  24
ATOM     24  C   UNL A   1      31.575  30.357  25.718  1.00  0.00     0.042 C 
BRANCH  24  25
ATOM     25  C   UNL A   1      32.433  30.754  26.913  1.00  0.00     0.118 C 
BRANCH  25  26
ATOM     26  N   UNL A   1      32.619  32.192  26.990  1.00  0.00    -0.352 N 
ATOM     27  C   UNL A   1      33.592  32.921  27.626  1.00  0.00     0.251 C 
ATOM     28  H   UNL A   1      31.942  32.726  26.514  1.00  0.00     0.163 HD
ATOM     29  O   UNL A   1      33.430  34.132  27.767  1.00  0.00    -0.269 OA
BRANCH  27  30
ATOM     30  C   UNL A   1      34.837  32.295  28.139  1.00  0.00     0.039 A 
ATOM     31  C   UNL A   1      34.776  30.969  28.588  1.00  0.00     0.014 A 
ATOM     32  C   UNL A   1      36.025  33.016  28.296  1.00  0.00     0.014 A 
ATOM     33  C   UNL A   1      35.892  30.371  29.185  1.00  0.00     0.010 A 
ATOM     34  C   UNL A   1      37.157  32.401  28.841  1.00  0.00     0.010 A 
ATOM     35  C   UNL A   1      37.092  31.084  29.320  1.00  0.00    -0.014 A 
BRANCH  35  36
ATOM     36  C   UNL A   1      38.250  30.493  30.043  1.00  0.00     0.031 A 
ATOM     37  C   UNL A   1      38.485  30.835  31.490  1.00  0.00     0.074 A 
ATOM     38  C   UNL A   1      39.101  29.664  29.410  1.00  0.00     0.049 A 
ATOM     39  N   UNL A   1      39.454  30.457  32.287  1.00  0.00    -0.248 NA
ATOM     40  C   UNL A   1      37.512  31.740  32.121  1.00  0.00     0.031 C 
ATOM     41  C   UNL A   1      39.012  29.271  28.004  1.00  0.00     0.029 A 
ATOM     42  N   UNL A   1      40.212  29.004  29.873  1.00  0.00    -0.354 N 
ATOM     43  C   UNL A   1      39.226  31.103  33.495  1.00  0.00     0.074 A 
ATOM     44  C   UNL A   1      38.040  31.914  33.323  1.00  0.00     0.031 C 
ATOM     45  C   UNL A   1      40.015  28.422  27.724  1.00  0.00     0.029 A 
ATOM     46  C   UNL A   1      40.825  28.224  28.924  1.00  0.00     0.049 A 
ATOM     47  H   UNL A   1      40.539  29.082  30.799  1.00  0.00     0.167 HD
ATOM     48  C   UNL A   1      39.930  31.017  34.649  1.00  0.00     0.037 A 
ATOM     49  C   UNL A   1      41.912  27.435  29.014  1.00  0.00     0.037 A 
ATOM     50  C   UNL A   1      41.075  30.172  34.851  1.00  0.00     0.049 A 
ATOM     51  C   UNL A   1      42.636  27.304  30.326  1.00  0.00     0.074 A 
ATOM     52  C   UNL A   1      41.821  29.985  36.001  1.00  0.00     0.029 A 
ATOM     53  N   UNL A   1      41.630  29.357  33.877  1.00  0.00    -0.354 N 
ATOM     54  N   UNL A   1      42.389  27.894  31.468  1.00  0.00    -0.248 NA
ATOM     55  C   UNL A   1      43.785  26.384  30.361  1.00  0.00     0.031 C 
ATOM     56  C   UNL A   1      42.839  29.065  35.720  1.00  0.00     0.029 A 
ATOM     57  C   UNL A   1      42.709  28.664  34.401  1.00  0.00     0.049 A 
ATOM     58  H   UNL A   1      41.307  29.282  32.950  1.00  0.00     0.167 HD
ATOM     59  C   UNL A   1      43.334  27.407  32.360  1.00  0.00     0.074 A 
ATOM     60  C   UNL A   1      44.156  26.464  31.631  1.00  0.00     0.031 C 
ATOM     61  C   UNL A   1      43.505  27.717  33.667  1.00  0.00     0.037 A 
BRANCH  48  62
ATOM     62  C   UNL A   1      39.473  31.867  35.795  1.00  0.00     0.064 A 
ATOM     63  C   UNL A   1      40.020  33.135  36.030  1.00  0.00     0.173 A 
ATOM     64  C   UNL A   1      38.458  31.418  36.651  1.00  0.00     0.173 A 
ATOM     65  F   UNL A   1      41.003  33.601  35.246  1.00  0.00    -0.203 F 
ATOM     66  C   UNL A   1      39.581  33.916  37.096  1.00  0.00     0.198 A 
ATOM     67  C   UNL A   1      38.008  32.210  37.704  1.00  0.00     0.198 A 
ATOM     68  F   UNL A   1      37.901  30.211  36.465  1.00  0.00    -0.203 F 
ATOM     69  F   UNL A   1      40.144  35.110  37.326  1.00  0.00    -0.200 F 
ATOM     70  C   UNL A   1      38.573  33.455  37.928  1.00  0.00     0.200 A 
ATOM     71  F   UNL A   1      37.029  31.765  38.505  1.00  0.00    -0.200 F 
ATOM     72  F   UNL A   1      38.153  34.209  38.954  1.00  0.00    -0.200 F 
ENDBRANCH  48  62
BRANCH  49  73
ATOM     73  C   UNL A   1      42.361  26.667  27.828  1.00  0.00     0.064 A 
ATOM     74  C   UNL A   1      41.827  25.401  27.552  1.00  0.00     0.173 A 
ATOM     75  C   UNL A   1      43.327  27.179  26.953  1.00  0.00     0.173 A 
ATOM     76  F   UNL A   1      40.919  24.865  28.378  1.00  0.00    -0.203 F 
ATOM     77  C   UNL A   1      42.253  24.669  26.446  1.00  0.00     0.198 A 
ATOM     78  C   UNL A   1      43.741  26.452  25.838  1.00  0.00     0.198 A 
ATOM     79  F   UNL A   1      43.868  28.385  27.181  1.00  0.00    -0.203 F 
ATOM     80  F   UNL A   1      41.753  23.447  26.222  1.00  0.00    -0.200 F 
ATOM     81  C   UNL A   1      43.207  25.197  25.589  1.00  0.00     0.200 A 
ATOM     82  F   UNL A   1      44.661  26.965  25.010  1.00  0.00    -0.200 F 
ATOM     83  F   UNL A   1      43.618  24.491  24.526  1.00  0.00    -0.200 F 
ENDBRANCH  49  73
BRANCH  61  84
ATOM     84  C   UNL A   1      44.601  27.010  34.403  1.00  0.00     0.064 A 
ATOM     85  C   UNL A   1      44.377  25.785  35.044  1.00  0.00     0.173 A 
ATOM     86  C   UNL A   1      45.898  27.544  34.430  1.00  0.00     0.173 A 
ATOM     87  F   UNL A   1      43.150  25.243  35.055  1.00  0.00    -0.203 F 
ATOM     88  C   UNL A   1      45.412  25.125  35.702  1.00  0.00     0.198 A 
ATOM     89  C   UNL A   1      46.933  26.873  35.075  1.00  0.00     0.198 A 
ATOM     90  F   UNL A   1      46.159  28.713  33.827  1.00  0.00    -0.203 F 
ATOM     91  F   UNL A   1      45.171  23.968  36.334  1.00  0.00    -0.200 F 
ATOM     92  C   UNL A   1      46.689  25.666  35.713  1.00  0.00     0.200 A 
ATOM     93  F   UNL A   1      48.167  27.396  35.081  1.00  0.00    -0.200 F 
ATOM     94  F   UNL A   1      47.684  25.028  36.344  1.00  0.00    -0.200 F 
ENDBRANCH  61  84
ENDBRANCH  35  36
ENDBRANCH  27  30
ENDBRANCH  25  26
ENDBRANCH  24  25
ENDBRANCH   1  24
TORSDOF 13
ENDMDL
