MODEL 1
REMARK VINA RESULT:     -13.0      0.000      0.000
REMARK SMILES CC(C)(C)OC(=O)N1CCC[C@](Cc2ccccc2)(C(=O)NCCCNC(=O)c2ccc(-c3c4nc(c(-c5c(F)c(F)c(F)c(F)c5F)c5ccc([nH]5)c(-c5c(F)c(F)c(F)c(F)c5F)c5nc(c(-c6c(F)c(F)c(F)c(F)c6F)c6ccc3[nH]6)C=C5)C=C4)cc2)C1
REMARK SMILES IDX 23 1 22 2 20 3 21 4 12 6 8 7 9 8 92 9 10 10 11 11 6 12 7 13
REMARK SMILES IDX 5 14 2 15 1 16 3 17 4 18 13 19 14 20 15 21 19 22 16 23 18 24
REMARK SMILES IDX 17 25 24 26 25 27 26 28 27 29 28 31 29 32 30 33 91 34 31 35
REMARK SMILES IDX 90 36 32 37 33 38 34 39 84 40 35 41 89 42 83 43 85 44 36 45
REMARK SMILES IDX 88 46 82 47 81 48 37 50 69 51 49 52 68 53 50 54 53 55 67 56
REMARK SMILES IDX 86 57 51 58 52 59 66 61 87 62 54 63 38 64 39 65 47 66 40 67
REMARK SMILES IDX 41 68 45 69 48 70 42 71 43 72 46 73 44 74 70 75 71 76 79 77
REMARK SMILES IDX 72 78 73 79 77 80 80 81 74 82 75 83 78 84 76 85 55 86 56 87
REMARK SMILES IDX 64 88 57 89 58 90 62 91 65 92 59 93 60 94 63 95 61 96
REMARK H PARENT 22 5 26 30 85 49 53 60
REMARK Flexibility Score: inf
ROOT
ATOM      1  C   UNL A   1      32.133  30.413  26.069  1.00  0.00     0.117 C 
ENDROOT
BRANCH   1   2
ATOM      2  N   UNL A   1      31.524  29.420  26.916  1.00  0.00    -0.355 N 
ATOM      3  C   UNL A   1      31.549  28.064  26.878  1.00  0.00     0.228 C 
ATOM      4  O   UNL A   1      31.190  27.535  27.938  1.00  0.00    -0.274 OA
ATOM      5  H   UNL A   1      30.995  29.793  27.657  1.00  0.00     0.163 HD
BRANCH   3   6
ATOM      6  C   UNL A   1      31.956  27.198  25.636  1.00  0.00     0.071 C 
ATOM      7  N   UNL A   1      30.945  28.148  23.496  1.00  0.00    -0.307 N 
ATOM      8  C   UNL A   1      30.309  26.881  23.170  1.00  0.00     0.123 C 
ATOM      9  C   UNL A   1      32.113  28.092  24.372  1.00  0.00     0.140 C 
ATOM     10  C   UNL A   1      29.881  26.121  24.414  1.00  0.00     0.023 C 
ATOM     11  C   UNL A   1      30.980  25.999  25.464  1.00  0.00     0.021 C 
BRANCH   7  12
ATOM     12  C   UNL A   1      30.432  29.326  22.963  1.00  0.00     0.410 C 
ATOM     13  O   UNL A   1      30.928  29.874  21.989  1.00  0.00    -0.224 OA
BRANCH  12  14
ATOM     14  O   UNL A   1      29.323  29.758  23.616  1.00  0.00    -0.444 OA
BRANCH  14  15
ATOM     15  C   UNL A   1      28.045  30.020  22.963  1.00  0.00     0.106 C 
ATOM     16  C   UNL A   1      27.453  31.236  23.692  1.00  0.00     0.056 C 
ATOM     17  C   UNL A   1      27.155  28.798  23.209  1.00  0.00     0.056 C 
ATOM     18  C   UNL A   1      28.091  30.342  21.463  1.00  0.00     0.056 C 
ENDBRANCH  14  15
ENDBRANCH  12  14
ENDBRANCH   7  12
BRANCH   6  19
ATOM     19  C   UNL A   1      33.393  26.637  26.038  1.00  0.00     0.054 C 
BRANCH  19  20
ATOM     20  C   UNL A   1      33.825  25.293  25.484  1.00  0.00    -0.047 A 
ATOM     21  C   UNL A   1      34.208  25.184  24.136  1.00  0.00     0.004 A 
ATOM     22  C   UNL A   1      33.871  24.146  26.284  1.00  0.00     0.004 A 
ATOM     23  C   UNL A   1      34.704  23.984  23.628  1.00  0.00     0.000 A 
ATOM     24  C   UNL A   1      34.381  22.949  25.780  1.00  0.00     0.000 A 
ATOM     25  C   UNL A   1      34.810  22.871  24.458  1.00  0.00     0.000 A 
ENDBRANCH  19  20
ENDBRANCH   6  19
ENDBRANCH   3   6
ENDBRANCH   1   2
BRANCH   1  26
ATOM     26  C   UNL A   1      31.780  31.842  26.432  1.00  0.00     0.042 C 
BRANCH  26  27
ATOM     27  C   UNL A   1      32.855  32.518  27.261  1.00  0.00     0.118 C 
BRANCH  27  28
ATOM     28  N   UNL A   1      32.526  33.906  27.585  1.00  0.00    -0.352 N 
ATOM     29  C   UNL A   1      33.043  34.768  28.521  1.00  0.00     0.251 C 
ATOM     30  H   UNL A   1      31.806  34.291  27.035  1.00  0.00     0.163 HD
ATOM     31  O   UNL A   1      32.506  35.855  28.712  1.00  0.00    -0.269 OA
BRANCH  29  32
ATOM     32  C   UNL A   1      34.221  34.383  29.324  1.00  0.00     0.039 A 
ATOM     33  C   UNL A   1      34.027  33.770  30.565  1.00  0.00     0.014 A 
ATOM     34  C   UNL A   1      35.514  34.607  28.852  1.00  0.00     0.014 A 
ATOM     35  C   UNL A   1      35.126  33.286  31.277  1.00  0.00     0.010 A 
ATOM     36  C   UNL A   1      36.592  34.017  29.496  1.00  0.00     0.010 A 
ATOM     37  C   UNL A   1      36.411  33.350  30.715  1.00  0.00    -0.014 A 
BRANCH  37  38
ATOM     38  C   UNL A   1      37.582  32.714  31.368  1.00  0.00     0.031 A 
ATOM     39  C   UNL A   1      38.271  31.552  30.707  1.00  0.00     0.074 A 
ATOM     40  C   UNL A   1      37.957  33.120  32.597  1.00  0.00     0.049 A 
ATOM     41  N   UNL A   1      39.227  30.785  31.167  1.00  0.00    -0.248 NA
ATOM     42  C   UNL A   1      37.797  31.179  29.365  1.00  0.00     0.031 C 
ATOM     43  C   UNL A   1      37.327  34.197  33.363  1.00  0.00     0.029 A 
ATOM     44  N   UNL A   1      38.950  32.663  33.427  1.00  0.00    -0.354 N 
ATOM     45  C   UNL A   1      39.451  29.833  30.182  1.00  0.00     0.074 A 
ATOM     46  C   UNL A   1      38.491  30.076  29.128  1.00  0.00     0.031 C 
ATOM     47  C   UNL A   1      37.962  34.336  34.536  1.00  0.00     0.029 A 
ATOM     48  C   UNL A   1      39.011  33.326  34.628  1.00  0.00     0.049 A 
ATOM     49  H   UNL A   1      39.560  31.929  33.185  1.00  0.00     0.167 HD
ATOM     50  C   UNL A   1      40.391  28.859  30.148  1.00  0.00     0.037 A 
ATOM     51  C   UNL A   1      39.814  33.130  35.692  1.00  0.00     0.037 A 
ATOM     52  C   UNL A   1      41.361  28.644  31.189  1.00  0.00     0.049 A 
ATOM     53  C   UNL A   1      40.841  32.032  35.636  1.00  0.00     0.074 A 
ATOM     54  C   UNL A   1      42.405  27.739  31.221  1.00  0.00     0.029 A 
ATOM     55  N   UNL A   1      41.400  29.345  32.387  1.00  0.00    -0.354 N 
ATOM     56  N   UNL A   1      41.096  31.188  34.666  1.00  0.00    -0.248 NA
ATOM     57  C   UNL A   1      41.690  31.860  36.821  1.00  0.00     0.031 C 
ATOM     58  C   UNL A   1      43.043  27.852  32.461  1.00  0.00     0.029 A 
ATOM     59  C   UNL A   1      42.431  28.867  33.180  1.00  0.00     0.049 A 
ATOM     60  H   UNL A   1      40.788  30.074  32.635  1.00  0.00     0.167 HD
ATOM     61  C   UNL A   1      42.144  30.396  35.115  1.00  0.00     0.074 A 
ATOM     62  C   UNL A   1      42.493  30.879  36.435  1.00  0.00     0.031 C 
ATOM     63  C   UNL A   1      42.757  29.358  34.495  1.00  0.00     0.037 A 
BRANCH  50  64
ATOM     64  C   UNL A   1      40.419  27.959  28.947  1.00  0.00     0.064 A 
ATOM     65  C   UNL A   1      41.185  28.266  27.812  1.00  0.00     0.173 A 
ATOM     66  C   UNL A   1      39.698  26.755  28.944  1.00  0.00     0.173 A 
ATOM     67  F   UNL A   1      41.883  29.409  27.758  1.00  0.00    -0.203 F 
ATOM     68  C   UNL A   1      41.202  27.418  26.707  1.00  0.00     0.198 A 
ATOM     69  C   UNL A   1      39.743  25.894  27.850  1.00  0.00     0.198 A 
ATOM     70  F   UNL A   1      38.952  26.410  30.004  1.00  0.00    -0.203 F 
ATOM     71  F   UNL A   1      41.897  27.760  25.613  1.00  0.00    -0.200 F 
ATOM     72  C   UNL A   1      40.488  26.230  26.730  1.00  0.00     0.200 A 
ATOM     73  F   UNL A   1      39.063  24.739  27.880  1.00  0.00    -0.200 F 
ATOM     74  F   UNL A   1      40.513  25.411  25.669  1.00  0.00    -0.200 F 
ENDBRANCH  50  64
BRANCH  51  75
ATOM     75  C   UNL A   1      39.684  33.997  36.894  1.00  0.00     0.064 A 
ATOM     76  C   UNL A   1      38.880  33.610  37.976  1.00  0.00     0.173 A 
ATOM     77  C   UNL A   1      40.356  35.224  36.988  1.00  0.00     0.173 A 
ATOM     78  F   UNL A   1      38.200  32.455  37.925  1.00  0.00    -0.203 F 
ATOM     79  C   UNL A   1      38.737  34.427  39.096  1.00  0.00     0.198 A 
ATOM     80  C   UNL A   1      40.238  36.026  38.122  1.00  0.00     0.198 A 
ATOM     81  F   UNL A   1      41.143  35.639  35.984  1.00  0.00    -0.203 F 
ATOM     82  F   UNL A   1      37.925  34.055  40.094  1.00  0.00    -0.200 F 
ATOM     83  C   UNL A   1      39.421  35.631  39.170  1.00  0.00     0.200 A 
ATOM     84  F   UNL A   1      40.913  37.180  38.197  1.00  0.00    -0.200 F 
ATOM     85  F   UNL A   1      39.288  36.414  40.250  1.00  0.00    -0.200 F 
ENDBRANCH  51  75
BRANCH  63  86
ATOM     86  C   UNL A   1      43.875  28.682  35.234  1.00  0.00     0.064 A 
ATOM     87  C   UNL A   1      43.633  27.604  36.098  1.00  0.00     0.173 A 
ATOM     88  C   UNL A   1      45.203  29.090  35.046  1.00  0.00     0.173 A 
ATOM     89  F   UNL A   1      42.379  27.187  36.324  1.00  0.00    -0.203 F 
ATOM     90  C   UNL A   1      44.681  26.974  36.765  1.00  0.00     0.198 A 
ATOM     91  C   UNL A   1      46.250  28.436  35.688  1.00  0.00     0.198 A 
ATOM     92  F   UNL A   1      45.488  30.112  34.225  1.00  0.00    -0.203 F 
ATOM     93  F   UNL A   1      44.422  25.976  37.623  1.00  0.00    -0.200 F 
ATOM     94  C   UNL A   1      45.989  27.384  36.552  1.00  0.00     0.200 A 
ATOM     95  F   UNL A   1      47.515  28.824  35.470  1.00  0.00    -0.200 F 
ATOM     96  F   UNL A   1      46.996  26.770  37.187  1.00  0.00    -0.200 F 
ENDBRANCH  63  86
ENDBRANCH  37  38
ENDBRANCH  29  32
ENDBRANCH  27  28
ENDBRANCH  26  27
ENDBRANCH   1  26
TORSDOF 15
ENDMDL
MODEL 2
REMARK VINA RESULT:     -13.0      0.117      1.570
REMARK SMILES CC(C)(C)OC(=O)N1CCC[C@](Cc2ccccc2)(C(=O)NCCCNC(=O)c2ccc(-c3c4nc(c(-c5c(F)c(F)c(F)c(F)c5F)c5ccc([nH]5)c(-c5c(F)c(F)c(F)c(F)c5F)c5nc(c(-c6c(F)c(F)c(F)c(F)c6F)c6ccc3[nH]6)C=C5)C=C4)cc2)C1
REMARK SMILES IDX 23 1 22 2 20 3 21 4 12 6 8 7 9 8 92 9 10 10 11 11 6 12 7 13
REMARK SMILES IDX 5 14 2 15 1 16 3 17 4 18 13 19 14 20 15 21 19 22 16 23 18 24
REMARK SMILES IDX 17 25 24 26 25 27 26 28 27 29 28 31 29 32 30 33 91 34 31 35
REMARK SMILES IDX 90 36 32 37 33 38 34 39 84 40 35 41 89 42 83 43 85 44 36 45
REMARK SMILES IDX 88 46 82 47 81 48 37 50 69 51 49 52 68 53 50 54 53 55 67 56
REMARK SMILES IDX 86 57 51 58 52 59 66 61 87 62 54 63 38 64 39 65 47 66 40 67
REMARK SMILES IDX 41 68 45 69 48 70 42 71 43 72 46 73 44 74 70 75 71 76 79 77
REMARK SMILES IDX 72 78 73 79 77 80 80 81 74 82 75 83 78 84 76 85 55 86 56 87
REMARK SMILES IDX 64 88 57 89 58 90 62 91 65 92 59 93 60 94 63 95 61 96
REMARK H PARENT 22 5 26 30 85 49 53 60
REMARK Flexibility Score: inf
ROOT
ATOM      1  C   UNL A   1      32.116  30.431  26.120  1.00  0.00     0.117 C 
ENDROOT
BRANCH   1   2
ATOM      2  N   UNL A   1      31.486  29.427  26.939  1.00  0.00    -0.355 N 
ATOM      3  C   UNL A   1      31.514  28.071  26.885  1.00  0.00     0.228 C 
ATOM      4  O   UNL A   1      31.127  27.529  27.929  1.00  0.00    -0.274 OA
ATOM      5  H   UNL A   1      30.935  29.790  27.669  1.00  0.00     0.163 HD
BRANCH   3   6
ATOM      6  C   UNL A   1      31.957  27.221  25.645  1.00  0.00     0.071 C 
ATOM      7  N   UNL A   1      30.966  28.166  23.494  1.00  0.00    -0.307 N 
ATOM      8  C   UNL A   1      30.358  26.890  23.150  1.00  0.00     0.123 C 
ATOM      9  C   UNL A   1      32.120  28.125  24.389  1.00  0.00     0.140 C 
ATOM     10  C   UNL A   1      29.923  26.115  24.382  1.00  0.00     0.023 C 
ATOM     11  C   UNL A   1      31.006  26.005  25.449  1.00  0.00     0.021 C 
BRANCH   7  12
ATOM     12  C   UNL A   1      30.441  29.339  22.960  1.00  0.00     0.410 C 
ATOM     13  O   UNL A   1      30.928  29.887  21.982  1.00  0.00    -0.224 OA
BRANCH  12  14
ATOM     14  O   UNL A   1      29.333  29.765  23.617  1.00  0.00    -0.444 OA
BRANCH  14  15
ATOM     15  C   UNL A   1      28.049  30.015  22.970  1.00  0.00     0.106 C 
ATOM     16  C   UNL A   1      27.462  31.242  23.683  1.00  0.00     0.056 C 
ATOM     17  C   UNL A   1      27.162  28.796  23.243  1.00  0.00     0.056 C 
ATOM     18  C   UNL A   1      28.084  30.313  21.465  1.00  0.00     0.056 C 
ENDBRANCH  14  15
ENDBRANCH  12  14
ENDBRANCH   7  12
BRANCH   6  19
ATOM     19  C   UNL A   1      33.398  26.682  26.068  1.00  0.00     0.054 C 
BRANCH  19  20
ATOM     20  C   UNL A   1      33.888  25.379  25.466  1.00  0.00    -0.047 A 
ATOM     21  C   UNL A   1      34.113  25.291  24.081  1.00  0.00     0.004 A 
ATOM     22  C   UNL A   1      34.141  24.252  26.254  1.00  0.00     0.004 A 
ATOM     23  C   UNL A   1      34.657  24.138  23.517  1.00  0.00     0.000 A 
ATOM     24  C   UNL A   1      34.699  23.103  25.693  1.00  0.00     0.000 A 
ATOM     25  C   UNL A   1      34.970  23.050  24.328  1.00  0.00     0.000 A 
ENDBRANCH  19  20
ENDBRANCH   6  19
ENDBRANCH   3   6
ENDBRANCH   1   2
BRANCH   1  26
ATOM     26  C   UNL A   1      31.753  31.855  26.493  1.00  0.00     0.042 C 
BRANCH  26  27
ATOM     27  C   UNL A   1      32.860  32.559  27.253  1.00  0.00     0.118 C 
BRANCH  27  28
ATOM     28  N   UNL A   1      32.517  33.941  27.593  1.00  0.00    -0.352 N 
ATOM     29  C   UNL A   1      33.022  34.796  28.542  1.00  0.00     0.251 C 
ATOM     30  H   UNL A   1      31.798  34.327  27.043  1.00  0.00     0.163 HD
ATOM     31  O   UNL A   1      32.475  35.876  28.743  1.00  0.00    -0.269 OA
BRANCH  29  32
ATOM     32  C   UNL A   1      34.198  34.411  29.347  1.00  0.00     0.039 A 
ATOM     33  C   UNL A   1      34.002  33.823  30.600  1.00  0.00     0.014 A 
ATOM     34  C   UNL A   1      35.493  34.609  28.866  1.00  0.00     0.014 A 
ATOM     35  C   UNL A   1      35.098  33.338  31.316  1.00  0.00     0.010 A 
ATOM     36  C   UNL A   1      36.566  34.018  29.517  1.00  0.00     0.010 A 
ATOM     37  C   UNL A   1      36.381  33.375  30.748  1.00  0.00    -0.014 A 
BRANCH  37  38
ATOM     38  C   UNL A   1      37.547  32.737  31.407  1.00  0.00     0.031 A 
ATOM     39  C   UNL A   1      38.232  31.568  30.754  1.00  0.00     0.074 A 
ATOM     40  C   UNL A   1      37.920  33.146  32.636  1.00  0.00     0.049 A 
ATOM     41  N   UNL A   1      39.182  30.798  31.222  1.00  0.00    -0.248 NA
ATOM     42  C   UNL A   1      37.760  31.190  29.413  1.00  0.00     0.031 C 
ATOM     43  C   UNL A   1      37.293  34.231  33.394  1.00  0.00     0.029 A 
ATOM     44  N   UNL A   1      38.908  32.688  33.472  1.00  0.00    -0.354 N 
ATOM     45  C   UNL A   1      39.404  29.839  30.242  1.00  0.00     0.074 A 
ATOM     46  C   UNL A   1      38.449  30.083  29.184  1.00  0.00     0.031 C 
ATOM     47  C   UNL A   1      37.926  34.372  34.569  1.00  0.00     0.029 A 
ATOM     48  C   UNL A   1      38.969  33.358  34.669  1.00  0.00     0.049 A 
ATOM     49  H   UNL A   1      39.515  31.950  33.235  1.00  0.00     0.167 HD
ATOM     50  C   UNL A   1      40.340  28.861  30.217  1.00  0.00     0.037 A 
ATOM     51  C   UNL A   1      39.767  33.163  35.737  1.00  0.00     0.037 A 
ATOM     52  C   UNL A   1      41.305  28.646  31.262  1.00  0.00     0.049 A 
ATOM     53  C   UNL A   1      40.788  32.059  35.689  1.00  0.00     0.074 A 
ATOM     54  C   UNL A   1      42.344  27.735  31.301  1.00  0.00     0.029 A 
ATOM     55  N   UNL A   1      41.344  29.353  32.456  1.00  0.00    -0.354 N 
ATOM     56  N   UNL A   1      41.043  31.209  34.724  1.00  0.00    -0.248 NA
ATOM     57  C   UNL A   1      41.633  31.889  36.878  1.00  0.00     0.031 C 
ATOM     58  C   UNL A   1      42.979  27.851  32.542  1.00  0.00     0.029 A 
ATOM     59  C   UNL A   1      42.369  28.873  33.255  1.00  0.00     0.049 A 
ATOM     60  H   UNL A   1      40.735  30.087  32.699  1.00  0.00     0.167 HD
ATOM     61  C   UNL A   1      42.084  30.413  35.181  1.00  0.00     0.074 A 
ATOM     62  C   UNL A   1      42.433  30.901  36.499  1.00  0.00     0.031 C 
ATOM     63  C   UNL A   1      42.694  29.370  34.568  1.00  0.00     0.037 A 
BRANCH  50  64
ATOM     64  C   UNL A   1      40.366  27.954  29.020  1.00  0.00     0.064 A 
ATOM     65  C   UNL A   1      41.136  28.252  27.885  1.00  0.00     0.173 A 
ATOM     66  C   UNL A   1      39.640  26.753  29.021  1.00  0.00     0.173 A 
ATOM     67  F   UNL A   1      41.839  29.392  27.827  1.00  0.00    -0.203 F 
ATOM     68  C   UNL A   1      41.152  27.399  26.784  1.00  0.00     0.198 A 
ATOM     69  C   UNL A   1      39.684  25.887  27.932  1.00  0.00     0.198 A 
ATOM     70  F   UNL A   1      38.890  26.417  30.081  1.00  0.00    -0.203 F 
ATOM     71  F   UNL A   1      41.851  27.732  25.690  1.00  0.00    -0.200 F 
ATOM     72  C   UNL A   1      40.433  26.214  26.812  1.00  0.00     0.200 A 
ATOM     73  F   UNL A   1      38.999  24.735  27.966  1.00  0.00    -0.200 F 
ATOM     74  F   UNL A   1      40.457  25.390  25.755  1.00  0.00    -0.200 F 
ENDBRANCH  50  64
BRANCH  51  75
ATOM     75  C   UNL A   1      39.638  34.036  36.934  1.00  0.00     0.064 A 
ATOM     76  C   UNL A   1      40.301  35.270  36.999  1.00  0.00     0.173 A 
ATOM     77  C   UNL A   1      38.853  33.660  38.033  1.00  0.00     0.173 A 
ATOM     78  F   UNL A   1      41.080  35.665  35.982  1.00  0.00    -0.203 F 
ATOM     79  C   UNL A   1      40.201  36.083  38.126  1.00  0.00     0.198 A 
ATOM     80  C   UNL A   1      38.728  34.488  39.148  1.00  0.00     0.198 A 
ATOM     81  F   UNL A   1      38.192  32.492  38.020  1.00  0.00    -0.203 F 
ATOM     82  F   UNL A   1      40.884  37.234  38.182  1.00  0.00    -0.200 F 
ATOM     83  C   UNL A   1      39.409  35.694  39.196  1.00  0.00     0.200 A 
ATOM     84  F   UNL A   1      37.949  34.116  40.172  1.00  0.00    -0.200 F 
ATOM     85  F   UNL A   1      39.309  36.479  40.278  1.00  0.00    -0.200 F 
ENDBRANCH  51  75
BRANCH  63  86
ATOM     86  C   UNL A   1      43.806  28.691  35.314  1.00  0.00     0.064 A 
ATOM     87  C   UNL A   1      45.142  29.087  35.153  1.00  0.00     0.173 A 
ATOM     88  C   UNL A   1      43.529  27.665  36.229  1.00  0.00     0.173 A 
ATOM     89  F   UNL A   1      45.461  30.052  34.279  1.00  0.00    -0.203 F 
ATOM     90  C   UNL A   1      46.163  28.460  35.864  1.00  0.00     0.198 A 
ATOM     91  C   UNL A   1      44.547  27.064  36.962  1.00  0.00     0.198 A 
ATOM     92  F   UNL A   1      42.265  27.255  36.423  1.00  0.00    -0.203 F 
ATOM     93  F   UNL A   1      47.438  28.820  35.659  1.00  0.00    -0.200 F 
ATOM     94  C   UNL A   1      45.863  27.457  36.774  1.00  0.00     0.200 A 
ATOM     95  F   UNL A   1      44.255  26.105  37.852  1.00  0.00    -0.200 F 
ATOM     96  F   UNL A   1      46.846  26.863  37.465  1.00  0.00    -0.200 F 
ENDBRANCH  63  86
ENDBRANCH  37  38
ENDBRANCH  29  32
ENDBRANCH  27  28
ENDBRANCH  26  27
ENDBRANCH   1  26
TORSDOF 15
ENDMDL
MODEL 3
REMARK VINA RESULT:     -12.9      5.885     11.083
REMARK SMILES CC(C)(C)OC(=O)N1CCC[C@](Cc2ccccc2)(C(=O)NCCCNC(=O)c2ccc(-c3c4nc(c(-c5c(F)c(F)c(F)c(F)c5F)c5ccc([nH]5)c(-c5c(F)c(F)c(F)c(F)c5F)c5nc(c(-c6c(F)c(F)c(F)c(F)c6F)c6ccc3[nH]6)C=C5)C=C4)cc2)C1
REMARK SMILES IDX 23 1 22 2 20 3 21 4 12 6 8 7 9 8 92 9 10 10 11 11 6 12 7 13
REMARK SMILES IDX 5 14 2 15 1 16 3 17 4 18 13 19 14 20 15 21 19 22 16 23 18 24
REMARK SMILES IDX 17 25 24 26 25 27 26 28 27 29 28 31 29 32 30 33 91 34 31 35
REMARK SMILES IDX 90 36 32 37 33 38 34 39 84 40 35 41 89 42 83 43 85 44 36 45
REMARK SMILES IDX 88 46 82 47 81 48 37 50 69 51 49 52 68 53 50 54 53 55 67 56
REMARK SMILES IDX 86 57 51 58 52 59 66 61 87 62 54 63 38 64 39 65 47 66 40 67
REMARK SMILES IDX 41 68 45 69 48 70 42 71 43 72 46 73 44 74 70 75 71 76 79 77
REMARK SMILES IDX 72 78 73 79 77 80 80 81 74 82 75 83 78 84 76 85 55 86 56 87
REMARK SMILES IDX 64 88 57 89 58 90 62 91 65 92 59 93 60 94 63 95 61 96
REMARK H PARENT 22 5 26 30 85 49 53 60
REMARK Flexibility Score: inf
ROOT
ATOM      1  C   UNL A   1      36.637  20.902  25.388  1.00  0.00     0.117 C 
ENDROOT
BRANCH   1   2
ATOM      2  N   UNL A   1      36.008  21.685  24.355  1.00  0.00    -0.355 N 
ATOM      3  C   UNL A   1      34.723  22.085  24.182  1.00  0.00     0.228 C 
ATOM      4  O   UNL A   1      34.601  23.009  23.366  1.00  0.00    -0.274 OA
ATOM      5  H   UNL A   1      36.623  21.984  23.646  1.00  0.00     0.163 HD
BRANCH   3   6
ATOM      6  C   UNL A   1      33.474  21.460  24.894  1.00  0.00     0.071 C 
ATOM      7  N   UNL A   1      32.069  23.268  26.017  1.00  0.00    -0.307 N 
ATOM      8  C   UNL A   1      32.144  22.601  27.307  1.00  0.00     0.123 C 
ATOM      9  C   UNL A   1      32.262  22.434  24.832  1.00  0.00     0.140 C 
ATOM     10  C   UNL A   1      33.466  21.878  27.498  1.00  0.00     0.023 C 
ATOM     11  C   UNL A   1      33.847  20.980  26.326  1.00  0.00     0.021 C 
BRANCH   7  12
ATOM     12  C   UNL A   1      31.812  24.635  25.968  1.00  0.00     0.410 C 
ATOM     13  O   UNL A   1      31.351  25.248  26.921  1.00  0.00    -0.224 OA
BRANCH  12  14
ATOM     14  O   UNL A   1      32.161  25.193  24.782  1.00  0.00    -0.444 OA
BRANCH  14  15
ATOM     15  C   UNL A   1      33.147  26.259  24.642  1.00  0.00     0.106 C 
ATOM     16  C   UNL A   1      33.523  26.278  23.153  1.00  0.00     0.056 C 
ATOM     17  C   UNL A   1      34.371  25.851  25.469  1.00  0.00     0.056 C 
ATOM     18  C   UNL A   1      32.695  27.671  25.036  1.00  0.00     0.056 C 
ENDBRANCH  14  15
ENDBRANCH  12  14
ENDBRANCH   7  12
BRANCH   6  19
ATOM     19  C   UNL A   1      33.142  20.185  23.996  1.00  0.00     0.054 C 
BRANCH  19  20
ATOM     20  C   UNL A   1      33.450  18.808  24.553  1.00  0.00    -0.047 A 
ATOM     21  C   UNL A   1      32.508  18.160  25.370  1.00  0.00     0.004 A 
ATOM     22  C   UNL A   1      34.648  18.147  24.264  1.00  0.00     0.004 A 
ATOM     23  C   UNL A   1      32.724  16.855  25.813  1.00  0.00     0.000 A 
ATOM     24  C   UNL A   1      34.858  16.837  24.693  1.00  0.00     0.000 A 
ATOM     25  C   UNL A   1      33.892  16.186  25.456  1.00  0.00     0.000 A 
ENDBRANCH  19  20
ENDBRANCH   6  19
ENDBRANCH   3   6
ENDBRANCH   1   2
BRANCH   1  26
ATOM     26  C   UNL A   1      37.869  20.146  24.932  1.00  0.00     0.042 C 
BRANCH  26  27
ATOM     27  C   UNL A   1      39.102  20.494  25.744  1.00  0.00     0.118 C 
BRANCH  27  28
ATOM     28  N   UNL A   1      40.051  19.384  25.829  1.00  0.00    -0.352 N 
ATOM     29  C   UNL A   1      41.406  19.361  26.052  1.00  0.00     0.251 C 
ATOM     30  H   UNL A   1      39.646  18.495  25.706  1.00  0.00     0.163 HD
ATOM     31  O   UNL A   1      42.026  18.308  25.937  1.00  0.00    -0.269 OA
BRANCH  29  32
ATOM     32  C   UNL A   1      42.129  20.601  26.395  1.00  0.00     0.039 A 
ATOM     33  C   UNL A   1      42.680  21.374  25.368  1.00  0.00     0.014 A 
ATOM     34  C   UNL A   1      42.252  21.017  27.721  1.00  0.00     0.014 A 
ATOM     35  C   UNL A   1      43.255  22.611  25.665  1.00  0.00     0.010 A 
ATOM     36  C   UNL A   1      42.708  22.297  28.001  1.00  0.00     0.010 A 
ATOM     37  C   UNL A   1      43.214  23.109  26.977  1.00  0.00    -0.014 A 
BRANCH  37  38
ATOM     38  C   UNL A   1      43.675  24.479  27.308  1.00  0.00     0.031 A 
ATOM     39  C   UNL A   1      42.698  25.495  27.831  1.00  0.00     0.074 A 
ATOM     40  C   UNL A   1      44.949  24.832  27.042  1.00  0.00     0.049 A 
ATOM     41  N   UNL A   1      42.874  26.772  28.062  1.00  0.00    -0.248 NA
ATOM     42  C   UNL A   1      41.329  25.022  28.094  1.00  0.00     0.031 C 
ATOM     43  C   UNL A   1      45.972  23.950  26.478  1.00  0.00     0.029 A 
ATOM     44  N   UNL A   1      45.596  26.032  27.195  1.00  0.00    -0.354 N 
ATOM     45  C   UNL A   1      41.638  27.252  28.476  1.00  0.00     0.074 A 
ATOM     46  C   UNL A   1      40.706  26.148  28.404  1.00  0.00     0.031 C 
ATOM     47  C   UNL A   1      47.124  24.629  26.358  1.00  0.00     0.029 A 
ATOM     48  C   UNL A   1      46.908  26.006  26.787  1.00  0.00     0.049 A 
ATOM     49  H   UNL A   1      45.162  26.836  27.562  1.00  0.00     0.167 HD
ATOM     50  C   UNL A   1      41.317  28.496  28.903  1.00  0.00     0.037 A 
ATOM     51  C   UNL A   1      47.828  26.988  26.748  1.00  0.00     0.037 A 
ATOM     52  C   UNL A   1      42.259  29.579  28.999  1.00  0.00     0.049 A 
ATOM     53  C   UNL A   1      47.442  28.365  27.215  1.00  0.00     0.074 A 
ATOM     54  C   UNL A   1      42.058  30.856  29.491  1.00  0.00     0.029 A 
ATOM     55  N   UNL A   1      43.583  29.512  28.588  1.00  0.00    -0.354 N 
ATOM     56  N   UNL A   1      46.291  28.789  27.679  1.00  0.00    -0.248 NA
ATOM     57  C   UNL A   1      48.482  29.400  27.151  1.00  0.00     0.031 C 
ATOM     58  C   UNL A   1      43.244  31.578  29.327  1.00  0.00     0.029 A 
ATOM     59  C   UNL A   1      44.202  30.736  28.783  1.00  0.00     0.049 A 
ATOM     60  H   UNL A   1      44.019  28.712  28.214  1.00  0.00     0.167 HD
ATOM     61  C   UNL A   1      46.471  30.132  27.978  1.00  0.00     0.074 A 
ATOM     62  C   UNL A   1      47.851  30.446  27.668  1.00  0.00     0.031 C 
ATOM     63  C   UNL A   1      45.576  31.028  28.460  1.00  0.00     0.037 A 
BRANCH  50  64
ATOM     64  C   UNL A   1      39.892  28.749  29.303  1.00  0.00     0.064 A 
ATOM     65  C   UNL A   1      38.946  29.241  28.391  1.00  0.00     0.173 A 
ATOM     66  C   UNL A   1      39.458  28.462  30.607  1.00  0.00     0.173 A 
ATOM     67  F   UNL A   1      39.311  29.543  27.137  1.00  0.00    -0.203 F 
ATOM     68  C   UNL A   1      37.627  29.467  28.777  1.00  0.00     0.198 A 
ATOM     69  C   UNL A   1      38.131  28.659  30.980  1.00  0.00     0.198 A 
ATOM     70  F   UNL A   1      40.319  27.986  31.518  1.00  0.00    -0.203 F 
ATOM     71  F   UNL A   1      36.755  29.989  27.904  1.00  0.00    -0.200 F 
ATOM     72  C   UNL A   1      37.219  29.168  30.069  1.00  0.00     0.200 A 
ATOM     73  F   UNL A   1      37.735  28.356  32.225  1.00  0.00    -0.200 F 
ATOM     74  F   UNL A   1      35.947  29.378  30.436  1.00  0.00    -0.200 F 
ENDBRANCH  50  64
BRANCH  51  75
ATOM     75  C   UNL A   1      49.203  26.703  26.258  1.00  0.00     0.064 A 
ATOM     76  C   UNL A   1      49.547  26.916  24.916  1.00  0.00     0.173 A 
ATOM     77  C   UNL A   1      50.198  26.213  27.116  1.00  0.00     0.173 A 
ATOM     78  F   UNL A   1      48.625  27.364  24.052  1.00  0.00    -0.203 F 
ATOM     79  C   UNL A   1      50.828  26.631  24.446  1.00  0.00     0.198 A 
ATOM     80  C   UNL A   1      51.489  25.957  26.652  1.00  0.00     0.198 A 
ATOM     81  F   UNL A   1      49.924  25.996  28.411  1.00  0.00    -0.203 F 
ATOM     82  F   UNL A   1      51.116  26.799  23.149  1.00  0.00    -0.200 F 
ATOM     83  C   UNL A   1      51.799  26.158  25.316  1.00  0.00     0.200 A 
ATOM     84  F   UNL A   1      52.428  25.516  27.499  1.00  0.00    -0.200 F 
ATOM     85  F   UNL A   1      53.031  25.888  24.865  1.00  0.00    -0.200 F 
ENDBRANCH  51  75
BRANCH  63  86
ATOM     86  C   UNL A   1      46.063  32.429  28.689  1.00  0.00     0.064 A 
ATOM     87  C   UNL A   1      45.956  33.412  27.694  1.00  0.00     0.173 A 
ATOM     88  C   UNL A   1      46.602  32.803  29.929  1.00  0.00     0.173 A 
ATOM     89  F   UNL A   1      45.462  33.101  26.487  1.00  0.00    -0.203 F 
ATOM     90  C   UNL A   1      46.396  34.713  27.925  1.00  0.00     0.198 A 
ATOM     91  C   UNL A   1      47.010  34.111  30.167  1.00  0.00     0.198 A 
ATOM     92  F   UNL A   1      46.719  31.901  30.916  1.00  0.00    -0.203 F 
ATOM     93  F   UNL A   1      46.330  35.624  26.944  1.00  0.00    -0.200 F 
ATOM     94  C   UNL A   1      46.914  35.063  29.164  1.00  0.00     0.200 A 
ATOM     95  F   UNL A   1      47.495  34.452  31.369  1.00  0.00    -0.200 F 
ATOM     96  F   UNL A   1      47.327  36.319  29.387  1.00  0.00    -0.200 F 
ENDBRANCH  63  86
ENDBRANCH  37  38
ENDBRANCH  29  32
ENDBRANCH  27  28
ENDBRANCH  26  27
ENDBRANCH   1  26
TORSDOF 15
ENDMDL
