MODEL 1
REMARK VINA RESULT:     -12.0      0.000      0.000
REMARK SMILES CCC(CC)(CC(=O)NNC(=O)c1cc(C)oc1C)C(=O)NCCCNC(=O)c1ccc(-c2c3nc(c(-c4c(F)c(F)c(F)c(F)c4F)c4ccc([nH]4)c(-c4c(F)c(F)c(F)c(F)c4F)c4nc(c(-c5c(F)c(F)c(F)c(F)c5F)c5ccc2[nH]5)C=C4)C=C3)cc1
REMARK SMILES IDX 23 1 22 2 20 3 21 4 3 6 2 7 1 8 4 9 5 10 6 11 7 12 8 13 9 14
REMARK SMILES IDX 10 16 11 17 12 19 13 20 14 21 18 22 15 23 17 24 19 25 16 26
REMARK SMILES IDX 24 27 25 28 26 29 27 30 28 32 29 33 30 34 91 35 31 36 90 37
REMARK SMILES IDX 32 38 33 39 34 40 84 41 35 42 89 43 83 44 85 45 36 46 88 47
REMARK SMILES IDX 82 48 81 49 37 51 69 52 49 53 68 54 50 55 53 56 67 57 86 58
REMARK SMILES IDX 51 59 52 60 66 62 87 63 54 64 38 65 39 66 47 67 40 68 41 69
REMARK SMILES IDX 45 70 48 71 42 72 43 73 46 74 44 75 70 76 71 77 79 78 72 79
REMARK SMILES IDX 73 80 77 81 80 82 74 83 75 84 78 85 76 86 55 87 56 88 64 89
REMARK SMILES IDX 57 90 58 91 62 92 65 93 59 94 60 95 63 96 61 97
REMARK H PARENT 22 5 9 15 10 18 26 31 85 50 53 61
REMARK Flexibility Score: inf
ROOT
ATOM      1  C   UNL A   1      34.056  28.325  22.817  1.00  0.00     0.117 C 
ENDROOT
BRANCH   1   2
ATOM      2  N   UNL A   1      33.574  27.375  21.830  1.00  0.00    -0.356 N 
ATOM      3  C   UNL A   1      33.197  26.073  21.863  1.00  0.00     0.226 C 
ATOM      4  O   UNL A   1      32.888  25.592  20.767  1.00  0.00    -0.274 OA
ATOM      5  H   UNL A   1      33.506  27.767  20.929  1.00  0.00     0.163 HD
BRANCH   3   6
ATOM      6  C   UNL A   1      33.147  25.215  23.156  1.00  0.00     0.057 C 
BRANCH   6   7
ATOM      7  C   UNL A   1      34.410  25.557  24.027  1.00  0.00     0.014 C 
ATOM      8  C   UNL A   1      34.202  25.613  25.540  1.00  0.00     0.005 C 
ENDBRANCH   6   7
BRANCH   6   9
ATOM      9  C   UNL A   1      33.159  23.699  22.790  1.00  0.00     0.014 C 
ATOM     10  C   UNL A   1      34.530  23.028  22.794  1.00  0.00     0.005 C 
ENDBRANCH   6   9
BRANCH   6  11
ATOM     11  C   UNL A   1      31.886  25.583  23.986  1.00  0.00     0.118 C 
BRANCH  11  12
ATOM     12  C   UNL A   1      30.793  24.520  23.989  1.00  0.00     0.239 C 
ATOM     13  O   UNL A   1      30.105  24.318  22.988  1.00  0.00    -0.273 OA
ATOM     14  N   UNL A   1      30.586  23.750  25.105  1.00  0.00    -0.267 N 
ATOM     15  H   UNL A   1      29.879  23.067  25.057  1.00  0.00     0.191 HD
BRANCH  14  16
ATOM     16  N   UNL A   1      31.295  23.854  26.302  1.00  0.00    -0.263 N 
ATOM     17  C   UNL A   1      32.045  22.834  26.858  1.00  0.00     0.273 C 
ATOM     18  H   UNL A   1      31.257  24.712  26.784  1.00  0.00     0.191 HD
ATOM     19  O   UNL A   1      32.302  22.875  28.060  1.00  0.00    -0.267 OA
BRANCH  17  20
ATOM     20  C   UNL A   1      32.530  21.768  26.000  1.00  0.00     0.082 A 
ATOM     21  C   UNL A   1      31.813  20.920  25.101  1.00  0.00     0.059 A 
ATOM     22  C   UNL A   1      33.864  21.441  25.823  1.00  0.00     0.113 A 
ATOM     23  C   UNL A   1      32.748  20.134  24.464  1.00  0.00     0.101 A 
ATOM     24  O   UNL A   1      33.995  20.442  24.907  1.00  0.00    -0.466 OA
ATOM     25  C   UNL A   1      35.122  21.957  26.406  1.00  0.00     0.088 C 
ATOM     26  C   UNL A   1      32.665  19.095  23.419  1.00  0.00     0.087 C 
ENDBRANCH  17  20
ENDBRANCH  14  16
ENDBRANCH  11  12
ENDBRANCH   6  11
ENDBRANCH   3   6
ENDBRANCH   1   2
BRANCH   1  27
ATOM     27  C   UNL A   1      32.947  28.906  23.693  1.00  0.00     0.042 C 
BRANCH  27  28
ATOM     28  C   UNL A   1      33.317  29.142  25.156  1.00  0.00     0.118 C 
BRANCH  28  29
ATOM     29  N   UNL A   1      32.697  30.336  25.708  1.00  0.00    -0.352 N 
ATOM     30  C   UNL A   1      33.053  31.100  26.791  1.00  0.00     0.251 C 
ATOM     31  H   UNL A   1      31.894  30.645  25.229  1.00  0.00     0.163 HD
ATOM     32  O   UNL A   1      32.299  31.987  27.183  1.00  0.00    -0.269 OA
BRANCH  30  33
ATOM     33  C   UNL A   1      34.325  30.864  27.508  1.00  0.00     0.039 A 
ATOM     34  C   UNL A   1      35.206  31.939  27.671  1.00  0.00     0.014 A 
ATOM     35  C   UNL A   1      34.686  29.591  27.959  1.00  0.00     0.014 A 
ATOM     36  C   UNL A   1      36.419  31.756  28.339  1.00  0.00     0.010 A 
ATOM     37  C   UNL A   1      35.888  29.412  28.646  1.00  0.00     0.010 A 
ATOM     38  C   UNL A   1      36.758  30.494  28.849  1.00  0.00    -0.014 A 
BRANCH  38  39
ATOM     39  C   UNL A   1      38.013  30.286  29.607  1.00  0.00     0.031 A 
ATOM     40  C   UNL A   1      39.117  29.458  29.027  1.00  0.00     0.074 A 
ATOM     41  C   UNL A   1      38.144  30.801  30.843  1.00  0.00     0.049 A 
ATOM     42  N   UNL A   1      40.171  28.961  29.621  1.00  0.00    -0.248 NA
ATOM     43  C   UNL A   1      39.017  29.132  27.596  1.00  0.00     0.031 C 
ATOM     44  C   UNL A   1      37.149  31.625  31.528  1.00  0.00     0.029 A 
ATOM     45  N   UNL A   1      39.170  30.690  31.746  1.00  0.00    -0.354 N 
ATOM     46  C   UNL A   1      40.825  28.207  28.658  1.00  0.00     0.074 A 
ATOM     47  C   UNL A   1      40.081  28.358  27.424  1.00  0.00     0.031 C 
ATOM     48  C   UNL A   1      37.618  31.954  32.745  1.00  0.00     0.029 A 
ATOM     49  C   UNL A   1      38.930  31.339  32.931  1.00  0.00     0.049 A 
ATOM     50  H   UNL A   1      40.000  30.193  31.563  1.00  0.00     0.167 HD
ATOM     51  C   UNL A   1      41.921  27.429  28.809  1.00  0.00     0.037 A 
ATOM     52  C   UNL A   1      39.676  31.413  34.046  1.00  0.00     0.037 A 
ATOM     53  C   UNL A   1      42.666  27.294  30.032  1.00  0.00     0.049 A 
ATOM     54  C   UNL A   1      40.985  30.686  34.120  1.00  0.00     0.074 A 
ATOM     55  C   UNL A   1      43.687  26.411  30.340  1.00  0.00     0.029 A 
ATOM     56  N   UNL A   1      42.489  28.104  31.140  1.00  0.00    -0.354 N 
ATOM     57  N   UNL A   1      41.509  29.851  33.260  1.00  0.00    -0.248 NA
ATOM     58  C   UNL A   1      41.803  30.908  35.321  1.00  0.00     0.031 C 
ATOM     59  C   UNL A   1      44.154  26.715  31.627  1.00  0.00     0.029 A 
ATOM     60  C   UNL A   1      43.421  27.785  32.113  1.00  0.00     0.049 A 
ATOM     61  H   UNL A   1      41.802  28.804  31.225  1.00  0.00     0.167 HD
ATOM     62  C   UNL A   1      42.695  29.415  33.829  1.00  0.00     0.074 A 
ATOM     63  C   UNL A   1      42.840  30.111  35.090  1.00  0.00     0.031 C 
ATOM     64  C   UNL A   1      43.567  28.493  33.355  1.00  0.00     0.037 A 
BRANCH  51  65
ATOM     65  C   UNL A   1      42.346  26.619  27.629  1.00  0.00     0.064 A 
ATOM     66  C   UNL A   1      43.337  27.077  26.753  1.00  0.00     0.173 A 
ATOM     67  C   UNL A   1      41.770  25.364  27.387  1.00  0.00     0.173 A 
ATOM     68  F   UNL A   1      43.903  28.278  26.941  1.00  0.00    -0.203 F 
ATOM     69  C   UNL A   1      43.736  26.302  25.666  1.00  0.00     0.198 A 
ATOM     70  C   UNL A   1      42.173  24.591  26.304  1.00  0.00     0.198 A 
ATOM     71  F   UNL A   1      40.813  24.893  28.201  1.00  0.00    -0.203 F 
ATOM     72  F   UNL A   1      44.675  26.759  24.827  1.00  0.00    -0.200 F 
ATOM     73  C   UNL A   1      43.155  25.061  25.443  1.00  0.00     0.200 A 
ATOM     74  F   UNL A   1      41.609  23.395  26.087  1.00  0.00    -0.200 F 
ATOM     75  F   UNL A   1      43.538  24.319  24.395  1.00  0.00    -0.200 F 
ENDBRANCH  51  65
BRANCH  52  76
ATOM     76  C   UNL A   1      39.183  32.197  35.199  1.00  0.00     0.064 A 
ATOM     77  C   UNL A   1      38.436  31.586  36.213  1.00  0.00     0.173 A 
ATOM     78  C   UNL A   1      39.472  33.562  35.318  1.00  0.00     0.173 A 
ATOM     79  F   UNL A   1      38.127  30.284  36.126  1.00  0.00    -0.203 F 
ATOM     80  C   UNL A   1      37.993  32.317  37.312  1.00  0.00     0.198 A 
ATOM     81  C   UNL A   1      39.033  34.291  36.420  1.00  0.00     0.198 A 
ATOM     82  F   UNL A   1      40.182  34.182  34.365  1.00  0.00    -0.203 F 
ATOM     83  F   UNL A   1      37.272  31.716  38.268  1.00  0.00    -0.200 F 
ATOM     84  C   UNL A   1      38.295  33.668  37.416  1.00  0.00     0.200 A 
ATOM     85  F   UNL A   1      39.324  35.594  36.519  1.00  0.00    -0.200 F 
ATOM     86  F   UNL A   1      37.869  34.370  38.475  1.00  0.00    -0.200 F 
ENDBRANCH  52  76
BRANCH  64  87
ATOM     87  C   UNL A   1      44.746  28.170  34.214  1.00  0.00     0.064 A 
ATOM     88  C   UNL A   1      44.664  27.168  35.191  1.00  0.00     0.173 A 
ATOM     89  C   UNL A   1      45.963  28.843  34.049  1.00  0.00     0.173 A 
ATOM     90  F   UNL A   1      43.513  26.510  35.386  1.00  0.00    -0.203 F 
ATOM     91  C   UNL A   1      45.766  26.850  35.977  1.00  0.00     0.198 A 
ATOM     92  C   UNL A   1      47.063  28.523  34.839  1.00  0.00     0.198 A 
ATOM     93  F   UNL A   1      46.077  29.819  33.136  1.00  0.00    -0.203 F 
ATOM     94  F   UNL A   1      45.668  25.894  36.911  1.00  0.00    -0.200 F 
ATOM     95  C   UNL A   1      46.965  27.527  35.801  1.00  0.00     0.200 A 
ATOM     96  F   UNL A   1      48.217  29.185  34.679  1.00  0.00    -0.200 F 
ATOM     97  F   UNL A   1      48.023  27.225  36.565  1.00  0.00    -0.200 F 
ENDBRANCH  64  87
ENDBRANCH  38  39
ENDBRANCH  30  33
ENDBRANCH  28  29
ENDBRANCH  27  28
ENDBRANCH   1  27
TORSDOF 16
ENDMDL
MODEL 2
REMARK VINA RESULT:     -11.5      0.981      2.474
REMARK SMILES CCC(CC)(CC(=O)NNC(=O)c1cc(C)oc1C)C(=O)NCCCNC(=O)c1ccc(-c2c3nc(c(-c4c(F)c(F)c(F)c(F)c4F)c4ccc([nH]4)c(-c4c(F)c(F)c(F)c(F)c4F)c4nc(c(-c5c(F)c(F)c(F)c(F)c5F)c5ccc2[nH]5)C=C4)C=C3)cc1
REMARK SMILES IDX 23 1 22 2 20 3 21 4 3 6 2 7 1 8 4 9 5 10 6 11 7 12 8 13 9 14
REMARK SMILES IDX 10 16 11 17 12 19 13 20 14 21 18 22 15 23 17 24 19 25 16 26
REMARK SMILES IDX 24 27 25 28 26 29 27 30 28 32 29 33 30 34 91 35 31 36 90 37
REMARK SMILES IDX 32 38 33 39 34 40 84 41 35 42 89 43 83 44 85 45 36 46 88 47
REMARK SMILES IDX 82 48 81 49 37 51 69 52 49 53 68 54 50 55 53 56 67 57 86 58
REMARK SMILES IDX 51 59 52 60 66 62 87 63 54 64 38 65 39 66 47 67 40 68 41 69
REMARK SMILES IDX 45 70 48 71 42 72 43 73 46 74 44 75 70 76 71 77 79 78 72 79
REMARK SMILES IDX 73 80 77 81 80 82 74 83 75 84 78 85 76 86 55 87 56 88 64 89
REMARK SMILES IDX 57 90 58 91 62 92 65 93 59 94 60 95 63 96 61 97
REMARK H PARENT 22 5 9 15 10 18 26 31 85 50 53 61
REMARK Flexibility Score: inf
ROOT
ATOM      1  C   UNL A   1      33.766  27.297  23.009  1.00  0.00     0.117 C 
ENDROOT
BRANCH   1   2
ATOM      2  N   UNL A   1      32.723  26.396  22.553  1.00  0.00    -0.356 N 
ATOM      3  C   UNL A   1      31.718  25.715  23.158  1.00  0.00     0.226 C 
ATOM      4  O   UNL A   1      31.054  24.991  22.408  1.00  0.00    -0.274 OA
ATOM      5  H   UNL A   1      32.753  26.244  21.580  1.00  0.00     0.163 HD
BRANCH   3   6
ATOM      6  C   UNL A   1      31.395  25.807  24.674  1.00  0.00     0.057 C 
BRANCH   6   7
ATOM      7  C   UNL A   1      30.633  27.157  24.937  1.00  0.00     0.014 C 
ATOM      8  C   UNL A   1      29.620  27.586  23.876  1.00  0.00     0.005 C 
ENDBRANCH   6   7
BRANCH   6   9
ATOM      9  C   UNL A   1      32.716  25.784  25.502  1.00  0.00     0.014 C 
ATOM     10  C   UNL A   1      32.796  26.786  26.650  1.00  0.00     0.005 C 
ENDBRANCH   6   9
BRANCH   6  11
ATOM     11  C   UNL A   1      30.452  24.643  25.085  1.00  0.00     0.118 C 
BRANCH  11  12
ATOM     12  C   UNL A   1      31.076  23.623  26.030  1.00  0.00     0.239 C 
ATOM     13  O   UNL A   1      31.002  23.763  27.252  1.00  0.00    -0.273 OA
ATOM     14  N   UNL A   1      31.702  22.511  25.526  1.00  0.00    -0.267 N 
ATOM     15  H   UNL A   1      32.078  21.872  26.174  1.00  0.00     0.191 HD
BRANCH  14  16
ATOM     16  N   UNL A   1      31.849  22.211  24.171  1.00  0.00    -0.263 N 
ATOM     17  C   UNL A   1      33.020  22.385  23.456  1.00  0.00     0.273 C 
ATOM     18  H   UNL A   1      31.067  21.852  23.693  1.00  0.00     0.191 HD
ATOM     19  O   UNL A   1      32.957  22.469  22.229  1.00  0.00    -0.267 OA
BRANCH  17  20
ATOM     20  C   UNL A   1      34.282  22.432  24.170  1.00  0.00     0.082 A 
ATOM     21  C   UNL A   1      35.133  23.544  24.453  1.00  0.00     0.059 A 
ATOM     22  C   UNL A   1      34.859  21.356  24.824  1.00  0.00     0.113 A 
ATOM     23  C   UNL A   1      36.164  23.068  25.232  1.00  0.00     0.101 A 
ATOM     24  O   UNL A   1      36.006  21.737  25.453  1.00  0.00    -0.466 OA
ATOM     25  C   UNL A   1      34.478  19.935  24.975  1.00  0.00     0.088 C 
ATOM     26  C   UNL A   1      37.335  23.701  25.872  1.00  0.00     0.087 C 
ENDBRANCH  17  20
ENDBRANCH  14  16
ENDBRANCH  11  12
ENDBRANCH   6  11
ENDBRANCH   3   6
ENDBRANCH   1   2
BRANCH   1  27
ATOM     27  C   UNL A   1      33.245  28.677  23.409  1.00  0.00     0.042 C 
BRANCH  27  28
ATOM     28  C   UNL A   1      33.904  29.300  24.638  1.00  0.00     0.118 C 
BRANCH  28  29
ATOM     29  N   UNL A   1      33.027  30.224  25.339  1.00  0.00    -0.352 N 
ATOM     30  C   UNL A   1      33.151  30.796  26.580  1.00  0.00     0.251 C 
ATOM     31  H   UNL A   1      32.214  30.480  24.846  1.00  0.00     0.163 HD
ATOM     32  O   UNL A   1      32.214  31.434  27.052  1.00  0.00    -0.269 OA
BRANCH  30  33
ATOM     33  C   UNL A   1      34.392  30.643  27.371  1.00  0.00     0.039 A 
ATOM     34  C   UNL A   1      34.678  29.391  27.926  1.00  0.00     0.014 A 
ATOM     35  C   UNL A   1      35.237  31.728  27.626  1.00  0.00     0.014 A 
ATOM     36  C   UNL A   1      35.838  29.207  28.683  1.00  0.00     0.010 A 
ATOM     37  C   UNL A   1      36.407  31.540  28.363  1.00  0.00     0.010 A 
ATOM     38  C   UNL A   1      36.720  30.277  28.888  1.00  0.00    -0.014 A 
BRANCH  38  39
ATOM     39  C   UNL A   1      37.983  30.095  29.642  1.00  0.00     0.031 A 
ATOM     40  C   UNL A   1      39.090  29.264  29.072  1.00  0.00     0.074 A 
ATOM     41  C   UNL A   1      38.117  30.638  30.865  1.00  0.00     0.049 A 
ATOM     42  N   UNL A   1      40.152  28.788  29.670  1.00  0.00    -0.248 NA
ATOM     43  C   UNL A   1      38.983  28.906  27.650  1.00  0.00     0.031 C 
ATOM     44  C   UNL A   1      37.120  31.469  31.539  1.00  0.00     0.029 A 
ATOM     45  N   UNL A   1      39.150  30.555  31.764  1.00  0.00    -0.354 N 
ATOM     46  C   UNL A   1      40.804  28.018  28.719  1.00  0.00     0.074 A 
ATOM     47  C   UNL A   1      40.052  28.137  27.487  1.00  0.00     0.031 C 
ATOM     48  C   UNL A   1      37.595  31.828  32.746  1.00  0.00     0.029 A 
ATOM     49  C   UNL A   1      38.912  31.228  32.936  1.00  0.00     0.049 A 
ATOM     50  H   UNL A   1      39.983  30.061  31.585  1.00  0.00     0.167 HD
ATOM     51  C   UNL A   1      41.908  27.253  28.880  1.00  0.00     0.037 A 
ATOM     52  C   UNL A   1      39.666  31.333  34.044  1.00  0.00     0.037 A 
ATOM     53  C   UNL A   1      42.662  27.151  30.100  1.00  0.00     0.049 A 
ATOM     54  C   UNL A   1      40.981  30.618  34.124  1.00  0.00     0.074 A 
ATOM     55  C   UNL A   1      43.693  26.283  30.421  1.00  0.00     0.029 A 
ATOM     56  N   UNL A   1      42.486  27.984  31.191  1.00  0.00    -0.354 N 
ATOM     57  N   UNL A   1      41.505  29.769  33.279  1.00  0.00    -0.248 NA
ATOM     58  C   UNL A   1      41.805  30.872  35.315  1.00  0.00     0.031 C 
ATOM     59  C   UNL A   1      44.166  26.619  31.697  1.00  0.00     0.029 A 
ATOM     60  C   UNL A   1      43.427  27.694  32.164  1.00  0.00     0.049 A 
ATOM     61  H   UNL A   1      41.794  28.680  31.266  1.00  0.00     0.167 HD
ATOM     62  C   UNL A   1      42.700  29.355  33.849  1.00  0.00     0.074 A 
ATOM     63  C   UNL A   1      42.847  30.079  35.094  1.00  0.00     0.031 C 
ATOM     64  C   UNL A   1      43.575  28.430  33.390  1.00  0.00     0.037 A 
BRANCH  51  65
ATOM     65  C   UNL A   1      42.332  26.421  27.714  1.00  0.00     0.064 A 
ATOM     66  C   UNL A   1      41.741  25.180  27.455  1.00  0.00     0.173 A 
ATOM     67  C   UNL A   1      43.326  26.884  26.839  1.00  0.00     0.173 A 
ATOM     68  F   UNL A   1      40.798  24.695  28.276  1.00  0.00    -0.203 F 
ATOM     69  C   UNL A   1      42.135  24.423  26.353  1.00  0.00     0.198 A 
ATOM     70  C   UNL A   1      43.713  26.128  25.738  1.00  0.00     0.198 A 
ATOM     71  F   UNL A   1      43.920  28.066  27.058  1.00  0.00    -0.203 F 
ATOM     72  F   UNL A   1      41.571  23.230  26.125  1.00  0.00    -0.200 F 
ATOM     73  C   UNL A   1      43.119  24.898  25.496  1.00  0.00     0.200 A 
ATOM     74  F   UNL A   1      44.666  26.585  24.914  1.00  0.00    -0.200 F 
ATOM     75  F   UNL A   1      43.499  24.167  24.440  1.00  0.00    -0.200 F 
ENDBRANCH  51  65
BRANCH  52  76
ATOM     76  C   UNL A   1      39.174  32.138  35.182  1.00  0.00     0.064 A 
ATOM     77  C   UNL A   1      38.448  31.541  36.220  1.00  0.00     0.173 A 
ATOM     78  C   UNL A   1      39.442  33.509  35.265  1.00  0.00     0.173 A 
ATOM     79  F   UNL A   1      38.158  30.233  36.169  1.00  0.00    -0.203 F 
ATOM     80  C   UNL A   1      38.006  32.292  37.306  1.00  0.00     0.198 A 
ATOM     81  C   UNL A   1      39.006  34.258  36.353  1.00  0.00     0.198 A 
ATOM     82  F   UNL A   1      40.133  34.116  34.288  1.00  0.00    -0.203 F 
ATOM     83  F   UNL A   1      37.305  31.705  38.285  1.00  0.00    -0.200 F 
ATOM     84  C   UNL A   1      38.288  33.649  37.373  1.00  0.00     0.200 A 
ATOM     85  F   UNL A   1      39.278  35.568  36.417  1.00  0.00    -0.200 F 
ATOM     86  F   UNL A   1      37.864  34.371  38.419  1.00  0.00    -0.200 F 
ENDBRANCH  52  76
BRANCH  64  87
ATOM     87  C   UNL A   1      44.763  28.135  34.247  1.00  0.00     0.064 A 
ATOM     88  C   UNL A   1      45.964  28.834  34.067  1.00  0.00     0.173 A 
ATOM     89  C   UNL A   1      44.698  27.172  35.262  1.00  0.00     0.173 A 
ATOM     90  F   UNL A   1      46.070  29.755  33.098  1.00  0.00    -0.203 F 
ATOM     91  C   UNL A   1      47.065  28.578  34.877  1.00  0.00     0.198 A 
ATOM     92  C   UNL A   1      45.802  26.917  36.071  1.00  0.00     0.198 A 
ATOM     93  F   UNL A   1      43.571  26.471  35.457  1.00  0.00    -0.203 F 
ATOM     94  F   UNL A   1      48.208  29.251  34.686  1.00  0.00    -0.200 F 
ATOM     95  C   UNL A   1      46.983  27.621  35.879  1.00  0.00     0.200 A 
ATOM     96  F   UNL A   1      45.728  25.984  37.029  1.00  0.00    -0.200 F 
ATOM     97  F   UNL A   1      48.048  27.369  36.653  1.00  0.00    -0.200 F 
ENDBRANCH  64  87
ENDBRANCH  38  39
ENDBRANCH  30  33
ENDBRANCH  28  29
ENDBRANCH  27  28
ENDBRANCH   1  27
TORSDOF 16
ENDMDL
MODEL 3
REMARK VINA RESULT:     -11.5      2.060      3.560
REMARK SMILES CCC(CC)(CC(=O)NNC(=O)c1cc(C)oc1C)C(=O)NCCCNC(=O)c1ccc(-c2c3nc(c(-c4c(F)c(F)c(F)c(F)c4F)c4ccc([nH]4)c(-c4c(F)c(F)c(F)c(F)c4F)c4nc(c(-c5c(F)c(F)c(F)c(F)c5F)c5ccc2[nH]5)C=C4)C=C3)cc1
REMARK SMILES IDX 23 1 22 2 20 3 21 4 3 6 2 7 1 8 4 9 5 10 6 11 7 12 8 13 9 14
REMARK SMILES IDX 10 16 11 17 12 19 13 20 14 21 18 22 15 23 17 24 19 25 16 26
REMARK SMILES IDX 24 27 25 28 26 29 27 30 28 32 29 33 30 34 91 35 31 36 90 37
REMARK SMILES IDX 32 38 33 39 34 40 84 41 35 42 89 43 83 44 85 45 36 46 88 47
REMARK SMILES IDX 82 48 81 49 37 51 69 52 49 53 68 54 50 55 53 56 67 57 86 58
REMARK SMILES IDX 51 59 52 60 66 62 87 63 54 64 38 65 39 66 47 67 40 68 41 69
REMARK SMILES IDX 45 70 48 71 42 72 43 73 46 74 44 75 70 76 71 77 79 78 72 79
REMARK SMILES IDX 73 80 77 81 80 82 74 83 75 84 78 85 76 86 55 87 56 88 64 89
REMARK SMILES IDX 57 90 58 91 62 92 65 93 59 94 60 95 63 96 61 97
REMARK H PARENT 22 5 9 15 10 18 26 31 85 50 53 61
REMARK Flexibility Score: inf
ROOT
ATOM      1  C   UNL A   1      31.658  30.785  26.176  1.00  0.00     0.117 C 
ENDROOT
BRANCH   1   2
ATOM      2  N   UNL A   1      31.534  29.689  27.119  1.00  0.00    -0.356 N 
ATOM      3  C   UNL A   1      31.731  28.348  27.056  1.00  0.00     0.226 C 
ATOM      4  O   UNL A   1      31.459  27.732  28.093  1.00  0.00    -0.274 OA
ATOM      5  H   UNL A   1      31.237  29.987  28.010  1.00  0.00     0.163 HD
BRANCH   3   6
ATOM      6  C   UNL A   1      32.254  27.605  25.797  1.00  0.00     0.057 C 
BRANCH   6   7
ATOM      7  C   UNL A   1      33.659  28.201  25.418  1.00  0.00     0.014 C 
ATOM      8  C   UNL A   1      34.577  28.577  26.580  1.00  0.00     0.005 C 
ENDBRANCH   6   7
BRANCH   6   9
ATOM      9  C   UNL A   1      31.263  27.807  24.610  1.00  0.00     0.014 C 
ATOM     10  C   UNL A   1      31.838  28.500  23.378  1.00  0.00     0.005 C 
ENDBRANCH   6   9
BRANCH   6  11
ATOM     11  C   UNL A   1      32.450  26.097  26.117  1.00  0.00     0.118 C 
BRANCH  11  12
ATOM     12  C   UNL A   1      31.281  25.205  25.718  1.00  0.00     0.239 C 
ATOM     13  O   UNL A   1      30.301  25.079  26.454  1.00  0.00    -0.273 OA
ATOM     14  N   UNL A   1      31.293  24.554  24.511  1.00  0.00    -0.267 N 
ATOM     15  H   UNL A   1      30.511  23.999  24.290  1.00  0.00     0.191 HD
BRANCH  14  16
ATOM     16  N   UNL A   1      32.323  24.612  23.571  1.00  0.00    -0.263 N 
ATOM     17  C   UNL A   1      33.399  23.745  23.537  1.00  0.00     0.273 C 
ATOM     18  H   UNL A   1      32.279  25.319  22.887  1.00  0.00     0.191 HD
ATOM     19  O   UNL A   1      34.423  24.094  22.949  1.00  0.00    -0.267 OA
BRANCH  17  20
ATOM     20  C   UNL A   1      33.276  22.444  24.167  1.00  0.00     0.082 A 
ATOM     21  C   UNL A   1      32.759  21.219  23.644  1.00  0.00     0.059 A 
ATOM     22  C   UNL A   1      33.761  22.126  25.425  1.00  0.00     0.113 A 
ATOM     23  C   UNL A   1      32.945  20.261  24.615  1.00  0.00     0.101 A 
ATOM     24  O   UNL A   1      33.547  20.810  25.703  1.00  0.00    -0.466 OA
ATOM     25  C   UNL A   1      34.450  22.907  26.475  1.00  0.00     0.088 C 
ATOM     26  C   UNL A   1      32.664  18.813  24.688  1.00  0.00     0.087 C 
ENDBRANCH  17  20
ENDBRANCH  14  16
ENDBRANCH  11  12
ENDBRANCH   6  11
ENDBRANCH   3   6
ENDBRANCH   1   2
BRANCH   1  27
ATOM     27  C   UNL A   1      31.444  32.159  26.809  1.00  0.00     0.042 C 
BRANCH  27  28
ATOM     28  C   UNL A   1      32.715  32.911  27.199  1.00  0.00     0.118 C 
BRANCH  28  29
ATOM     29  N   UNL A   1      32.446  34.248  27.704  1.00  0.00    -0.352 N 
ATOM     30  C   UNL A   1      33.033  34.942  28.732  1.00  0.00     0.251 C 
ATOM     31  H   UNL A   1      31.729  34.733  27.234  1.00  0.00     0.163 HD
ATOM     32  O   UNL A   1      32.548  36.010  29.099  1.00  0.00    -0.269 OA
BRANCH  30  33
ATOM     33  C   UNL A   1      34.232  34.418  29.422  1.00  0.00     0.039 A 
ATOM     34  C   UNL A   1      34.069  33.815  30.675  1.00  0.00     0.014 A 
ATOM     35  C   UNL A   1      35.512  34.573  28.884  1.00  0.00     0.014 A 
ATOM     36  C   UNL A   1      35.177  33.311  31.360  1.00  0.00     0.010 A 
ATOM     37  C   UNL A   1      36.618  34.050  29.557  1.00  0.00     0.010 A 
ATOM     38  C   UNL A   1      36.457  33.408  30.794  1.00  0.00    -0.014 A 
BRANCH  38  39
ATOM     39  C   UNL A   1      37.641  32.835  31.476  1.00  0.00     0.031 A 
ATOM     40  C   UNL A   1      38.449  31.763  30.813  1.00  0.00     0.074 A 
ATOM     41  C   UNL A   1      37.963  33.242  32.717  1.00  0.00     0.049 A 
ATOM     42  N   UNL A   1      39.353  30.974  31.334  1.00  0.00    -0.248 NA
ATOM     43  C   UNL A   1      38.199  31.537  29.381  1.00  0.00     0.031 C 
ATOM     44  C   UNL A   1      37.263  34.276  33.479  1.00  0.00     0.029 A 
ATOM     45  N   UNL A   1      38.959  32.820  33.559  1.00  0.00    -0.354 N 
ATOM     46  C   UNL A   1      39.731  30.112  30.316  1.00  0.00     0.074 A 
ATOM     47  C   UNL A   1      39.003  30.512  29.129  1.00  0.00     0.031 C 
ATOM     48  C   UNL A   1      37.858  34.414  34.677  1.00  0.00     0.029 A 
ATOM     49  C   UNL A   1      38.959  33.459  34.773  1.00  0.00     0.049 A 
ATOM     50  H   UNL A   1      39.613  32.124  33.316  1.00  0.00     0.167 HD
ATOM     51  C   UNL A   1      40.579  29.060  30.385  1.00  0.00     0.037 A 
ATOM     52  C   UNL A   1      39.747  33.281  35.847  1.00  0.00     0.037 A 
ATOM     53  C   UNL A   1      41.313  28.677  31.560  1.00  0.00     0.049 A 
ATOM     54  C   UNL A   1      40.809  32.224  35.828  1.00  0.00     0.074 A 
ATOM     55  C   UNL A   1      42.067  27.539  31.787  1.00  0.00     0.029 A 
ATOM     56  N   UNL A   1      41.415  29.458  32.699  1.00  0.00    -0.354 N 
ATOM     57  N   UNL A   1      41.046  31.315  34.917  1.00  0.00    -0.248 NA
ATOM     58  C   UNL A   1      41.710  32.164  36.989  1.00  0.00     0.031 C 
ATOM     59  C   UNL A   1      42.657  27.650  33.054  1.00  0.00     0.029 A 
ATOM     60  C   UNL A   1      42.267  28.858  33.609  1.00  0.00     0.049 A 
ATOM     61  H   UNL A   1      40.949  30.314  32.841  1.00  0.00     0.167 HD
ATOM     62  C   UNL A   1      42.093  30.550  35.408  1.00  0.00     0.074 A 
ATOM     63  C   UNL A   1      42.478  31.127  36.678  1.00  0.00     0.031 C 
ATOM     64  C   UNL A   1      42.657  29.447  34.861  1.00  0.00     0.037 A 
BRANCH  51  65
ATOM     65  C   UNL A   1      40.714  28.216  29.160  1.00  0.00     0.064 A 
ATOM     66  C   UNL A   1      39.864  27.128  28.932  1.00  0.00     0.173 A 
ATOM     67  C   UNL A   1      41.689  28.515  28.199  1.00  0.00     0.173 A 
ATOM     68  F   UNL A   1      38.927  26.800  29.834  1.00  0.00    -0.203 F 
ATOM     69  C   UNL A   1      39.990  26.360  27.776  1.00  0.00     0.198 A 
ATOM     70  C   UNL A   1      41.809  27.749  27.044  1.00  0.00     0.198 A 
ATOM     71  F   UNL A   1      42.526  29.546  28.385  1.00  0.00    -0.203 F 
ATOM     72  F   UNL A   1      39.179  25.312  27.577  1.00  0.00    -0.200 F 
ATOM     73  C   UNL A   1      40.961  26.672  26.834  1.00  0.00     0.200 A 
ATOM     74  F   UNL A   1      42.750  28.048  26.137  1.00  0.00    -0.200 F 
ATOM     75  F   UNL A   1      41.082  25.930  25.725  1.00  0.00    -0.200 F 
ENDBRANCH  51  65
BRANCH  52  76
ATOM     76  C   UNL A   1      39.539  34.120  37.046  1.00  0.00     0.064 A 
ATOM     77  C   UNL A   1      38.798  33.643  38.134  1.00  0.00     0.173 A 
ATOM     78  C   UNL A   1      40.099  35.401  37.136  1.00  0.00     0.173 A 
ATOM     79  F   UNL A   1      38.234  32.428  38.079  1.00  0.00    -0.203 F 
ATOM     80  C   UNL A   1      38.623  34.422  39.275  1.00  0.00     0.198 A 
ATOM     81  C   UNL A   1      39.928  36.176  38.279  1.00  0.00     0.198 A 
ATOM     82  F   UNL A   1      40.813  35.892  36.113  1.00  0.00    -0.203 F 
ATOM     83  F   UNL A   1      37.903  33.951  40.302  1.00  0.00    -0.200 F 
ATOM     84  C   UNL A   1      39.191  35.686  39.347  1.00  0.00     0.200 A 
ATOM     85  F   UNL A   1      40.477  37.396  38.348  1.00  0.00    -0.200 F 
ATOM     86  F   UNL A   1      39.024  36.434  40.447  1.00  0.00    -0.200 F 
ENDBRANCH  52  76
BRANCH  64  87
ATOM     87  C   UNL A   1      43.740  28.780  35.645  1.00  0.00     0.064 A 
ATOM     88  C   UNL A   1      45.084  29.126  35.441  1.00  0.00     0.173 A 
ATOM     89  C   UNL A   1      43.440  27.813  36.612  1.00  0.00     0.173 A 
ATOM     90  F   UNL A   1      45.412  30.038  34.516  1.00  0.00    -0.203 F 
ATOM     91  C   UNL A   1      46.093  28.523  36.184  1.00  0.00     0.198 A 
ATOM     92  C   UNL A   1      44.453  27.211  37.352  1.00  0.00     0.198 A 
ATOM     93  F   UNL A   1      42.168  27.443  36.826  1.00  0.00    -0.203 F 
ATOM     94  F   UNL A   1      47.373  28.860  35.972  1.00  0.00    -0.200 F 
ATOM     95  C   UNL A   1      45.778  27.567  37.139  1.00  0.00     0.200 A 
ATOM     96  F   UNL A   1      44.151  26.278  38.265  1.00  0.00    -0.200 F 
ATOM     97  F   UNL A   1      46.753  26.980  37.847  1.00  0.00    -0.200 F 
ENDBRANCH  64  87
ENDBRANCH  38  39
ENDBRANCH  30  33
ENDBRANCH  28  29
ENDBRANCH  27  28
ENDBRANCH   1  27
TORSDOF 16
ENDMDL
