MODEL 1
REMARK VINA RESULT:     -13.1      0.000      0.000
REMARK SMILES Cc1ccnc(C(=O)c2[nH]c3cc(F)ccc3c2CC(=O)NCCCNC(=O)c2ccc(-c3c4nc(c(-c5c(F)c(F)c(F)c(F)c5F)c5ccc([nH]5)c(-c5c(F)c(F)c(F)c(F)c5F)c5nc(c(-c6c(F)c(F)c(F)c(F)c6F)c6ccc3[nH]6)C=C5)C=C4)cc2)c1
REMARK SMILES IDX 23 1 22 2 20 3 21 4 19 6 18 7 9 8 10 9 11 10 17 12 12 13
REMARK SMILES IDX 16 14 13 15 15 16 14 17 7 18 8 19 6 20 1 21 2 22 3 23 92 24
REMARK SMILES IDX 4 25 5 26 24 27 25 28 26 29 27 30 28 32 29 33 30 34 91 35
REMARK SMILES IDX 31 36 90 37 32 38 33 39 34 40 84 41 35 42 89 43 83 44 85 45
REMARK SMILES IDX 36 46 88 47 82 48 81 49 37 51 69 52 49 53 68 54 50 55 53 56
REMARK SMILES IDX 67 57 86 58 51 59 52 60 66 62 87 63 54 64 38 65 39 66 47 67
REMARK SMILES IDX 40 68 41 69 45 70 48 71 42 72 43 73 46 74 44 75 70 76 71 77
REMARK SMILES IDX 79 78 72 79 73 80 77 81 80 82 74 83 75 84 78 85 76 86 55 87
REMARK SMILES IDX 56 88 64 89 57 90 58 91 62 92 65 93 59 94 60 95 63 96 61 97
REMARK H PARENT 22 5 10 11 26 31 85 50 53 61
REMARK Flexibility Score: inf
ROOT
ATOM      1  C   UNL A   1      33.630  26.716  25.143  1.00  0.00     0.117 C 
ENDROOT
BRANCH   1   2
ATOM      2  N   UNL A   1      33.388  25.605  26.043  1.00  0.00    -0.356 N 
ATOM      3  C   UNL A   1      33.729  24.290  25.918  1.00  0.00     0.224 C 
ATOM      4  O   UNL A   1      33.525  23.539  26.876  1.00  0.00    -0.275 OA
ATOM      5  H   UNL A   1      32.903  25.835  26.869  1.00  0.00     0.163 HD
BRANCH   3   6
ATOM      6  C   UNL A   1      34.426  23.784  24.668  1.00  0.00     0.138 C 
BRANCH   6   7
ATOM      7  C   UNL A   1      33.571  22.935  23.772  1.00  0.00    -0.002 A 
ATOM      8  C   UNL A   1      32.795  23.350  22.693  1.00  0.00     0.093 A 
ATOM      9  N   UNL A   1      32.221  22.230  22.138  1.00  0.00    -0.351 N 
ATOM     10  C   UNL A   1      32.536  21.111  22.866  1.00  0.00     0.049 A 
ATOM     11  H   UNL A   1      31.660  22.233  21.328  1.00  0.00     0.167 HD
ATOM     12  C   UNL A   1      33.375  21.518  23.902  1.00  0.00     0.004 A 
ATOM     13  C   UNL A   1      32.153  19.779  22.674  1.00  0.00     0.066 A 
ATOM     14  C   UNL A   1      33.853  20.538  24.801  1.00  0.00     0.013 A 
ATOM     15  C   UNL A   1      32.646  18.840  23.577  1.00  0.00     0.125 A 
ATOM     16  C   UNL A   1      33.481  19.201  24.626  1.00  0.00     0.040 A 
ATOM     17  F   UNL A   1      32.307  17.553  23.425  1.00  0.00    -0.207 F 
BRANCH   8  18
ATOM     18  C   UNL A   1      32.618  24.671  22.118  1.00  0.00     0.227 C 
ATOM     19  O   UNL A   1      33.278  25.021  21.143  1.00  0.00    -0.285 OA
BRANCH  18  20
ATOM     20  C   UNL A   1      31.530  25.555  22.686  1.00  0.00     0.113 A 
ATOM     21  C   UNL A   1      30.077  29.050  22.375  1.00  0.00     0.044 C 
ATOM     22  C   UNL A   1      30.335  27.644  22.830  1.00  0.00    -0.047 A 
ATOM     23  C   UNL A   1      29.592  27.095  23.875  1.00  0.00     0.023 A 
ATOM     24  C   UNL A   1      31.308  26.849  22.212  1.00  0.00     0.036 A 
ATOM     25  C   UNL A   1      29.866  25.798  24.273  1.00  0.00     0.112 A 
ATOM     26  N   UNL A   1      30.821  25.027  23.716  1.00  0.00    -0.253 NA
ENDBRANCH  18  20
ENDBRANCH   8  18
ENDBRANCH   6   7
ENDBRANCH   3   6
ENDBRANCH   1   2
BRANCH   1  27
ATOM     27  C   UNL A   1      32.838  27.973  25.496  1.00  0.00     0.042 C 
BRANCH  27  28
ATOM     28  C   UNL A   1      33.458  29.283  25.016  1.00  0.00     0.118 C 
BRANCH  28  29
ATOM     29  N   UNL A   1      32.828  30.452  25.611  1.00  0.00    -0.352 N 
ATOM     30  C   UNL A   1      33.123  31.130  26.767  1.00  0.00     0.251 C 
ATOM     31  H   UNL A   1      32.068  30.815  25.103  1.00  0.00     0.163 HD
ATOM     32  O   UNL A   1      32.353  31.999  27.169  1.00  0.00    -0.269 OA
BRANCH  30  33
ATOM     33  C   UNL A   1      34.344  30.830  27.552  1.00  0.00     0.039 A 
ATOM     34  C   UNL A   1      35.322  31.827  27.665  1.00  0.00     0.014 A 
ATOM     35  C   UNL A   1      34.577  29.567  28.102  1.00  0.00     0.014 A 
ATOM     36  C   UNL A   1      36.502  31.579  28.372  1.00  0.00     0.010 A 
ATOM     37  C   UNL A   1      35.742  29.327  28.835  1.00  0.00     0.010 A 
ATOM     38  C   UNL A   1      36.713  30.331  28.976  1.00  0.00    -0.014 A 
BRANCH  38  39
ATOM     39  C   UNL A   1      37.945  30.058  29.753  1.00  0.00     0.031 A 
ATOM     40  C   UNL A   1      39.015  29.169  29.190  1.00  0.00     0.074 A 
ATOM     41  C   UNL A   1      38.086  30.572  30.988  1.00  0.00     0.049 A 
ATOM     42  N   UNL A   1      40.095  28.707  29.769  1.00  0.00    -0.248 NA
ATOM     43  C   UNL A   1      38.844  28.736  27.794  1.00  0.00     0.031 C 
ATOM     44  C   UNL A   1      37.125  31.449  31.655  1.00  0.00     0.029 A 
ATOM     45  N   UNL A   1      39.096  30.421  31.905  1.00  0.00    -0.354 N 
ATOM     46  C   UNL A   1      40.711  27.898  28.825  1.00  0.00     0.074 A 
ATOM     47  C   UNL A   1      39.897  27.946  27.628  1.00  0.00     0.031 C 
ATOM     48  C   UNL A   1      37.594  31.764  32.874  1.00  0.00     0.029 A 
ATOM     49  C   UNL A   1      38.872  31.090  33.082  1.00  0.00     0.049 A 
ATOM     50  H   UNL A   1      39.903  29.884  31.735  1.00  0.00     0.167 HD
ATOM     51  C   UNL A   1      41.848  27.174  28.949  1.00  0.00     0.037 A 
ATOM     52  C   UNL A   1      39.608  31.140  34.207  1.00  0.00     0.037 A 
ATOM     53  C   UNL A   1      42.688  27.150  30.115  1.00  0.00     0.049 A 
ATOM     54  C   UNL A   1      40.886  30.359  34.305  1.00  0.00     0.074 A 
ATOM     55  C   UNL A   1      43.871  26.459  30.316  1.00  0.00     0.029 A 
ATOM     56  N   UNL A   1      42.439  27.864  31.276  1.00  0.00    -0.354 N 
ATOM     57  N   UNL A   1      41.441  29.574  33.418  1.00  0.00    -0.248 NA
ATOM     58  C   UNL A   1      41.631  30.464  35.570  1.00  0.00     0.031 C 
ATOM     59  C   UNL A   1      44.338  26.754  31.603  1.00  0.00     0.029 A 
ATOM     60  C   UNL A   1      43.446  27.631  32.198  1.00  0.00     0.049 A 
ATOM     61  H   UNL A   1      41.662  28.449  31.423  1.00  0.00     0.167 HD
ATOM     62  C   UNL A   1      42.593  29.083  34.013  1.00  0.00     0.074 A 
ATOM     63  C   UNL A   1      42.666  29.668  35.337  1.00  0.00     0.031 C 
ATOM     64  C   UNL A   1      43.502  28.218  33.509  1.00  0.00     0.037 A 
BRANCH  51  65
ATOM     65  C   UNL A   1      42.241  26.326  27.785  1.00  0.00     0.064 A 
ATOM     66  C   UNL A   1      43.202  26.757  26.863  1.00  0.00     0.173 A 
ATOM     67  C   UNL A   1      41.673  25.056  27.611  1.00  0.00     0.173 A 
ATOM     68  F   UNL A   1      43.763  27.969  26.988  1.00  0.00    -0.203 F 
ATOM     69  C   UNL A   1      43.579  25.944  25.797  1.00  0.00     0.198 A 
ATOM     70  C   UNL A   1      42.056  24.245  26.547  1.00  0.00     0.198 A 
ATOM     71  F   UNL A   1      40.745  24.609  28.469  1.00  0.00    -0.203 F 
ATOM     72  F   UNL A   1      44.492  26.376  24.916  1.00  0.00    -0.200 F 
ATOM     73  C   UNL A   1      43.008  24.689  25.642  1.00  0.00     0.200 A 
ATOM     74  F   UNL A   1      41.501  23.034  26.396  1.00  0.00    -0.200 F 
ATOM     75  F   UNL A   1      43.372  23.908  24.614  1.00  0.00    -0.200 F 
ENDBRANCH  51  65
BRANCH  52  76
ATOM     76  C   UNL A   1      39.136  31.954  35.347  1.00  0.00     0.064 A 
ATOM     77  C   UNL A   1      39.431  33.321  35.419  1.00  0.00     0.173 A 
ATOM     78  C   UNL A   1      38.373  31.385  36.374  1.00  0.00     0.173 A 
ATOM     79  F   UNL A   1      40.174  33.897  34.464  1.00  0.00    -0.203 F 
ATOM     80  C   UNL A   1      38.975  34.094  36.485  1.00  0.00     0.198 A 
ATOM     81  C   UNL A   1      37.913  32.160  37.436  1.00  0.00     0.198 A 
ATOM     82  F   UNL A   1      38.077  30.078  36.343  1.00  0.00    -0.203 F 
ATOM     83  F   UNL A   1      39.278  35.398  36.542  1.00  0.00    -0.200 F 
ATOM     84  C   UNL A   1      38.215  33.514  37.490  1.00  0.00     0.200 A 
ATOM     85  F   UNL A   1      37.181  31.598  38.405  1.00  0.00    -0.200 F 
ATOM     86  F   UNL A   1      37.777  34.258  38.515  1.00  0.00    -0.200 F 
ENDBRANCH  52  76
BRANCH  64  87
ATOM     87  C   UNL A   1      44.649  27.848  34.392  1.00  0.00     0.064 A 
ATOM     88  C   UNL A   1      45.823  28.614  34.401  1.00  0.00     0.173 A 
ATOM     89  C   UNL A   1      44.565  26.747  35.255  1.00  0.00     0.173 A 
ATOM     90  F   UNL A   1      45.947  29.667  33.582  1.00  0.00    -0.203 F 
ATOM     91  C   UNL A   1      46.880  28.285  35.245  1.00  0.00     0.198 A 
ATOM     92  C   UNL A   1      45.622  26.423  36.099  1.00  0.00     0.198 A 
ATOM     93  F   UNL A   1      43.461  25.984  35.269  1.00  0.00    -0.203 F 
ATOM     94  F   UNL A   1      48.000  29.020  35.231  1.00  0.00    -0.200 F 
ATOM     95  C   UNL A   1      46.778  27.192  36.094  1.00  0.00     0.200 A 
ATOM     96  F   UNL A   1      45.528  25.363  36.913  1.00  0.00    -0.200 F 
ATOM     97  F   UNL A   1      47.798  26.873  36.902  1.00  0.00    -0.200 F 
ENDBRANCH  64  87
ENDBRANCH  38  39
ENDBRANCH  30  33
ENDBRANCH  28  29
ENDBRANCH  27  28
ENDBRANCH   1  27
TORSDOF 13
ENDMDL
MODEL 2
REMARK VINA RESULT:     -13.1      3.331      8.330
REMARK SMILES Cc1ccnc(C(=O)c2[nH]c3cc(F)ccc3c2CC(=O)NCCCNC(=O)c2ccc(-c3c4nc(c(-c5c(F)c(F)c(F)c(F)c5F)c5ccc([nH]5)c(-c5c(F)c(F)c(F)c(F)c5F)c5nc(c(-c6c(F)c(F)c(F)c(F)c6F)c6ccc3[nH]6)C=C5)C=C4)cc2)c1
REMARK SMILES IDX 23 1 22 2 20 3 21 4 19 6 18 7 9 8 10 9 11 10 17 12 12 13
REMARK SMILES IDX 16 14 13 15 15 16 14 17 7 18 8 19 6 20 1 21 2 22 3 23 92 24
REMARK SMILES IDX 4 25 5 26 24 27 25 28 26 29 27 30 28 32 29 33 30 34 91 35
REMARK SMILES IDX 31 36 90 37 32 38 33 39 34 40 84 41 35 42 89 43 83 44 85 45
REMARK SMILES IDX 36 46 88 47 82 48 81 49 37 51 69 52 49 53 68 54 50 55 53 56
REMARK SMILES IDX 67 57 86 58 51 59 52 60 66 62 87 63 54 64 38 65 39 66 47 67
REMARK SMILES IDX 40 68 41 69 45 70 48 71 42 72 43 73 46 74 44 75 70 76 71 77
REMARK SMILES IDX 79 78 72 79 73 80 77 81 80 82 74 83 75 84 78 85 76 86 55 87
REMARK SMILES IDX 56 88 64 89 57 90 58 91 62 92 65 93 59 94 60 95 63 96 61 97
REMARK H PARENT 22 5 10 11 26 31 85 50 53 61
REMARK Flexibility Score: inf
ROOT
ATOM      1  C   UNL A   1      32.913  26.269  25.894  1.00  0.00     0.117 C 
ENDROOT
BRANCH   1   2
ATOM      2  N   UNL A   1      32.328  25.188  26.662  1.00  0.00    -0.356 N 
ATOM      3  C   UNL A   1      32.293  23.849  26.399  1.00  0.00     0.224 C 
ATOM      4  O   UNL A   1      31.843  23.094  27.264  1.00  0.00    -0.275 OA
ATOM      5  H   UNL A   1      31.888  25.461  27.500  1.00  0.00     0.163 HD
BRANCH   3   6
ATOM      6  C   UNL A   1      32.879  23.294  25.113  1.00  0.00     0.138 C 
BRANCH   6   7
ATOM      7  C   UNL A   1      34.013  22.328  25.303  1.00  0.00    -0.002 A 
ATOM      8  C   UNL A   1      33.948  20.939  25.351  1.00  0.00     0.093 A 
ATOM      9  N   UNL A   1      35.232  20.466  25.495  1.00  0.00    -0.351 N 
ATOM     10  C   UNL A   1      36.120  21.504  25.619  1.00  0.00     0.049 A 
ATOM     11  H   UNL A   1      35.479  19.514  25.507  1.00  0.00     0.167 HD
ATOM     12  C   UNL A   1      35.388  22.686  25.511  1.00  0.00     0.004 A 
ATOM     13  C   UNL A   1      37.507  21.481  25.803  1.00  0.00     0.066 A 
ATOM     14  C   UNL A   1      36.082  23.914  25.599  1.00  0.00     0.013 A 
ATOM     15  C   UNL A   1      38.158  22.711  25.881  1.00  0.00     0.125 A 
ATOM     16  C   UNL A   1      37.469  23.911  25.783  1.00  0.00     0.040 A 
ATOM     17  F   UNL A   1      39.486  22.731  26.052  1.00  0.00    -0.207 F 
BRANCH   8  18
ATOM     18  C   UNL A   1      32.812  20.046  25.202  1.00  0.00     0.227 C 
ATOM     19  O   UNL A   1      31.665  20.479  25.279  1.00  0.00    -0.285 OA
BRANCH  18  20
ATOM     20  C   UNL A   1      33.084  18.602  24.848  1.00  0.00     0.113 A 
ATOM     21  C   UNL A   1      32.325  15.066  26.006  1.00  0.00     0.044 C 
ATOM     22  C   UNL A   1      32.876  16.232  25.242  1.00  0.00    -0.047 A 
ATOM     23  C   UNL A   1      33.741  16.024  24.167  1.00  0.00     0.023 A 
ATOM     24  C   UNL A   1      32.526  17.547  25.573  1.00  0.00     0.036 A 
ATOM     25  C   UNL A   1      34.236  17.126  23.491  1.00  0.00     0.112 A 
ATOM     26  N   UNL A   1      33.940  18.401  23.815  1.00  0.00    -0.253 NA
ENDBRANCH  18  20
ENDBRANCH   8  18
ENDBRANCH   6   7
ENDBRANCH   3   6
ENDBRANCH   1   2
BRANCH   1  27
ATOM     27  C   UNL A   1      32.814  27.630  26.580  1.00  0.00     0.042 C 
BRANCH  27  28
ATOM     28  C   UNL A   1      34.114  28.429  26.619  1.00  0.00     0.118 C 
BRANCH  28  29
ATOM     29  N   UNL A   1      33.927  29.780  27.128  1.00  0.00    -0.352 N 
ATOM     30  C   UNL A   1      34.714  30.534  27.961  1.00  0.00     0.251 C 
ATOM     31  H   UNL A   1      33.103  30.224  26.825  1.00  0.00     0.163 HD
ATOM     32  O   UNL A   1      34.281  31.598  28.398  1.00  0.00    -0.269 OA
BRANCH  30  33
ATOM     33  C   UNL A   1      36.071  30.089  28.359  1.00  0.00     0.039 A 
ATOM     34  C   UNL A   1      37.112  30.225  27.433  1.00  0.00     0.014 A 
ATOM     35  C   UNL A   1      36.314  29.470  29.588  1.00  0.00     0.014 A 
ATOM     36  C   UNL A   1      38.402  29.793  27.754  1.00  0.00     0.010 A 
ATOM     37  C   UNL A   1      37.609  29.066  29.923  1.00  0.00     0.010 A 
ATOM     38  C   UNL A   1      38.662  29.225  29.010  1.00  0.00    -0.014 A 
BRANCH  38  39
ATOM     39  C   UNL A   1      40.029  28.786  29.381  1.00  0.00     0.031 A 
ATOM     40  C   UNL A   1      40.893  29.653  30.249  1.00  0.00     0.074 A 
ATOM     41  C   UNL A   1      40.514  27.627  28.900  1.00  0.00     0.049 A 
ATOM     42  N   UNL A   1      42.155  29.505  30.569  1.00  0.00    -0.248 NA
ATOM     43  C   UNL A   1      40.258  30.847  30.828  1.00  0.00     0.031 C 
ATOM     44  C   UNL A   1      39.783  26.692  28.047  1.00  0.00     0.029 A 
ATOM     45  N   UNL A   1      41.747  27.046  29.058  1.00  0.00    -0.354 N 
ATOM     46  C   UNL A   1      42.476  30.605  31.351  1.00  0.00     0.074 A 
ATOM     47  C   UNL A   1      41.274  31.404  31.475  1.00  0.00     0.031 C 
ATOM     48  C   UNL A   1      40.579  25.648  27.760  1.00  0.00     0.029 A 
ATOM     49  C   UNL A   1      41.882  25.856  28.387  1.00  0.00     0.049 A 
ATOM     50  H   UNL A   1      42.466  27.443  29.601  1.00  0.00     0.167 HD
ATOM     51  C   UNL A   1      43.668  30.924  31.907  1.00  0.00     0.037 A 
ATOM     52  C   UNL A   1      42.941  25.035  28.276  1.00  0.00     0.037 A 
ATOM     53  C   UNL A   1      44.857  30.122  31.828  1.00  0.00     0.049 A 
ATOM     54  C   UNL A   1      44.241  25.393  28.936  1.00  0.00     0.074 A 
ATOM     55  C   UNL A   1      46.103  30.362  32.381  1.00  0.00     0.029 A 
ATOM     56  N   UNL A   1      44.943  28.910  31.160  1.00  0.00    -0.354 N 
ATOM     57  N   UNL A   1      44.541  26.451  29.645  1.00  0.00    -0.248 NA
ATOM     58  C   UNL A   1      45.353  24.445  28.765  1.00  0.00     0.031 C 
ATOM     59  C   UNL A   1      46.946  29.295  32.047  1.00  0.00     0.029 A 
ATOM     60  C   UNL A   1      46.220  28.391  31.289  1.00  0.00     0.049 A 
ATOM     61  H   UNL A   1      44.205  28.484  30.668  1.00  0.00     0.167 HD
ATOM     62  C   UNL A   1      45.873  26.304  30.000  1.00  0.00     0.074 A 
ATOM     63  C   UNL A   1      46.325  25.048  29.438  1.00  0.00     0.031 C 
ATOM     64  C   UNL A   1      46.652  27.143  30.721  1.00  0.00     0.037 A 
BRANCH  51  65
ATOM     65  C   UNL A   1      43.746  32.221  32.643  1.00  0.00     0.064 A 
ATOM     66  C   UNL A   1      44.093  33.409  31.989  1.00  0.00     0.173 A 
ATOM     67  C   UNL A   1      43.441  32.278  34.011  1.00  0.00     0.173 A 
ATOM     68  F   UNL A   1      44.402  33.395  30.684  1.00  0.00    -0.203 F 
ATOM     69  C   UNL A   1      44.136  34.615  32.682  1.00  0.00     0.198 A 
ATOM     70  C   UNL A   1      43.480  33.487  34.699  1.00  0.00     0.198 A 
ATOM     71  F   UNL A   1      43.109  31.162  34.676  1.00  0.00    -0.203 F 
ATOM     72  F   UNL A   1      44.481  35.742  32.043  1.00  0.00    -0.200 F 
ATOM     73  C   UNL A   1      43.827  34.654  34.034  1.00  0.00     0.200 A 
ATOM     74  F   UNL A   1      43.185  33.522  36.006  1.00  0.00    -0.200 F 
ATOM     75  F   UNL A   1      43.870  35.817  34.700  1.00  0.00    -0.200 F 
ENDBRANCH  51  65
BRANCH  52  76
ATOM     76  C   UNL A   1      42.817  23.792  27.485  1.00  0.00     0.064 A 
ATOM     77  C   UNL A   1      43.115  23.784  26.117  1.00  0.00     0.173 A 
ATOM     78  C   UNL A   1      42.413  22.593  28.084  1.00  0.00     0.173 A 
ATOM     79  F   UNL A   1      43.488  24.917  25.506  1.00  0.00    -0.203 F 
ATOM     80  C   UNL A   1      43.013  22.612  25.373  1.00  0.00     0.198 A 
ATOM     81  C   UNL A   1      42.318  21.420  27.339  1.00  0.00     0.198 A 
ATOM     82  F   UNL A   1      42.113  22.564  29.390  1.00  0.00    -0.203 F 
ATOM     83  F   UNL A   1      43.291  22.626  24.061  1.00  0.00    -0.200 F 
ATOM     84  C   UNL A   1      42.618  21.431  25.984  1.00  0.00     0.200 A 
ATOM     85  F   UNL A   1      41.934  20.282  27.932  1.00  0.00    -0.200 F 
ATOM     86  F   UNL A   1      42.520  20.303  25.267  1.00  0.00    -0.200 F 
ENDBRANCH  52  76
BRANCH  64  87
ATOM     87  C   UNL A   1      48.073  26.732  30.936  1.00  0.00     0.064 A 
ATOM     88  C   UNL A   1      49.087  27.185  30.082  1.00  0.00     0.173 A 
ATOM     89  C   UNL A   1      48.427  25.911  32.015  1.00  0.00     0.173 A 
ATOM     90  F   UNL A   1      48.788  27.962  29.031  1.00  0.00    -0.203 F 
ATOM     91  C   UNL A   1      50.414  26.824  30.300  1.00  0.00     0.198 A 
ATOM     92  C   UNL A   1      49.755  25.554  32.231  1.00  0.00     0.198 A 
ATOM     93  F   UNL A   1      47.484  25.449  32.850  1.00  0.00    -0.203 F 
ATOM     94  F   UNL A   1      51.370  27.255  29.465  1.00  0.00    -0.200 F 
ATOM     95  C   UNL A   1      50.746  26.011  31.374  1.00  0.00     0.200 A 
ATOM     96  F   UNL A   1      50.075  24.763  33.263  1.00  0.00    -0.200 F 
ATOM     97  F   UNL A   1      52.023  25.661  31.580  1.00  0.00    -0.200 F 
ENDBRANCH  64  87
ENDBRANCH  38  39
ENDBRANCH  30  33
ENDBRANCH  28  29
ENDBRANCH  27  28
ENDBRANCH   1  27
TORSDOF 13
ENDMDL
MODEL 3
REMARK VINA RESULT:     -13.1      0.167      1.575
REMARK SMILES Cc1ccnc(C(=O)c2[nH]c3cc(F)ccc3c2CC(=O)NCCCNC(=O)c2ccc(-c3c4nc(c(-c5c(F)c(F)c(F)c(F)c5F)c5ccc([nH]5)c(-c5c(F)c(F)c(F)c(F)c5F)c5nc(c(-c6c(F)c(F)c(F)c(F)c6F)c6ccc3[nH]6)C=C5)C=C4)cc2)c1
REMARK SMILES IDX 23 1 22 2 20 3 21 4 19 6 18 7 9 8 10 9 11 10 17 12 12 13
REMARK SMILES IDX 16 14 13 15 15 16 14 17 7 18 8 19 6 20 1 21 2 22 3 23 92 24
REMARK SMILES IDX 4 25 5 26 24 27 25 28 26 29 27 30 28 32 29 33 30 34 91 35
REMARK SMILES IDX 31 36 90 37 32 38 33 39 34 40 84 41 35 42 89 43 83 44 85 45
REMARK SMILES IDX 36 46 88 47 82 48 81 49 37 51 69 52 49 53 68 54 50 55 53 56
REMARK SMILES IDX 67 57 86 58 51 59 52 60 66 62 87 63 54 64 38 65 39 66 47 67
REMARK SMILES IDX 40 68 41 69 45 70 48 71 42 72 43 73 46 74 44 75 70 76 71 77
REMARK SMILES IDX 79 78 72 79 73 80 77 81 80 82 74 83 75 84 78 85 76 86 55 87
REMARK SMILES IDX 56 88 64 89 57 90 58 91 62 92 65 93 59 94 60 95 63 96 61 97
REMARK H PARENT 22 5 10 11 26 31 85 50 53 61
REMARK Flexibility Score: inf
ROOT
ATOM      1  C   UNL A   1      33.615  26.710  25.270  1.00  0.00     0.117 C 
ENDROOT
BRANCH   1   2
ATOM      2  N   UNL A   1      33.229  25.600  26.118  1.00  0.00    -0.356 N 
ATOM      3  C   UNL A   1      33.502  24.269  25.992  1.00  0.00     0.224 C 
ATOM      4  O   UNL A   1      33.169  23.514  26.909  1.00  0.00    -0.275 OA
ATOM      5  H   UNL A   1      32.687  25.843  26.904  1.00  0.00     0.163 HD
BRANCH   3   6
ATOM      6  C   UNL A   1      34.275  23.744  24.795  1.00  0.00     0.138 C 
BRANCH   6   7
ATOM      7  C   UNL A   1      33.474  22.897  23.850  1.00  0.00    -0.002 A 
ATOM      8  C   UNL A   1      32.769  23.312  22.724  1.00  0.00     0.093 A 
ATOM      9  N   UNL A   1      32.224  22.194  22.137  1.00  0.00    -0.351 N 
ATOM     10  C   UNL A   1      32.486  21.075  22.887  1.00  0.00     0.049 A 
ATOM     11  H   UNL A   1      31.715  22.196  21.294  1.00  0.00     0.167 HD
ATOM     12  C   UNL A   1      33.261  21.482  23.973  1.00  0.00     0.004 A 
ATOM     13  C   UNL A   1      32.108  19.745  22.676  1.00  0.00     0.066 A 
ATOM     14  C   UNL A   1      33.676  20.502  24.903  1.00  0.00     0.013 A 
ATOM     15  C   UNL A   1      32.539  18.807  23.612  1.00  0.00     0.125 A 
ATOM     16  C   UNL A   1      33.308  19.166  24.710  1.00  0.00     0.040 A 
ATOM     17  F   UNL A   1      32.202  17.521  23.443  1.00  0.00    -0.207 F 
BRANCH   8  18
ATOM     18  C   UNL A   1      32.635  24.632  22.134  1.00  0.00     0.227 C 
ATOM     19  O   UNL A   1      33.333  24.961  21.177  1.00  0.00    -0.285 OA
BRANCH  18  20
ATOM     20  C   UNL A   1      31.549  25.541  22.661  1.00  0.00     0.113 A 
ATOM     21  C   UNL A   1      30.176  29.062  22.282  1.00  0.00     0.044 C 
ATOM     22  C   UNL A   1      30.392  27.655  22.753  1.00  0.00    -0.047 A 
ATOM     23  C   UNL A   1      29.606  27.128  23.779  1.00  0.00     0.023 A 
ATOM     24  C   UNL A   1      31.368  26.836  22.172  1.00  0.00     0.036 A 
ATOM     25  C   UNL A   1      29.841  25.829  24.194  1.00  0.00     0.112 A 
ATOM     26  N   UNL A   1      30.797  25.035  23.672  1.00  0.00    -0.253 NA
ENDBRANCH  18  20
ENDBRANCH   8  18
ENDBRANCH   6   7
ENDBRANCH   3   6
ENDBRANCH   1   2
BRANCH   1  27
ATOM     27  C   UNL A   1      32.810  27.983  25.524  1.00  0.00     0.042 C 
BRANCH  27  28
ATOM     28  C   UNL A   1      33.491  29.276  25.084  1.00  0.00     0.118 C 
BRANCH  28  29
ATOM     29  N   UNL A   1      32.874  30.460  25.665  1.00  0.00    -0.352 N 
ATOM     30  C   UNL A   1      33.188  31.158  26.803  1.00  0.00     0.251 C 
ATOM     31  H   UNL A   1      32.109  30.816  25.160  1.00  0.00     0.163 HD
ATOM     32  O   UNL A   1      32.427  32.039  27.199  1.00  0.00    -0.269 OA
BRANCH  30  33
ATOM     33  C   UNL A   1      34.419  30.868  27.577  1.00  0.00     0.039 A 
ATOM     34  C   UNL A   1      35.385  31.875  27.690  1.00  0.00     0.014 A 
ATOM     35  C   UNL A   1      34.670  29.604  28.117  1.00  0.00     0.014 A 
ATOM     36  C   UNL A   1      36.574  31.636  28.386  1.00  0.00     0.010 A 
ATOM     37  C   UNL A   1      35.844  29.373  28.840  1.00  0.00     0.010 A 
ATOM     38  C   UNL A   1      36.804  30.387  28.981  1.00  0.00    -0.014 A 
BRANCH  38  39
ATOM     39  C   UNL A   1      38.044  30.123  29.747  1.00  0.00     0.031 A 
ATOM     40  C   UNL A   1      39.118  29.244  29.173  1.00  0.00     0.074 A 
ATOM     41  C   UNL A   1      38.192  30.638  30.981  1.00  0.00     0.049 A 
ATOM     42  N   UNL A   1      40.206  28.791  29.742  1.00  0.00    -0.248 NA
ATOM     43  C   UNL A   1      38.938  28.812  27.779  1.00  0.00     0.031 C 
ATOM     44  C   UNL A   1      37.229  31.505  31.658  1.00  0.00     0.029 A 
ATOM     45  N   UNL A   1      39.211  30.493  31.890  1.00  0.00    -0.354 N 
ATOM     46  C   UNL A   1      40.821  27.989  28.792  1.00  0.00     0.074 A 
ATOM     47  C   UNL A   1      39.996  28.031  27.603  1.00  0.00     0.031 C 
ATOM     48  C   UNL A   1      37.705  31.823  32.873  1.00  0.00     0.029 A 
ATOM     49  C   UNL A   1      38.991  31.159  33.069  1.00  0.00     0.049 A 
ATOM     50  H   UNL A   1      40.021  29.964  31.711  1.00  0.00     0.167 HD
ATOM     51  C   UNL A   1      41.965  27.274  28.906  1.00  0.00     0.037 A 
ATOM     52  C   UNL A   1      39.736  31.214  34.188  1.00  0.00     0.037 A 
ATOM     53  C   UNL A   1      42.815  27.256  30.064  1.00  0.00     0.049 A 
ATOM     54  C   UNL A   1      41.021  30.444  34.274  1.00  0.00     0.074 A 
ATOM     55  C   UNL A   1      44.005  26.574  30.255  1.00  0.00     0.029 A 
ATOM     56  N   UNL A   1      42.570  27.966  31.229  1.00  0.00    -0.354 N 
ATOM     57  N   UNL A   1      41.575  29.664  33.381  1.00  0.00    -0.248 NA
ATOM     58  C   UNL A   1      41.776  30.553  35.532  1.00  0.00     0.031 C 
ATOM     59  C   UNL A   1      44.481  26.871  31.538  1.00  0.00     0.029 A 
ATOM     60  C   UNL A   1      43.587  27.740  32.142  1.00  0.00     0.049 A 
ATOM     61  H   UNL A   1      41.789  28.544  31.383  1.00  0.00     0.167 HD
ATOM     62  C   UNL A   1      42.737  29.183  33.966  1.00  0.00     0.074 A 
ATOM     63  C   UNL A   1      42.816  29.767  35.290  1.00  0.00     0.031 C 
ATOM     64  C   UNL A   1      43.649  28.326  33.452  1.00  0.00     0.037 A 
BRANCH  51  65
ATOM     65  C   UNL A   1      42.356  26.431  27.737  1.00  0.00     0.064 A 
ATOM     66  C   UNL A   1      43.301  26.873  26.805  1.00  0.00     0.173 A 
ATOM     67  C   UNL A   1      41.800  25.155  27.569  1.00  0.00     0.173 A 
ATOM     68  F   UNL A   1      43.849  28.091  26.925  1.00  0.00    -0.203 F 
ATOM     69  C   UNL A   1      43.677  26.065  25.735  1.00  0.00     0.198 A 
ATOM     70  C   UNL A   1      42.181  24.348  26.500  1.00  0.00     0.198 A 
ATOM     71  F   UNL A   1      40.886  24.696  28.437  1.00  0.00    -0.203 F 
ATOM     72  F   UNL A   1      44.574  26.508  24.844  1.00  0.00    -0.200 F 
ATOM     73  C   UNL A   1      43.118  24.803  25.586  1.00  0.00     0.200 A 
ATOM     74  F   UNL A   1      41.638  23.131  26.355  1.00  0.00    -0.200 F 
ATOM     75  F   UNL A   1      43.480  24.027  24.554  1.00  0.00    -0.200 F 
ENDBRANCH  51  65
BRANCH  52  76
ATOM     76  C   UNL A   1      39.267  32.023  35.333  1.00  0.00     0.064 A 
ATOM     77  C   UNL A   1      38.476  31.449  36.337  1.00  0.00     0.173 A 
ATOM     78  C   UNL A   1      39.611  33.375  35.451  1.00  0.00     0.173 A 
ATOM     79  F   UNL A   1      38.113  30.162  36.248  1.00  0.00    -0.203 F 
ATOM     80  C   UNL A   1      38.045  32.204  37.424  1.00  0.00     0.198 A 
ATOM     81  C   UNL A   1      39.183  34.127  36.543  1.00  0.00     0.198 A 
ATOM     82  F   UNL A   1      40.360  33.961  34.507  1.00  0.00    -0.203 F 
ATOM     83  F   UNL A   1      37.279  31.640  38.368  1.00  0.00    -0.200 F 
ATOM     84  C   UNL A   1      38.401  33.541  37.528  1.00  0.00     0.200 A 
ATOM     85  F   UNL A   1      39.527  35.418  36.640  1.00  0.00    -0.200 F 
ATOM     86  F   UNL A   1      37.985  34.267  38.574  1.00  0.00    -0.200 F 
ENDBRANCH  52  76
BRANCH  64  87
ATOM     87  C   UNL A   1      44.807  27.965  34.326  1.00  0.00     0.064 A 
ATOM     88  C   UNL A   1      44.750  26.842  35.163  1.00  0.00     0.173 A 
ATOM     89  C   UNL A   1      45.986  28.721  34.303  1.00  0.00     0.173 A 
ATOM     90  F   UNL A   1      43.635  26.100  35.222  1.00  0.00    -0.203 F 
ATOM     91  C   UNL A   1      45.840  26.490  35.955  1.00  0.00     0.198 A 
ATOM     92  C   UNL A   1      47.074  28.365  35.094  1.00  0.00     0.198 A 
ATOM     93  F   UNL A   1      46.076  29.808  33.522  1.00  0.00    -0.203 F 
ATOM     94  F   UNL A   1      45.763  25.422  36.760  1.00  0.00    -0.200 F 
ATOM     95  C   UNL A   1      47.000  27.251  35.918  1.00  0.00     0.200 A 
ATOM     96  F   UNL A   1      48.192  29.103  35.066  1.00  0.00    -0.200 F 
ATOM     97  F   UNL A   1      48.046  26.914  36.685  1.00  0.00    -0.200 F 
ENDBRANCH  64  87
ENDBRANCH  38  39
ENDBRANCH  30  33
ENDBRANCH  28  29
ENDBRANCH  27  28
ENDBRANCH   1  27
TORSDOF 13
ENDMDL
