MODEL 1
REMARK VINA RESULT:     -12.7      0.000      0.000
REMARK SMILES CC[C@@H](C)[C@H](NC(=O)[C@H](C)N1C(=O)N2CCC3=c4cc(OC)ccc4=N[C@H]3[C@@]2(C)C1=O)C(=O)NCCCNC(=O)c1ccc(-c2c3nc(c(-c4c(F)c(F)c(F)c(F)c4F)c4ccc([nH]4)c(-c4c(F)c(F)c(F)c(F)c4F)c4nc(c(-c5c(F)c(F)c(F)c(F)c5F)c5ccc2[nH]5)C=C4)C=C3)cc1
REMARK SMILES IDX 35 1 34 2 32 3 33 4 5 6 3 7 4 8 2 9 1 10 6 11 7 12 8 14 9 15
REMARK SMILES IDX 10 16 11 17 12 18 30 19 14 20 13 21 28 22 31 23 15 24 27 25
REMARK SMILES IDX 29 26 16 27 17 28 26 29 18 30 25 31 19 32 24 33 20 34 23 35
REMARK SMILES IDX 21 36 22 37 36 38 37 39 38 40 39 41 40 43 41 44 42 45 103 46
REMARK SMILES IDX 43 47 102 48 44 49 45 50 46 51 96 52 47 53 101 54 95 55
REMARK SMILES IDX 97 56 48 57 100 58 94 59 93 60 49 62 81 63 61 64 80 65 62 66
REMARK SMILES IDX 65 67 79 68 98 69 63 70 64 71 78 73 99 74 66 75 50 76 51 77
REMARK SMILES IDX 59 78 52 79 53 80 57 81 60 82 54 83 55 84 58 85 56 86 82 87
REMARK SMILES IDX 83 88 91 89 84 90 85 91 89 92 92 93 86 94 87 95 90 96 88 97
REMARK SMILES IDX 67 98 68 99 76 100 69 101 70 102 74 103 77 104 71 105 72 106
REMARK SMILES IDX 75 107 73 108
REMARK H PARENT 34 5 6 13 38 42 97 61 65 72
REMARK Flexibility Score: inf
ROOT
ATOM      1  C   UNL A   1      37.150  20.867  24.858  1.00  0.00     0.117 C 
ENDROOT
BRANCH   1   2
ATOM      2  N   UNL A   1      35.875  20.294  25.249  1.00  0.00    -0.354 N 
ATOM      3  C   UNL A   1      34.587  20.730  25.210  1.00  0.00     0.242 C 
ATOM      4  O   UNL A   1      33.757  19.814  25.309  1.00  0.00    -0.273 OA
ATOM      5  H   UNL A   1      35.961  19.389  25.627  1.00  0.00     0.163 HD
BRANCH   3   6
ATOM      6  C   UNL A   1      34.139  22.156  24.768  1.00  0.00     0.174 C 
BRANCH   6   7
ATOM      7  C   UNL A   1      34.463  23.093  26.005  1.00  0.00     0.018 C 
ATOM      8  C   UNL A   1      35.837  23.801  25.956  1.00  0.00     0.010 C 
BRANCH   7   9
ATOM      9  C   UNL A   1      34.305  22.340  27.340  1.00  0.00     0.002 C 
ATOM     10  C   UNL A   1      32.896  22.412  27.917  1.00  0.00     0.004 C 
ENDBRANCH   7   9
ENDBRANCH   6   7
BRANCH   6  11
ATOM     11  N   UNL A   1      32.750  22.354  24.312  1.00  0.00    -0.342 N 
ATOM     12  C   UNL A   1      31.796  23.314  24.265  1.00  0.00     0.243 C 
ATOM     13  H   UNL A   1      32.406  21.522  23.915  1.00  0.00     0.164 HD
ATOM     14  O   UNL A   1      30.699  22.824  23.922  1.00  0.00    -0.273 OA
BRANCH  12  15
ATOM     15  C   UNL A   1      31.867  24.877  24.310  1.00  0.00     0.181 C 
ATOM     16  C   UNL A   1      31.799  25.326  22.806  1.00  0.00     0.042 C 
BRANCH  15  17
ATOM     17  N   UNL A   1      32.531  25.910  25.181  1.00  0.00    -0.250 N 
ATOM     18  C   UNL A   1      33.691  26.728  25.134  1.00  0.00     0.328 C 
ATOM     19  C   UNL A   1      31.822  26.281  26.280  1.00  0.00     0.259 C 
ATOM     20  N   UNL A   1      33.544  27.767  26.232  1.00  0.00    -0.307 N 
ATOM     21  O   UNL A   1      34.593  26.700  24.313  1.00  0.00    -0.248 OA
ATOM     22  C   UNL A   1      32.153  27.689  26.519  1.00  0.00     0.147 C 
ATOM     23  O   UNL A   1      30.937  25.670  26.887  1.00  0.00    -0.271 OA
ATOM     24  C   UNL A   1      33.970  29.297  26.253  1.00  0.00     0.127 C 
ATOM     25  C   UNL A   1      31.613  28.494  25.284  1.00  0.00     0.168 C 
ATOM     26  C   UNL A   1      31.881  28.043  27.987  1.00  0.00     0.048 C 
ATOM     27  C   UNL A   1      32.573  30.442  26.154  1.00  0.00     0.055 C 
ATOM     28  C   UNL A   1      31.201  29.882  25.468  1.00  0.00    -0.032 C 
ATOM     29  N   UNL A   1      31.670  28.137  23.814  1.00  0.00    -0.274 NA
ATOM     30  C   UNL A   1      30.484  30.124  24.321  1.00  0.00     0.005 A 
ATOM     31  C   UNL A   1      31.347  29.331  23.352  1.00  0.00     0.066 A 
ATOM     32  C   UNL A   1      29.131  29.395  23.992  1.00  0.00     0.056 A 
ATOM     33  C   UNL A   1      31.138  29.670  21.949  1.00  0.00     0.032 A 
ATOM     34  C   UNL A   1      29.004  28.819  22.741  1.00  0.00     0.119 A 
ATOM     35  C   UNL A   1      29.860  29.369  21.665  1.00  0.00     0.048 A 
BRANCH  34  36
ATOM     36  O   UNL A   1      29.059  27.425  22.707  1.00  0.00    -0.497 OA
ATOM     37  C   UNL A   1      28.535  26.644  23.758  1.00  0.00     0.278 C 
ENDBRANCH  34  36
ENDBRANCH  15  17
ENDBRANCH  12  15
ENDBRANCH   6  11
ENDBRANCH   3   6
ENDBRANCH   1   2
BRANCH   1  38
ATOM     38  C   UNL A   1      38.258  19.828  24.803  1.00  0.00     0.042 C 
BRANCH  38  39
ATOM     39  C   UNL A   1      39.378  20.073  25.809  1.00  0.00     0.118 C 
BRANCH  39  40
ATOM     40  N   UNL A   1      40.336  18.973  25.907  1.00  0.00    -0.352 N 
ATOM     41  C   UNL A   1      41.698  18.990  26.107  1.00  0.00     0.251 C 
ATOM     42  H   UNL A   1      39.942  18.076  25.816  1.00  0.00     0.163 HD
ATOM     43  O   UNL A   1      42.353  17.957  26.013  1.00  0.00    -0.269 OA
BRANCH  41  44
ATOM     44  C   UNL A   1      42.371  20.272  26.383  1.00  0.00     0.039 A 
ATOM     45  C   UNL A   1      42.348  20.804  27.669  1.00  0.00     0.014 A 
ATOM     46  C   UNL A   1      42.969  20.978  25.338  1.00  0.00     0.014 A 
ATOM     47  C   UNL A   1      42.679  22.135  27.860  1.00  0.00     0.010 A 
ATOM     48  C   UNL A   1      43.436  22.275  25.566  1.00  0.00     0.010 A 
ATOM     49  C   UNL A   1      43.236  22.887  26.814  1.00  0.00    -0.014 A 
BRANCH  49  50
ATOM     50  C   UNL A   1      43.612  24.304  27.052  1.00  0.00     0.031 A 
ATOM     51  C   UNL A   1      45.005  24.791  26.754  1.00  0.00     0.074 A 
ATOM     52  C   UNL A   1      42.672  25.164  27.493  1.00  0.00     0.049 A 
ATOM     53  N   UNL A   1      45.533  25.967  26.985  1.00  0.00    -0.248 NA
ATOM     54  C   UNL A   1      45.927  23.839  26.112  1.00  0.00     0.031 C 
ATOM     55  C   UNL A   1      41.274  24.819  27.767  1.00  0.00     0.029 A 
ATOM     56  N   UNL A   1      42.739  26.504  27.769  1.00  0.00    -0.354 N 
ATOM     57  C   UNL A   1      46.847  25.891  26.538  1.00  0.00     0.074 A 
ATOM     58  C   UNL A   1      47.048  24.545  26.045  1.00  0.00     0.031 C 
ATOM     59  C   UNL A   1      40.606  25.926  28.117  1.00  0.00     0.029 A 
ATOM     60  C   UNL A   1      41.546  27.035  28.195  1.00  0.00     0.049 A 
ATOM     61  H   UNL A   1      43.562  27.035  27.672  1.00  0.00     0.167 HD
ATOM     62  C   UNL A   1      47.791  26.862  26.531  1.00  0.00     0.037 A 
ATOM     63  C   UNL A   1      41.249  28.269  28.640  1.00  0.00     0.037 A 
ATOM     64  C   UNL A   1      47.572  28.204  27.008  1.00  0.00     0.049 A 
ATOM     65  C   UNL A   1      42.343  29.293  28.711  1.00  0.00     0.074 A 
ATOM     66  C   UNL A   1      48.472  29.255  27.070  1.00  0.00     0.029 A 
ATOM     67  N   UNL A   1      46.365  28.685  27.494  1.00  0.00    -0.354 N 
ATOM     68  N   UNL A   1      43.594  29.196  28.331  1.00  0.00    -0.248 NA
ATOM     69  C   UNL A   1      41.986  30.597  29.283  1.00  0.00     0.031 C 
ATOM     70  C   UNL A   1      47.822  30.357  27.632  1.00  0.00     0.029 A 
ATOM     71  C   UNL A   1      46.500  30.014  27.865  1.00  0.00     0.049 A 
ATOM     72  H   UNL A   1      45.535  28.160  27.564  1.00  0.00     0.167 HD
ATOM     73  C   UNL A   1      44.164  30.434  28.585  1.00  0.00     0.074 A 
ATOM     74  C   UNL A   1      43.117  31.271  29.134  1.00  0.00     0.031 C 
ATOM     75  C   UNL A   1      45.442  30.839  28.388  1.00  0.00     0.037 A 
BRANCH  62  76
ATOM     76  C   UNL A   1      49.155  26.530  25.994  1.00  0.00     0.064 A 
ATOM     77  C   UNL A   1      49.536  26.883  24.691  1.00  0.00     0.173 A 
ATOM     78  C   UNL A   1      50.127  25.952  26.826  1.00  0.00     0.173 A 
ATOM     79  F   UNL A   1      48.642  27.426  23.851  1.00  0.00    -0.203 F 
ATOM     80  C   UNL A   1      50.838  26.674  24.243  1.00  0.00     0.198 A 
ATOM     81  C   UNL A   1      51.435  25.771  26.384  1.00  0.00     0.198 A 
ATOM     82  F   UNL A   1      49.818  25.600  28.083  1.00  0.00    -0.203 F 
ATOM     83  F   UNL A   1      51.175  27.005  22.989  1.00  0.00    -0.200 F 
ATOM     84  C   UNL A   1      51.790  26.132  25.095  1.00  0.00     0.200 A 
ATOM     85  F   UNL A   1      52.358  25.263  27.215  1.00  0.00    -0.200 F 
ATOM     86  F   UNL A   1      53.051  25.961  24.671  1.00  0.00    -0.200 F 
ENDBRANCH  62  76
BRANCH  63  87
ATOM     87  C   UNL A   1      39.863  28.593  29.069  1.00  0.00     0.064 A 
ATOM     88  C   UNL A   1      39.448  28.362  30.387  1.00  0.00     0.173 A 
ATOM     89  C   UNL A   1      38.924  29.136  28.176  1.00  0.00     0.173 A 
ATOM     90  F   UNL A   1      40.301  27.828  31.274  1.00  0.00    -0.203 F 
ATOM     91  C   UNL A   1      38.144  28.642  30.791  1.00  0.00     0.198 A 
ATOM     92  C   UNL A   1      37.633  29.450  28.591  1.00  0.00     0.198 A 
ATOM     93  F   UNL A   1      39.270  29.381  26.904  1.00  0.00    -0.203 F 
ATOM     94  F   UNL A   1      37.759  28.363  32.043  1.00  0.00    -0.200 F 
ATOM     95  C   UNL A   1      37.241  29.192  29.895  1.00  0.00     0.200 A 
ATOM     96  F   UNL A   1      36.771  30.003  27.726  1.00  0.00    -0.200 F 
ATOM     97  F   UNL A   1      35.989  29.468  30.286  1.00  0.00    -0.200 F 
ENDBRANCH  63  87
BRANCH  75  98
ATOM     98  C   UNL A   1      45.765  32.270  28.710  1.00  0.00     0.064 A 
ATOM     99  C   UNL A   1      46.283  32.648  29.957  1.00  0.00     0.173 A 
ATOM    100  C   UNL A   1      45.581  33.271  27.744  1.00  0.00     0.173 A 
ATOM    101  F   UNL A   1      46.463  31.731  30.920  1.00  0.00    -0.203 F 
ATOM    102  C   UNL A   1      46.572  33.980  30.236  1.00  0.00     0.198 A 
ATOM    103  C   UNL A   1      45.908  34.596  28.014  1.00  0.00     0.198 A 
ATOM    104  F   UNL A   1      45.098  32.962  26.531  1.00  0.00    -0.203 F 
ATOM    105  F   UNL A   1      47.008  34.327  31.456  1.00  0.00    -0.200 F 
ATOM    106  C   UNL A   1      46.392  34.952  29.263  1.00  0.00     0.200 A 
ATOM    107  F   UNL A   1      45.750  35.530  27.066  1.00  0.00    -0.200 F 
ATOM    108  F   UNL A   1      46.679  36.233  29.532  1.00  0.00    -0.200 F 
ENDBRANCH  75  98
ENDBRANCH  49  50
ENDBRANCH  41  44
ENDBRANCH  39  40
ENDBRANCH  38  39
ENDBRANCH   1  38
TORSDOF 16
ENDMDL
MODEL 2
REMARK VINA RESULT:     -12.4      1.340      7.273
REMARK SMILES CC[C@@H](C)[C@H](NC(=O)[C@H](C)N1C(=O)N2CCC3=c4cc(OC)ccc4=N[C@H]3[C@@]2(C)C1=O)C(=O)NCCCNC(=O)c1ccc(-c2c3nc(c(-c4c(F)c(F)c(F)c(F)c4F)c4ccc([nH]4)c(-c4c(F)c(F)c(F)c(F)c4F)c4nc(c(-c5c(F)c(F)c(F)c(F)c5F)c5ccc2[nH]5)C=C4)C=C3)cc1
REMARK SMILES IDX 35 1 34 2 32 3 33 4 5 6 3 7 4 8 2 9 1 10 6 11 7 12 8 14 9 15
REMARK SMILES IDX 10 16 11 17 12 18 30 19 14 20 13 21 28 22 31 23 15 24 27 25
REMARK SMILES IDX 29 26 16 27 17 28 26 29 18 30 25 31 19 32 24 33 20 34 23 35
REMARK SMILES IDX 21 36 22 37 36 38 37 39 38 40 39 41 40 43 41 44 42 45 103 46
REMARK SMILES IDX 43 47 102 48 44 49 45 50 46 51 96 52 47 53 101 54 95 55
REMARK SMILES IDX 97 56 48 57 100 58 94 59 93 60 49 62 81 63 61 64 80 65 62 66
REMARK SMILES IDX 65 67 79 68 98 69 63 70 64 71 78 73 99 74 66 75 50 76 51 77
REMARK SMILES IDX 59 78 52 79 53 80 57 81 60 82 54 83 55 84 58 85 56 86 82 87
REMARK SMILES IDX 83 88 91 89 84 90 85 91 89 92 92 93 86 94 87 95 90 96 88 97
REMARK SMILES IDX 67 98 68 99 76 100 69 101 70 102 74 103 77 104 71 105 72 106
REMARK SMILES IDX 75 107 73 108
REMARK H PARENT 34 5 6 13 38 42 97 61 65 72
REMARK Flexibility Score: inf
ROOT
ATOM      1  C   UNL A   1      37.065  21.400  25.360  1.00  0.00     0.117 C 
ENDROOT
BRANCH   1   2
ATOM      2  N   UNL A   1      36.647  22.074  24.144  1.00  0.00    -0.354 N 
ATOM      3  C   UNL A   1      35.470  22.590  23.701  1.00  0.00     0.242 C 
ATOM      4  O   UNL A   1      35.608  23.389  22.763  1.00  0.00    -0.273 OA
ATOM      5  H   UNL A   1      37.380  22.180  23.494  1.00  0.00     0.163 HD
BRANCH   3   6
ATOM      6  C   UNL A   1      34.108  22.482  24.451  1.00  0.00     0.174 C 
BRANCH   6   7
ATOM      7  C   UNL A   1      34.211  21.151  25.305  1.00  0.00     0.018 C 
ATOM      8  C   UNL A   1      33.598  19.892  24.647  1.00  0.00     0.010 C 
BRANCH   7   9
ATOM      9  C   UNL A   1      33.631  21.341  26.720  1.00  0.00     0.002 C 
ATOM     10  C   UNL A   1      34.089  22.627  27.398  1.00  0.00     0.004 C 
ENDBRANCH   7   9
ENDBRANCH   6   7
BRANCH   6  11
ATOM     11  N   UNL A   1      32.860  22.502  23.664  1.00  0.00    -0.342 N 
ATOM     12  C   UNL A   1      31.668  23.143  23.619  1.00  0.00     0.243 C 
ATOM     13  H   UNL A   1      32.910  21.838  22.940  1.00  0.00     0.164 HD
ATOM     14  O   UNL A   1      30.899  22.580  22.811  1.00  0.00    -0.273 OA
BRANCH  12  15
ATOM     15  C   UNL A   1      31.192  24.529  24.168  1.00  0.00     0.181 C 
ATOM     16  C   UNL A   1      30.972  24.297  25.706  1.00  0.00     0.042 C 
BRANCH  15  17
ATOM     17  N   UNL A   1      30.380  25.685  23.647  1.00  0.00    -0.250 N 
ATOM     18  C   UNL A   1      29.168  26.346  23.980  1.00  0.00     0.328 C 
ATOM     19  C   UNL A   1      30.964  26.397  22.647  1.00  0.00     0.259 C 
ATOM     20  N   UNL A   1      29.142  27.645  23.194  1.00  0.00    -0.307 N 
ATOM     21  O   UNL A   1      28.342  26.017  24.815  1.00  0.00    -0.248 OA
ATOM     22  C   UNL A   1      30.507  27.779  22.814  1.00  0.00     0.147 C 
ATOM     23  O   UNL A   1      31.841  26.054  21.847  1.00  0.00    -0.271 OA
ATOM     24  C   UNL A   1      28.599  29.079  23.608  1.00  0.00     0.127 C 
ATOM     25  C   UNL A   1      31.083  28.282  24.185  1.00  0.00     0.168 C 
ATOM     26  C   UNL A   1      30.629  28.530  21.481  1.00  0.00     0.048 C 
ATOM     27  C   UNL A   1      29.906  30.287  23.927  1.00  0.00     0.055 C 
ATOM     28  C   UNL A   1      31.369  29.703  24.356  1.00  0.00    -0.032 C 
ATOM     29  N   UNL A   1      31.176  27.549  25.506  1.00  0.00    -0.274 NA
ATOM     30  C   UNL A   1      32.158  29.705  25.481  1.00  0.00     0.005 A 
ATOM     31  C   UNL A   1      31.442  28.606  26.252  1.00  0.00     0.066 A 
ATOM     32  C   UNL A   1      33.586  29.050  25.522  1.00  0.00     0.056 A 
ATOM     33  C   UNL A   1      31.740  28.585  27.679  1.00  0.00     0.032 A 
ATOM     34  C   UNL A   1      33.860  28.182  26.563  1.00  0.00     0.119 A 
ATOM     35  C   UNL A   1      33.056  28.346  27.796  1.00  0.00     0.048 A 
BRANCH  34  36
ATOM     36  O   UNL A   1      33.917  26.829  26.226  1.00  0.00    -0.497 OA
ATOM     37  C   UNL A   1      34.238  26.411  24.918  1.00  0.00     0.278 C 
ENDBRANCH  34  36
ENDBRANCH  15  17
ENDBRANCH  12  15
ENDBRANCH   6  11
ENDBRANCH   3   6
ENDBRANCH   1   2
BRANCH   1  38
ATOM     38  C   UNL A   1      38.162  20.380  25.110  1.00  0.00     0.042 C 
BRANCH  38  39
ATOM     39  C   UNL A   1      39.308  20.452  26.114  1.00  0.00     0.118 C 
BRANCH  39  40
ATOM     40  N   UNL A   1      40.294  19.384  25.963  1.00  0.00    -0.352 N 
ATOM     41  C   UNL A   1      41.668  19.420  26.036  1.00  0.00     0.251 C 
ATOM     42  H   UNL A   1      39.914  18.495  25.780  1.00  0.00     0.163 HD
ATOM     43  O   UNL A   1      42.334  18.436  25.734  1.00  0.00    -0.269 OA
BRANCH  41  44
ATOM     44  C   UNL A   1      42.337  20.673  26.432  1.00  0.00     0.039 A 
ATOM     45  C   UNL A   1      42.475  20.989  27.780  1.00  0.00     0.014 A 
ATOM     46  C   UNL A   1      42.767  21.568  25.450  1.00  0.00     0.014 A 
ATOM     47  C   UNL A   1      42.792  22.287  28.144  1.00  0.00     0.010 A 
ATOM     48  C   UNL A   1      43.223  22.833  25.827  1.00  0.00     0.010 A 
ATOM     49  C   UNL A   1      43.179  23.225  27.174  1.00  0.00    -0.014 A 
BRANCH  49  50
ATOM     50  C   UNL A   1      43.544  24.603  27.593  1.00  0.00     0.031 A 
ATOM     51  C   UNL A   1      42.480  25.603  27.960  1.00  0.00     0.074 A 
ATOM     52  C   UNL A   1      44.847  24.932  27.689  1.00  0.00     0.049 A 
ATOM     53  N   UNL A   1      42.610  26.871  28.259  1.00  0.00    -0.248 NA
ATOM     54  C   UNL A   1      41.089  25.121  27.998  1.00  0.00     0.031 C 
ATOM     55  C   UNL A   1      45.969  24.031  27.410  1.00  0.00     0.029 A 
ATOM     56  N   UNL A   1      45.452  26.102  28.066  1.00  0.00    -0.354 N 
ATOM     57  C   UNL A   1      41.324  27.341  28.500  1.00  0.00     0.074 A 
ATOM     58  C   UNL A   1      40.422  26.230  28.288  1.00  0.00     0.031 C 
ATOM     59  C   UNL A   1      47.120  24.662  27.678  1.00  0.00     0.029 A 
ATOM     60  C   UNL A   1      46.825  26.039  28.044  1.00  0.00     0.049 A 
ATOM     61  H   UNL A   1      44.953  26.909  28.327  1.00  0.00     0.167 HD
ATOM     62  C   UNL A   1      40.940  28.584  28.877  1.00  0.00     0.037 A 
ATOM     63  C   UNL A   1      47.746  26.996  28.255  1.00  0.00     0.037 A 
ATOM     64  C   UNL A   1      41.851  29.678  29.103  1.00  0.00     0.049 A 
ATOM     65  C   UNL A   1      47.282  28.387  28.575  1.00  0.00     0.074 A 
ATOM     66  C   UNL A   1      41.560  30.983  29.459  1.00  0.00     0.029 A 
ATOM     67  N   UNL A   1      43.233  29.590  29.007  1.00  0.00    -0.354 N 
ATOM     68  N   UNL A   1      46.061  28.832  28.753  1.00  0.00    -0.248 NA
ATOM     69  C   UNL A   1      48.323  29.412  28.712  1.00  0.00     0.031 C 
ATOM     70  C   UNL A   1      42.760  31.695  29.536  1.00  0.00     0.029 A 
ATOM     71  C   UNL A   1      43.805  30.821  29.289  1.00  0.00     0.049 A 
ATOM     72  H   UNL A   1      43.732  28.774  28.773  1.00  0.00     0.167 HD
ATOM     73  C   UNL A   1      46.190  30.178  29.057  1.00  0.00     0.074 A 
ATOM     74  C   UNL A   1      47.608  30.472  29.057  1.00  0.00     0.031 C 
ATOM     75  C   UNL A   1      45.220  31.091  29.307  1.00  0.00     0.037 A 
BRANCH  62  76
ATOM     76  C   UNL A   1      39.474  28.850  29.074  1.00  0.00     0.064 A 
ATOM     77  C   UNL A   1      38.872  28.737  30.335  1.00  0.00     0.173 A 
ATOM     78  C   UNL A   1      38.688  29.331  28.014  1.00  0.00     0.173 A 
ATOM     79  F   UNL A   1      39.574  28.271  31.379  1.00  0.00    -0.203 F 
ATOM     80  C   UNL A   1      37.540  29.097  30.529  1.00  0.00     0.198 A 
ATOM     81  C   UNL A   1      37.366  29.717  28.218  1.00  0.00     0.198 A 
ATOM     82  F   UNL A   1      39.216  29.464  26.788  1.00  0.00    -0.203 F 
ATOM     83  F   UNL A   1      36.981  28.965  31.740  1.00  0.00    -0.200 F 
ATOM     84  C   UNL A   1      36.793  29.600  29.474  1.00  0.00     0.200 A 
ATOM     85  F   UNL A   1      36.651  30.219  27.200  1.00  0.00    -0.200 F 
ATOM     86  F   UNL A   1      35.520  29.976  29.670  1.00  0.00    -0.200 F 
ENDBRANCH  62  76
BRANCH  63  87
ATOM     87  C   UNL A   1      49.194  26.673  28.151  1.00  0.00     0.064 A 
ATOM     88  C   UNL A   1      49.832  26.635  26.905  1.00  0.00     0.173 A 
ATOM     89  C   UNL A   1      49.968  26.395  29.289  1.00  0.00     0.173 A 
ATOM     90  F   UNL A   1      49.132  26.876  25.786  1.00  0.00    -0.203 F 
ATOM     91  C   UNL A   1      51.182  26.311  26.797  1.00  0.00     0.198 A 
ATOM     92  C   UNL A   1      51.327  26.109  29.183  1.00  0.00     0.198 A 
ATOM     93  F   UNL A   1      49.409  26.423  30.508  1.00  0.00    -0.203 F 
ATOM     94  F   UNL A   1      51.755  26.231  25.589  1.00  0.00    -0.200 F 
ATOM     95  C   UNL A   1      51.930  26.056  27.937  1.00  0.00     0.200 A 
ATOM     96  F   UNL A   1      52.049  25.885  30.290  1.00  0.00    -0.200 F 
ATOM     97  F   UNL A   1      53.231  25.752  27.833  1.00  0.00    -0.200 F 
ENDBRANCH  63  87
BRANCH  75  98
ATOM     98  C   UNL A   1      45.662  32.481  29.663  1.00  0.00     0.064 A 
ATOM     99  C   UNL A   1      45.987  32.839  30.980  1.00  0.00     0.173 A 
ATOM    100  C   UNL A   1      45.791  33.459  28.666  1.00  0.00     0.173 A 
ATOM    101  F   UNL A   1      45.865  31.944  31.972  1.00  0.00    -0.203 F 
ATOM    102  C   UNL A   1      46.390  34.134  31.289  1.00  0.00     0.198 A 
ATOM    103  C   UNL A   1      46.233  34.743  28.973  1.00  0.00     0.198 A 
ATOM    104  F   UNL A   1      45.503  33.167  27.388  1.00  0.00    -0.203 F 
ATOM    105  F   UNL A   1      46.636  34.470  32.564  1.00  0.00    -0.200 F 
ATOM    106  C   UNL A   1      46.521  35.083  30.286  1.00  0.00     0.200 A 
ATOM    107  F   UNL A   1      46.375  35.652  27.999  1.00  0.00    -0.200 F 
ATOM    108  F   UNL A   1      46.918  36.326  30.585  1.00  0.00    -0.200 F 
ENDBRANCH  75  98
ENDBRANCH  49  50
ENDBRANCH  41  44
ENDBRANCH  39  40
ENDBRANCH  38  39
ENDBRANCH   1  38
TORSDOF 16
ENDMDL
MODEL 3
REMARK VINA RESULT:     -12.3      4.997     10.884
REMARK SMILES CC[C@@H](C)[C@H](NC(=O)[C@H](C)N1C(=O)N2CCC3=c4cc(OC)ccc4=N[C@H]3[C@@]2(C)C1=O)C(=O)NCCCNC(=O)c1ccc(-c2c3nc(c(-c4c(F)c(F)c(F)c(F)c4F)c4ccc([nH]4)c(-c4c(F)c(F)c(F)c(F)c4F)c4nc(c(-c5c(F)c(F)c(F)c(F)c5F)c5ccc2[nH]5)C=C4)C=C3)cc1
REMARK SMILES IDX 35 1 34 2 32 3 33 4 5 6 3 7 4 8 2 9 1 10 6 11 7 12 8 14 9 15
REMARK SMILES IDX 10 16 11 17 12 18 30 19 14 20 13 21 28 22 31 23 15 24 27 25
REMARK SMILES IDX 29 26 16 27 17 28 26 29 18 30 25 31 19 32 24 33 20 34 23 35
REMARK SMILES IDX 21 36 22 37 36 38 37 39 38 40 39 41 40 43 41 44 42 45 103 46
REMARK SMILES IDX 43 47 102 48 44 49 45 50 46 51 96 52 47 53 101 54 95 55
REMARK SMILES IDX 97 56 48 57 100 58 94 59 93 60 49 62 81 63 61 64 80 65 62 66
REMARK SMILES IDX 65 67 79 68 98 69 63 70 64 71 78 73 99 74 66 75 50 76 51 77
REMARK SMILES IDX 59 78 52 79 53 80 57 81 60 82 54 83 55 84 58 85 56 86 82 87
REMARK SMILES IDX 83 88 91 89 84 90 85 91 89 92 92 93 86 94 87 95 90 96 88 97
REMARK SMILES IDX 67 98 68 99 76 100 69 101 70 102 74 103 77 104 71 105 72 106
REMARK SMILES IDX 75 107 73 108
REMARK H PARENT 34 5 6 13 38 42 97 61 65 72
REMARK Flexibility Score: inf
ROOT
ATOM      1  C   UNL A   1      32.172  30.563  26.100  1.00  0.00     0.117 C 
ENDROOT
BRANCH   1   2
ATOM      2  N   UNL A   1      31.694  29.366  26.767  1.00  0.00    -0.354 N 
ATOM      3  C   UNL A   1      31.477  28.082  26.375  1.00  0.00     0.242 C 
ATOM      4  O   UNL A   1      31.402  27.286  27.322  1.00  0.00    -0.273 OA
ATOM      5  H   UNL A   1      31.478  29.517  27.716  1.00  0.00     0.163 HD
BRANCH   3   6
ATOM      6  C   UNL A   1      31.623  27.558  24.914  1.00  0.00     0.174 C 
BRANCH   6   7
ATOM      7  C   UNL A   1      31.590  28.855  24.004  1.00  0.00     0.018 C 
ATOM      8  C   UNL A   1      30.248  29.125  23.284  1.00  0.00     0.010 C 
BRANCH   7   9
ATOM      9  C   UNL A   1      32.745  28.858  22.983  1.00  0.00     0.002 C 
ATOM     10  C   UNL A   1      34.019  28.204  23.503  1.00  0.00     0.004 C 
ENDBRANCH   7   9
ENDBRANCH   6   7
BRANCH   6  11
ATOM     11  N   UNL A   1      30.664  26.550  24.423  1.00  0.00    -0.342 N 
ATOM     12  C   UNL A   1      30.643  25.366  23.764  1.00  0.00     0.243 C 
ATOM     13  H   UNL A   1      29.746  26.825  24.644  1.00  0.00     0.164 HD
ATOM     14  O   UNL A   1      29.472  25.062  23.449  1.00  0.00    -0.273 OA
BRANCH  12  15
ATOM     15  C   UNL A   1      31.721  24.251  23.562  1.00  0.00     0.181 C 
ATOM     16  C   UNL A   1      32.705  24.834  22.485  1.00  0.00     0.042 C 
BRANCH  15  17
ATOM     17  N   UNL A   1      31.749  22.745  23.599  1.00  0.00    -0.250 N 
ATOM     18  C   UNL A   1      32.038  21.682  22.703  1.00  0.00     0.328 C 
ATOM     19  C   UNL A   1      31.552  22.195  24.826  1.00  0.00     0.259 C 
ATOM     20  N   UNL A   1      32.167  20.422  23.540  1.00  0.00    -0.307 N 
ATOM     21  O   UNL A   1      32.258  21.753  21.506  1.00  0.00    -0.248 OA
ATOM     22  C   UNL A   1      32.340  20.959  24.846  1.00  0.00     0.147 C 
ATOM     23  O   UNL A   1      30.990  22.668  25.819  1.00  0.00    -0.271 OA
ATOM     24  C   UNL A   1      33.150  19.185  23.378  1.00  0.00     0.127 C 
ATOM     25  C   UNL A   1      33.847  21.384  24.727  1.00  0.00     0.168 C 
ATOM     26  C   UNL A   1      31.777  20.002  25.906  1.00  0.00     0.048 C 
ATOM     27  C   UNL A   1      34.459  19.128  24.626  1.00  0.00     0.055 C 
ATOM     28  C   UNL A   1      34.871  20.540  25.335  1.00  0.00    -0.032 C 
ATOM     29  N   UNL A   1      34.472  22.444  23.846  1.00  0.00    -0.274 NA
ATOM     30  C   UNL A   1      35.963  21.375  25.344  1.00  0.00     0.005 A 
ATOM     31  C   UNL A   1      35.725  22.061  24.008  1.00  0.00     0.066 A 
ATOM     32  C   UNL A   1      36.027  22.685  26.209  1.00  0.00     0.056 A 
ATOM     33  C   UNL A   1      36.897  22.741  23.468  1.00  0.00     0.032 A 
ATOM     34  C   UNL A   1      36.410  23.851  25.573  1.00  0.00     0.119 A 
ATOM     35  C   UNL A   1      37.225  23.703  24.345  1.00  0.00     0.048 A 
BRANCH  34  36
ATOM     36  O   UNL A   1      35.394  24.780  25.344  1.00  0.00    -0.497 OA
ATOM     37  C   UNL A   1      34.221  24.792  26.126  1.00  0.00     0.278 C 
ENDBRANCH  34  36
ENDBRANCH  15  17
ENDBRANCH  12  15
ENDBRANCH   6  11
ENDBRANCH   3   6
ENDBRANCH   1   2
BRANCH   1  38
ATOM     38  C   UNL A   1      31.770  31.833  26.830  1.00  0.00     0.042 C 
BRANCH  38  39
ATOM     39  C   UNL A   1      32.953  32.693  27.263  1.00  0.00     0.118 C 
BRANCH  39  40
ATOM     40  N   UNL A   1      32.584  34.053  27.650  1.00  0.00    -0.352 N 
ATOM     41  C   UNL A   1      33.072  34.859  28.654  1.00  0.00     0.251 C 
ATOM     42  H   UNL A   1      31.873  34.458  27.104  1.00  0.00     0.163 HD
ATOM     43  O   UNL A   1      32.528  35.927  28.915  1.00  0.00    -0.269 OA
BRANCH  41  44
ATOM     44  C   UNL A   1      34.226  34.402  29.451  1.00  0.00     0.039 A 
ATOM     45  C   UNL A   1      35.515  34.552  28.951  1.00  0.00     0.014 A 
ATOM     46  C   UNL A   1      34.012  33.758  30.671  1.00  0.00     0.014 A 
ATOM     47  C   UNL A   1      36.554  33.840  29.527  1.00  0.00     0.010 A 
ATOM     48  C   UNL A   1      35.089  33.159  31.328  1.00  0.00     0.010 A 
ATOM     49  C   UNL A   1      36.359  33.140  30.728  1.00  0.00    -0.014 A 
BRANCH  49  50
ATOM     50  C   UNL A   1      37.496  32.409  31.342  1.00  0.00     0.031 A 
ATOM     51  C   UNL A   1      38.001  32.782  32.711  1.00  0.00     0.074 A 
ATOM     52  C   UNL A   1      38.041  31.371  30.677  1.00  0.00     0.049 A 
ATOM     53  N   UNL A   1      39.038  32.316  33.361  1.00  0.00    -0.248 NA
ATOM     54  C   UNL A   1      37.248  33.810  33.449  1.00  0.00     0.031 C 
ATOM     55  C   UNL A   1      37.602  30.884  29.366  1.00  0.00     0.029 A 
ATOM     56  N   UNL A   1      39.065  30.526  31.015  1.00  0.00    -0.354 N 
ATOM     57  C   UNL A   1      39.072  33.003  34.569  1.00  0.00     0.074 A 
ATOM     58  C   UNL A   1      37.969  33.938  34.555  1.00  0.00     0.031 C 
ATOM     59  C   UNL A   1      38.312  29.796  29.039  1.00  0.00     0.029 A 
ATOM     60  C   UNL A   1      39.323  29.572  30.060  1.00  0.00     0.049 A 
ATOM     61  H   UNL A   1      39.566  30.595  31.859  1.00  0.00     0.167 HD
ATOM     62  C   UNL A   1      39.941  32.852  35.598  1.00  0.00     0.037 A 
ATOM     63  C   UNL A   1      40.294  28.644  29.994  1.00  0.00     0.037 A 
ATOM     64  C   UNL A   1      41.025  31.903  35.607  1.00  0.00     0.049 A 
ATOM     65  C   UNL A   1      41.299  28.571  31.107  1.00  0.00     0.074 A 
ATOM     66  C   UNL A   1      41.977  31.692  36.589  1.00  0.00     0.029 A 
ATOM     67  N   UNL A   1      41.293  30.997  34.591  1.00  0.00    -0.354 N 
ATOM     68  N   UNL A   1      41.351  29.258  32.222  1.00  0.00    -0.248 NA
ATOM     69  C   UNL A   1      42.387  27.599  30.946  1.00  0.00     0.031 C 
ATOM     70  C   UNL A   1      42.847  30.690  36.149  1.00  0.00     0.029 A 
ATOM     71  C   UNL A   1      42.401  30.232  34.920  1.00  0.00     0.049 A 
ATOM     72  H   UNL A   1      40.773  30.911  33.760  1.00  0.00     0.167 HD
ATOM     73  C   UNL A   1      42.455  28.779  32.911  1.00  0.00     0.074 A 
ATOM     74  C   UNL A   1      43.032  27.729  32.096  1.00  0.00     0.031 C 
ATOM     75  C   UNL A   1      42.950  29.176  34.108  1.00  0.00     0.037 A 
BRANCH  62  76
ATOM     76  C   UNL A   1      39.771  33.725  36.810  1.00  0.00     0.064 A 
ATOM     77  C   UNL A   1      40.368  34.992  36.889  1.00  0.00     0.173 A 
ATOM     78  C   UNL A   1      38.914  33.339  37.853  1.00  0.00     0.173 A 
ATOM     79  F   UNL A   1      41.204  35.406  35.925  1.00  0.00    -0.203 F 
ATOM     80  C   UNL A   1      40.110  35.840  37.964  1.00  0.00     0.198 A 
ATOM     81  C   UNL A   1      38.638  34.199  38.912  1.00  0.00     0.198 A 
ATOM     82  F   UNL A   1      38.315  32.139  37.824  1.00  0.00    -0.203 F 
ATOM     83  F   UNL A   1      40.704  37.040  38.027  1.00  0.00    -0.200 F 
ATOM     84  C   UNL A   1      39.235  35.449  38.967  1.00  0.00     0.200 A 
ATOM     85  F   UNL A   1      37.778  33.826  39.870  1.00  0.00    -0.200 F 
ATOM     86  F   UNL A   1      38.965  36.278  39.985  1.00  0.00    -0.200 F 
ENDBRANCH  62  76
BRANCH  63  87
ATOM     87  C   UNL A   1      40.372  27.728  28.826  1.00  0.00     0.064 A 
ATOM     88  C   UNL A   1      41.156  28.051  27.712  1.00  0.00     0.173 A 
ATOM     89  C   UNL A   1      39.666  26.514  28.796  1.00  0.00     0.173 A 
ATOM     90  F   UNL A   1      41.836  29.207  27.685  1.00  0.00    -0.203 F 
ATOM     91  C   UNL A   1      41.216  27.209  26.604  1.00  0.00     0.198 A 
ATOM     92  C   UNL A   1      39.756  25.655  27.704  1.00  0.00     0.198 A 
ATOM     93  F   UNL A   1      38.903  26.152  29.839  1.00  0.00    -0.203 F 
ATOM     94  F   UNL A   1      41.932  27.568  25.531  1.00  0.00    -0.200 F 
ATOM     95  C   UNL A   1      40.522  26.008  26.605  1.00  0.00     0.200 A 
ATOM     96  F   UNL A   1      39.101  24.486  27.720  1.00  0.00    -0.200 F 
ATOM     97  F   UNL A   1      40.586  25.194  25.542  1.00  0.00    -0.200 F 
ENDBRANCH  63  87
BRANCH  75  98
ATOM     98  C   UNL A   1      44.141  28.432  34.639  1.00  0.00     0.064 A 
ATOM     99  C   UNL A   1      45.453  28.861  34.387  1.00  0.00     0.173 A 
ATOM    100  C   UNL A   1      43.964  27.292  35.437  1.00  0.00     0.173 A 
ATOM    101  F   UNL A   1      45.675  29.937  33.617  1.00  0.00    -0.203 F 
ATOM    102  C   UNL A   1      46.543  28.154  34.885  1.00  0.00     0.198 A 
ATOM    103  C   UNL A   1      45.057  26.610  35.965  1.00  0.00     0.198 A 
ATOM    104  F   UNL A   1      42.731  26.845  35.717  1.00  0.00    -0.203 F 
ATOM    105  F   UNL A   1      47.788  28.547  34.580  1.00  0.00    -0.200 F 
ATOM    106  C   UNL A   1      46.345  27.035  35.680  1.00  0.00     0.200 A 
ATOM    107  F   UNL A   1      44.862  25.540  36.748  1.00  0.00    -0.200 F 
ATOM    108  F   UNL A   1      47.396  26.362  36.165  1.00  0.00    -0.200 F 
ENDBRANCH  75  98
ENDBRANCH  49  50
ENDBRANCH  41  44
ENDBRANCH  39  40
ENDBRANCH  38  39
ENDBRANCH   1  38
TORSDOF 16
ENDMDL
