MODEL 1
REMARK VINA RESULT:     -13.7      0.000      0.000
REMARK SMILES O=C(NCCCNC(=O)c1cc2c(c(S(=O)(=O)Nc3cc(C(F)(F)F)ccc3-n3cccn3)c1)CCC2)c1ccc(-c2c3nc(c(-c4c(F)c(F)c(F)c(F)c4F)c4ccc([nH]4)c(-c4c(F)c(F)c(F)c(F)c4F)c4nc(c(-c5c(F)c(F)c(F)c(F)c5F)c5ccc2[nH]5)C=C4)C=C3)cc1
REMARK SMILES IDX 6 1 5 2 4 3 3 4 1 5 2 6 38 8 39 9 100 10 40 11 99 12 41 13
REMARK SMILES IDX 42 14 43 15 93 16 44 17 98 18 92 19 94 20 45 21 97 22 91 23
REMARK SMILES IDX 90 24 46 26 78 27 58 28 77 29 59 30 62 31 76 32 95 33 60 34
REMARK SMILES IDX 61 35 75 37 96 38 63 39 47 40 48 41 56 42 49 43 50 44 54 45
REMARK SMILES IDX 57 46 51 47 52 48 55 49 53 50 79 51 80 52 88 53 81 54 82 55
REMARK SMILES IDX 86 56 89 57 83 58 84 59 87 60 85 61 64 62 65 63 73 64 66 65
REMARK SMILES IDX 67 66 71 67 74 68 68 69 69 70 72 71 70 72 7 73 8 74 9 76
REMARK SMILES IDX 10 77 11 78 34 79 12 80 14 81 13 82 37 83 35 84 36 85 15 86
REMARK SMILES IDX 16 87 17 88 18 89 19 91 20 92 28 93 21 94 27 95 26 96 29 97
REMARK SMILES IDX 30 98 33 99 31 100 32 101 22 102 23 103 24 104 25 105
REMARK H PARENT 3 7 94 25 62 36 7 75 18 90
REMARK Flexibility Score: inf
ROOT
ATOM      1  C   UNL A   1      33.856  29.746  26.824  1.00  0.00     0.118 C 
ENDROOT
BRANCH   1   2
ATOM      2  C   UNL A   1      35.029  30.167  27.705  1.00  0.00     0.042 C 
BRANCH   2   3
ATOM      3  C   UNL A   1      35.049  31.643  28.090  1.00  0.00     0.118 C 
BRANCH   3   4
ATOM      4  N   UNL A   1      34.918  31.908  29.511  1.00  0.00    -0.352 N 
ATOM      5  O   UNL A   1      35.229  32.097  31.687  1.00  0.00    -0.269 OA
ATOM      6  C   UNL A   1      35.643  31.608  30.632  1.00  0.00     0.251 C 
ATOM      7  H   UNL A   1      34.111  32.431  29.719  1.00  0.00     0.163 HD
BRANCH   6   8
ATOM      8  C   UNL A   1      36.840  30.724  30.685  1.00  0.00     0.039 A 
ATOM      9  C   UNL A   1      36.827  29.338  30.851  1.00  0.00     0.014 A 
ATOM     10  C   UNL A   1      38.087  31.363  30.533  1.00  0.00     0.014 A 
ATOM     11  C   UNL A   1      38.024  28.618  30.920  1.00  0.00     0.010 A 
ATOM     12  C   UNL A   1      39.282  30.647  30.577  1.00  0.00     0.010 A 
ATOM     13  C   UNL A   1      39.254  29.271  30.792  1.00  0.00    -0.014 A 
BRANCH  13  14
ATOM     14  C   UNL A   1      40.481  28.466  30.787  1.00  0.00     0.031 A 
ATOM     15  C   UNL A   1      41.117  28.183  32.111  1.00  0.00     0.074 A 
ATOM     16  C   UNL A   1      40.943  27.819  29.699  1.00  0.00     0.049 A 
ATOM     17  N   UNL A   1      42.355  28.343  32.468  1.00  0.00    -0.248 NA
ATOM     18  C   UNL A   1      40.258  27.642  33.176  1.00  0.00     0.031 C 
ATOM     19  C   UNL A   1      40.292  27.675  28.396  1.00  0.00     0.029 A 
ATOM     20  N   UNL A   1      42.063  27.041  29.579  1.00  0.00    -0.354 N 
ATOM     21  C   UNL A   1      42.466  27.808  33.752  1.00  0.00     0.074 A 
ATOM     22  C   UNL A   1      41.133  27.448  34.163  1.00  0.00     0.031 C 
ATOM     23  C   UNL A   1      40.913  26.699  27.697  1.00  0.00     0.029 A 
ATOM     24  C   UNL A   1      42.070  26.241  28.450  1.00  0.00     0.049 A 
ATOM     25  H   UNL A   1      42.796  27.051  30.237  1.00  0.00     0.167 HD
ATOM     26  C   UNL A   1      43.665  27.561  34.351  1.00  0.00     0.037 A 
ATOM     27  C   UNL A   1      42.921  25.222  28.179  1.00  0.00     0.037 A 
ATOM     28  C   UNL A   1      44.745  28.271  33.731  1.00  0.00     0.049 A 
ATOM     29  C   UNL A   1      44.122  25.370  29.032  1.00  0.00     0.074 A 
ATOM     30  C   UNL A   1      45.057  29.602  33.536  1.00  0.00     0.029 A 
ATOM     31  N   UNL A   1      45.636  27.573  32.957  1.00  0.00    -0.354 N 
ATOM     32  N   UNL A   1      45.034  26.288  28.881  1.00  0.00    -0.248 NA
ATOM     33  C   UNL A   1      44.159  24.655  30.299  1.00  0.00     0.031 C 
ATOM     34  C   UNL A   1      45.777  29.642  32.306  1.00  0.00     0.029 A 
ATOM     35  C   UNL A   1      45.855  28.331  31.838  1.00  0.00     0.049 A 
ATOM     36  H   UNL A   1      46.038  26.700  33.165  1.00  0.00     0.167 HD
ATOM     37  C   UNL A   1      45.485  26.547  30.164  1.00  0.00     0.074 A 
ATOM     38  C   UNL A   1      45.016  25.428  30.968  1.00  0.00     0.031 C 
ATOM     39  C   UNL A   1      45.950  27.783  30.508  1.00  0.00     0.037 A 
BRANCH  26  40
ATOM     40  C   UNL A   1      43.915  26.465  35.355  1.00  0.00     0.064 A 
ATOM     41  C   UNL A   1      44.485  26.774  36.608  1.00  0.00     0.173 A 
ATOM     42  C   UNL A   1      43.888  25.097  35.015  1.00  0.00     0.173 A 
ATOM     43  F   UNL A   1      44.592  28.048  37.014  1.00  0.00    -0.203 F 
ATOM     44  C   UNL A   1      45.035  25.789  37.432  1.00  0.00     0.198 A 
ATOM     45  C   UNL A   1      44.392  24.111  35.864  1.00  0.00     0.198 A 
ATOM     46  F   UNL A   1      43.473  24.682  33.811  1.00  0.00    -0.203 F 
ATOM     47  F   UNL A   1      45.666  26.141  38.560  1.00  0.00    -0.200 F 
ATOM     48  C   UNL A   1      44.990  24.458  37.059  1.00  0.00     0.200 A 
ATOM     49  F   UNL A   1      44.361  22.828  35.478  1.00  0.00    -0.200 F 
ATOM     50  F   UNL A   1      45.564  23.519  37.822  1.00  0.00    -0.200 F 
ENDBRANCH  26  40
BRANCH  27  51
ATOM     51  C   UNL A   1      42.666  23.998  27.387  1.00  0.00     0.064 A 
ATOM     52  C   UNL A   1      43.085  23.893  26.051  1.00  0.00     0.173 A 
ATOM     53  C   UNL A   1      42.225  22.810  28.002  1.00  0.00     0.173 A 
ATOM     54  F   UNL A   1      43.568  24.965  25.407  1.00  0.00    -0.203 F 
ATOM     55  C   UNL A   1      43.076  22.668  25.376  1.00  0.00     0.198 A 
ATOM     56  C   UNL A   1      42.202  21.592  27.323  1.00  0.00     0.198 A 
ATOM     57  F   UNL A   1      41.893  22.790  29.301  1.00  0.00    -0.203 F 
ATOM     58  F   UNL A   1      43.539  22.593  24.120  1.00  0.00    -0.200 F 
ATOM     59  C   UNL A   1      42.639  21.518  26.014  1.00  0.00     0.200 A 
ATOM     60  F   UNL A   1      41.809  20.482  27.964  1.00  0.00    -0.200 F 
ATOM     61  F   UNL A   1      42.676  20.336  25.384  1.00  0.00    -0.200 F 
ENDBRANCH  27  51
BRANCH  39  62
ATOM     62  C   UNL A   1      46.283  28.738  29.402  1.00  0.00     0.064 A 
ATOM     63  C   UNL A   1      47.543  28.801  28.783  1.00  0.00     0.173 A 
ATOM     64  C   UNL A   1      45.254  29.519  28.859  1.00  0.00     0.173 A 
ATOM     65  F   UNL A   1      48.544  28.002  29.176  1.00  0.00    -0.203 F 
ATOM     66  C   UNL A   1      47.774  29.651  27.704  1.00  0.00     0.198 A 
ATOM     67  C   UNL A   1      45.477  30.339  27.757  1.00  0.00     0.198 A 
ATOM     68  F   UNL A   1      44.014  29.450  29.370  1.00  0.00    -0.203 F 
ATOM     69  F   UNL A   1      48.989  29.707  27.140  1.00  0.00    -0.200 F 
ATOM     70  C   UNL A   1      46.739  30.416  27.189  1.00  0.00     0.200 A 
ATOM     71  F   UNL A   1      44.463  31.037  27.228  1.00  0.00    -0.200 F 
ATOM     72  F   UNL A   1      46.951  31.204  26.126  1.00  0.00    -0.200 F 
ENDBRANCH  39  62
ENDBRANCH  13  14
ENDBRANCH   6   8
ENDBRANCH   3   4
ENDBRANCH   2   3
ENDBRANCH   1   2
BRANCH   1  73
ATOM     73  N   UNL A   1      32.725  29.184  27.560  1.00  0.00    -0.352 N 
ATOM     74  C   UNL A   1      31.927  28.088  27.289  1.00  0.00     0.251 C 
ATOM     75  H   UNL A   1      32.491  29.668  28.386  1.00  0.00     0.163 HD
ATOM     76  O   UNL A   1      30.968  27.825  28.007  1.00  0.00    -0.269 OA
BRANCH  74  77
ATOM     77  C   UNL A   1      32.206  27.251  26.099  1.00  0.00     0.041 A 
ATOM     78  C   UNL A   1      32.137  27.832  24.833  1.00  0.00     0.018 A 
ATOM     79  C   UNL A   1      32.394  25.860  26.254  1.00  0.00     0.036 A 
ATOM     80  C   UNL A   1      31.980  26.988  23.755  1.00  0.00    -0.043 A 
ATOM     81  C   UNL A   1      32.305  25.008  25.137  1.00  0.00     0.092 A 
ATOM     82  C   UNL A   1      31.979  25.590  23.915  1.00  0.00    -0.024 A 
ATOM     83  C   UNL A   1      31.598  27.390  22.363  1.00  0.00     0.036 C 
ATOM     84  C   UNL A   1      31.403  24.985  22.672  1.00  0.00     0.037 C 
ATOM     85  C   UNL A   1      31.734  26.056  21.632  1.00  0.00     0.010 C 
BRANCH  81  86
ATOM     86  S   UNL A   1      32.309  23.240  25.373  1.00  0.00     0.262 S 
ATOM     87  O   UNL A   1      32.847  22.977  26.685  1.00  0.00    -0.201 OA
ATOM     88  O   UNL A   1      30.991  22.738  25.021  1.00  0.00    -0.201 OA
BRANCH  86  89
ATOM     89  N   UNL A   1      33.430  22.522  24.303  1.00  0.00    -0.277 N 
ATOM     90  H   UNL A   1      33.715  23.009  23.496  1.00  0.00     0.180 HD
BRANCH  89  91
ATOM     91  C   UNL A   1      33.961  21.216  24.567  1.00  0.00     0.075 A 
ATOM     92  C   UNL A   1      33.162  20.090  24.306  1.00  0.00     0.042 A 
ATOM     93  C   UNL A   1      35.309  21.037  24.919  1.00  0.00     0.089 A 
ATOM     94  C   UNL A   1      33.712  18.792  24.329  1.00  0.00     0.058 A 
ATOM     95  C   UNL A   1      35.855  19.743  24.969  1.00  0.00     0.031 A 
ATOM     96  C   UNL A   1      35.061  18.631  24.680  1.00  0.00     0.015 A 
BRANCH  93  97
ATOM     97  N   UNL A   1      36.162  22.140  25.175  1.00  0.00    -0.239 N 
ATOM     98  C   UNL A   1      37.429  22.370  24.684  1.00  0.00     0.115 A 
ATOM     99  N   UNL A   1      35.794  23.111  26.052  1.00  0.00    -0.177 NA
ATOM    100  C   UNL A   1      37.963  23.397  25.420  1.00  0.00     0.042 A 
ATOM    101  C   UNL A   1      36.921  23.795  26.268  1.00  0.00     0.135 A 
ENDBRANCH  93  97
BRANCH  94 102
ATOM    102  C   UNL A   1      32.883  17.604  23.897  1.00  0.00     0.416 C 
ATOM    103  F   UNL A   1      33.570  16.432  23.968  1.00  0.00    -0.166 F 
ATOM    104  F   UNL A   1      31.773  17.439  24.667  1.00  0.00    -0.166 F 
ATOM    105  F   UNL A   1      32.431  17.698  22.615  1.00  0.00    -0.166 F 
ENDBRANCH  94 102
ENDBRANCH  89  91
ENDBRANCH  86  89
ENDBRANCH  81  86
ENDBRANCH  74  77
ENDBRANCH   1  73
TORSDOF 15
ENDMDL
MODEL 2
REMARK VINA RESULT:     -13.7      1.872      2.830
REMARK SMILES O=C(NCCCNC(=O)c1cc2c(c(S(=O)(=O)Nc3cc(C(F)(F)F)ccc3-n3cccn3)c1)CCC2)c1ccc(-c2c3nc(c(-c4c(F)c(F)c(F)c(F)c4F)c4ccc([nH]4)c(-c4c(F)c(F)c(F)c(F)c4F)c4nc(c(-c5c(F)c(F)c(F)c(F)c5F)c5ccc2[nH]5)C=C4)C=C3)cc1
REMARK SMILES IDX 6 1 5 2 4 3 3 4 1 5 2 6 38 8 39 9 100 10 40 11 99 12 41 13
REMARK SMILES IDX 42 14 43 15 93 16 44 17 98 18 92 19 94 20 45 21 97 22 91 23
REMARK SMILES IDX 90 24 46 26 78 27 58 28 77 29 59 30 62 31 76 32 95 33 60 34
REMARK SMILES IDX 61 35 75 37 96 38 63 39 47 40 48 41 56 42 49 43 50 44 54 45
REMARK SMILES IDX 57 46 51 47 52 48 55 49 53 50 79 51 80 52 88 53 81 54 82 55
REMARK SMILES IDX 86 56 89 57 83 58 84 59 87 60 85 61 64 62 65 63 73 64 66 65
REMARK SMILES IDX 67 66 71 67 74 68 68 69 69 70 72 71 70 72 7 73 8 74 9 76
REMARK SMILES IDX 10 77 11 78 34 79 12 80 14 81 13 82 37 83 35 84 36 85 15 86
REMARK SMILES IDX 16 87 17 88 18 89 19 91 20 92 28 93 21 94 27 95 26 96 29 97
REMARK SMILES IDX 30 98 33 99 31 100 32 101 22 102 23 103 24 104 25 105
REMARK H PARENT 3 7 94 25 62 36 7 75 18 90
REMARK Flexibility Score: inf
ROOT
ATOM      1  C   UNL A   1      31.880  28.612  25.420  1.00  0.00     0.118 C 
ENDROOT
BRANCH   1   2
ATOM      2  C   UNL A   1      32.999  29.607  25.722  1.00  0.00     0.042 C 
BRANCH   2   3
ATOM      3  C   UNL A   1      33.196  29.925  27.200  1.00  0.00     0.118 C 
BRANCH   3   4
ATOM      4  N   UNL A   1      33.681  31.265  27.479  1.00  0.00    -0.352 N 
ATOM      5  O   UNL A   1      34.909  33.054  27.878  1.00  0.00    -0.269 OA
ATOM      6  C   UNL A   1      34.890  31.823  27.789  1.00  0.00     0.251 C 
ATOM      7  H   UNL A   1      32.962  31.937  27.434  1.00  0.00     0.163 HD
BRANCH   6   8
ATOM      8  C   UNL A   1      36.150  31.076  28.063  1.00  0.00     0.039 A 
ATOM      9  C   UNL A   1      36.422  29.763  27.677  1.00  0.00     0.014 A 
ATOM     10  C   UNL A   1      37.149  31.786  28.757  1.00  0.00     0.014 A 
ATOM     11  C   UNL A   1      37.634  29.156  28.025  1.00  0.00     0.010 A 
ATOM     12  C   UNL A   1      38.368  31.195  29.084  1.00  0.00     0.010 A 
ATOM     13  C   UNL A   1      38.606  29.866  28.736  1.00  0.00    -0.014 A 
BRANCH  13  14
ATOM     14  C   UNL A   1      39.894  29.219  29.006  1.00  0.00     0.031 A 
ATOM     15  C   UNL A   1      40.264  29.005  30.440  1.00  0.00     0.074 A 
ATOM     16  C   UNL A   1      40.654  28.643  28.052  1.00  0.00     0.049 A 
ATOM     17  N   UNL A   1      41.368  29.313  31.049  1.00  0.00    -0.248 NA
ATOM     18  C   UNL A   1      39.270  28.352  31.307  1.00  0.00     0.031 C 
ATOM     19  C   UNL A   1      40.317  28.432  26.644  1.00  0.00     0.029 A 
ATOM     20  N   UNL A   1      41.859  28.011  28.187  1.00  0.00    -0.354 N 
ATOM     21  C   UNL A   1      41.267  28.785  32.337  1.00  0.00     0.074 A 
ATOM     22  C   UNL A   1      39.931  28.259  32.461  1.00  0.00     0.031 C 
ATOM     23  C   UNL A   1      41.188  27.546  26.111  1.00  0.00     0.029 A 
ATOM     24  C   UNL A   1      42.205  27.227  27.100  1.00  0.00     0.049 A 
ATOM     25  H   UNL A   1      42.429  28.105  28.985  1.00  0.00     0.167 HD
ATOM     26  C   UNL A   1      42.332  28.681  33.181  1.00  0.00     0.037 A 
ATOM     27  C   UNL A   1      43.212  26.323  27.034  1.00  0.00     0.037 A 
ATOM     28  C   UNL A   1      43.424  29.525  32.792  1.00  0.00     0.049 A 
ATOM     29  C   UNL A   1      44.176  26.611  28.120  1.00  0.00     0.074 A 
ATOM     30  C   UNL A   1      43.605  30.886  32.645  1.00  0.00     0.029 A 
ATOM     31  N   UNL A   1      44.539  28.949  32.238  1.00  0.00    -0.354 N 
ATOM     32  N   UNL A   1      44.980  27.635  28.150  1.00  0.00    -0.248 NA
ATOM     33  C   UNL A   1      44.029  25.895  29.378  1.00  0.00     0.031 C 
ATOM     34  C   UNL A   1      44.561  31.025  31.595  1.00  0.00     0.029 A 
ATOM     35  C   UNL A   1      44.896  29.738  31.178  1.00  0.00     0.049 A 
ATOM     36  H   UNL A   1      44.991  28.130  32.542  1.00  0.00     0.167 HD
ATOM     37  C   UNL A   1      45.112  27.937  29.495  1.00  0.00     0.074 A 
ATOM     38  C   UNL A   1      44.624  26.761  30.201  1.00  0.00     0.031 C 
ATOM     39  C   UNL A   1      45.339  29.218  29.908  1.00  0.00     0.037 A 
BRANCH  26  40
ATOM     40  C   UNL A   1      42.495  27.616  34.234  1.00  0.00     0.064 A 
ATOM     41  C   UNL A   1      43.071  26.374  33.897  1.00  0.00     0.173 A 
ATOM     42  C   UNL A   1      41.839  27.669  35.481  1.00  0.00     0.173 A 
ATOM     43  F   UNL A   1      43.689  26.205  32.719  1.00  0.00    -0.203 F 
ATOM     44  C   UNL A   1      42.951  25.255  34.725  1.00  0.00     0.198 A 
ATOM     45  C   UNL A   1      41.764  26.563  36.328  1.00  0.00     0.198 A 
ATOM     46  F   UNL A   1      41.159  28.756  35.870  1.00  0.00    -0.203 F 
ATOM     47  F   UNL A   1      43.415  24.067  34.313  1.00  0.00    -0.200 F 
ATOM     48  C   UNL A   1      42.295  25.350  35.940  1.00  0.00     0.200 A 
ATOM     49  F   UNL A   1      41.107  26.665  37.492  1.00  0.00    -0.200 F 
ATOM     50  F   UNL A   1      42.132  24.266  36.710  1.00  0.00    -0.200 F 
ENDBRANCH  26  40
BRANCH  27  51
ATOM     51  C   UNL A   1      43.283  25.084  26.227  1.00  0.00     0.064 A 
ATOM     52  C   UNL A   1      44.316  24.876  25.299  1.00  0.00     0.173 A 
ATOM     53  C   UNL A   1      42.478  23.970  26.532  1.00  0.00     0.173 A 
ATOM     54  F   UNL A   1      45.160  25.872  24.993  1.00  0.00    -0.203 F 
ATOM     55  C   UNL A   1      44.537  23.623  24.719  1.00  0.00     0.198 A 
ATOM     56  C   UNL A   1      42.690  22.724  25.941  1.00  0.00     0.198 A 
ATOM     57  F   UNL A   1      41.527  24.044  27.474  1.00  0.00    -0.203 F 
ATOM     58  F   UNL A   1      45.568  23.446  23.882  1.00  0.00    -0.200 F 
ATOM     59  C   UNL A   1      43.727  22.547  25.045  1.00  0.00     0.200 A 
ATOM     60  F   UNL A   1      41.920  21.684  26.292  1.00  0.00    -0.200 F 
ATOM     61  F   UNL A   1      43.968  21.334  24.528  1.00  0.00    -0.200 F 
ENDBRANCH  27  51
BRANCH  39  62
ATOM     62  C   UNL A   1      45.781  30.216  28.882  1.00  0.00     0.064 A 
ATOM     63  C   UNL A   1      44.894  30.916  28.047  1.00  0.00     0.173 A 
ATOM     64  C   UNL A   1      47.135  30.577  28.838  1.00  0.00     0.173 A 
ATOM     65  F   UNL A   1      43.573  30.705  28.114  1.00  0.00    -0.203 F 
ATOM     66  C   UNL A   1      45.353  31.893  27.167  1.00  0.00     0.198 A 
ATOM     67  C   UNL A   1      47.585  31.580  27.985  1.00  0.00     0.198 A 
ATOM     68  F   UNL A   1      48.016  29.985  29.660  1.00  0.00    -0.203 F 
ATOM     69  F   UNL A   1      44.490  32.537  26.367  1.00  0.00    -0.200 F 
ATOM     70  C   UNL A   1      46.697  32.228  27.140  1.00  0.00     0.200 A 
ATOM     71  F   UNL A   1      48.876  31.939  28.000  1.00  0.00    -0.200 F 
ATOM     72  F   UNL A   1      47.133  33.196  26.323  1.00  0.00    -0.200 F 
ENDBRANCH  39  62
ENDBRANCH  13  14
ENDBRANCH   6   8
ENDBRANCH   3   4
ENDBRANCH   2   3
ENDBRANCH   1   2
BRANCH   1  73
ATOM     73  N   UNL A   1      31.369  28.681  24.052  1.00  0.00    -0.352 N 
ATOM     74  C   UNL A   1      30.922  27.684  23.206  1.00  0.00     0.251 C 
ATOM     75  H   UNL A   1      31.340  29.588  23.670  1.00  0.00     0.163 HD
ATOM     76  O   UNL A   1      30.598  27.948  22.052  1.00  0.00    -0.269 OA
BRANCH  74  77
ATOM     77  C   UNL A   1      30.874  26.282  23.681  1.00  0.00     0.041 A 
ATOM     78  C   UNL A   1      29.987  25.944  24.703  1.00  0.00     0.018 A 
ATOM     79  C   UNL A   1      31.818  25.349  23.196  1.00  0.00     0.036 A 
ATOM     80  C   UNL A   1      30.240  24.787  25.406  1.00  0.00    -0.043 A 
ATOM     81  C   UNL A   1      32.021  24.134  23.878  1.00  0.00     0.092 A 
ATOM     82  C   UNL A   1      31.299  23.932  25.051  1.00  0.00    -0.024 A 
ATOM     83  C   UNL A   1      29.609  24.383  26.704  1.00  0.00     0.036 C 
ATOM     84  C   UNL A   1      31.555  23.012  26.205  1.00  0.00     0.037 C 
ATOM     85  C   UNL A   1      30.182  22.978  26.876  1.00  0.00     0.010 C 
BRANCH  81  86
ATOM     86  S   UNL A   1      33.372  23.071  23.401  1.00  0.00     0.262 S 
ATOM     87  O   UNL A   1      32.807  21.912  22.755  1.00  0.00    -0.201 OA
ATOM     88  O   UNL A   1      34.353  23.881  22.699  1.00  0.00    -0.201 OA
BRANCH  86  89
ATOM     89  N   UNL A   1      34.131  22.448  24.800  1.00  0.00    -0.277 N 
ATOM     90  H   UNL A   1      34.273  23.033  25.578  1.00  0.00     0.180 HD
BRANCH  89  91
ATOM     91  C   UNL A   1      34.563  21.082  24.850  1.00  0.00     0.075 A 
ATOM     92  C   UNL A   1      33.636  20.064  24.571  1.00  0.00     0.042 A 
ATOM     93  C   UNL A   1      35.921  20.754  25.007  1.00  0.00     0.089 A 
ATOM     94  C   UNL A   1      34.061  18.732  24.382  1.00  0.00     0.058 A 
ATOM     95  C   UNL A   1      36.343  19.424  24.845  1.00  0.00     0.031 A 
ATOM     96  C   UNL A   1      35.420  18.423  24.539  1.00  0.00     0.015 A 
BRANCH  93  97
ATOM     97  N   UNL A   1      36.897  21.747  25.271  1.00  0.00    -0.239 N 
ATOM     98  C   UNL A   1      38.210  21.571  25.650  1.00  0.00     0.115 A 
ATOM     99  N   UNL A   1      36.572  23.066  25.235  1.00  0.00    -0.177 NA
ATOM    100  C   UNL A   1      38.675  22.793  26.064  1.00  0.00     0.042 A 
ATOM    101  C   UNL A   1      37.612  23.671  25.813  1.00  0.00     0.135 A 
ENDBRANCH  93  97
BRANCH  94 102
ATOM    102  C   UNL A   1      33.078  17.674  23.931  1.00  0.00     0.416 C 
ATOM    103  F   UNL A   1      32.028  17.538  24.785  1.00  0.00    -0.166 F 
ATOM    104  F   UNL A   1      32.541  17.951  22.712  1.00  0.00    -0.166 F 
ATOM    105  F   UNL A   1      33.633  16.435  23.816  1.00  0.00    -0.166 F 
ENDBRANCH  94 102
ENDBRANCH  89  91
ENDBRANCH  86  89
ENDBRANCH  81  86
ENDBRANCH  74  77
ENDBRANCH   1  73
TORSDOF 15
ENDMDL
MODEL 3
REMARK VINA RESULT:     -13.6      3.836      8.959
REMARK SMILES O=C(NCCCNC(=O)c1cc2c(c(S(=O)(=O)Nc3cc(C(F)(F)F)ccc3-n3cccn3)c1)CCC2)c1ccc(-c2c3nc(c(-c4c(F)c(F)c(F)c(F)c4F)c4ccc([nH]4)c(-c4c(F)c(F)c(F)c(F)c4F)c4nc(c(-c5c(F)c(F)c(F)c(F)c5F)c5ccc2[nH]5)C=C4)C=C3)cc1
REMARK SMILES IDX 6 1 5 2 4 3 3 4 1 5 2 6 38 8 39 9 100 10 40 11 99 12 41 13
REMARK SMILES IDX 42 14 43 15 93 16 44 17 98 18 92 19 94 20 45 21 97 22 91 23
REMARK SMILES IDX 90 24 46 26 78 27 58 28 77 29 59 30 62 31 76 32 95 33 60 34
REMARK SMILES IDX 61 35 75 37 96 38 63 39 47 40 48 41 56 42 49 43 50 44 54 45
REMARK SMILES IDX 57 46 51 47 52 48 55 49 53 50 79 51 80 52 88 53 81 54 82 55
REMARK SMILES IDX 86 56 89 57 83 58 84 59 87 60 85 61 64 62 65 63 73 64 66 65
REMARK SMILES IDX 67 66 71 67 74 68 68 69 69 70 72 71 70 72 7 73 8 74 9 76
REMARK SMILES IDX 10 77 11 78 34 79 12 80 14 81 13 82 37 83 35 84 36 85 15 86
REMARK SMILES IDX 16 87 17 88 18 89 19 91 20 92 28 93 21 94 27 95 26 96 29 97
REMARK SMILES IDX 30 98 33 99 31 100 32 101 22 102 23 103 24 104 25 105
REMARK H PARENT 3 7 94 25 62 36 7 75 18 90
REMARK Flexibility Score: inf
ROOT
ATOM      1  C   UNL A   1      38.207  20.690  25.147  1.00  0.00     0.118 C 
ENDROOT
BRANCH   1   2
ATOM      2  C   UNL A   1      39.335  19.816  25.690  1.00  0.00     0.042 C 
BRANCH   2   3
ATOM      3  C   UNL A   1      40.391  20.558  26.502  1.00  0.00     0.118 C 
BRANCH   3   4
ATOM      4  N   UNL A   1      41.660  20.752  25.826  1.00  0.00    -0.352 N 
ATOM      5  O   UNL A   1      43.612  21.497  25.117  1.00  0.00    -0.269 OA
ATOM      6  C   UNL A   1      42.591  21.752  25.763  1.00  0.00     0.251 C 
ATOM      7  H   UNL A   1      41.912  19.974  25.278  1.00  0.00     0.163 HD
BRANCH   6   8
ATOM      8  C   UNL A   1      42.456  23.108  26.363  1.00  0.00     0.039 A 
ATOM      9  C   UNL A   1      41.687  24.155  25.853  1.00  0.00     0.014 A 
ATOM     10  C   UNL A   1      43.162  23.325  27.563  1.00  0.00     0.014 A 
ATOM     11  C   UNL A   1      41.668  25.400  26.491  1.00  0.00     0.010 A 
ATOM     12  C   UNL A   1      43.126  24.555  28.216  1.00  0.00     0.010 A 
ATOM     13  C   UNL A   1      42.393  25.606  27.668  1.00  0.00    -0.014 A 
BRANCH  13  14
ATOM     14  C   UNL A   1      42.277  26.901  28.349  1.00  0.00     0.031 A 
ATOM     15  C   UNL A   1      43.343  27.915  28.074  1.00  0.00     0.074 A 
ATOM     16  C   UNL A   1      41.184  27.286  29.037  1.00  0.00     0.049 A 
ATOM     17  N   UNL A   1      44.044  28.605  28.921  1.00  0.00    -0.248 NA
ATOM     18  C   UNL A   1      43.661  28.201  26.666  1.00  0.00     0.031 C 
ATOM     19  C   UNL A   1      39.897  26.596  29.137  1.00  0.00     0.029 A 
ATOM     20  N   UNL A   1      40.963  28.462  29.701  1.00  0.00    -0.354 N 
ATOM     21  C   UNL A   1      44.800  29.502  28.165  1.00  0.00     0.074 A 
ATOM     22  C   UNL A   1      44.572  29.167  26.782  1.00  0.00     0.031 C 
ATOM     23  C   UNL A   1      38.976  27.449  29.636  1.00  0.00     0.029 A 
ATOM     24  C   UNL A   1      39.631  28.696  29.998  1.00  0.00     0.049 A 
ATOM     25  H   UNL A   1      41.686  29.085  29.945  1.00  0.00     0.167 HD
ATOM     26  C   UNL A   1      45.461  30.560  28.714  1.00  0.00     0.037 A 
ATOM     27  C   UNL A   1      39.087  29.853  30.443  1.00  0.00     0.037 A 
ATOM     28  C   UNL A   1      45.647  30.418  30.128  1.00  0.00     0.049 A 
ATOM     29  C   UNL A   1      40.166  30.698  31.004  1.00  0.00     0.074 A 
ATOM     30  C   UNL A   1      46.304  29.517  30.943  1.00  0.00     0.029 A 
ATOM     31  N   UNL A   1      44.890  31.187  30.974  1.00  0.00    -0.354 N 
ATOM     32  N   UNL A   1      40.792  30.461  32.121  1.00  0.00    -0.248 NA
ATOM     33  C   UNL A   1      40.790  31.684  30.135  1.00  0.00     0.031 C 
ATOM     34  C   UNL A   1      45.543  29.477  32.148  1.00  0.00     0.029 A 
ATOM     35  C   UNL A   1      44.476  30.359  31.984  1.00  0.00     0.049 A 
ATOM     36  H   UNL A   1      44.684  32.144  30.875  1.00  0.00     0.167 HD
ATOM     37  C   UNL A   1      42.073  30.946  31.914  1.00  0.00     0.074 A 
ATOM     38  C   UNL A   1      41.973  31.802  30.741  1.00  0.00     0.031 C 
ATOM     39  C   UNL A   1      43.146  30.383  32.542  1.00  0.00     0.037 A 
BRANCH  26  40
ATOM     40  C   UNL A   1      45.725  31.867  28.012  1.00  0.00     0.064 A 
ATOM     41  C   UNL A   1      44.646  32.694  27.633  1.00  0.00     0.173 A 
ATOM     42  C   UNL A   1      46.973  32.190  27.442  1.00  0.00     0.173 A 
ATOM     43  F   UNL A   1      43.409  32.455  28.090  1.00  0.00    -0.203 F 
ATOM     44  C   UNL A   1      44.801  33.731  26.709  1.00  0.00     0.198 A 
ATOM     45  C   UNL A   1      47.133  33.258  26.559  1.00  0.00     0.198 A 
ATOM     46  F   UNL A   1      48.052  31.419  27.635  1.00  0.00    -0.203 F 
ATOM     47  F   UNL A   1      43.727  34.417  26.292  1.00  0.00    -0.200 F 
ATOM     48  C   UNL A   1      46.044  34.011  26.171  1.00  0.00     0.200 A 
ATOM     49  F   UNL A   1      48.340  33.503  26.029  1.00  0.00    -0.200 F 
ATOM     50  F   UNL A   1      46.183  34.969  25.246  1.00  0.00    -0.200 F 
ENDBRANCH  26  40
BRANCH  27  51
ATOM     51  C   UNL A   1      37.721  30.374  30.213  1.00  0.00     0.064 A 
ATOM     52  C   UNL A   1      36.931  30.845  31.274  1.00  0.00     0.173 A 
ATOM     53  C   UNL A   1      37.256  30.652  28.913  1.00  0.00     0.173 A 
ATOM     54  F   UNL A   1      37.328  30.668  32.543  1.00  0.00    -0.203 F 
ATOM     55  C   UNL A   1      35.752  31.563  31.047  1.00  0.00     0.198 A 
ATOM     56  C   UNL A   1      36.073  31.355  28.687  1.00  0.00     0.198 A 
ATOM     57  F   UNL A   1      37.986  30.326  27.837  1.00  0.00    -0.203 F 
ATOM     58  F   UNL A   1      35.055  32.049  32.083  1.00  0.00    -0.200 F 
ATOM     59  C   UNL A   1      35.327  31.822  29.753  1.00  0.00     0.200 A 
ATOM     60  F   UNL A   1      35.692  31.628  27.431  1.00  0.00    -0.200 F 
ATOM     61  F   UNL A   1      34.225  32.552  29.535  1.00  0.00    -0.200 F 
ENDBRANCH  27  51
BRANCH  39  62
ATOM     62  C   UNL A   1      42.881  29.475  33.704  1.00  0.00     0.064 A 
ATOM     63  C   UNL A   1      42.531  28.121  33.567  1.00  0.00     0.173 A 
ATOM     64  C   UNL A   1      43.124  29.955  34.998  1.00  0.00     0.173 A 
ATOM     65  F   UNL A   1      42.391  27.564  32.357  1.00  0.00    -0.203 F 
ATOM     66  C   UNL A   1      42.375  27.302  34.682  1.00  0.00     0.198 A 
ATOM     67  C   UNL A   1      43.006  29.124  36.108  1.00  0.00     0.198 A 
ATOM     68  F   UNL A   1      43.525  31.223  35.181  1.00  0.00    -0.203 F 
ATOM     69  F   UNL A   1      42.023  26.017  34.529  1.00  0.00    -0.200 F 
ATOM     70  C   UNL A   1      42.618  27.803  35.952  1.00  0.00     0.200 A 
ATOM     71  F   UNL A   1      43.293  29.596  37.329  1.00  0.00    -0.200 F 
ATOM     72  F   UNL A   1      42.508  27.004  37.022  1.00  0.00    -0.200 F 
ENDBRANCH  39  62
ENDBRANCH  13  14
ENDBRANCH   6   8
ENDBRANCH   3   4
ENDBRANCH   2   3
ENDBRANCH   1   2
BRANCH   1  73
ATOM     73  N   UNL A   1      38.325  22.105  25.493  1.00  0.00    -0.352 N 
ATOM     74  C   UNL A   1      37.381  23.115  25.494  1.00  0.00     0.251 C 
ATOM     75  H   UNL A   1      39.227  22.386  25.770  1.00  0.00     0.163 HD
ATOM     76  O   UNL A   1      37.707  24.269  25.752  1.00  0.00    -0.269 OA
BRANCH  74  77
ATOM     77  C   UNL A   1      35.976  22.809  25.140  1.00  0.00     0.041 A 
ATOM     78  C   UNL A   1      35.406  21.622  25.599  1.00  0.00     0.018 A 
ATOM     79  C   UNL A   1      35.288  23.646  24.233  1.00  0.00     0.036 A 
ATOM     80  C   UNL A   1      34.289  21.158  24.938  1.00  0.00    -0.043 A 
ATOM     81  C   UNL A   1      34.106  23.195  23.615  1.00  0.00     0.092 A 
ATOM     82  C   UNL A   1      33.695  21.895  23.899  1.00  0.00    -0.024 A 
ATOM     83  C   UNL A   1      33.693  19.789  25.062  1.00  0.00     0.036 C 
ATOM     84  C   UNL A   1      32.786  20.976  23.142  1.00  0.00     0.037 C 
ATOM     85  C   UNL A   1      32.430  19.949  24.218  1.00  0.00     0.010 C 
BRANCH  81  86
ATOM     86  S   UNL A   1      33.375  24.155  22.302  1.00  0.00     0.262 S 
ATOM     87  O   UNL A   1      34.041  25.434  22.275  1.00  0.00    -0.201 OA
ATOM     88  O   UNL A   1      33.348  23.331  21.105  1.00  0.00    -0.201 OA
BRANCH  86  89
ATOM     89  N   UNL A   1      31.756  24.529  22.700  1.00  0.00    -0.277 N 
ATOM     90  H   UNL A   1      31.031  23.931  22.405  1.00  0.00     0.180 HD
BRANCH  89  91
ATOM     91  C   UNL A   1      31.441  25.704  23.459  1.00  0.00     0.075 A 
ATOM     92  C   UNL A   1      31.145  26.896  22.776  1.00  0.00     0.042 A 
ATOM     93  C   UNL A   1      31.262  25.644  24.851  1.00  0.00     0.089 A 
ATOM     94  C   UNL A   1      30.609  28.007  23.461  1.00  0.00     0.058 A 
ATOM     95  C   UNL A   1      30.753  26.758  25.540  1.00  0.00     0.031 A 
ATOM     96  C   UNL A   1      30.433  27.929  24.850  1.00  0.00     0.015 A 
BRANCH  93  97
ATOM     97  N   UNL A   1      31.529  24.461  25.583  1.00  0.00    -0.239 N 
ATOM     98  C   UNL A   1      30.793  23.296  25.619  1.00  0.00     0.115 A 
ATOM     99  N   UNL A   1      32.587  24.396  26.433  1.00  0.00    -0.177 NA
ATOM    100  C   UNL A   1      31.272  22.552  26.667  1.00  0.00     0.042 A 
ATOM    101  C   UNL A   1      32.359  23.293  27.150  1.00  0.00     0.135 A 
ENDBRANCH  93  97
BRANCH  94 102
ATOM    102  C   UNL A   1      30.151  29.227  22.694  1.00  0.00     0.416 C 
ATOM    103  F   UNL A   1      29.803  30.257  23.511  1.00  0.00    -0.166 F 
ATOM    104  F   UNL A   1      31.115  29.710  21.864  1.00  0.00    -0.166 F 
ATOM    105  F   UNL A   1      29.067  28.992  21.902  1.00  0.00    -0.166 F 
ENDBRANCH  94 102
ENDBRANCH  89  91
ENDBRANCH  86  89
ENDBRANCH  81  86
ENDBRANCH  74  77
ENDBRANCH   1  73
TORSDOF 15
ENDMDL
