MODEL 1
REMARK VINA RESULT:     -10.9      0.000      0.000
REMARK SMILES Cc1nonc1CSCC(=O)NCCCNC(=O)c1ccc(-c2c3nc(c(-c4c(F)c(F)c(F)c(F)c4F)c4ccc([nH]4)c(-c4c(F)c(F)c(F)c(F)c4F)c4nc(c(-c5c(F)c(F)c(F)c(F)c5F)c5ccc2[nH]5)C=C4)C=C3)cc1
REMARK SMILES IDX 13 1 12 2 10 3 11 4 9 6 8 7 7 8 6 9 1 10 2 11 3 12 4 13 5 14
REMARK SMILES IDX 14 15 15 16 16 17 17 18 18 20 19 21 20 22 81 23 21 24 80 25
REMARK SMILES IDX 22 26 23 27 24 28 74 29 25 30 79 31 73 32 75 33 26 34 78 35
REMARK SMILES IDX 72 36 71 37 27 39 59 40 39 41 58 42 40 43 43 44 57 45 76 46
REMARK SMILES IDX 41 47 42 48 56 50 77 51 44 52 28 53 29 54 37 55 30 56 31 57
REMARK SMILES IDX 35 58 38 59 32 60 33 61 36 62 34 63 60 64 61 65 69 66 62 67
REMARK SMILES IDX 63 68 67 69 70 70 64 71 65 72 68 73 66 74 45 75 46 76 54 77
REMARK SMILES IDX 47 78 48 79 52 80 55 81 49 82 50 83 53 84 51 85
REMARK H PARENT 12 5 16 19 75 38 43 49
REMARK Flexibility Score: inf
ROOT
ATOM      1  C   UNL A   1      36.865  20.342  24.626  1.00  0.00     0.117 C 
ENDROOT
BRANCH   1   2
ATOM      2  N   UNL A   1      36.106  20.768  25.788  1.00  0.00    -0.355 N 
ATOM      3  C   UNL A   1      34.973  21.523  25.849  1.00  0.00     0.230 C 
ATOM      4  O   UNL A   1      34.578  21.887  26.960  1.00  0.00    -0.274 OA
ATOM      5  H   UNL A   1      36.461  20.469  26.657  1.00  0.00     0.163 HD
BRANCH   3   6
ATOM      6  C   UNL A   1      34.232  21.911  24.583  1.00  0.00     0.169 C 
BRANCH   6   7
ATOM      7  S   UNL A   1      32.509  21.326  24.589  1.00  0.00    -0.145 SA
BRANCH   7   8
ATOM      8  C   UNL A   1      32.746  19.578  25.067  1.00  0.00     0.132 C 
BRANCH   8   9
ATOM      9  C   UNL A   1      32.921  18.645  23.926  1.00  0.00     0.117 A 
ATOM     10  C   UNL A   1      34.782  16.978  24.730  1.00  0.00     0.073 C 
ATOM     11  C   UNL A   1      33.784  17.536  23.795  1.00  0.00     0.106 A 
ATOM     12  N   UNL A   1      33.580  16.955  22.610  1.00  0.00    -0.055 NA
ATOM     13  O   UNL A   1      32.578  17.702  22.005  1.00  0.00    -0.244 OA
ATOM     14  N   UNL A   1      32.160  18.738  22.829  1.00  0.00    -0.054 NA
ENDBRANCH   8   9
ENDBRANCH   7   8
ENDBRANCH   6   7
ENDBRANCH   3   6
ENDBRANCH   1   2
BRANCH   1  15
ATOM     15  C   UNL A   1      38.000  19.388  24.998  1.00  0.00     0.042 C 
BRANCH  15  16
ATOM     16  C   UNL A   1      39.105  20.013  25.848  1.00  0.00     0.118 C 
BRANCH  16  17
ATOM     17  N   UNL A   1      40.280  19.166  25.955  1.00  0.00    -0.352 N 
ATOM     18  C   UNL A   1      41.601  19.492  26.116  1.00  0.00     0.251 C 
ATOM     19  H   UNL A   1      40.098  18.200  25.904  1.00  0.00     0.163 HD
ATOM     20  O   UNL A   1      42.450  18.600  26.017  1.00  0.00    -0.269 OA
BRANCH  18  21
ATOM     21  C   UNL A   1      42.039  20.879  26.393  1.00  0.00     0.039 A 
ATOM     22  C   UNL A   1      42.228  21.259  27.727  1.00  0.00     0.014 A 
ATOM     23  C   UNL A   1      42.190  21.828  25.378  1.00  0.00     0.014 A 
ATOM     24  C   UNL A   1      42.596  22.570  28.040  1.00  0.00     0.010 A 
ATOM     25  C   UNL A   1      42.615  23.124  25.686  1.00  0.00     0.010 A 
ATOM     26  C   UNL A   1      42.808  23.511  27.021  1.00  0.00    -0.014 A 
BRANCH  26  27
ATOM     27  C   UNL A   1      43.204  24.905  27.351  1.00  0.00     0.031 A 
ATOM     28  C   UNL A   1      44.598  25.391  27.063  1.00  0.00     0.074 A 
ATOM     29  C   UNL A   1      42.314  25.729  27.936  1.00  0.00     0.049 A 
ATOM     30  N   UNL A   1      45.128  26.568  27.288  1.00  0.00    -0.248 NA
ATOM     31  C   UNL A   1      45.526  24.421  26.462  1.00  0.00     0.031 C 
ATOM     32  C   UNL A   1      40.947  25.369  28.310  1.00  0.00     0.029 A 
ATOM     33  N   UNL A   1      42.429  27.043  28.318  1.00  0.00    -0.354 N 
ATOM     34  C   UNL A   1      46.449  26.474  26.873  1.00  0.00     0.074 A 
ATOM     35  C   UNL A   1      46.654  25.115  26.421  1.00  0.00     0.031 C 
ATOM     36  C   UNL A   1      40.343  26.440  28.847  1.00  0.00     0.029 A 
ATOM     37  C   UNL A   1      41.284  27.557  28.873  1.00  0.00     0.049 A 
ATOM     38  H   UNL A   1      43.256  27.567  28.205  1.00  0.00     0.167 HD
ATOM     39  C   UNL A   1      47.402  27.439  26.851  1.00  0.00     0.037 A 
ATOM     40  C   UNL A   1      41.020  28.790  29.341  1.00  0.00     0.037 A 
ATOM     41  C   UNL A   1      47.193  28.800  27.269  1.00  0.00     0.049 A 
ATOM     42  C   UNL A   1      42.080  29.854  29.264  1.00  0.00     0.074 A 
ATOM     43  C   UNL A   1      48.085  29.860  27.242  1.00  0.00     0.029 A 
ATOM     44  N   UNL A   1      46.004  29.293  27.785  1.00  0.00    -0.354 N 
ATOM     45  N   UNL A   1      43.308  29.768  28.816  1.00  0.00    -0.248 NA
ATOM     46  C   UNL A   1      41.709  31.194  29.744  1.00  0.00     0.031 C 
ATOM     47  C   UNL A   1      47.442  30.988  27.765  1.00  0.00     0.029 A 
ATOM     48  C   UNL A   1      46.140  30.639  28.084  1.00  0.00     0.049 A 
ATOM     49  H   UNL A   1      45.185  28.764  27.918  1.00  0.00     0.167 HD
ATOM     50  C   UNL A   1      43.848  31.041  28.935  1.00  0.00     0.074 A 
ATOM     51  C   UNL A   1      42.807  31.887  29.484  1.00  0.00     0.031 C 
ATOM     52  C   UNL A   1      45.093  31.470  28.618  1.00  0.00     0.037 A 
BRANCH  39  53
ATOM     53  C   UNL A   1      48.763  27.052  26.351  1.00  0.00     0.064 A 
ATOM     54  C   UNL A   1      49.753  26.572  27.221  1.00  0.00     0.173 A 
ATOM     55  C   UNL A   1      49.071  27.133  24.985  1.00  0.00     0.173 A 
ATOM     56  F   UNL A   1      49.511  26.489  28.539  1.00  0.00    -0.203 F 
ATOM     57  C   UNL A   1      51.011  26.212  26.745  1.00  0.00     0.198 A 
ATOM     58  C   UNL A   1      50.321  26.748  24.509  1.00  0.00     0.198 A 
ATOM     59  F   UNL A   1      48.157  27.582  24.112  1.00  0.00    -0.203 F 
ATOM     60  F   UNL A   1      51.956  25.799  27.600  1.00  0.00    -0.200 F 
ATOM     61  C   UNL A   1      51.292  26.295  25.390  1.00  0.00     0.200 A 
ATOM     62  F   UNL A   1      50.588  26.820  23.198  1.00  0.00    -0.200 F 
ATOM     63  F   UNL A   1      52.502  25.945  24.933  1.00  0.00    -0.200 F 
ENDBRANCH  39  53
BRANCH  40  64
ATOM     64  C   UNL A   1      39.673  29.102  29.881  1.00  0.00     0.064 A 
ATOM     65  C   UNL A   1      38.656  29.576  29.040  1.00  0.00     0.173 A 
ATOM     66  C   UNL A   1      39.375  28.936  31.240  1.00  0.00     0.173 A 
ATOM     67  F   UNL A   1      38.902  29.770  27.736  1.00  0.00    -0.203 F 
ATOM     68  C   UNL A   1      37.395  29.888  29.543  1.00  0.00     0.198 A 
ATOM     69  C   UNL A   1      38.108  29.227  31.737  1.00  0.00     0.198 A 
ATOM     70  F   UNL A   1      40.315  28.481  32.082  1.00  0.00    -0.203 F 
ATOM     71  F   UNL A   1      36.453  30.377  28.726  1.00  0.00    -0.200 F 
ATOM     72  C   UNL A   1      37.121  29.709  30.891  1.00  0.00     0.200 A 
ATOM     73  F   UNL A   1      37.842  29.043  33.039  1.00  0.00    -0.200 F 
ATOM     74  F   UNL A   1      35.907  30.008  31.374  1.00  0.00    -0.200 F 
ENDBRANCH  40  64
BRANCH  52  75
ATOM     75  C   UNL A   1      45.386  32.927  28.822  1.00  0.00     0.064 A 
ATOM     76  C   UNL A   1      45.932  33.406  30.021  1.00  0.00     0.173 A 
ATOM     77  C   UNL A   1      45.134  33.851  27.796  1.00  0.00     0.173 A 
ATOM     78  F   UNL A   1      46.174  32.562  31.036  1.00  0.00    -0.203 F 
ATOM     79  C   UNL A   1      46.188  34.763  30.198  1.00  0.00     0.198 A 
ATOM     80  C   UNL A   1      45.415  35.203  27.967  1.00  0.00     0.198 A 
ATOM     81  F   UNL A   1      44.617  33.441  26.628  1.00  0.00    -0.203 F 
ATOM     82  F   UNL A   1      46.666  35.205  31.369  1.00  0.00    -0.200 F 
ATOM     83  C   UNL A   1      45.935  35.659  29.170  1.00  0.00     0.200 A 
ATOM     84  F   UNL A   1      45.176  36.068  26.972  1.00  0.00    -0.200 F 
ATOM     85  F   UNL A   1      46.181  36.964  29.343  1.00  0.00    -0.200 F 
ENDBRANCH  52  75
ENDBRANCH  26  27
ENDBRANCH  18  21
ENDBRANCH  16  17
ENDBRANCH  15  16
ENDBRANCH   1  15
TORSDOF 13
ENDMDL
MODEL 2
REMARK VINA RESULT:     -10.9      5.668     11.307
REMARK SMILES Cc1nonc1CSCC(=O)NCCCNC(=O)c1ccc(-c2c3nc(c(-c4c(F)c(F)c(F)c(F)c4F)c4ccc([nH]4)c(-c4c(F)c(F)c(F)c(F)c4F)c4nc(c(-c5c(F)c(F)c(F)c(F)c5F)c5ccc2[nH]5)C=C4)C=C3)cc1
REMARK SMILES IDX 13 1 12 2 10 3 11 4 9 6 8 7 7 8 6 9 1 10 2 11 3 12 4 13 5 14
REMARK SMILES IDX 14 15 15 16 16 17 17 18 18 20 19 21 20 22 81 23 21 24 80 25
REMARK SMILES IDX 22 26 23 27 24 28 74 29 25 30 79 31 73 32 75 33 26 34 78 35
REMARK SMILES IDX 72 36 71 37 27 39 59 40 39 41 58 42 40 43 43 44 57 45 76 46
REMARK SMILES IDX 41 47 42 48 56 50 77 51 44 52 28 53 29 54 37 55 30 56 31 57
REMARK SMILES IDX 35 58 38 59 32 60 33 61 36 62 34 63 60 64 61 65 69 66 62 67
REMARK SMILES IDX 63 68 67 69 70 70 64 71 65 72 68 73 66 74 45 75 46 76 54 77
REMARK SMILES IDX 47 78 48 79 52 80 55 81 49 82 50 83 53 84 51 85
REMARK H PARENT 12 5 16 19 75 38 43 49
REMARK Flexibility Score: inf
ROOT
ATOM      1  C   UNL A   1      36.417  32.958  30.328  1.00  0.00     0.117 C 
ENDROOT
BRANCH   1   2
ATOM      2  N   UNL A   1      36.604  32.250  31.582  1.00  0.00    -0.355 N 
ATOM      3  C   UNL A   1      36.775  32.750  32.839  1.00  0.00     0.230 C 
ATOM      4  O   UNL A   1      37.063  31.962  33.742  1.00  0.00    -0.274 OA
ATOM      5  H   UNL A   1      36.608  31.267  31.515  1.00  0.00     0.163 HD
BRANCH   3   6
ATOM      6  C   UNL A   1      36.628  34.237  33.107  1.00  0.00     0.169 C 
BRANCH   6   7
ATOM      7  S   UNL A   1      35.153  34.611  34.106  1.00  0.00    -0.145 SA
BRANCH   7   8
ATOM      8  C   UNL A   1      33.884  34.749  32.798  1.00  0.00     0.132 C 
BRANCH   8   9
ATOM      9  C   UNL A   1      33.587  36.139  32.371  1.00  0.00     0.117 A 
ATOM     10  C   UNL A   1      32.904  35.911  29.847  1.00  0.00     0.073 C 
ATOM     11  C   UNL A   1      33.162  36.624  31.116  1.00  0.00     0.106 A 
ATOM     12  N   UNL A   1      32.976  37.943  31.190  1.00  0.00    -0.055 NA
ATOM     13  O   UNL A   1      33.278  38.280  32.503  1.00  0.00    -0.244 OA
ATOM     14  N   UNL A   1      33.640  37.159  33.237  1.00  0.00    -0.054 NA
ENDBRANCH   8   9
ENDBRANCH   7   8
ENDBRANCH   6   7
ENDBRANCH   3   6
ENDBRANCH   1   2
BRANCH   1  15
ATOM     15  C   UNL A   1      34.953  32.976  29.891  1.00  0.00     0.042 C 
BRANCH  15  16
ATOM     16  C   UNL A   1      34.728  32.706  28.404  1.00  0.00     0.118 C 
BRANCH  16  17
ATOM     17  N   UNL A   1      34.013  31.465  28.159  1.00  0.00    -0.352 N 
ATOM     18  C   UNL A   1      34.480  30.189  27.989  1.00  0.00     0.251 C 
ATOM     19  H   UNL A   1      33.035  31.557  28.106  1.00  0.00     0.163 HD
ATOM     20  O   UNL A   1      33.689  29.311  27.626  1.00  0.00    -0.269 OA
BRANCH  18  21
ATOM     21  C   UNL A   1      35.899  29.834  28.214  1.00  0.00     0.039 A 
ATOM     22  C   UNL A   1      36.263  29.327  29.467  1.00  0.00     0.014 A 
ATOM     23  C   UNL A   1      36.886  30.064  27.251  1.00  0.00     0.014 A 
ATOM     24  C   UNL A   1      37.598  29.023  29.743  1.00  0.00     0.010 A 
ATOM     25  C   UNL A   1      38.213  29.704  27.505  1.00  0.00     0.010 A 
ATOM     26  C   UNL A   1      38.584  29.194  28.758  1.00  0.00    -0.014 A 
BRANCH  26  27
ATOM     27  C   UNL A   1      40.004  28.867  29.047  1.00  0.00     0.031 A 
ATOM     28  C   UNL A   1      40.865  29.823  29.826  1.00  0.00     0.074 A 
ATOM     29  C   UNL A   1      40.530  27.717  28.583  1.00  0.00     0.049 A 
ATOM     30  N   UNL A   1      42.125  29.714  30.167  1.00  0.00    -0.248 NA
ATOM     31  C   UNL A   1      40.233  31.077  30.262  1.00  0.00     0.031 C 
ATOM     32  C   UNL A   1      39.818  26.726  27.776  1.00  0.00     0.029 A 
ATOM     33  N   UNL A   1      41.790  27.188  28.726  1.00  0.00    -0.354 N 
ATOM     34  C   UNL A   1      42.439  30.887  30.840  1.00  0.00     0.074 A 
ATOM     35  C   UNL A   1      41.251  31.712  30.825  1.00  0.00     0.031 C 
ATOM     36  C   UNL A   1      40.643  25.700  27.514  1.00  0.00     0.029 A 
ATOM     37  C   UNL A   1      41.945  25.967  28.118  1.00  0.00     0.049 A 
ATOM     38  H   UNL A   1      42.512  27.641  29.218  1.00  0.00     0.167 HD
ATOM     39  C   UNL A   1      43.605  31.236  31.435  1.00  0.00     0.037 A 
ATOM     40  C   UNL A   1      43.015  25.153  28.060  1.00  0.00     0.037 A 
ATOM     41  C   UNL A   1      44.779  30.405  31.481  1.00  0.00     0.049 A 
ATOM     42  C   UNL A   1      44.283  25.545  28.767  1.00  0.00     0.074 A 
ATOM     43  C   UNL A   1      45.993  30.655  32.100  1.00  0.00     0.029 A 
ATOM     44  N   UNL A   1      44.883  29.155  30.890  1.00  0.00    -0.354 N 
ATOM     45  N   UNL A   1      44.548  26.632  29.449  1.00  0.00    -0.248 NA
ATOM     46  C   UNL A   1      45.396  24.586  28.708  1.00  0.00     0.031 C 
ATOM     47  C   UNL A   1      46.840  29.567  31.861  1.00  0.00     0.029 A 
ATOM     48  C   UNL A   1      46.142  28.624  31.124  1.00  0.00     0.049 A 
ATOM     49  H   UNL A   1      44.168  28.711  30.379  1.00  0.00     0.167 HD
ATOM     50  C   UNL A   1      45.844  26.478  29.921  1.00  0.00     0.074 A 
ATOM     51  C   UNL A   1      46.308  25.185  29.461  1.00  0.00     0.031 C 
ATOM     52  C   UNL A   1      46.584  27.331  30.670  1.00  0.00     0.037 A 
BRANCH  39  53
ATOM     53  C   UNL A   1      43.667  32.584  32.093  1.00  0.00     0.064 A 
ATOM     54  C   UNL A   1      44.073  33.725  31.387  1.00  0.00     0.173 A 
ATOM     55  C   UNL A   1      43.285  32.742  33.434  1.00  0.00     0.173 A 
ATOM     56  F   UNL A   1      44.460  33.624  30.106  1.00  0.00    -0.203 F 
ATOM     57  C   UNL A   1      44.121  34.971  32.006  1.00  0.00     0.198 A 
ATOM     58  C   UNL A   1      43.310  33.993  34.043  1.00  0.00     0.198 A 
ATOM     59  F   UNL A   1      42.885  31.681  34.152  1.00  0.00    -0.203 F 
ATOM     60  F   UNL A   1      44.556  36.040  31.325  1.00  0.00    -0.200 F 
ATOM     61  C   UNL A   1      43.734  35.105  33.331  1.00  0.00     0.200 A 
ATOM     62  F   UNL A   1      42.928  34.123  35.320  1.00  0.00    -0.200 F 
ATOM     63  F   UNL A   1      43.779  36.306  33.925  1.00  0.00    -0.200 F 
ENDBRANCH  39  53
BRANCH  40  64
ATOM     64  C   UNL A   1      42.918  23.857  27.344  1.00  0.00     0.064 A 
ATOM     65  C   UNL A   1      42.442  22.711  27.996  1.00  0.00     0.173 A 
ATOM     66  C   UNL A   1      43.297  23.735  26.000  1.00  0.00     0.173 A 
ATOM     67  F   UNL A   1      42.087  22.776  29.289  1.00  0.00    -0.203 F 
ATOM     68  C   UNL A   1      42.365  21.487  27.336  1.00  0.00     0.198 A 
ATOM     69  C   UNL A   1      43.199  22.516  25.335  1.00  0.00     0.198 A 
ATOM     70  F   UNL A   1      43.754  24.805  25.333  1.00  0.00    -0.203 F 
ATOM     71  F   UNL A   1      41.944  20.399  27.994  1.00  0.00    -0.200 F 
ATOM     72  C   UNL A   1      42.740  21.392  26.004  1.00  0.00     0.200 A 
ATOM     73  F   UNL A   1      43.551  22.429  24.044  1.00  0.00    -0.200 F 
ATOM     74  F   UNL A   1      42.664  20.214  25.369  1.00  0.00    -0.200 F 
ENDBRANCH  40  64
BRANCH  52  75
ATOM     75  C   UNL A   1      47.956  26.877  31.069  1.00  0.00     0.064 A 
ATOM     76  C   UNL A   1      49.097  27.276  30.358  1.00  0.00     0.173 A 
ATOM     77  C   UNL A   1      48.132  26.048  32.187  1.00  0.00     0.173 A 
ATOM     78  F   UNL A   1      48.978  28.055  29.272  1.00  0.00    -0.203 F 
ATOM     79  C   UNL A   1      50.363  26.837  30.735  1.00  0.00     0.198 A 
ATOM     80  C   UNL A   1      49.402  25.632  32.576  1.00  0.00     0.198 A 
ATOM     81  F   UNL A   1      47.072  25.644  32.903  1.00  0.00    -0.203 F 
ATOM     82  F   UNL A   1      51.435  27.192  30.014  1.00  0.00    -0.200 F 
ATOM     83  C   UNL A   1      50.515  26.020  31.846  1.00  0.00     0.200 A 
ATOM     84  F   UNL A   1      49.548  24.847  33.653  1.00  0.00    -0.200 F 
ATOM     85  F   UNL A   1      51.735  25.598  32.206  1.00  0.00    -0.200 F 
ENDBRANCH  52  75
ENDBRANCH  26  27
ENDBRANCH  18  21
ENDBRANCH  16  17
ENDBRANCH  15  16
ENDBRANCH   1  15
TORSDOF 13
ENDMDL
MODEL 3
REMARK VINA RESULT:     -10.8      5.645     11.227
REMARK SMILES Cc1nonc1CSCC(=O)NCCCNC(=O)c1ccc(-c2c3nc(c(-c4c(F)c(F)c(F)c(F)c4F)c4ccc([nH]4)c(-c4c(F)c(F)c(F)c(F)c4F)c4nc(c(-c5c(F)c(F)c(F)c(F)c5F)c5ccc2[nH]5)C=C4)C=C3)cc1
REMARK SMILES IDX 13 1 12 2 10 3 11 4 9 6 8 7 7 8 6 9 1 10 2 11 3 12 4 13 5 14
REMARK SMILES IDX 14 15 15 16 16 17 17 18 18 20 19 21 20 22 81 23 21 24 80 25
REMARK SMILES IDX 22 26 23 27 24 28 74 29 25 30 79 31 73 32 75 33 26 34 78 35
REMARK SMILES IDX 72 36 71 37 27 39 59 40 39 41 58 42 40 43 43 44 57 45 76 46
REMARK SMILES IDX 41 47 42 48 56 50 77 51 44 52 28 53 29 54 37 55 30 56 31 57
REMARK SMILES IDX 35 58 38 59 32 60 33 61 36 62 34 63 60 64 61 65 69 66 62 67
REMARK SMILES IDX 63 68 67 69 70 70 64 71 65 72 68 73 66 74 45 75 46 76 54 77
REMARK SMILES IDX 47 78 48 79 52 80 55 81 49 82 50 83 53 84 51 85
REMARK H PARENT 12 5 16 19 75 38 43 49
REMARK Flexibility Score: inf
ROOT
ATOM      1  C   UNL A   1      36.578  32.769  30.594  1.00  0.00     0.117 C 
ENDROOT
BRANCH   1   2
ATOM      2  N   UNL A   1      36.963  32.283  31.908  1.00  0.00    -0.355 N 
ATOM      3  C   UNL A   1      37.133  32.977  33.068  1.00  0.00     0.230 C 
ATOM      4  O   UNL A   1      37.606  32.379  34.037  1.00  0.00    -0.274 OA
ATOM      5  H   UNL A   1      37.122  31.313  31.969  1.00  0.00     0.163 HD
BRANCH   3   6
ATOM      6  C   UNL A   1      36.764  34.447  33.153  1.00  0.00     0.169 C 
BRANCH   6   7
ATOM      7  S   UNL A   1      35.265  34.721  34.149  1.00  0.00    -0.145 SA
BRANCH   7   8
ATOM      8  C   UNL A   1      33.996  34.798  32.837  1.00  0.00     0.132 C 
BRANCH   8   9
ATOM      9  C   UNL A   1      33.645  36.171  32.396  1.00  0.00     0.117 A 
ATOM     10  C   UNL A   1      32.903  35.881  29.896  1.00  0.00     0.073 C 
ATOM     11  C   UNL A   1      33.173  36.622  31.146  1.00  0.00     0.106 A 
ATOM     12  N   UNL A   1      32.948  37.936  31.205  1.00  0.00    -0.055 NA
ATOM     13  O   UNL A   1      33.274  38.303  32.504  1.00  0.00    -0.244 OA
ATOM     14  N   UNL A   1      33.690  37.205  33.245  1.00  0.00    -0.054 NA
ENDBRANCH   8   9
ENDBRANCH   7   8
ENDBRANCH   6   7
ENDBRANCH   3   6
ENDBRANCH   1   2
BRANCH   1  15
ATOM     15  C   UNL A   1      35.096  32.537  30.307  1.00  0.00     0.042 C 
BRANCH  15  16
ATOM     16  C   UNL A   1      34.709  32.632  28.832  1.00  0.00     0.118 C 
BRANCH  16  17
ATOM     17  N   UNL A   1      34.029  31.441  28.350  1.00  0.00    -0.352 N 
ATOM     18  C   UNL A   1      34.528  30.218  27.988  1.00  0.00     0.251 C 
ATOM     19  H   UNL A   1      33.052  31.528  28.272  1.00  0.00     0.163 HD
ATOM     20  O   UNL A   1      33.771  29.403  27.449  1.00  0.00    -0.269 OA
BRANCH  18  21
ATOM     21  C   UNL A   1      35.944  29.848  28.212  1.00  0.00     0.039 A 
ATOM     22  C   UNL A   1      36.303  29.328  29.460  1.00  0.00     0.014 A 
ATOM     23  C   UNL A   1      36.933  30.077  27.250  1.00  0.00     0.014 A 
ATOM     24  C   UNL A   1      37.635  29.010  29.735  1.00  0.00     0.010 A 
ATOM     25  C   UNL A   1      38.257  29.703  27.503  1.00  0.00     0.010 A 
ATOM     26  C   UNL A   1      38.623  29.180  28.752  1.00  0.00    -0.014 A 
BRANCH  26  27
ATOM     27  C   UNL A   1      40.040  28.837  29.038  1.00  0.00     0.031 A 
ATOM     28  C   UNL A   1      40.913  29.785  29.814  1.00  0.00     0.074 A 
ATOM     29  C   UNL A   1      40.552  27.680  28.577  1.00  0.00     0.049 A 
ATOM     30  N   UNL A   1      42.172  29.663  30.153  1.00  0.00    -0.248 NA
ATOM     31  C   UNL A   1      40.295  31.047  30.248  1.00  0.00     0.031 C 
ATOM     32  C   UNL A   1      39.827  26.696  27.773  1.00  0.00     0.029 A 
ATOM     33  N   UNL A   1      41.806  27.137  28.718  1.00  0.00    -0.354 N 
ATOM     34  C   UNL A   1      42.500  30.834  30.822  1.00  0.00     0.074 A 
ATOM     35  C   UNL A   1      41.322  31.673  30.808  1.00  0.00     0.031 C 
ATOM     36  C   UNL A   1      40.640  25.660  27.512  1.00  0.00     0.029 A 
ATOM     37  C   UNL A   1      41.947  25.914  28.112  1.00  0.00     0.049 A 
ATOM     38  H   UNL A   1      42.534  27.584  29.208  1.00  0.00     0.167 HD
ATOM     39  C   UNL A   1      43.672  31.172  31.415  1.00  0.00     0.037 A 
ATOM     40  C   UNL A   1      43.007  25.088  28.054  1.00  0.00     0.037 A 
ATOM     41  C   UNL A   1      44.836  30.327  31.460  1.00  0.00     0.049 A 
ATOM     42  C   UNL A   1      44.281  25.467  28.758  1.00  0.00     0.074 A 
ATOM     43  C   UNL A   1      46.054  30.566  32.076  1.00  0.00     0.029 A 
ATOM     44  N   UNL A   1      44.925  29.075  30.872  1.00  0.00    -0.354 N 
ATOM     45  N   UNL A   1      44.559  26.552  29.437  1.00  0.00    -0.248 NA
ATOM     46  C   UNL A   1      45.383  24.495  28.700  1.00  0.00     0.031 C 
ATOM     47  C   UNL A   1      46.888  29.467  31.838  1.00  0.00     0.029 A 
ATOM     48  C   UNL A   1      46.178  28.531  31.105  1.00  0.00     0.049 A 
ATOM     49  H   UNL A   1      44.204  28.638  30.363  1.00  0.00     0.167 HD
ATOM     50  C   UNL A   1      45.854  26.385  29.907  1.00  0.00     0.074 A 
ATOM     51  C   UNL A   1      46.302  25.086  29.449  1.00  0.00     0.031 C 
ATOM     52  C   UNL A   1      46.605  27.232  30.653  1.00  0.00     0.037 A 
BRANCH  39  53
ATOM     53  C   UNL A   1      43.749  32.520  32.069  1.00  0.00     0.064 A 
ATOM     54  C   UNL A   1      43.423  32.696  33.422  1.00  0.00     0.173 A 
ATOM     55  C   UNL A   1      44.183  33.641  31.346  1.00  0.00     0.173 A 
ATOM     56  F   UNL A   1      42.991  31.658  34.153  1.00  0.00    -0.203 F 
ATOM     57  C   UNL A   1      43.504  33.951  34.020  1.00  0.00     0.198 A 
ATOM     58  C   UNL A   1      44.287  34.889  31.954  1.00  0.00     0.198 A 
ATOM     59  F   UNL A   1      44.510  33.524  30.050  1.00  0.00    -0.203 F 
ATOM     60  F   UNL A   1      43.145  34.105  35.302  1.00  0.00    -0.200 F 
ATOM     61  C   UNL A   1      43.941  35.044  33.288  1.00  0.00     0.200 A 
ATOM     62  F   UNL A   1      44.718  35.943  31.247  1.00  0.00    -0.200 F 
ATOM     63  F   UNL A   1      44.020  36.251  33.865  1.00  0.00    -0.200 F 
ENDBRANCH  39  53
BRANCH  40  64
ATOM     64  C   UNL A   1      42.894  23.791  27.341  1.00  0.00     0.064 A 
ATOM     65  C   UNL A   1      42.376  22.660  27.988  1.00  0.00     0.173 A 
ATOM     66  C   UNL A   1      43.300  23.654  26.007  1.00  0.00     0.173 A 
ATOM     67  F   UNL A   1      41.993  22.740  29.271  1.00  0.00    -0.203 F 
ATOM     68  C   UNL A   1      42.284  21.436  27.330  1.00  0.00     0.198 A 
ATOM     69  C   UNL A   1      43.187  22.435  25.344  1.00  0.00     0.198 A 
ATOM     70  F   UNL A   1      43.797  24.709  25.346  1.00  0.00    -0.203 F 
ATOM     71  F   UNL A   1      41.822  20.361  27.984  1.00  0.00    -0.200 F 
ATOM     72  C   UNL A   1      42.685  21.325  26.008  1.00  0.00     0.200 A 
ATOM     73  F   UNL A   1      43.565  22.333  24.062  1.00  0.00    -0.200 F 
ATOM     74  F   UNL A   1      42.595  20.147  25.376  1.00  0.00    -0.200 F 
ENDBRANCH  40  64
BRANCH  52  75
ATOM     75  C   UNL A   1      47.973  26.764  31.049  1.00  0.00     0.064 A 
ATOM     76  C   UNL A   1      48.180  25.993  32.202  1.00  0.00     0.173 A 
ATOM     77  C   UNL A   1      49.086  27.075  30.255  1.00  0.00     0.173 A 
ATOM     78  F   UNL A   1      47.148  25.684  33.002  1.00  0.00    -0.203 F 
ATOM     79  C   UNL A   1      49.459  25.574  32.561  1.00  0.00     0.198 A 
ATOM     80  C   UNL A   1      50.360  26.633  30.604  1.00  0.00     0.198 A 
ATOM     81  F   UNL A   1      48.939  27.805  29.139  1.00  0.00    -0.203 F 
ATOM     82  F   UNL A   1      49.640  24.879  33.692  1.00  0.00    -0.200 F 
ATOM     83  C   UNL A   1      50.546  25.890  31.760  1.00  0.00     0.200 A 
ATOM     84  F   UNL A   1      51.409  26.934  29.826  1.00  0.00    -0.200 F 
ATOM     85  F   UNL A   1      51.775  25.488  32.108  1.00  0.00    -0.200 F 
ENDBRANCH  52  75
ENDBRANCH  26  27
ENDBRANCH  18  21
ENDBRANCH  16  17
ENDBRANCH  15  16
ENDBRANCH   1  15
TORSDOF 13
ENDMDL
