MODEL 1
REMARK VINA RESULT:     -11.7      0.000      0.000
REMARK SMILES Cc1nc2cc(SCC(=O)NCCCNC(=O)c3ccc(-c4c5nc(c(-c6c(F)c(F)c(F)c(F)c6F)c6ccc([nH]6)c(-c6c(F)c(F)c(F)c(F)c6F)c6nc(c(-c7c(F)c(F)c(F)c(F)c7F)c7ccc4[nH]7)C=C6)C=C5)cc3)ccc2s1
REMARK SMILES IDX 13 1 12 2 11 3 9 4 10 5 8 7 7 8 6 9 1 10 2 11 3 12 84 13
REMARK SMILES IDX 4 14 83 15 5 16 82 17 81 18 14 19 15 20 16 21 17 23 18 24
REMARK SMILES IDX 19 25 80 26 20 27 79 28 21 29 22 30 23 31 73 32 24 33 78 34
REMARK SMILES IDX 72 35 74 36 25 37 77 38 71 39 70 40 26 42 58 43 38 44 57 45
REMARK SMILES IDX 39 46 42 47 56 48 75 49 40 50 41 51 55 53 76 54 43 55 27 56
REMARK SMILES IDX 28 57 36 58 29 59 30 60 34 61 37 62 31 63 32 64 35 65 33 66
REMARK SMILES IDX 59 67 60 68 68 69 61 70 62 71 66 72 69 73 63 74 64 75 67 76
REMARK SMILES IDX 65 77 44 78 45 79 53 80 46 81 47 82 51 83 54 84 48 85 49 86
REMARK SMILES IDX 52 87 50 88
REMARK H PARENT 11 6 15 22 74 41 42 52
REMARK Flexibility Score: inf
ROOT
ATOM      1  C   UNL A   1      31.228  32.247  26.534  1.00  0.00     0.042 C 
ENDROOT
BRANCH   1   2
ATOM      2  C   UNL A   1      31.407  30.846  25.952  1.00  0.00     0.117 C 
BRANCH   2   3
ATOM      3  N   UNL A   1      32.665  30.244  26.353  1.00  0.00    -0.355 N 
ATOM      4  C   UNL A   1      32.904  29.072  27.008  1.00  0.00     0.230 C 
ATOM      5  O   UNL A   1      34.080  28.789  27.255  1.00  0.00    -0.274 OA
ATOM      6  H   UNL A   1      33.468  30.760  26.117  1.00  0.00     0.163 HD
BRANCH   4   7
ATOM      7  C   UNL A   1      31.780  28.111  27.343  1.00  0.00     0.174 C 
BRANCH   7   8
ATOM      8  S   UNL A   1      31.242  27.076  25.946  1.00  0.00    -0.116 SA
BRANCH   8   9
ATOM      9  C   UNL A   1      32.126  25.531  26.118  1.00  0.00     0.010 A 
ATOM     10  C   UNL A   1      37.435  22.633  25.370  1.00  0.00     0.079 C 
ATOM     11  C   UNL A   1      36.039  23.078  25.628  1.00  0.00     0.091 A 
ATOM     12  N   UNL A   1      35.588  24.286  25.373  1.00  0.00    -0.241 NA
ATOM     13  S   UNL A   1      34.902  21.987  26.308  1.00  0.00    -0.119 S 
ATOM     14  C   UNL A   1      34.263  24.387  25.765  1.00  0.00     0.083 A 
ATOM     15  C   UNL A   1      33.711  23.229  26.309  1.00  0.00     0.055 A 
ATOM     16  C   UNL A   1      33.457  25.539  25.666  1.00  0.00     0.045 A 
ATOM     17  C   UNL A   1      32.386  23.192  26.765  1.00  0.00     0.022 A 
ATOM     18  C   UNL A   1      31.615  24.361  26.676  1.00  0.00     0.016 A 
ENDBRANCH   8   9
ENDBRANCH   7   8
ENDBRANCH   4   7
ENDBRANCH   2   3
ENDBRANCH   1   2
BRANCH   1  19
ATOM     19  C   UNL A   1      32.479  32.831  27.187  1.00  0.00     0.118 C 
BRANCH  19  20
ATOM     20  N   UNL A   1      32.303  34.208  27.625  1.00  0.00    -0.352 N 
ATOM     21  C   UNL A   1      32.947  34.919  28.605  1.00  0.00     0.251 C 
ATOM     22  H   UNL A   1      31.608  34.709  27.140  1.00  0.00     0.163 HD
ATOM     23  O   UNL A   1      32.528  36.034  28.914  1.00  0.00    -0.269 OA
BRANCH  21  24
ATOM     24  C   UNL A   1      34.122  34.363  29.314  1.00  0.00     0.039 A 
ATOM     25  C   UNL A   1      33.917  33.707  30.531  1.00  0.00     0.014 A 
ATOM     26  C   UNL A   1      35.420  34.521  28.820  1.00  0.00     0.014 A 
ATOM     27  C   UNL A   1      34.999  33.156  31.221  1.00  0.00     0.010 A 
ATOM     28  C   UNL A   1      36.493  33.916  29.476  1.00  0.00     0.010 A 
ATOM     29  C   UNL A   1      36.294  33.227  30.682  1.00  0.00    -0.014 A 
BRANCH  29  30
ATOM     30  C   UNL A   1      37.442  32.573  31.360  1.00  0.00     0.031 A 
ATOM     31  C   UNL A   1      38.163  31.427  30.707  1.00  0.00     0.074 A 
ATOM     32  C   UNL A   1      37.797  32.971  32.596  1.00  0.00     0.049 A 
ATOM     33  N   UNL A   1      39.139  30.688  31.173  1.00  0.00    -0.248 NA
ATOM     34  C   UNL A   1      37.713  31.046  29.359  1.00  0.00     0.031 C 
ATOM     35  C   UNL A   1      37.149  34.040  33.359  1.00  0.00     0.029 A 
ATOM     36  N   UNL A   1      38.783  32.514  33.437  1.00  0.00    -0.354 N 
ATOM     37  C   UNL A   1      39.408  29.749  30.186  1.00  0.00     0.074 A 
ATOM     38  C   UNL A   1      38.465  29.983  29.112  1.00  0.00     0.031 C 
ATOM     39  C   UNL A   1      37.763  34.166  34.546  1.00  0.00     0.029 A 
ATOM     40  C   UNL A   1      38.823  33.168  34.644  1.00  0.00     0.049 A 
ATOM     41  H   UNL A   1      39.402  31.787  33.196  1.00  0.00     0.167 HD
ATOM     42  C   UNL A   1      40.365  28.790  30.169  1.00  0.00     0.037 A 
ATOM     43  C   UNL A   1      39.620  32.979  35.712  1.00  0.00     0.037 A 
ATOM     44  C   UNL A   1      41.320  28.574  31.226  1.00  0.00     0.049 A 
ATOM     45  C   UNL A   1      40.679  31.913  35.666  1.00  0.00     0.074 A 
ATOM     46  C   UNL A   1      42.365  27.668  31.272  1.00  0.00     0.029 A 
ATOM     47  N   UNL A   1      41.344  29.274  32.422  1.00  0.00    -0.354 N 
ATOM     48  N   UNL A   1      40.963  31.072  34.702  1.00  0.00    -0.248 NA
ATOM     49  C   UNL A   1      41.533  31.776  36.853  1.00  0.00     0.031 C 
ATOM     50  C   UNL A   1      43.000  27.794  32.512  1.00  0.00     0.029 A 
ATOM     51  C   UNL A   1      42.376  28.807  33.222  1.00  0.00     0.049 A 
ATOM     52  H   UNL A   1      40.721  29.995  32.668  1.00  0.00     0.167 HD
ATOM     53  C   UNL A   1      42.039  30.322  35.155  1.00  0.00     0.074 A 
ATOM     54  C   UNL A   1      42.368  30.818  36.475  1.00  0.00     0.031 C 
ATOM     55  C   UNL A   1      42.695  29.313  34.532  1.00  0.00     0.037 A 
BRANCH  42  56
ATOM     56  C   UNL A   1      40.432  27.900  28.964  1.00  0.00     0.064 A 
ATOM     57  C   UNL A   1      39.679  26.718  28.881  1.00  0.00     0.173 A 
ATOM     58  C   UNL A   1      41.226  28.249  27.861  1.00  0.00     0.173 A 
ATOM     59  F   UNL A   1      38.912  26.334  29.913  1.00  0.00    -0.203 F 
ATOM     60  C   UNL A   1      39.739  25.907  27.751  1.00  0.00     0.198 A 
ATOM     61  C   UNL A   1      41.262  27.450  26.722  1.00  0.00     0.198 A 
ATOM     62  F   UNL A   1      41.960  29.372  27.885  1.00  0.00    -0.203 F 
ATOM     63  F   UNL A   1      39.045  24.761  27.713  1.00  0.00    -0.200 F 
ATOM     64  C   UNL A   1      40.525  26.277  26.671  1.00  0.00     0.200 A 
ATOM     65  F   UNL A   1      42.013  27.814  25.673  1.00  0.00    -0.200 F 
ATOM     66  F   UNL A   1      40.577  25.498  25.581  1.00  0.00    -0.200 F 
ENDBRANCH  42  56
BRANCH  43  67
ATOM     67  C   UNL A   1      39.459  33.839  36.913  1.00  0.00     0.064 A 
ATOM     68  C   UNL A   1      40.072  35.097  36.982  1.00  0.00     0.173 A 
ATOM     69  C   UNL A   1      38.693  33.423  38.011  1.00  0.00     0.173 A 
ATOM     70  F   UNL A   1      40.832  35.527  35.964  1.00  0.00    -0.203 F 
ATOM     71  C   UNL A   1      39.937  35.902  38.110  1.00  0.00     0.198 A 
ATOM     72  C   UNL A   1      38.539  34.239  39.129  1.00  0.00     0.198 A 
ATOM     73  F   UNL A   1      38.085  32.227  37.992  1.00  0.00    -0.203 F 
ATOM     74  F   UNL A   1      40.567  37.084  38.168  1.00  0.00    -0.200 F 
ATOM     75  C   UNL A   1      39.166  35.475  39.182  1.00  0.00     0.200 A 
ATOM     76  F   UNL A   1      37.783  33.828  40.157  1.00  0.00    -0.200 F 
ATOM     77  F   UNL A   1      39.033  36.250  40.265  1.00  0.00    -0.200 F 
ENDBRANCH  43  67
BRANCH  55  78
ATOM     78  C   UNL A   1      43.851  28.695  35.261  1.00  0.00     0.064 A 
ATOM     79  C   UNL A   1      45.158  29.181  35.109  1.00  0.00     0.173 A 
ATOM     80  C   UNL A   1      43.644  27.628  36.147  1.00  0.00     0.173 A 
ATOM     81  F   UNL A   1      45.410  30.189  34.261  1.00  0.00    -0.203 F 
ATOM     82  C   UNL A   1      46.219  28.605  35.802  1.00  0.00     0.198 A 
ATOM     83  C   UNL A   1      44.704  27.071  36.858  1.00  0.00     0.198 A 
ATOM     84  F   UNL A   1      42.411  27.131  36.331  1.00  0.00    -0.203 F 
ATOM     85  F   UNL A   1      47.467  29.054  35.609  1.00  0.00    -0.200 F 
ATOM     86  C   UNL A   1      45.990  27.555  36.680  1.00  0.00     0.200 A 
ATOM     87  F   UNL A   1      44.479  26.064  37.714  1.00  0.00    -0.200 F 
ATOM     88  F   UNL A   1      47.013  27.005  37.350  1.00  0.00    -0.200 F 
ENDBRANCH  55  78
ENDBRANCH  29  30
ENDBRANCH  21  24
ENDBRANCH  19  20
ENDBRANCH   1  19
TORSDOF 12
ENDMDL
MODEL 2
REMARK VINA RESULT:     -11.6      6.181     11.493
REMARK SMILES Cc1nc2cc(SCC(=O)NCCCNC(=O)c3ccc(-c4c5nc(c(-c6c(F)c(F)c(F)c(F)c6F)c6ccc([nH]6)c(-c6c(F)c(F)c(F)c(F)c6F)c6nc(c(-c7c(F)c(F)c(F)c(F)c7F)c7ccc4[nH]7)C=C6)C=C5)cc3)ccc2s1
REMARK SMILES IDX 13 1 12 2 11 3 9 4 10 5 8 7 7 8 6 9 1 10 2 11 3 12 84 13
REMARK SMILES IDX 4 14 83 15 5 16 82 17 81 18 14 19 15 20 16 21 17 23 18 24
REMARK SMILES IDX 19 25 80 26 20 27 79 28 21 29 22 30 23 31 73 32 24 33 78 34
REMARK SMILES IDX 72 35 74 36 25 37 77 38 71 39 70 40 26 42 58 43 38 44 57 45
REMARK SMILES IDX 39 46 42 47 56 48 75 49 40 50 41 51 55 53 76 54 43 55 27 56
REMARK SMILES IDX 28 57 36 58 29 59 30 60 34 61 37 62 31 63 32 64 35 65 33 66
REMARK SMILES IDX 59 67 60 68 68 69 61 70 62 71 66 72 69 73 63 74 64 75 67 76
REMARK SMILES IDX 65 77 44 78 45 79 53 80 46 81 47 82 51 83 54 84 48 85 49 86
REMARK SMILES IDX 52 87 50 88
REMARK H PARENT 11 6 15 22 74 41 42 52
REMARK Flexibility Score: inf
ROOT
ATOM      1  C   UNL A   1      38.440  19.688  24.990  1.00  0.00     0.042 C 
ENDROOT
BRANCH   1   2
ATOM      2  C   UNL A   1      37.773  21.021  24.654  1.00  0.00     0.117 C 
BRANCH   2   3
ATOM      3  N   UNL A   1      38.173  22.077  25.565  1.00  0.00    -0.355 N 
ATOM      4  C   UNL A   1      37.638  23.317  25.754  1.00  0.00     0.230 C 
ATOM      5  O   UNL A   1      38.182  24.049  26.587  1.00  0.00    -0.274 OA
ATOM      6  H   UNL A   1      38.948  21.867  26.132  1.00  0.00     0.163 HD
BRANCH   4   7
ATOM      7  C   UNL A   1      36.375  23.751  25.037  1.00  0.00     0.174 C 
BRANCH   7   8
ATOM      8  S   UNL A   1      34.848  23.491  25.992  1.00  0.00    -0.116 SA
BRANCH   8   9
ATOM      9  C   UNL A   1      33.987  22.152  25.177  1.00  0.00     0.010 A 
ATOM     10  C   UNL A   1      33.991  16.203  23.854  1.00  0.00     0.079 C 
ATOM     11  C   UNL A   1      33.754  17.664  24.007  1.00  0.00     0.091 A 
ATOM     12  N   UNL A   1      34.572  18.486  24.626  1.00  0.00    -0.241 NA
ATOM     13  S   UNL A   1      32.333  18.376  23.359  1.00  0.00    -0.119 S 
ATOM     14  C   UNL A   1      34.043  19.766  24.628  1.00  0.00     0.083 A 
ATOM     15  C   UNL A   1      32.813  19.905  23.986  1.00  0.00     0.055 A 
ATOM     16  C   UNL A   1      34.630  20.903  25.219  1.00  0.00     0.045 A 
ATOM     17  C   UNL A   1      32.152  21.139  23.927  1.00  0.00     0.022 A 
ATOM     18  C   UNL A   1      32.749  22.248  24.545  1.00  0.00     0.016 A 
ENDBRANCH   8   9
ENDBRANCH   7   8
ENDBRANCH   4   7
ENDBRANCH   2   3
ENDBRANCH   1   2
BRANCH   1  19
ATOM     19  C   UNL A   1      39.382  19.732  26.192  1.00  0.00     0.118 C 
BRANCH  19  20
ATOM     20  N   UNL A   1      40.524  18.840  26.052  1.00  0.00    -0.352 N 
ATOM     21  C   UNL A   1      41.868  19.111  26.041  1.00  0.00     0.251 C 
ATOM     22  H   UNL A   1      40.294  17.889  25.948  1.00  0.00     0.163 HD
ATOM     23  O   UNL A   1      42.661  18.215  25.753  1.00  0.00    -0.269 OA
BRANCH  21  24
ATOM     24  C   UNL A   1      42.383  20.465  26.347  1.00  0.00     0.039 A 
ATOM     25  C   UNL A   1      42.875  21.245  25.295  1.00  0.00     0.014 A 
ATOM     26  C   UNL A   1      42.432  20.955  27.655  1.00  0.00     0.014 A 
ATOM     27  C   UNL A   1      43.353  22.533  25.542  1.00  0.00     0.010 A 
ATOM     28  C   UNL A   1      42.851  22.265  27.893  1.00  0.00     0.010 A 
ATOM     29  C   UNL A   1      43.315  23.068  26.840  1.00  0.00    -0.014 A 
BRANCH  29  30
ATOM     30  C   UNL A   1      43.741  24.465  27.105  1.00  0.00     0.031 A 
ATOM     31  C   UNL A   1      42.756  25.481  27.611  1.00  0.00     0.074 A 
ATOM     32  C   UNL A   1      45.006  24.837  26.830  1.00  0.00     0.049 A 
ATOM     33  N   UNL A   1      42.925  26.761  27.835  1.00  0.00    -0.248 NA
ATOM     34  C   UNL A   1      41.393  25.000  27.883  1.00  0.00     0.031 C 
ATOM     35  C   UNL A   1      46.047  23.959  26.292  1.00  0.00     0.029 A 
ATOM     36  N   UNL A   1      45.629  26.055  26.952  1.00  0.00    -0.354 N 
ATOM     37  C   UNL A   1      41.691  27.238  28.255  1.00  0.00     0.074 A 
ATOM     38  C   UNL A   1      40.771  26.122  28.217  1.00  0.00     0.031 C 
ATOM     39  C   UNL A   1      47.181  24.662  26.144  1.00  0.00     0.029 A 
ATOM     40  C   UNL A   1      46.940  26.044  26.544  1.00  0.00     0.049 A 
ATOM     41  H   UNL A   1      45.178  26.859  27.299  1.00  0.00     0.167 HD
ATOM     42  C   UNL A   1      41.360  28.491  28.654  1.00  0.00     0.037 A 
ATOM     43  C   UNL A   1      47.845  27.040  26.490  1.00  0.00     0.037 A 
ATOM     44  C   UNL A   1      42.283  29.595  28.717  1.00  0.00     0.049 A 
ATOM     45  C   UNL A   1      47.455  28.419  26.945  1.00  0.00     0.074 A 
ATOM     46  C   UNL A   1      42.055  30.885  29.166  1.00  0.00     0.029 A 
ATOM     47  N   UNL A   1      43.610  29.539  28.319  1.00  0.00    -0.354 N 
ATOM     48  N   UNL A   1      46.301  28.844  27.399  1.00  0.00    -0.248 NA
ATOM     49  C   UNL A   1      48.495  29.454  26.887  1.00  0.00     0.031 C 
ATOM     50  C   UNL A   1      43.234  31.620  29.005  1.00  0.00     0.029 A 
ATOM     51  C   UNL A   1      44.209  30.777  28.495  1.00  0.00     0.049 A 
ATOM     52  H   UNL A   1      44.060  28.739  27.963  1.00  0.00     0.167 HD
ATOM     53  C   UNL A   1      46.481  30.186  27.701  1.00  0.00     0.074 A 
ATOM     54  C   UNL A   1      47.861  30.503  27.393  1.00  0.00     0.031 C 
ATOM     55  C   UNL A   1      45.583  31.077  28.189  1.00  0.00     0.037 A 
BRANCH  42  56
ATOM     56  C   UNL A   1      39.937  28.735  29.059  1.00  0.00     0.064 A 
ATOM     57  C   UNL A   1      39.515  28.579  30.389  1.00  0.00     0.173 A 
ATOM     58  C   UNL A   1      38.992  29.169  28.119  1.00  0.00     0.173 A 
ATOM     59  F   UNL A   1      40.379  28.155  31.325  1.00  0.00    -0.203 F 
ATOM     60  C   UNL A   1      38.195  28.822  30.755  1.00  0.00     0.198 A 
ATOM     61  C   UNL A   1      37.678  29.438  28.494  1.00  0.00     0.198 A 
ATOM     62  F   UNL A   1      39.344  29.342  26.836  1.00  0.00    -0.203 F 
ATOM     63  F   UNL A   1      37.805  28.623  32.022  1.00  0.00    -0.200 F 
ATOM     64  C   UNL A   1      37.279  29.257  29.809  1.00  0.00     0.200 A 
ATOM     65  F   UNL A   1      36.797  29.870  27.581  1.00  0.00    -0.200 F 
ATOM     66  F   UNL A   1      36.010  29.497  30.165  1.00  0.00    -0.200 F 
ENDBRANCH  42  56
BRANCH  43  67
ATOM     67  C   UNL A   1      49.221  26.761  26.005  1.00  0.00     0.064 A 
ATOM     68  C   UNL A   1      49.567  26.976  24.665  1.00  0.00     0.173 A 
ATOM     69  C   UNL A   1      50.214  26.276  26.868  1.00  0.00     0.173 A 
ATOM     70  F   UNL A   1      48.644  27.419  23.798  1.00  0.00    -0.203 F 
ATOM     71  C   UNL A   1      50.851  26.703  24.200  1.00  0.00     0.198 A 
ATOM     72  C   UNL A   1      51.505  26.026  26.408  1.00  0.00     0.198 A 
ATOM     73  F   UNL A   1      49.932  26.056  28.161  1.00  0.00    -0.203 F 
ATOM     74  F   UNL A   1      51.145  26.879  22.905  1.00  0.00    -0.200 F 
ATOM     75  C   UNL A   1      51.821  26.233  25.074  1.00  0.00     0.200 A 
ATOM     76  F   UNL A   1      52.443  25.583  27.257  1.00  0.00    -0.200 F 
ATOM     77  F   UNL A   1      53.057  25.973  24.628  1.00  0.00    -0.200 F 
ENDBRANCH  43  67
BRANCH  55  78
ATOM     78  C   UNL A   1      46.072  32.471  28.445  1.00  0.00     0.064 A 
ATOM     79  C   UNL A   1      45.978  33.474  27.468  1.00  0.00     0.173 A 
ATOM     80  C   UNL A   1      46.609  32.817  29.694  1.00  0.00     0.173 A 
ATOM     81  F   UNL A   1      45.488  33.188  26.253  1.00  0.00    -0.203 F 
ATOM     82  C   UNL A   1      46.426  34.766  27.726  1.00  0.00     0.198 A 
ATOM     83  C   UNL A   1      47.032  34.117  29.957  1.00  0.00     0.198 A 
ATOM     84  F   UNL A   1      46.715  31.895  30.664  1.00  0.00    -0.203 F 
ATOM     85  F   UNL A   1      46.369  35.698  26.764  1.00  0.00    -0.200 F 
ATOM     86  C   UNL A   1      46.946  35.088  28.971  1.00  0.00     0.200 A 
ATOM     87  F   UNL A   1      47.524  34.429  31.164  1.00  0.00    -0.200 F 
ATOM     88  F   UNL A   1      47.373  36.335  29.219  1.00  0.00    -0.200 F 
ENDBRANCH  55  78
ENDBRANCH  29  30
ENDBRANCH  21  24
ENDBRANCH  19  20
ENDBRANCH   1  19
TORSDOF 12
ENDMDL
MODEL 3
REMARK VINA RESULT:     -11.5      4.181     10.106
REMARK SMILES Cc1nc2cc(SCC(=O)NCCCNC(=O)c3ccc(-c4c5nc(c(-c6c(F)c(F)c(F)c(F)c6F)c6ccc([nH]6)c(-c6c(F)c(F)c(F)c(F)c6F)c6nc(c(-c7c(F)c(F)c(F)c(F)c7F)c7ccc4[nH]7)C=C6)C=C5)cc3)ccc2s1
REMARK SMILES IDX 13 1 12 2 11 3 9 4 10 5 8 7 7 8 6 9 1 10 2 11 3 12 84 13
REMARK SMILES IDX 4 14 83 15 5 16 82 17 81 18 14 19 15 20 16 21 17 23 18 24
REMARK SMILES IDX 19 25 80 26 20 27 79 28 21 29 22 30 23 31 73 32 24 33 78 34
REMARK SMILES IDX 72 35 74 36 25 37 77 38 71 39 70 40 26 42 58 43 38 44 57 45
REMARK SMILES IDX 39 46 42 47 56 48 75 49 40 50 41 51 55 53 76 54 43 55 27 56
REMARK SMILES IDX 28 57 36 58 29 59 30 60 34 61 37 62 31 63 32 64 35 65 33 66
REMARK SMILES IDX 59 67 60 68 68 69 61 70 62 71 66 72 69 73 63 74 64 75 67 76
REMARK SMILES IDX 65 77 44 78 45 79 53 80 46 81 47 82 51 83 54 84 48 85 49 86
REMARK SMILES IDX 52 87 50 88
REMARK H PARENT 11 6 15 22 74 41 42 52
REMARK Flexibility Score: inf
ROOT
ATOM      1  C   UNL A   1      33.740  33.718  28.407  1.00  0.00     0.042 C 
ENDROOT
BRANCH   1   2
ATOM      2  C   UNL A   1      34.273  35.027  28.984  1.00  0.00     0.117 C 
BRANCH   2   3
ATOM      3  N   UNL A   1      33.249  35.769  29.696  1.00  0.00    -0.355 N 
ATOM      4  C   UNL A   1      33.088  35.975  31.033  1.00  0.00     0.230 C 
ATOM      5  O   UNL A   1      32.109  36.635  31.393  1.00  0.00    -0.274 OA
ATOM      6  H   UNL A   1      32.566  36.188  29.125  1.00  0.00     0.163 HD
BRANCH   4   7
ATOM      7  C   UNL A   1      34.117  35.490  32.037  1.00  0.00     0.174 C 
BRANCH   7   8
ATOM      8  S   UNL A   1      33.829  33.799  32.642  1.00  0.00    -0.116 SA
BRANCH   8   9
ATOM      9  C   UNL A   1      35.280  33.371  33.595  1.00  0.00     0.010 A 
ATOM     10  C   UNL A   1      40.154  29.737  34.029  1.00  0.00     0.079 C 
ATOM     11  C   UNL A   1      39.049  30.722  34.184  1.00  0.00     0.091 A 
ATOM     12  N   UNL A   1      38.031  30.828  33.359  1.00  0.00    -0.241 NA
ATOM     13  S   UNL A   1      39.057  31.821  35.502  1.00  0.00    -0.119 S 
ATOM     14  C   UNL A   1      37.205  31.865  33.760  1.00  0.00     0.083 A 
ATOM     15  C   UNL A   1      37.607  32.536  34.914  1.00  0.00     0.055 A 
ATOM     16  C   UNL A   1      36.030  32.287  33.106  1.00  0.00     0.045 A 
ATOM     17  C   UNL A   1      36.877  33.618  35.425  1.00  0.00     0.022 A 
ATOM     18  C   UNL A   1      35.724  34.031  34.739  1.00  0.00     0.016 A 
ENDBRANCH   8   9
ENDBRANCH   7   8
ENDBRANCH   4   7
ENDBRANCH   2   3
ENDBRANCH   1   2
BRANCH   1  19
ATOM     19  C   UNL A   1      34.492  32.468  28.859  1.00  0.00     0.118 C 
BRANCH  19  20
ATOM     20  N   UNL A   1      33.944  31.240  28.301  1.00  0.00    -0.352 N 
ATOM     21  C   UNL A   1      34.562  30.063  27.965  1.00  0.00     0.251 C 
ATOM     22  H   UNL A   1      32.974  31.259  28.137  1.00  0.00     0.163 HD
ATOM     23  O   UNL A   1      33.926  29.202  27.357  1.00  0.00    -0.269 OA
BRANCH  21  24
ATOM     24  C   UNL A   1      35.983  29.816  28.298  1.00  0.00     0.039 A 
ATOM     25  C   UNL A   1      36.297  29.360  29.582  1.00  0.00     0.014 A 
ATOM     26  C   UNL A   1      37.008  30.072  27.383  1.00  0.00     0.014 A 
ATOM     27  C   UNL A   1      37.625  29.100  29.928  1.00  0.00     0.010 A 
ATOM     28  C   UNL A   1      38.327  29.753  27.706  1.00  0.00     0.010 A 
ATOM     29  C   UNL A   1      38.649  29.263  28.982  1.00  0.00    -0.014 A 
BRANCH  29  30
ATOM     30  C   UNL A   1      40.055  28.911  29.307  1.00  0.00     0.031 A 
ATOM     31  C   UNL A   1      40.916  29.858  30.094  1.00  0.00     0.074 A 
ATOM     32  C   UNL A   1      40.577  27.763  28.837  1.00  0.00     0.049 A 
ATOM     33  N   UNL A   1      42.182  29.756  30.415  1.00  0.00    -0.248 NA
ATOM     34  C   UNL A   1      40.276  31.095  30.568  1.00  0.00     0.031 C 
ATOM     35  C   UNL A   1      39.860  26.780  28.022  1.00  0.00     0.029 A 
ATOM     36  N   UNL A   1      41.837  27.232  28.965  1.00  0.00    -0.354 N 
ATOM     37  C   UNL A   1      42.492  30.917  31.110  1.00  0.00     0.074 A 
ATOM     38  C   UNL A   1      41.295  31.730  31.130  1.00  0.00     0.031 C 
ATOM     39  C   UNL A   1      40.686  25.761  27.736  1.00  0.00     0.029 A 
ATOM     40  C   UNL A   1      41.997  26.032  28.317  1.00  0.00     0.049 A 
ATOM     41  H   UNL A   1      42.558  27.671  29.474  1.00  0.00     0.167 HD
ATOM     42  C   UNL A   1      43.665  31.266  31.693  1.00  0.00     0.037 A 
ATOM     43  C   UNL A   1      43.082  25.243  28.197  1.00  0.00     0.037 A 
ATOM     44  C   UNL A   1      44.849  30.445  31.696  1.00  0.00     0.049 A 
ATOM     45  C   UNL A   1      44.368  25.649  28.860  1.00  0.00     0.074 A 
ATOM     46  C   UNL A   1      46.064  30.686  32.313  1.00  0.00     0.029 A 
ATOM     47  N   UNL A   1      44.964  29.225  31.049  1.00  0.00    -0.354 N 
ATOM     48  N   UNL A   1      44.632  26.721  29.567  1.00  0.00    -0.248 NA
ATOM     49  C   UNL A   1      45.507  24.732  28.714  1.00  0.00     0.031 C 
ATOM     50  C   UNL A   1      46.928  29.629  32.008  1.00  0.00     0.029 A 
ATOM     51  C   UNL A   1      46.237  28.708  31.237  1.00  0.00     0.049 A 
ATOM     52  H   UNL A   1      44.249  28.788  30.532  1.00  0.00     0.167 HD
ATOM     53  C   UNL A   1      45.954  26.598  29.969  1.00  0.00     0.074 A 
ATOM     54  C   UNL A   1      46.436  25.339  29.439  1.00  0.00     0.031 C 
ATOM     55  C   UNL A   1      46.702  27.453  30.708  1.00  0.00     0.037 A 
BRANCH  42  56
ATOM     56  C   UNL A   1      43.725  32.595  32.385  1.00  0.00     0.064 A 
ATOM     57  C   UNL A   1      43.364  32.739  33.733  1.00  0.00     0.173 A 
ATOM     58  C   UNL A   1      44.188  33.733  31.706  1.00  0.00     0.173 A 
ATOM     59  F   UNL A   1      42.905  31.683  34.424  1.00  0.00    -0.203 F 
ATOM     60  C   UNL A   1      43.438  33.975  34.368  1.00  0.00     0.198 A 
ATOM     61  C   UNL A   1      44.286  34.962  32.352  1.00  0.00     0.198 A 
ATOM     62  F   UNL A   1      44.554  33.649  30.418  1.00  0.00    -0.203 F 
ATOM     63  F   UNL A   1      43.045  34.096  35.644  1.00  0.00    -0.200 F 
ATOM     64  C   UNL A   1      43.905  35.084  33.679  1.00  0.00     0.200 A 
ATOM     65  F   UNL A   1      44.750  36.031  31.689  1.00  0.00    -0.200 F 
ATOM     66  F   UNL A   1      43.981  36.272  34.293  1.00  0.00    -0.200 F 
ENDBRANCH  42  56
BRANCH  43  67
ATOM     67  C   UNL A   1      42.989  23.973  27.433  1.00  0.00     0.064 A 
ATOM     68  C   UNL A   1      42.558  22.792  28.054  1.00  0.00     0.173 A 
ATOM     69  C   UNL A   1      43.325  23.912  26.074  1.00  0.00     0.173 A 
ATOM     70  F   UNL A   1      42.247  22.798  29.359  1.00  0.00    -0.203 F 
ATOM     71  C   UNL A   1      42.482  21.595  27.347  1.00  0.00     0.198 A 
ATOM     72  C   UNL A   1      43.225  22.719  25.362  1.00  0.00     0.198 A 
ATOM     73  F   UNL A   1      43.740  25.016  25.435  1.00  0.00    -0.203 F 
ATOM     74  F   UNL A   1      42.107  20.471  27.974  1.00  0.00    -0.200 F 
ATOM     75  C   UNL A   1      42.810  21.560  26.000  1.00  0.00     0.200 A 
ATOM     76  F   UNL A   1      43.531  22.692  24.057  1.00  0.00    -0.200 F 
ATOM     77  F   UNL A   1      42.733  20.409  25.319  1.00  0.00    -0.200 F 
ENDBRANCH  43  67
BRANCH  55  78
ATOM     78  C   UNL A   1      48.112  27.041  31.012  1.00  0.00     0.064 A 
ATOM     79  C   UNL A   1      48.415  26.205  32.097  1.00  0.00     0.173 A 
ATOM     80  C   UNL A   1      49.167  27.459  30.188  1.00  0.00     0.173 A 
ATOM     81  F   UNL A   1      47.443  25.793  32.924  1.00  0.00    -0.203 F 
ATOM     82  C   UNL A   1      49.728  25.823  32.360  1.00  0.00     0.198 A 
ATOM     83  C   UNL A   1      50.476  27.054  30.438  1.00  0.00     0.198 A 
ATOM     84  F   UNL A   1      48.928  28.255  29.134  1.00  0.00    -0.203 F 
ATOM     85  F   UNL A   1      50.002  25.061  33.427  1.00  0.00    -0.200 F 
ATOM     86  C   UNL A   1      50.755  26.242  31.526  1.00  0.00     0.200 A 
ATOM     87  F   UNL A   1      51.465  27.450  29.625  1.00  0.00    -0.200 F 
ATOM     88  F   UNL A   1      52.018  25.869  31.778  1.00  0.00    -0.200 F 
ENDBRANCH  55  78
ENDBRANCH  29  30
ENDBRANCH  21  24
ENDBRANCH  19  20
ENDBRANCH   1  19
TORSDOF 12
ENDMDL
