MODEL 1
REMARK VINA RESULT:     -12.0      0.000      0.000
REMARK SMILES C[C@@H](C(=O)NCCCNC(=O)c1ccc(-c2c3nc(c(-c4c(F)c(F)c(F)c(F)c4F)c4ccc([nH]4)c(-c4c(F)c(F)c(F)c(F)c4F)c4nc(c(-c5c(F)c(F)c(F)c(F)c5F)c5ccc2[nH]5)C=C4)C=C3)cc1)c1cccn(C(F)F)c1=O
REMARK SMILES IDX 7 1 6 2 5 3 3 4 4 5 2 7 1 8 75 9 76 10 83 11 77 12 79 13
REMARK SMILES IDX 84 14 78 15 80 16 81 17 82 18 8 19 9 20 10 21 11 23 12 24
REMARK SMILES IDX 13 25 74 26 14 27 73 28 15 29 16 30 17 31 67 32 18 33 72 34
REMARK SMILES IDX 66 35 68 36 19 37 71 38 65 39 64 40 20 42 52 43 32 44 51 45
REMARK SMILES IDX 33 46 36 47 50 48 69 49 34 50 35 51 49 53 70 54 37 55 21 56
REMARK SMILES IDX 22 57 30 58 23 59 24 60 28 61 31 62 25 63 26 64 29 65 27 66
REMARK SMILES IDX 53 67 54 68 62 69 55 70 56 71 60 72 63 73 57 74 58 75 61 76
REMARK SMILES IDX 59 77 38 78 39 79 47 80 40 81 41 82 45 83 48 84 42 85 43 86
REMARK SMILES IDX 46 87 44 88
REMARK H PARENT 5 6 9 22 68 41 36 52
REMARK Flexibility Score: inf
ROOT
ATOM      1  C   UNL A   1      31.558  32.191  26.547  1.00  0.00     0.042 C 
ENDROOT
BRANCH   1   2
ATOM      2  C   UNL A   1      31.513  30.670  26.634  1.00  0.00     0.117 C 
BRANCH   2   3
ATOM      3  N   UNL A   1      31.919  30.039  25.393  1.00  0.00    -0.356 N 
ATOM      4  C   UNL A   1      32.628  28.897  25.166  1.00  0.00     0.227 C 
ATOM      5  O   UNL A   1      32.703  28.529  23.991  1.00  0.00    -0.274 OA
ATOM      6  H   UNL A   1      31.635  30.516  24.580  1.00  0.00     0.163 HD
BRANCH   4   7
ATOM      7  C   UNL A   1      33.200  28.089  26.348  1.00  0.00     0.111 C 
ATOM      8  C   UNL A   1      34.590  28.539  26.800  1.00  0.00     0.023 C 
BRANCH   7   9
ATOM      9  C   UNL A   1      33.182  26.610  26.021  1.00  0.00     0.030 A 
ATOM     10  C   UNL A   1      34.244  25.960  25.508  1.00  0.00     0.012 A 
ATOM     11  C   UNL A   1      31.927  25.823  26.310  1.00  0.00     0.258 A 
ATOM     12  C   UNL A   1      34.209  24.544  25.256  1.00  0.00     0.019 A 
ATOM     13  N   UNL A   1      32.011  24.454  26.120  1.00  0.00    -0.258 N 
ATOM     14  O   UNL A   1      30.899  26.391  26.670  1.00  0.00    -0.269 OA
ATOM     15  C   UNL A   1      33.122  23.837  25.580  1.00  0.00     0.095 A 
BRANCH  13  16
ATOM     16  C   UNL A   1      30.847  23.671  26.445  1.00  0.00     0.451 C 
ATOM     17  F   UNL A   1      30.501  22.913  25.369  1.00  0.00    -0.185 F 
ATOM     18  F   UNL A   1      31.143  22.792  27.442  1.00  0.00    -0.185 F 
ENDBRANCH  13  16
ENDBRANCH   7   9
ENDBRANCH   4   7
ENDBRANCH   2   3
ENDBRANCH   1   2
BRANCH   1  19
ATOM     19  C   UNL A   1      32.654  32.831  27.393  1.00  0.00     0.118 C 
BRANCH  19  20
ATOM     20  N   UNL A   1      32.385  34.228  27.708  1.00  0.00    -0.352 N 
ATOM     21  C   UNL A   1      32.978  35.049  28.637  1.00  0.00     0.251 C 
ATOM     22  H   UNL A   1      31.670  34.647  27.175  1.00  0.00     0.163 HD
ATOM     23  O   UNL A   1      32.505  36.157  28.874  1.00  0.00    -0.269 OA
BRANCH  21  24
ATOM     24  C   UNL A   1      34.175  34.589  29.371  1.00  0.00     0.039 A 
ATOM     25  C   UNL A   1      34.018  34.004  30.632  1.00  0.00     0.014 A 
ATOM     26  C   UNL A   1      35.448  34.734  28.817  1.00  0.00     0.014 A 
ATOM     27  C   UNL A   1      35.132  33.489  31.300  1.00  0.00     0.010 A 
ATOM     28  C   UNL A   1      36.544  34.156  29.447  1.00  0.00     0.010 A 
ATOM     29  C   UNL A   1      36.397  33.526  30.693  1.00  0.00    -0.014 A 
BRANCH  29  30
ATOM     30  C   UNL A   1      37.597  32.925  31.327  1.00  0.00     0.031 A 
ATOM     31  C   UNL A   1      38.270  31.752  30.673  1.00  0.00     0.074 A 
ATOM     32  C   UNL A   1      37.997  33.343  32.542  1.00  0.00     0.049 A 
ATOM     33  N   UNL A   1      39.187  30.949  31.147  1.00  0.00    -0.248 NA
ATOM     34  C   UNL A   1      37.817  31.418  29.314  1.00  0.00     0.031 C 
ATOM     35  C   UNL A   1      37.403  34.448  33.294  1.00  0.00     0.029 A 
ATOM     36  N   UNL A   1      38.978  32.860  33.375  1.00  0.00    -0.354 N 
ATOM     37  C   UNL A   1      39.394  29.994  30.161  1.00  0.00     0.074 A 
ATOM     38  C   UNL A   1      38.478  30.294  29.082  1.00  0.00     0.031 C 
ATOM     39  C   UNL A   1      38.024  34.554  34.480  1.00  0.00     0.029 A 
ATOM     40  C   UNL A   1      39.025  33.496  34.590  1.00  0.00     0.049 A 
ATOM     41  H   UNL A   1      39.586  32.129  33.123  1.00  0.00     0.167 HD
ATOM     42  C   UNL A   1      40.277  28.967  30.153  1.00  0.00     0.037 A 
ATOM     43  C   UNL A   1      39.767  33.236  35.684  1.00  0.00     0.037 A 
ATOM     44  C   UNL A   1      41.204  28.693  31.220  1.00  0.00     0.049 A 
ATOM     45  C   UNL A   1      40.746  32.094  35.656  1.00  0.00     0.074 A 
ATOM     46  C   UNL A   1      42.184  27.719  31.283  1.00  0.00     0.029 A 
ATOM     47  N   UNL A   1      41.257  29.396  32.417  1.00  0.00    -0.354 N 
ATOM     48  N   UNL A   1      40.975  31.228  34.699  1.00  0.00    -0.248 NA
ATOM     49  C   UNL A   1      41.571  31.895  36.855  1.00  0.00     0.031 C 
ATOM     50  C   UNL A   1      42.802  27.803  32.536  1.00  0.00     0.029 A 
ATOM     51  C   UNL A   1      42.243  28.864  33.232  1.00  0.00     0.049 A 
ATOM     52  H   UNL A   1      40.681  30.158  32.650  1.00  0.00     0.167 HD
ATOM     53  C   UNL A   1      41.988  30.401  35.166  1.00  0.00     0.074 A 
ATOM     54  C   UNL A   1      42.331  30.870  36.492  1.00  0.00     0.031 C 
ATOM     55  C   UNL A   1      42.582  29.352  34.546  1.00  0.00     0.037 A 
BRANCH  42  56
ATOM     56  C   UNL A   1      40.267  28.060  28.956  1.00  0.00     0.064 A 
ATOM     57  C   UNL A   1      39.534  26.863  28.941  1.00  0.00     0.173 A 
ATOM     58  C   UNL A   1      41.005  28.390  27.810  1.00  0.00     0.173 A 
ATOM     59  F   UNL A   1      38.821  26.496  30.016  1.00  0.00    -0.203 F 
ATOM     60  C   UNL A   1      39.578  26.009  27.843  1.00  0.00     0.198 A 
ATOM     61  C   UNL A   1      41.019  27.550  26.699  1.00  0.00     0.198 A 
ATOM     62  F   UNL A   1      41.717  29.526  27.766  1.00  0.00    -0.203 F 
ATOM     63  F   UNL A   1      38.926  24.839  27.879  1.00  0.00    -0.200 F 
ATOM     64  C   UNL A   1      40.317  26.355  26.722  1.00  0.00     0.200 A 
ATOM     65  F   UNL A   1      41.722  27.893  25.610  1.00  0.00    -0.200 F 
ATOM     66  F   UNL A   1      40.362  25.530  25.666  1.00  0.00    -0.200 F 
ENDBRANCH  42  56
BRANCH  43  67
ATOM     67  C   UNL A   1      39.613  34.089  36.889  1.00  0.00     0.064 A 
ATOM     68  C   UNL A   1      38.824  33.672  37.969  1.00  0.00     0.173 A 
ATOM     69  C   UNL A   1      40.284  35.316  37.006  1.00  0.00     0.173 A 
ATOM     70  F   UNL A   1      38.149  32.515  37.896  1.00  0.00    -0.203 F 
ATOM     71  C   UNL A   1      38.708  34.450  39.118  1.00  0.00     0.198 A 
ATOM     72  C   UNL A   1      40.187  36.082  38.166  1.00  0.00     0.198 A 
ATOM     73  F   UNL A   1      41.060  35.755  36.003  1.00  0.00    -0.203 F 
ATOM     74  F   UNL A   1      37.927  34.040  40.127  1.00  0.00    -0.200 F 
ATOM     75  C   UNL A   1      39.396  35.650  39.219  1.00  0.00     0.200 A 
ATOM     76  F   UNL A   1      40.868  37.231  38.265  1.00  0.00    -0.200 F 
ATOM     77  F   UNL A   1      39.298  36.390  40.332  1.00  0.00    -0.200 F 
ENDBRANCH  43  67
BRANCH  55  78
ATOM     78  C   UNL A   1      43.702  28.661  35.266  1.00  0.00     0.064 A 
ATOM     79  C   UNL A   1      43.468  27.586  36.135  1.00  0.00     0.173 A 
ATOM     80  C   UNL A   1      45.033  29.030  35.018  1.00  0.00     0.173 A 
ATOM     81  F   UNL A   1      42.212  27.205  36.415  1.00  0.00    -0.203 F 
ATOM     82  C   UNL A   1      44.526  26.909  36.734  1.00  0.00     0.198 A 
ATOM     83  C   UNL A   1      46.090  28.335  35.599  1.00  0.00     0.198 A 
ATOM     84  F   UNL A   1      45.308  30.050  34.191  1.00  0.00    -0.203 F 
ATOM     85  F   UNL A   1      44.282  25.901  37.583  1.00  0.00    -0.200 F 
ATOM     86  C   UNL A   1      45.835  27.277  36.458  1.00  0.00     0.200 A 
ATOM     87  F   UNL A   1      47.353  28.684  35.320  1.00  0.00    -0.200 F 
ATOM     88  F   UNL A   1      46.854  26.613  37.021  1.00  0.00    -0.200 F 
ENDBRANCH  55  78
ENDBRANCH  29  30
ENDBRANCH  21  24
ENDBRANCH  19  20
ENDBRANCH   1  19
TORSDOF 12
ENDMDL
MODEL 2
REMARK VINA RESULT:     -11.9      0.822      1.862
REMARK SMILES C[C@@H](C(=O)NCCCNC(=O)c1ccc(-c2c3nc(c(-c4c(F)c(F)c(F)c(F)c4F)c4ccc([nH]4)c(-c4c(F)c(F)c(F)c(F)c4F)c4nc(c(-c5c(F)c(F)c(F)c(F)c5F)c5ccc2[nH]5)C=C4)C=C3)cc1)c1cccn(C(F)F)c1=O
REMARK SMILES IDX 7 1 6 2 5 3 3 4 4 5 2 7 1 8 75 9 76 10 83 11 77 12 79 13
REMARK SMILES IDX 84 14 78 15 80 16 81 17 82 18 8 19 9 20 10 21 11 23 12 24
REMARK SMILES IDX 13 25 74 26 14 27 73 28 15 29 16 30 17 31 67 32 18 33 72 34
REMARK SMILES IDX 66 35 68 36 19 37 71 38 65 39 64 40 20 42 52 43 32 44 51 45
REMARK SMILES IDX 33 46 36 47 50 48 69 49 34 50 35 51 49 53 70 54 37 55 21 56
REMARK SMILES IDX 22 57 30 58 23 59 24 60 28 61 31 62 25 63 26 64 29 65 27 66
REMARK SMILES IDX 53 67 54 68 62 69 55 70 56 71 60 72 63 73 57 74 58 75 61 76
REMARK SMILES IDX 59 77 38 78 39 79 47 80 40 81 41 82 45 83 48 84 42 85 43 86
REMARK SMILES IDX 46 87 44 88
REMARK H PARENT 5 6 9 22 68 41 36 52
REMARK Flexibility Score: inf
ROOT
ATOM      1  C   UNL A   1      31.591  31.900  26.595  1.00  0.00     0.042 C 
ENDROOT
BRANCH   1   2
ATOM      2  C   UNL A   1      31.905  30.460  26.208  1.00  0.00     0.117 C 
BRANCH   2   3
ATOM      3  N   UNL A   1      31.199  30.049  25.010  1.00  0.00    -0.356 N 
ATOM      4  C   UNL A   1      31.329  28.932  24.239  1.00  0.00     0.227 C 
ATOM      5  O   UNL A   1      30.487  28.785  23.349  1.00  0.00    -0.274 OA
ATOM      6  H   UNL A   1      30.510  30.682  24.704  1.00  0.00     0.163 HD
BRANCH   4   7
ATOM      7  C   UNL A   1      32.419  27.890  24.558  1.00  0.00     0.111 C 
ATOM      8  C   UNL A   1      33.712  28.071  23.760  1.00  0.00     0.023 C 
BRANCH   7   9
ATOM      9  C   UNL A   1      31.863  26.491  24.391  1.00  0.00     0.030 A 
ATOM     10  C   UNL A   1      31.816  25.859  23.203  1.00  0.00     0.012 A 
ATOM     11  C   UNL A   1      31.367  25.762  25.615  1.00  0.00     0.258 A 
ATOM     12  C   UNL A   1      31.327  24.510  23.087  1.00  0.00     0.019 A 
ATOM     13  N   UNL A   1      30.997  24.441  25.426  1.00  0.00    -0.258 N 
ATOM     14  O   UNL A   1      31.284  26.336  26.697  1.00  0.00    -0.269 OA
ATOM     15  C   UNL A   1      30.955  23.842  24.184  1.00  0.00     0.095 A 
BRANCH  13  16
ATOM     16  C   UNL A   1      30.575  23.702  26.589  1.00  0.00     0.451 C 
ATOM     17  F   UNL A   1      30.006  22.531  26.195  1.00  0.00    -0.185 F 
ATOM     18  F   UNL A   1      31.658  23.358  27.339  1.00  0.00    -0.185 F 
ENDBRANCH  13  16
ENDBRANCH   7   9
ENDBRANCH   4   7
ENDBRANCH   2   3
ENDBRANCH   1   2
BRANCH   1  19
ATOM     19  C   UNL A   1      32.720  32.606  27.338  1.00  0.00     0.118 C 
BRANCH  19  20
ATOM     20  N   UNL A   1      32.419  34.000  27.636  1.00  0.00    -0.352 N 
ATOM     21  C   UNL A   1      32.985  34.842  28.563  1.00  0.00     0.251 C 
ATOM     22  H   UNL A   1      31.701  34.399  27.092  1.00  0.00     0.163 HD
ATOM     23  O   UNL A   1      32.486  35.942  28.783  1.00  0.00    -0.269 OA
BRANCH  21  24
ATOM     24  C   UNL A   1      34.183  34.415  29.313  1.00  0.00     0.039 A 
ATOM     25  C   UNL A   1      34.025  33.813  30.566  1.00  0.00     0.014 A 
ATOM     26  C   UNL A   1      35.460  34.607  28.782  1.00  0.00     0.014 A 
ATOM     27  C   UNL A   1      35.144  33.329  31.249  1.00  0.00     0.010 A 
ATOM     28  C   UNL A   1      36.564  34.059  29.426  1.00  0.00     0.010 A 
ATOM     29  C   UNL A   1      36.416  33.412  30.664  1.00  0.00    -0.014 A 
BRANCH  29  30
ATOM     30  C   UNL A   1      37.625  32.845  31.313  1.00  0.00     0.031 A 
ATOM     31  C   UNL A   1      38.332  31.686  30.673  1.00  0.00     0.074 A 
ATOM     32  C   UNL A   1      38.003  33.281  32.529  1.00  0.00     0.049 A 
ATOM     33  N   UNL A   1      39.264  30.908  31.161  1.00  0.00    -0.248 NA
ATOM     34  C   UNL A   1      37.901  31.332  29.312  1.00  0.00     0.031 C 
ATOM     35  C   UNL A   1      37.375  34.375  33.268  1.00  0.00     0.029 A 
ATOM     36  N   UNL A   1      38.987  32.827  33.374  1.00  0.00    -0.354 N 
ATOM     37  C   UNL A   1      39.504  29.952  30.183  1.00  0.00     0.074 A 
ATOM     38  C   UNL A   1      38.592  30.223  29.093  1.00  0.00     0.031 C 
ATOM     39  C   UNL A   1      37.981  34.504  34.459  1.00  0.00     0.029 A 
ATOM     40  C   UNL A   1      39.007  33.471  34.586  1.00  0.00     0.049 A 
ATOM     41  H   UNL A   1      39.616  32.110  33.133  1.00  0.00     0.167 HD
ATOM     42  C   UNL A   1      40.412  28.948  30.190  1.00  0.00     0.037 A 
ATOM     43  C   UNL A   1      39.745  33.237  35.687  1.00  0.00     0.037 A 
ATOM     44  C   UNL A   1      41.335  28.702  31.268  1.00  0.00     0.049 A 
ATOM     45  C   UNL A   1      40.752  32.119  35.676  1.00  0.00     0.074 A 
ATOM     46  C   UNL A   1      42.338  27.754  31.346  1.00  0.00     0.029 A 
ATOM     47  N   UNL A   1      41.360  29.414  32.460  1.00  0.00    -0.354 N 
ATOM     48  N   UNL A   1      41.011  31.253  34.727  1.00  0.00    -0.248 NA
ATOM     49  C   UNL A   1      41.570  31.948  36.885  1.00  0.00     0.031 C 
ATOM     50  C   UNL A   1      42.942  27.861  32.604  1.00  0.00     0.029 A 
ATOM     51  C   UNL A   1      42.350  28.912  33.288  1.00  0.00     0.049 A 
ATOM     52  H   UNL A   1      40.763  30.163  32.682  1.00  0.00     0.167 HD
ATOM     53  C   UNL A   1      42.039  30.454  35.209  1.00  0.00     0.074 A 
ATOM     54  C   UNL A   1      42.358  30.939  36.535  1.00  0.00     0.031 C 
ATOM     55  C   UNL A   1      42.665  29.416  34.602  1.00  0.00     0.037 A 
BRANCH  42  56
ATOM     56  C   UNL A   1      40.436  28.032  28.999  1.00  0.00     0.064 A 
ATOM     57  C   UNL A   1      41.202  28.322  27.859  1.00  0.00     0.173 A 
ATOM     58  C   UNL A   1      39.680  26.851  28.997  1.00  0.00     0.173 A 
ATOM     59  F   UNL A   1      41.936  29.444  27.806  1.00  0.00    -0.203 F 
ATOM     60  C   UNL A   1      41.172  27.488  26.745  1.00  0.00     0.198 A 
ATOM     61  C   UNL A   1      39.679  26.002  27.893  1.00  0.00     0.198 A 
ATOM     62  F   UNL A   1      38.936  26.521  30.063  1.00  0.00    -0.203 F 
ATOM     63  F   UNL A   1      41.857  27.822  25.642  1.00  0.00    -0.200 F 
ATOM     64  C   UNL A   1      40.415  26.328  26.764  1.00  0.00     0.200 A 
ATOM     65  F   UNL A   1      38.957  24.872  27.918  1.00  0.00    -0.200 F 
ATOM     66  F   UNL A   1      40.383  25.529  25.688  1.00  0.00    -0.200 F 
ENDBRANCH  42  56
BRANCH  43  67
ATOM     67  C   UNL A   1      39.558  34.093  36.886  1.00  0.00     0.064 A 
ATOM     68  C   UNL A   1      38.776  33.660  37.964  1.00  0.00     0.173 A 
ATOM     69  C   UNL A   1      40.191  35.341  36.997  1.00  0.00     0.173 A 
ATOM     70  F   UNL A   1      38.137  32.483  37.896  1.00  0.00    -0.203 F 
ATOM     71  C   UNL A   1      38.630  34.443  39.108  1.00  0.00     0.198 A 
ATOM     72  C   UNL A   1      40.065  36.112  38.151  1.00  0.00     0.198 A 
ATOM     73  F   UNL A   1      40.959  35.796  35.995  1.00  0.00    -0.203 F 
ATOM     74  F   UNL A   1      37.856  34.016  40.115  1.00  0.00    -0.200 F 
ATOM     75  C   UNL A   1      39.281  35.664  39.204  1.00  0.00     0.200 A 
ATOM     76  F   UNL A   1      40.710  37.282  38.246  1.00  0.00    -0.200 F 
ATOM     77  F   UNL A   1      39.154  36.408  40.310  1.00  0.00    -0.200 F 
ENDBRANCH  43  67
BRANCH  55  78
ATOM     78  C   UNL A   1      43.794  28.757  35.337  1.00  0.00     0.064 A 
ATOM     79  C   UNL A   1      45.119  29.193  35.198  1.00  0.00     0.173 A 
ATOM     80  C   UNL A   1      43.531  27.729  36.255  1.00  0.00     0.173 A 
ATOM     81  F   UNL A   1      45.423  30.162  34.322  1.00  0.00    -0.203 F 
ATOM     82  C   UNL A   1      46.142  28.617  35.947  1.00  0.00     0.198 A 
ATOM     83  C   UNL A   1      44.552  27.173  37.021  1.00  0.00     0.198 A 
ATOM     84  F   UNL A   1      42.278  27.280  36.427  1.00  0.00    -0.203 F 
ATOM     85  F   UNL A   1      47.406  29.028  35.780  1.00  0.00    -0.200 F 
ATOM     86  C   UNL A   1      45.856  27.616  36.864  1.00  0.00     0.200 A 
ATOM     87  F   UNL A   1      44.272  26.216  37.916  1.00  0.00    -0.200 F 
ATOM     88  F   UNL A   1      46.839  27.077  37.599  1.00  0.00    -0.200 F 
ENDBRANCH  55  78
ENDBRANCH  29  30
ENDBRANCH  21  24
ENDBRANCH  19  20
ENDBRANCH   1  19
TORSDOF 12
ENDMDL
MODEL 3
REMARK VINA RESULT:     -11.8      2.811      4.257
REMARK SMILES C[C@@H](C(=O)NCCCNC(=O)c1ccc(-c2c3nc(c(-c4c(F)c(F)c(F)c(F)c4F)c4ccc([nH]4)c(-c4c(F)c(F)c(F)c(F)c4F)c4nc(c(-c5c(F)c(F)c(F)c(F)c5F)c5ccc2[nH]5)C=C4)C=C3)cc1)c1cccn(C(F)F)c1=O
REMARK SMILES IDX 7 1 6 2 5 3 3 4 4 5 2 7 1 8 75 9 76 10 83 11 77 12 79 13
REMARK SMILES IDX 84 14 78 15 80 16 81 17 82 18 8 19 9 20 10 21 11 23 12 24
REMARK SMILES IDX 13 25 74 26 14 27 73 28 15 29 16 30 17 31 67 32 18 33 72 34
REMARK SMILES IDX 66 35 68 36 19 37 71 38 65 39 64 40 20 42 52 43 32 44 51 45
REMARK SMILES IDX 33 46 36 47 50 48 69 49 34 50 35 51 49 53 70 54 37 55 21 56
REMARK SMILES IDX 22 57 30 58 23 59 24 60 28 61 31 62 25 63 26 64 29 65 27 66
REMARK SMILES IDX 53 67 54 68 62 69 55 70 56 71 60 72 63 73 57 74 58 75 61 76
REMARK SMILES IDX 59 77 38 78 39 79 47 80 40 81 41 82 45 83 48 84 42 85 43 86
REMARK SMILES IDX 46 87 44 88
REMARK H PARENT 5 6 9 22 68 41 36 52
REMARK Flexibility Score: inf
ROOT
ATOM      1  C   UNL A   1      33.601  28.624  24.184  1.00  0.00     0.042 C 
ENDROOT
BRANCH   1   2
ATOM      2  C   UNL A   1      33.761  27.191  23.690  1.00  0.00     0.117 C 
BRANCH   2   3
ATOM      3  N   UNL A   1      32.877  26.894  22.579  1.00  0.00    -0.356 N 
ATOM      4  C   UNL A   1      31.518  26.798  22.524  1.00  0.00     0.227 C 
ATOM      5  O   UNL A   1      31.028  26.668  21.399  1.00  0.00    -0.274 OA
ATOM      6  H   UNL A   1      33.336  26.736  21.722  1.00  0.00     0.163 HD
BRANCH   4   7
ATOM      7  C   UNL A   1      30.676  26.948  23.807  1.00  0.00     0.111 C 
ATOM      8  C   UNL A   1      30.258  25.621  24.441  1.00  0.00     0.023 C 
BRANCH   7   9
ATOM      9  C   UNL A   1      29.473  27.830  23.536  1.00  0.00     0.030 A 
ATOM     10  C   UNL A   1      28.213  27.357  23.501  1.00  0.00     0.012 A 
ATOM     11  C   UNL A   1      29.695  29.307  23.327  1.00  0.00     0.258 A 
ATOM     12  C   UNL A   1      27.088  28.230  23.291  1.00  0.00     0.019 A 
ATOM     13  N   UNL A   1      28.554  30.083  23.220  1.00  0.00    -0.258 N 
ATOM     14  O   UNL A   1      30.832  29.765  23.237  1.00  0.00    -0.269 OA
ATOM     15  C   UNL A   1      27.282  29.548  23.178  1.00  0.00     0.095 A 
BRANCH  13  16
ATOM     16  C   UNL A   1      28.734  31.505  23.078  1.00  0.00     0.451 C 
ATOM     17  F   UNL A   1      27.529  32.090  22.841  1.00  0.00    -0.185 F 
ATOM     18  F   UNL A   1      29.183  32.035  24.249  1.00  0.00    -0.185 F 
ENDBRANCH  13  16
ENDBRANCH   7   9
ENDBRANCH   4   7
ENDBRANCH   2   3
ENDBRANCH   1   2
BRANCH   1  19
ATOM     19  C   UNL A   1      33.234  28.737  25.659  1.00  0.00     0.118 C 
BRANCH  19  20
ATOM     20  N   UNL A   1      32.725  30.054  26.019  1.00  0.00    -0.352 N 
ATOM     21  C   UNL A   1      33.218  30.972  26.916  1.00  0.00     0.251 C 
ATOM     22  H   UNL A   1      31.904  30.328  25.549  1.00  0.00     0.163 HD
ATOM     23  O   UNL A   1      32.560  31.966  27.207  1.00  0.00    -0.269 OA
BRANCH  21  24
ATOM     24  C   UNL A   1      34.534  30.751  27.549  1.00  0.00     0.039 A 
ATOM     25  C   UNL A   1      35.419  31.826  27.676  1.00  0.00     0.014 A 
ATOM     26  C   UNL A   1      34.895  29.485  28.016  1.00  0.00     0.014 A 
ATOM     27  C   UNL A   1      36.632  31.651  28.347  1.00  0.00     0.010 A 
ATOM     28  C   UNL A   1      36.066  29.329  28.748  1.00  0.00     0.010 A 
ATOM     29  C   UNL A   1      36.945  30.411  28.923  1.00  0.00    -0.014 A 
BRANCH  29  30
ATOM     30  C   UNL A   1      38.184  30.194  29.711  1.00  0.00     0.031 A 
ATOM     31  C   UNL A   1      39.236  29.256  29.192  1.00  0.00     0.074 A 
ATOM     32  C   UNL A   1      38.303  30.730  30.940  1.00  0.00     0.049 A 
ATOM     33  N   UNL A   1      40.282  28.760  29.801  1.00  0.00    -0.248 NA
ATOM     34  C   UNL A   1      39.060  28.783  27.811  1.00  0.00     0.031 C 
ATOM     35  C   UNL A   1      37.334  31.627  31.568  1.00  0.00     0.029 A 
ATOM     36  N   UNL A   1      39.276  30.565  31.896  1.00  0.00    -0.354 N 
ATOM     37  C   UNL A   1      40.867  27.890  28.892  1.00  0.00     0.074 A 
ATOM     38  C   UNL A   1      40.037  27.895  27.707  1.00  0.00     0.031 C 
ATOM     39  C   UNL A   1      37.755  31.928  32.807  1.00  0.00     0.029 A 
ATOM     40  C   UNL A   1      38.996  31.207  33.077  1.00  0.00     0.049 A 
ATOM     41  H   UNL A   1      40.093  30.038  31.748  1.00  0.00     0.167 HD
ATOM     42  C   UNL A   1      42.002  27.163  29.030  1.00  0.00     0.037 A 
ATOM     43  C   UNL A   1      39.649  31.192  34.255  1.00  0.00     0.037 A 
ATOM     44  C   UNL A   1      42.837  27.186  30.202  1.00  0.00     0.049 A 
ATOM     45  C   UNL A   1      40.909  30.381  34.389  1.00  0.00     0.074 A 
ATOM     46  C   UNL A   1      44.040  26.540  30.419  1.00  0.00     0.029 A 
ATOM     47  N   UNL A   1      42.546  27.894  31.361  1.00  0.00    -0.354 N 
ATOM     48  N   UNL A   1      41.487  29.603  33.506  1.00  0.00    -0.248 NA
ATOM     49  C   UNL A   1      41.610  30.449  35.679  1.00  0.00     0.031 C 
ATOM     50  C   UNL A   1      44.456  26.819  31.724  1.00  0.00     0.029 A 
ATOM     51  C   UNL A   1      43.540  27.684  32.303  1.00  0.00     0.049 A 
ATOM     52  H   UNL A   1      41.753  28.461  31.493  1.00  0.00     0.167 HD
ATOM     53  C   UNL A   1      42.632  29.113  34.120  1.00  0.00     0.074 A 
ATOM     54  C   UNL A   1      42.668  29.682  35.450  1.00  0.00     0.031 C 
ATOM     55  C   UNL A   1      43.569  28.271  33.620  1.00  0.00     0.037 A 
BRANCH  42  56
ATOM     56  C   UNL A   1      42.393  26.272  27.885  1.00  0.00     0.064 A 
ATOM     57  C   UNL A   1      43.314  26.682  26.909  1.00  0.00     0.173 A 
ATOM     58  C   UNL A   1      41.834  24.992  27.760  1.00  0.00     0.173 A 
ATOM     59  F   UNL A   1      43.869  27.902  26.976  1.00  0.00    -0.203 F 
ATOM     60  C   UNL A   1      43.626  25.864  25.828  1.00  0.00     0.198 A 
ATOM     61  C   UNL A   1      42.174  24.161  26.695  1.00  0.00     0.198 A 
ATOM     62  F   UNL A   1      40.954  24.545  28.669  1.00  0.00    -0.203 F 
ATOM     63  F   UNL A   1      44.454  26.305  24.872  1.00  0.00    -0.200 F 
ATOM     64  C   UNL A   1      43.059  24.603  25.724  1.00  0.00     0.200 A 
ATOM     65  F   UNL A   1      41.636  22.937  26.604  1.00  0.00    -0.200 F 
ATOM     66  F   UNL A   1      43.356  23.817  24.679  1.00  0.00    -0.200 F 
ENDBRANCH  42  56
BRANCH  43  67
ATOM     67  C   UNL A   1      39.117  31.982  35.393  1.00  0.00     0.064 A 
ATOM     68  C   UNL A   1      38.337  31.377  36.387  1.00  0.00     0.173 A 
ATOM     69  C   UNL A   1      39.412  33.347  35.534  1.00  0.00     0.173 A 
ATOM     70  F   UNL A   1      38.014  30.080  36.286  1.00  0.00    -0.203 F 
ATOM     71  C   UNL A   1      37.869  32.107  37.478  1.00  0.00     0.198 A 
ATOM     72  C   UNL A   1      38.964  34.070  36.639  1.00  0.00     0.198 A 
ATOM     73  F   UNL A   1      40.163  33.970  34.614  1.00  0.00    -0.203 F 
ATOM     74  F   UNL A   1      37.104  31.509  38.402  1.00  0.00    -0.200 F 
ATOM     75  C   UNL A   1      38.190  33.450  37.607  1.00  0.00     0.200 A 
ATOM     76  F   UNL A   1      39.292  35.363  36.768  1.00  0.00    -0.200 F 
ATOM     77  F   UNL A   1      37.754  34.146  38.665  1.00  0.00    -0.200 F 
ENDBRANCH  43  67
BRANCH  55  78
ATOM     78  C   UNL A   1      44.747  27.945  34.490  1.00  0.00     0.064 A 
ATOM     79  C   UNL A   1      45.875  28.775  34.546  1.00  0.00     0.173 A 
ATOM     80  C   UNL A   1      44.707  26.829  35.340  1.00  0.00     0.173 A 
ATOM     81  F   UNL A   1      45.967  29.845  33.742  1.00  0.00    -0.203 F 
ATOM     82  C   UNL A   1      46.925  28.495  35.416  1.00  0.00     0.198 A 
ATOM     83  C   UNL A   1      45.747  26.566  36.228  1.00  0.00     0.198 A 
ATOM     84  F   UNL A   1      43.647  26.007  35.327  1.00  0.00    -0.203 F 
ATOM     85  F   UNL A   1      48.008  29.285  35.435  1.00  0.00    -0.200 F 
ATOM     86  C   UNL A   1      46.856  27.398  36.263  1.00  0.00     0.200 A 
ATOM     87  F   UNL A   1      45.672  25.515  37.054  1.00  0.00    -0.200 F 
ATOM     88  F   UNL A   1      47.859  27.141  37.114  1.00  0.00    -0.200 F 
ENDBRANCH  55  78
ENDBRANCH  29  30
ENDBRANCH  21  24
ENDBRANCH  19  20
ENDBRANCH   1  19
TORSDOF 12
ENDMDL
