MODEL 1
REMARK VINA RESULT:     -13.4      0.000      0.000
REMARK SMILES Cc1ccc(-c2cnnc(-n3nc(C)c4c3NC(=O)C[C@@H]4c3ccc(C(=O)NCCCNC(=O)c4ccc(-c5c6nc(c(-c7c(F)c(F)c(F)c(F)c7F)c7ccc([nH]7)c(-c7c(F)c(F)c(F)c(F)c7F)c7nc(c(-c8c(F)c(F)c(F)c(F)c8F)c8ccc5[nH]8)C=C7)C=C6)cc4)cc3)n2)cc1
REMARK SMILES IDX 29 1 28 2 26 3 27 4 25 6 22 7 23 8 99 9 24 10 98 11 21 12
REMARK SMILES IDX 11 13 12 14 16 15 13 16 15 17 17 18 14 19 18 20 20 22 19 23
REMARK SMILES IDX 10 24 6 25 7 26 100 27 8 28 9 29 5 30 1 31 2 32 3 33 102 34
REMARK SMILES IDX 4 35 101 36 30 37 31 38 32 39 33 40 34 42 35 43 36 44 97 45
REMARK SMILES IDX 37 46 96 47 38 48 39 49 40 50 90 51 41 52 95 53 89 54 91 55
REMARK SMILES IDX 42 56 94 57 88 58 87 59 43 61 75 62 55 63 74 64 56 65 59 66
REMARK SMILES IDX 73 67 92 68 57 69 58 70 72 72 93 73 60 74 44 75 45 76 53 77
REMARK SMILES IDX 46 78 47 79 51 80 54 81 48 82 49 83 52 84 50 85 76 86 77 87
REMARK SMILES IDX 85 88 78 89 79 90 83 91 86 92 80 93 81 94 84 95 82 96 61 97
REMARK SMILES IDX 62 98 70 99 63 100 64 101 68 102 71 103 65 104 66 105 69 106
REMARK SMILES IDX 67 107
REMARK H PARENT 28 5 17 21 32 41 91 60 59 71
REMARK Flexibility Score: inf
ROOT
ATOM      1  C   UNL A   1      52.861  22.538  35.423  1.00  0.00     0.118 C 
ENDROOT
BRANCH   1   2
ATOM      2  N   UNL A   1      52.952  22.020  34.061  1.00  0.00    -0.352 N 
ATOM      3  C   UNL A   1      51.938  21.586  33.232  1.00  0.00     0.251 C 
ATOM      4  O   UNL A   1      52.138  21.403  32.037  1.00  0.00    -0.269 OA
ATOM      5  H   UNL A   1      53.860  21.974  33.683  1.00  0.00     0.163 HD
BRANCH   3   6
ATOM      6  C   UNL A   1      50.583  21.391  33.785  1.00  0.00     0.039 A 
ATOM      7  C   UNL A   1      48.174  21.081  35.179  1.00  0.00    -0.040 A 
ATOM      8  C   UNL A   1      48.570  22.343  34.687  1.00  0.00     0.005 A 
ATOM      9  C   UNL A   1      48.929  19.958  34.814  1.00  0.00     0.005 A 
ATOM     10  C   UNL A   1      49.769  22.501  33.994  1.00  0.00     0.014 A 
ATOM     11  C   UNL A   1      50.126  20.116  34.116  1.00  0.00     0.014 A 
BRANCH   7  12
ATOM     12  C   UNL A   1      46.972  21.033  36.097  1.00  0.00     0.064 C 
ATOM     13  N   UNL A   1      47.060  19.258  39.251  1.00  0.00    -0.180 N 
ATOM     14  N   UNL A   1      48.223  19.943  39.444  1.00  0.00    -0.168 NA
ATOM     15  C   UNL A   1      46.717  19.294  37.912  1.00  0.00     0.143 A 
ATOM     16  C   UNL A   1      48.344  20.715  38.360  1.00  0.00     0.066 A 
ATOM     17  C   UNL A   1      47.348  20.406  37.397  1.00  0.00     0.026 A 
ATOM     18  N   UNL A   1      45.884  18.515  37.134  1.00  0.00    -0.310 N 
ATOM     19  C   UNL A   1      49.465  21.687  38.304  1.00  0.00     0.069 C 
ATOM     20  C   UNL A   1      45.618  18.926  35.791  1.00  0.00     0.226 C 
ATOM     21  H   UNL A   1      45.481  17.693  37.495  1.00  0.00     0.171 HD
ATOM     22  C   UNL A   1      45.735  20.391  35.475  1.00  0.00     0.113 C 
ATOM     23  O   UNL A   1      45.162  18.074  35.030  1.00  0.00    -0.275 OA
BRANCH  13  24
ATOM     24  C   UNL A   1      46.233  18.881  40.349  1.00  0.00     0.272 A 
ATOM     25  C   UNL A   1      44.426  17.796  41.232  1.00  0.00     0.095 A 
ATOM     26  C   UNL A   1      44.429  18.687  42.292  1.00  0.00     0.164 A 
ATOM     27  N   UNL A   1      45.313  17.897  40.202  1.00  0.00    -0.208 NA
ATOM     28  N   UNL A   1      45.364  19.640  42.393  1.00  0.00    -0.153 NA
ATOM     29  N   UNL A   1      46.300  19.710  41.424  1.00  0.00    -0.109 NA
BRANCH  25  30
ATOM     30  C   UNL A   1      43.530  16.635  41.256  1.00  0.00     0.002 A 
ATOM     31  C   UNL A   1      41.341  12.898  41.195  1.00  0.00     0.044 C 
ATOM     32  C   UNL A   1      42.078  14.206  41.212  1.00  0.00    -0.051 A 
ATOM     33  C   UNL A   1      42.548  14.729  42.421  1.00  0.00     0.004 A 
ATOM     34  C   UNL A   1      42.310  14.915  40.030  1.00  0.00     0.004 A 
ATOM     35  C   UNL A   1      43.266  15.929  42.442  1.00  0.00     0.011 A 
ATOM     36  C   UNL A   1      43.022  16.117  40.054  1.00  0.00     0.011 A 
ENDBRANCH  25  30
ENDBRANCH  13  24
ENDBRANCH   7  12
ENDBRANCH   3   6
ENDBRANCH   1   2
BRANCH   1  37
ATOM     37  C   UNL A   1      52.753  24.060  35.489  1.00  0.00     0.042 C 
BRANCH  37  38
ATOM     38  C   UNL A   1      52.851  24.744  34.132  1.00  0.00     0.118 C 
BRANCH  38  39
ATOM     39  N   UNL A   1      54.173  25.286  33.833  1.00  0.00    -0.352 N 
ATOM     40  C   UNL A   1      54.586  26.039  32.748  1.00  0.00     0.251 C 
ATOM     41  H   UNL A   1      54.870  25.087  34.498  1.00  0.00     0.163 HD
ATOM     42  O   UNL A   1      55.759  26.385  32.652  1.00  0.00    -0.269 OA
BRANCH  40  43
ATOM     43  C   UNL A   1      53.581  26.545  31.785  1.00  0.00     0.039 A 
ATOM     44  C   UNL A   1      52.995  27.791  32.038  1.00  0.00     0.014 A 
ATOM     45  C   UNL A   1      53.068  25.719  30.790  1.00  0.00     0.014 A 
ATOM     46  C   UNL A   1      51.753  28.086  31.482  1.00  0.00     0.010 A 
ATOM     47  C   UNL A   1      51.790  25.951  30.333  1.00  0.00     0.010 A 
ATOM     48  C   UNL A   1      51.110  27.104  30.731  1.00  0.00    -0.014 A 
BRANCH  48  49
ATOM     49  C   UNL A   1      49.696  27.147  30.397  1.00  0.00     0.031 A 
ATOM     50  C   UNL A   1      48.713  26.425  31.224  1.00  0.00     0.074 A 
ATOM     51  C   UNL A   1      49.280  27.952  29.393  1.00  0.00     0.049 A 
ATOM     52  N   UNL A   1      47.567  26.026  30.787  1.00  0.00    -0.248 NA
ATOM     53  C   UNL A   1      48.956  26.071  32.619  1.00  0.00     0.031 C 
ATOM     54  C   UNL A   1      47.909  28.350  29.088  1.00  0.00     0.029 A 
ATOM     55  N   UNL A   1      50.034  28.442  28.311  1.00  0.00    -0.354 N 
ATOM     56  C   UNL A   1      46.827  25.631  31.876  1.00  0.00     0.074 A 
ATOM     57  C   UNL A   1      47.754  25.614  32.985  1.00  0.00     0.031 C 
ATOM     58  C   UNL A   1      47.846  28.733  27.803  1.00  0.00     0.029 A 
ATOM     59  C   UNL A   1      49.143  28.458  27.212  1.00  0.00     0.049 A 
ATOM     60  H   UNL A   1      50.979  28.714  28.318  1.00  0.00     0.167 HD
ATOM     61  C   UNL A   1      45.477  25.499  31.757  1.00  0.00     0.037 A 
ATOM     62  C   UNL A   1      49.352  27.677  26.113  1.00  0.00     0.037 A 
ATOM     63  C   UNL A   1      45.027  25.797  30.405  1.00  0.00     0.049 A 
ATOM     64  C   UNL A   1      48.222  26.716  25.830  1.00  0.00     0.074 A 
ATOM     65  C   UNL A   1      44.515  26.948  29.825  1.00  0.00     0.029 A 
ATOM     66  N   UNL A   1      45.401  24.962  29.356  1.00  0.00    -0.354 N 
ATOM     67  N   UNL A   1      47.356  26.335  26.726  1.00  0.00    -0.248 NA
ATOM     68  C   UNL A   1      47.986  26.102  24.527  1.00  0.00     0.031 C 
ATOM     69  C   UNL A   1      44.615  26.816  28.420  1.00  0.00     0.029 A 
ATOM     70  C   UNL A   1      45.169  25.580  28.143  1.00  0.00     0.049 A 
ATOM     71  H   UNL A   1      45.776  24.059  29.465  1.00  0.00     0.167 HD
ATOM     72  C   UNL A   1      46.464  25.458  26.160  1.00  0.00     0.074 A 
ATOM     73  C   UNL A   1      46.897  25.354  24.779  1.00  0.00     0.031 C 
ATOM     74  C   UNL A   1      45.447  24.903  26.886  1.00  0.00     0.037 A 
BRANCH  61  75
ATOM     75  C   UNL A   1      44.572  25.406  32.958  1.00  0.00     0.064 A 
ATOM     76  C   UNL A   1      44.332  24.175  33.602  1.00  0.00     0.173 A 
ATOM     77  C   UNL A   1      43.869  26.506  33.482  1.00  0.00     0.173 A 
ATOM     78  F   UNL A   1      44.990  23.062  33.257  1.00  0.00    -0.203 F 
ATOM     79  C   UNL A   1      43.383  24.037  34.618  1.00  0.00     0.198 A 
ATOM     80  C   UNL A   1      42.883  26.359  34.461  1.00  0.00     0.198 A 
ATOM     81  F   UNL A   1      44.132  27.752  33.063  1.00  0.00    -0.203 F 
ATOM     82  F   UNL A   1      43.185  22.837  35.182  1.00  0.00    -0.200 F 
ATOM     83  C   UNL A   1      42.632  25.121  35.022  1.00  0.00     0.200 A 
ATOM     84  F   UNL A   1      42.165  27.423  34.850  1.00  0.00    -0.200 F 
ATOM     85  F   UNL A   1      41.681  24.976  35.954  1.00  0.00    -0.200 F 
ENDBRANCH  61  75
BRANCH  62  86
ATOM     86  C   UNL A   1      50.793  27.425  25.849  1.00  0.00     0.064 A 
ATOM     87  C   UNL A   1      51.314  26.162  26.196  1.00  0.00     0.173 A 
ATOM     88  C   UNL A   1      51.515  28.192  24.929  1.00  0.00     0.173 A 
ATOM     89  F   UNL A   1      50.658  25.385  27.072  1.00  0.00    -0.203 F 
ATOM     90  C   UNL A   1      52.427  25.635  25.546  1.00  0.00     0.198 A 
ATOM     91  C   UNL A   1      52.643  27.667  24.294  1.00  0.00     0.198 A 
ATOM     92  F   UNL A   1      51.063  29.394  24.545  1.00  0.00    -0.203 F 
ATOM     93  F   UNL A   1      52.816  24.377  25.800  1.00  0.00    -0.200 F 
ATOM     94  C   UNL A   1      53.073  26.376  24.573  1.00  0.00     0.200 A 
ATOM     95  F   UNL A   1      53.258  28.374  23.334  1.00  0.00    -0.200 F 
ATOM     96  F   UNL A   1      54.077  25.832  23.871  1.00  0.00    -0.200 F 
ENDBRANCH  62  86
BRANCH  74  97
ATOM     97  C   UNL A   1      44.540  23.764  26.473  1.00  0.00     0.064 A 
ATOM     98  C   UNL A   1      44.992  22.500  26.062  1.00  0.00     0.173 A 
ATOM     99  C   UNL A   1      43.133  23.877  26.630  1.00  0.00     0.173 A 
ATOM    100  F   UNL A   1      46.298  22.215  25.985  1.00  0.00    -0.203 F 
ATOM    101  C   UNL A   1      44.110  21.453  25.776  1.00  0.00     0.198 A 
ATOM    102  C   UNL A   1      42.262  22.814  26.405  1.00  0.00     0.198 A 
ATOM    103  F   UNL A   1      42.556  25.018  27.036  1.00  0.00    -0.203 F 
ATOM    104  F   UNL A   1      44.593  20.279  25.347  1.00  0.00    -0.200 F 
ATOM    105  C   UNL A   1      42.749  21.604  25.961  1.00  0.00     0.200 A 
ATOM    106  F   UNL A   1      40.951  22.965  26.644  1.00  0.00    -0.200 F 
ATOM    107  F   UNL A   1      41.913  20.582  25.737  1.00  0.00    -0.200 F 
ENDBRANCH  74  97
ENDBRANCH  48  49
ENDBRANCH  40  43
ENDBRANCH  38  39
ENDBRANCH  37  38
ENDBRANCH   1  37
TORSDOF 13
ENDMDL
MODEL 2
REMARK VINA RESULT:     -13.2      6.630     12.442
REMARK SMILES Cc1ccc(-c2cnnc(-n3nc(C)c4c3NC(=O)C[C@@H]4c3ccc(C(=O)NCCCNC(=O)c4ccc(-c5c6nc(c(-c7c(F)c(F)c(F)c(F)c7F)c7ccc([nH]7)c(-c7c(F)c(F)c(F)c(F)c7F)c7nc(c(-c8c(F)c(F)c(F)c(F)c8F)c8ccc5[nH]8)C=C7)C=C6)cc4)cc3)n2)cc1
REMARK SMILES IDX 29 1 28 2 26 3 27 4 25 6 22 7 23 8 99 9 24 10 98 11 21 12
REMARK SMILES IDX 11 13 12 14 16 15 13 16 15 17 17 18 14 19 18 20 20 22 19 23
REMARK SMILES IDX 10 24 6 25 7 26 100 27 8 28 9 29 5 30 1 31 2 32 3 33 102 34
REMARK SMILES IDX 4 35 101 36 30 37 31 38 32 39 33 40 34 42 35 43 36 44 97 45
REMARK SMILES IDX 37 46 96 47 38 48 39 49 40 50 90 51 41 52 95 53 89 54 91 55
REMARK SMILES IDX 42 56 94 57 88 58 87 59 43 61 75 62 55 63 74 64 56 65 59 66
REMARK SMILES IDX 73 67 92 68 57 69 58 70 72 72 93 73 60 74 44 75 45 76 53 77
REMARK SMILES IDX 46 78 47 79 51 80 54 81 48 82 49 83 52 84 50 85 76 86 77 87
REMARK SMILES IDX 85 88 78 89 79 90 83 91 86 92 80 93 81 94 84 95 82 96 61 97
REMARK SMILES IDX 62 98 70 99 63 100 64 101 68 102 71 103 65 104 66 105 69 106
REMARK SMILES IDX 67 107
REMARK H PARENT 28 5 17 21 32 41 91 60 59 71
REMARK Flexibility Score: inf
ROOT
ATOM      1  C   UNL A   1      35.382  33.282  29.618  1.00  0.00     0.118 C 
ENDROOT
BRANCH   1   2
ATOM      2  N   UNL A   1      34.143  33.878  30.110  1.00  0.00    -0.352 N 
ATOM      3  C   UNL A   1      33.872  34.405  31.356  1.00  0.00     0.251 C 
ATOM      4  O   UNL A   1      32.869  35.082  31.548  1.00  0.00    -0.269 OA
ATOM      5  H   UNL A   1      33.400  33.909  29.464  1.00  0.00     0.163 HD
BRANCH   3   6
ATOM      6  C   UNL A   1      34.831  34.190  32.457  1.00  0.00     0.039 A 
ATOM      7  C   UNL A   1      36.887  33.641  34.277  1.00  0.00    -0.040 A 
ATOM      8  C   UNL A   1      36.795  34.899  33.646  1.00  0.00     0.005 A 
ATOM      9  C   UNL A   1      35.838  32.730  34.101  1.00  0.00     0.005 A 
ATOM     10  C   UNL A   1      35.773  35.175  32.738  1.00  0.00     0.014 A 
ATOM     11  C   UNL A   1      34.813  33.008  33.196  1.00  0.00     0.014 A 
BRANCH   7  12
ATOM     12  C   UNL A   1      38.136  33.352  35.081  1.00  0.00     0.064 C 
ATOM     13  N   UNL A   1      39.974  30.257  34.687  1.00  0.00    -0.180 N 
ATOM     14  N   UNL A   1      39.893  30.542  33.357  1.00  0.00    -0.168 NA
ATOM     15  C   UNL A   1      39.048  31.014  35.381  1.00  0.00     0.143 A 
ATOM     16  C   UNL A   1      39.259  31.716  33.300  1.00  0.00     0.066 A 
ATOM     17  C   UNL A   1      38.787  32.106  34.581  1.00  0.00     0.026 A 
ATOM     18  N   UNL A   1      38.474  30.884  36.630  1.00  0.00    -0.310 N 
ATOM     19  C   UNL A   1      39.105  32.376  31.979  1.00  0.00     0.069 C 
ATOM     20  C   UNL A   1      37.657  31.948  37.122  1.00  0.00     0.226 C 
ATOM     21  H   UNL A   1      38.623  30.075  37.171  1.00  0.00     0.171 HD
ATOM     22  C   UNL A   1      37.918  33.330  36.592  1.00  0.00     0.113 C 
ATOM     23  O   UNL A   1      36.905  31.682  38.059  1.00  0.00    -0.275 OA
BRANCH  13  24
ATOM     24  C   UNL A   1      41.080  29.534  35.223  1.00  0.00     0.272 A 
ATOM     25  C   UNL A   1      42.193  27.587  35.659  1.00  0.00     0.095 A 
ATOM     26  C   UNL A   1      42.836  28.211  36.716  1.00  0.00     0.164 A 
ATOM     27  N   UNL A   1      41.259  28.229  34.903  1.00  0.00    -0.208 NA
ATOM     28  N   UNL A   1      42.627  29.505  36.986  1.00  0.00    -0.153 NA
ATOM     29  N   UNL A   1      41.763  30.182  36.202  1.00  0.00    -0.109 NA
BRANCH  25  30
ATOM     30  C   UNL A   1      42.599  26.238  35.251  1.00  0.00     0.002 A 
ATOM     31  C   UNL A   1      44.065  22.223  34.549  1.00  0.00     0.044 C 
ATOM     32  C   UNL A   1      43.555  23.618  34.767  1.00  0.00    -0.051 A 
ATOM     33  C   UNL A   1      42.260  23.822  35.255  1.00  0.00     0.004 A 
ATOM     34  C   UNL A   1      44.359  24.728  34.494  1.00  0.00     0.004 A 
ATOM     35  C   UNL A   1      41.788  25.116  35.495  1.00  0.00     0.011 A 
ATOM     36  C   UNL A   1      43.884  26.022  34.729  1.00  0.00     0.011 A 
ENDBRANCH  25  30
ENDBRANCH  13  24
ENDBRANCH   7  12
ENDBRANCH   3   6
ENDBRANCH   1   2
BRANCH   1  37
ATOM     37  C   UNL A   1      35.325  32.892  28.143  1.00  0.00     0.042 C 
BRANCH  37  38
ATOM     38  C   UNL A   1      35.403  31.391  27.898  1.00  0.00     0.118 C 
BRANCH  38  39
ATOM     39  N   UNL A   1      35.477  30.592  29.117  1.00  0.00    -0.352 N 
ATOM     40  C   UNL A   1      36.533  29.850  29.615  1.00  0.00     0.251 C 
ATOM     41  H   UNL A   1      34.658  30.578  29.662  1.00  0.00     0.163 HD
ATOM     42  O   UNL A   1      36.398  29.211  30.654  1.00  0.00    -0.269 OA
BRANCH  40  43
ATOM     43  C   UNL A   1      37.862  29.947  28.970  1.00  0.00     0.039 A 
ATOM     44  C   UNL A   1      37.976  29.543  27.634  1.00  0.00     0.014 A 
ATOM     45  C   UNL A   1      39.003  30.213  29.721  1.00  0.00     0.014 A 
ATOM     46  C   UNL A   1      39.220  29.155  27.143  1.00  0.00     0.010 A 
ATOM     47  C   UNL A   1      40.211  29.721  29.283  1.00  0.00     0.010 A 
ATOM     48  C   UNL A   1      40.305  29.134  28.019  1.00  0.00    -0.014 A 
BRANCH  48  49
ATOM     49  C   UNL A   1      41.548  28.435  27.740  1.00  0.00     0.031 A 
ATOM     50  C   UNL A   1      41.631  26.972  27.896  1.00  0.00     0.074 A 
ATOM     51  C   UNL A   1      42.590  29.124  27.223  1.00  0.00     0.049 A 
ATOM     52  N   UNL A   1      42.731  26.338  28.120  1.00  0.00    -0.248 NA
ATOM     53  C   UNL A   1      40.462  26.099  27.833  1.00  0.00     0.031 C 
ATOM     54  C   UNL A   1      43.802  28.576  26.620  1.00  0.00     0.029 A 
ATOM     55  N   UNL A   1      42.837  30.506  27.305  1.00  0.00    -0.354 N 
ATOM     56  C   UNL A   1      42.474  24.998  27.952  1.00  0.00     0.074 A 
ATOM     57  C   UNL A   1      41.037  24.893  27.840  1.00  0.00     0.031 C 
ATOM     58  C   UNL A   1      44.767  29.508  26.665  1.00  0.00     0.029 A 
ATOM     59  C   UNL A   1      44.241  30.628  27.423  1.00  0.00     0.049 A 
ATOM     60  H   UNL A   1      42.173  31.233  27.285  1.00  0.00     0.167 HD
ATOM     61  C   UNL A   1      43.512  24.133  27.780  1.00  0.00     0.037 A 
ATOM     62  C   UNL A   1      44.820  31.156  28.541  1.00  0.00     0.037 A 
ATOM     63  C   UNL A   1      44.796  24.820  27.830  1.00  0.00     0.049 A 
ATOM     64  C   UNL A   1      45.771  30.210  29.234  1.00  0.00     0.074 A 
ATOM     65  C   UNL A   1      45.628  25.313  26.837  1.00  0.00     0.029 A 
ATOM     66  N   UNL A   1      45.218  25.402  29.021  1.00  0.00    -0.354 N 
ATOM     67  N   UNL A   1      45.740  28.916  29.085  1.00  0.00    -0.248 NA
ATOM     68  C   UNL A   1      46.817  30.642  30.155  1.00  0.00     0.031 C 
ATOM     69  C   UNL A   1      46.533  26.223  27.431  1.00  0.00     0.029 A 
ATOM     70  C   UNL A   1      46.265  26.271  28.787  1.00  0.00     0.049 A 
ATOM     71  H   UNL A   1      44.825  25.219  29.905  1.00  0.00     0.167 HD
ATOM     72  C   UNL A   1      46.724  28.342  29.850  1.00  0.00     0.074 A 
ATOM     73  C   UNL A   1      47.376  29.466  30.493  1.00  0.00     0.031 C 
ATOM     74  C   UNL A   1      46.910  26.988  29.877  1.00  0.00     0.037 A 
BRANCH  61  75
ATOM     75  C   UNL A   1      43.312  22.734  27.260  1.00  0.00     0.064 A 
ATOM     76  C   UNL A   1      43.968  22.283  26.095  1.00  0.00     0.173 A 
ATOM     77  C   UNL A   1      42.434  21.809  27.850  1.00  0.00     0.173 A 
ATOM     78  F   UNL A   1      44.888  23.031  25.473  1.00  0.00    -0.203 F 
ATOM     79  C   UNL A   1      43.684  21.048  25.510  1.00  0.00     0.198 A 
ATOM     80  C   UNL A   1      42.110  20.595  27.237  1.00  0.00     0.198 A 
ATOM     81  F   UNL A   1      41.876  22.057  29.044  1.00  0.00    -0.203 F 
ATOM     82  F   UNL A   1      44.327  20.679  24.392  1.00  0.00    -0.200 F 
ATOM     83  C   UNL A   1      42.729  20.219  26.060  1.00  0.00     0.200 A 
ATOM     84  F   UNL A   1      41.184  19.796  27.787  1.00  0.00    -0.200 F 
ATOM     85  F   UNL A   1      42.414  19.060  25.466  1.00  0.00    -0.200 F 
ENDBRANCH  61  75
BRANCH  62  86
ATOM     86  C   UNL A   1      43.964  32.172  29.209  1.00  0.00     0.064 A 
ATOM     87  C   UNL A   1      43.294  31.794  30.390  1.00  0.00     0.173 A 
ATOM     88  C   UNL A   1      44.126  33.540  28.967  1.00  0.00     0.173 A 
ATOM     89  F   UNL A   1      43.116  30.493  30.671  1.00  0.00    -0.203 F 
ATOM     90  C   UNL A   1      42.931  32.736  31.350  1.00  0.00     0.198 A 
ATOM     91  C   UNL A   1      43.741  34.483  29.924  1.00  0.00     0.198 A 
ATOM     92  F   UNL A   1      44.770  33.965  27.870  1.00  0.00    -0.203 F 
ATOM     93  F   UNL A   1      42.420  32.332  32.523  1.00  0.00    -0.200 F 
ATOM     94  C   UNL A   1      43.182  34.078  31.129  1.00  0.00     0.200 A 
ATOM     95  F   UNL A   1      44.004  35.783  29.723  1.00  0.00    -0.200 F 
ATOM     96  F   UNL A   1      42.932  34.975  32.093  1.00  0.00    -0.200 F 
ENDBRANCH  62  86
BRANCH  74  97
ATOM     97  C   UNL A   1      47.784  26.200  30.829  1.00  0.00     0.064 A 
ATOM     98  C   UNL A   1      49.085  25.763  30.534  1.00  0.00     0.173 A 
ATOM     99  C   UNL A   1      47.369  25.987  32.170  1.00  0.00     0.173 A 
ATOM    100  F   UNL A   1      49.650  26.003  29.344  1.00  0.00    -0.203 F 
ATOM    101  C   UNL A   1      49.884  25.116  31.482  1.00  0.00     0.198 A 
ATOM    102  C   UNL A   1      48.190  25.399  33.130  1.00  0.00     0.198 A 
ATOM    103  F   UNL A   1      46.159  26.370  32.606  1.00  0.00    -0.203 F 
ATOM    104  F   UNL A   1      51.103  24.681  31.135  1.00  0.00    -0.200 F 
ATOM    105  C   UNL A   1      49.444  24.946  32.782  1.00  0.00     0.200 A 
ATOM    106  F   UNL A   1      47.766  25.295  34.397  1.00  0.00    -0.200 F 
ATOM    107  F   UNL A   1      50.233  24.374  33.699  1.00  0.00    -0.200 F 
ENDBRANCH  74  97
ENDBRANCH  48  49
ENDBRANCH  40  43
ENDBRANCH  38  39
ENDBRANCH  37  38
ENDBRANCH   1  37
TORSDOF 13
ENDMDL
MODEL 3
REMARK VINA RESULT:     -13.1     12.231     20.041
REMARK SMILES Cc1ccc(-c2cnnc(-n3nc(C)c4c3NC(=O)C[C@@H]4c3ccc(C(=O)NCCCNC(=O)c4ccc(-c5c6nc(c(-c7c(F)c(F)c(F)c(F)c7F)c7ccc([nH]7)c(-c7c(F)c(F)c(F)c(F)c7F)c7nc(c(-c8c(F)c(F)c(F)c(F)c8F)c8ccc5[nH]8)C=C7)C=C6)cc4)cc3)n2)cc1
REMARK SMILES IDX 29 1 28 2 26 3 27 4 25 6 22 7 23 8 99 9 24 10 98 11 21 12
REMARK SMILES IDX 11 13 12 14 16 15 13 16 15 17 17 18 14 19 18 20 20 22 19 23
REMARK SMILES IDX 10 24 6 25 7 26 100 27 8 28 9 29 5 30 1 31 2 32 3 33 102 34
REMARK SMILES IDX 4 35 101 36 30 37 31 38 32 39 33 40 34 42 35 43 36 44 97 45
REMARK SMILES IDX 37 46 96 47 38 48 39 49 40 50 90 51 41 52 95 53 89 54 91 55
REMARK SMILES IDX 42 56 94 57 88 58 87 59 43 61 75 62 55 63 74 64 56 65 59 66
REMARK SMILES IDX 73 67 92 68 57 69 58 70 72 72 93 73 60 74 44 75 45 76 53 77
REMARK SMILES IDX 46 78 47 79 51 80 54 81 48 82 49 83 52 84 50 85 76 86 77 87
REMARK SMILES IDX 85 88 78 89 79 90 83 91 86 92 80 93 81 94 84 95 82 96 61 97
REMARK SMILES IDX 62 98 70 99 63 100 64 101 68 102 71 103 65 104 66 105 69 106
REMARK SMILES IDX 67 107
REMARK H PARENT 28 5 17 21 32 41 91 60 59 71
REMARK Flexibility Score: inf
ROOT
ATOM      1  C   UNL A   1      45.382  41.924  32.981  1.00  0.00     0.118 C 
ENDROOT
BRANCH   1   2
ATOM      2  N   UNL A   1      44.088  42.049  33.644  1.00  0.00    -0.352 N 
ATOM      3  C   UNL A   1      42.856  41.585  33.230  1.00  0.00     0.251 C 
ATOM      4  O   UNL A   1      41.903  41.557  34.001  1.00  0.00    -0.269 OA
ATOM      5  H   UNL A   1      44.094  42.529  34.503  1.00  0.00     0.163 HD
BRANCH   3   6
ATOM      6  C   UNL A   1      42.700  41.069  31.856  1.00  0.00     0.039 A 
ATOM      7  C   UNL A   1      42.715  40.303  29.162  1.00  0.00    -0.040 A 
ATOM      8  C   UNL A   1      43.408  39.551  30.133  1.00  0.00     0.005 A 
ATOM      9  C   UNL A   1      41.885  41.346  29.596  1.00  0.00     0.005 A 
ATOM     10  C   UNL A   1      43.404  39.930  31.475  1.00  0.00     0.014 A 
ATOM     11  C   UNL A   1      41.878  41.721  30.939  1.00  0.00     0.014 A 
BRANCH   7  12
ATOM     12  C   UNL A   1      42.941  39.948  27.709  1.00  0.00     0.064 C 
ATOM     13  N   UNL A   1      44.585  42.231  25.430  1.00  0.00    -0.180 N 
ATOM     14  N   UNL A   1      45.522  42.320  26.416  1.00  0.00    -0.168 NA
ATOM     15  C   UNL A   1      43.420  41.691  25.943  1.00  0.00     0.143 A 
ATOM     16  C   UNL A   1      45.094  41.482  27.365  1.00  0.00     0.066 A 
ATOM     17  C   UNL A   1      43.802  40.979  27.060  1.00  0.00     0.026 A 
ATOM     18  N   UNL A   1      42.108  41.703  25.512  1.00  0.00    -0.310 N 
ATOM     19  C   UNL A   1      45.959  41.252  28.549  1.00  0.00     0.069 C 
ATOM     20  C   UNL A   1      41.153  40.895  26.202  1.00  0.00     0.226 C 
ATOM     21  H   UNL A   1      41.836  42.257  24.746  1.00  0.00     0.171 HD
ATOM     22  C   UNL A   1      41.661  39.678  26.923  1.00  0.00     0.113 C 
ATOM     23  O   UNL A   1      39.966  41.167  26.026  1.00  0.00    -0.275 OA
BRANCH  13  24
ATOM     24  C   UNL A   1      44.939  42.383  24.057  1.00  0.00     0.272 A 
ATOM     25  C   UNL A   1      44.402  42.734  21.864  1.00  0.00     0.095 A 
ATOM     26  C   UNL A   1      45.570  42.088  21.493  1.00  0.00     0.164 A 
ATOM     27  N   UNL A   1      44.034  42.863  23.170  1.00  0.00    -0.208 NA
ATOM     28  N   UNL A   1      46.434  41.637  22.410  1.00  0.00    -0.153 NA
ATOM     29  N   UNL A   1      46.128  41.823  23.710  1.00  0.00    -0.109 NA
BRANCH  25  30
ATOM     30  C   UNL A   1      43.584  43.406  20.849  1.00  0.00     0.002 A 
ATOM     31  C   UNL A   1      41.377  45.010  17.485  1.00  0.00     0.044 C 
ATOM     32  C   UNL A   1      42.141  44.477  18.662  1.00  0.00    -0.051 A 
ATOM     33  C   UNL A   1      41.530  43.578  19.544  1.00  0.00     0.004 A 
ATOM     34  C   UNL A   1      43.464  44.860  18.894  1.00  0.00     0.004 A 
ATOM     35  C   UNL A   1      42.244  43.049  20.624  1.00  0.00     0.011 A 
ATOM     36  C   UNL A   1      44.175  44.335  19.978  1.00  0.00     0.011 A 
ENDBRANCH  25  30
ENDBRANCH  13  24
ENDBRANCH   7  12
ENDBRANCH   3   6
ENDBRANCH   1   2
BRANCH   1  37
ATOM     37  C   UNL A   1      46.337  40.963  33.687  1.00  0.00     0.042 C 
BRANCH  37  38
ATOM     38  C   UNL A   1      45.656  40.045  34.692  1.00  0.00     0.118 C 
BRANCH  38  39
ATOM     39  N   UNL A   1      46.020  40.308  36.081  1.00  0.00    -0.352 N 
ATOM     40  C   UNL A   1      45.681  39.605  37.224  1.00  0.00     0.251 C 
ATOM     41  H   UNL A   1      46.587  41.099  36.226  1.00  0.00     0.163 HD
ATOM     42  O   UNL A   1      46.062  39.998  38.322  1.00  0.00    -0.269 OA
BRANCH  40  43
ATOM     43  C   UNL A   1      44.985  38.304  37.101  1.00  0.00     0.039 A 
ATOM     44  C   UNL A   1      45.757  37.166  36.840  1.00  0.00     0.014 A 
ATOM     45  C   UNL A   1      43.597  38.242  37.020  1.00  0.00     0.014 A 
ATOM     46  C   UNL A   1      45.159  36.056  36.248  1.00  0.00     0.010 A 
ATOM     47  C   UNL A   1      43.022  37.200  36.328  1.00  0.00     0.010 A 
ATOM     48  C   UNL A   1      43.815  36.138  35.887  1.00  0.00    -0.014 A 
BRANCH  48  49
ATOM     49  C   UNL A   1      43.172  35.212  34.969  1.00  0.00     0.031 A 
ATOM     50  C   UNL A   1      43.146  35.496  33.523  1.00  0.00     0.074 A 
ATOM     51  C   UNL A   1      42.706  34.034  35.440  1.00  0.00     0.049 A 
ATOM     52  N   UNL A   1      42.257  35.022  32.718  1.00  0.00    -0.248 NA
ATOM     53  C   UNL A   1      44.118  36.364  32.866  1.00  0.00     0.031 C 
ATOM     54  C   UNL A   1      42.293  32.870  34.660  1.00  0.00     0.029 A 
ATOM     55  N   UNL A   1      42.339  33.716  36.760  1.00  0.00    -0.354 N 
ATOM     56  C   UNL A   1      42.686  35.277  31.437  1.00  0.00     0.074 A 
ATOM     57  C   UNL A   1      43.813  36.171  31.579  1.00  0.00     0.031 C 
ATOM     58  C   UNL A   1      41.475  32.115  35.411  1.00  0.00     0.029 A 
ATOM     59  C   UNL A   1      41.231  32.846  36.641  1.00  0.00     0.049 A 
ATOM     60  H   UNL A   1      42.764  34.033  37.590  1.00  0.00     0.167 HD
ATOM     61  C   UNL A   1      42.135  34.592  30.397  1.00  0.00     0.037 A 
ATOM     62  C   UNL A   1      39.997  33.193  37.111  1.00  0.00     0.037 A 
ATOM     63  C   UNL A   1      41.107  33.665  30.851  1.00  0.00     0.049 A 
ATOM     64  C   UNL A   1      38.926  33.208  36.048  1.00  0.00     0.074 A 
ATOM     65  C   UNL A   1      41.136  32.311  31.143  1.00  0.00     0.029 A 
ATOM     66  N   UNL A   1      39.931  34.161  31.406  1.00  0.00    -0.354 N 
ATOM     67  N   UNL A   1      39.174  33.319  34.773  1.00  0.00    -0.248 NA
ATOM     68  C   UNL A   1      37.498  33.113  36.334  1.00  0.00     0.031 C 
ATOM     69  C   UNL A   1      39.988  31.999  31.908  1.00  0.00     0.029 A 
ATOM     70  C   UNL A   1      39.250  33.158  32.066  1.00  0.00     0.049 A 
ATOM     71  H   UNL A   1      39.628  35.096  31.337  1.00  0.00     0.167 HD
ATOM     72  C   UNL A   1      37.994  33.307  34.073  1.00  0.00     0.074 A 
ATOM     73  C   UNL A   1      36.975  33.167  35.096  1.00  0.00     0.031 C 
ATOM     74  C   UNL A   1      37.970  33.411  32.710  1.00  0.00     0.037 A 
BRANCH  61  75
ATOM     75  C   UNL A   1      42.769  34.561  29.031  1.00  0.00     0.064 A 
ATOM     76  C   UNL A   1      42.502  35.564  28.076  1.00  0.00     0.173 A 
ATOM     77  C   UNL A   1      43.613  33.525  28.595  1.00  0.00     0.173 A 
ATOM     78  F   UNL A   1      41.777  36.647  28.378  1.00  0.00    -0.203 F 
ATOM     79  C   UNL A   1      42.956  35.478  26.757  1.00  0.00     0.198 A 
ATOM     80  C   UNL A   1      44.024  33.412  27.263  1.00  0.00     0.198 A 
ATOM     81  F   UNL A   1      44.070  32.603  29.455  1.00  0.00    -0.203 F 
ATOM     82  F   UNL A   1      42.656  36.453  25.888  1.00  0.00    -0.200 F 
ATOM     83  C   UNL A   1      43.685  34.384  26.342  1.00  0.00     0.200 A 
ATOM     84  F   UNL A   1      44.739  32.346  26.875  1.00  0.00    -0.200 F 
ATOM     85  F   UNL A   1      44.070  34.273  25.063  1.00  0.00    -0.200 F 
ENDBRANCH  61  75
BRANCH  62  86
ATOM     86  C   UNL A   1      40.063  34.094  38.292  1.00  0.00     0.064 A 
ATOM     87  C   UNL A   1      39.778  35.460  38.093  1.00  0.00     0.173 A 
ATOM     88  C   UNL A   1      39.979  33.600  39.598  1.00  0.00     0.173 A 
ATOM     89  F   UNL A   1      39.841  35.984  36.858  1.00  0.00    -0.203 F 
ATOM     90  C   UNL A   1      39.295  36.258  39.128  1.00  0.00     0.198 A 
ATOM     91  C   UNL A   1      39.514  34.410  40.637  1.00  0.00     0.198 A 
ATOM     92  F   UNL A   1      40.221  32.306  39.851  1.00  0.00    -0.203 F 
ATOM     93  F   UNL A   1      38.903  37.515  38.876  1.00  0.00    -0.200 F 
ATOM     94  C   UNL A   1      39.134  35.723  40.393  1.00  0.00     0.200 A 
ATOM     95  F   UNL A   1      39.335  33.888  41.860  1.00  0.00    -0.200 F 
ATOM     96  F   UNL A   1      38.571  36.455  41.364  1.00  0.00    -0.200 F 
ENDBRANCH  62  86
BRANCH  74  97
ATOM     97  C   UNL A   1      36.762  33.642  31.828  1.00  0.00     0.064 A 
ATOM     98  C   UNL A   1      36.354  32.777  30.800  1.00  0.00     0.173 A 
ATOM     99  C   UNL A   1      35.867  34.709  32.107  1.00  0.00     0.173 A 
ATOM    100  F   UNL A   1      37.040  31.666  30.508  1.00  0.00    -0.203 F 
ATOM    101  C   UNL A   1      35.179  32.992  30.073  1.00  0.00     0.198 A 
ATOM    102  C   UNL A   1      34.665  34.883  31.423  1.00  0.00     0.198 A 
ATOM    103  F   UNL A   1      36.112  35.603  33.076  1.00  0.00    -0.203 F 
ATOM    104  F   UNL A   1      34.857  32.159  29.073  1.00  0.00    -0.200 F 
ATOM    105  C   UNL A   1      34.328  34.034  30.392  1.00  0.00     0.200 A 
ATOM    106  F   UNL A   1      33.829  35.866  31.786  1.00  0.00    -0.200 F 
ATOM    107  F   UNL A   1      33.178  34.203  29.728  1.00  0.00    -0.200 F 
ENDBRANCH  74  97
ENDBRANCH  48  49
ENDBRANCH  40  43
ENDBRANCH  38  39
ENDBRANCH  37  38
ENDBRANCH   1  37
TORSDOF 13
ENDMDL
