MODEL 1
REMARK VINA RESULT:     -10.4      0.000      0.000
REMARK SMILES COC[C@H](C)[C@H](CC(C)C)C(=O)NCCCNC(=O)c1ccc(-c2c3nc(c(-c4c(F)c(F)c(F)c(F)c4F)c4ccc([nH]4)c(-c4c(F)c(F)c(F)c(F)c4F)c4nc(c(-c5c(F)c(F)c(F)c(F)c5F)c5ccc2[nH]5)C=C4)C=C3)cc1
REMARK SMILES IDX 14 1 13 2 11 3 12 4 6 6 4 7 5 8 3 9 2 10 1 11 7 12 8 13 9 14
REMARK SMILES IDX 10 15 15 16 16 17 17 18 18 19 19 21 20 22 21 23 82 24 22 25
REMARK SMILES IDX 81 26 23 27 24 28 25 29 75 30 26 31 80 32 74 33 76 34 27 35
REMARK SMILES IDX 79 36 73 37 72 38 28 40 60 41 40 42 59 43 41 44 44 45 58 46
REMARK SMILES IDX 77 47 42 48 43 49 57 51 78 52 45 53 29 54 30 55 38 56 31 57
REMARK SMILES IDX 32 58 36 59 39 60 33 61 34 62 37 63 35 64 61 65 62 66 70 67
REMARK SMILES IDX 63 68 64 69 68 70 71 71 65 72 66 73 69 74 67 75 46 76 47 77
REMARK SMILES IDX 55 78 48 79 49 80 53 81 56 82 50 83 51 84 54 85 52 86
REMARK H PARENT 13 5 17 20 76 39 44 50
REMARK Flexibility Score: inf
ROOT
ATOM      1  C   UNL A   1      37.194  20.836  24.673  1.00  0.00     0.117 C 
ENDROOT
BRANCH   1   2
ATOM      2  N   UNL A   1      36.125  20.923  25.646  1.00  0.00    -0.356 N 
ATOM      3  C   UNL A   1      34.807  21.204  25.570  1.00  0.00     0.223 C 
ATOM      4  O   UNL A   1      34.229  21.280  26.660  1.00  0.00    -0.275 OA
ATOM      5  H   UNL A   1      36.426  20.736  26.564  1.00  0.00     0.163 HD
BRANCH   3   6
ATOM      6  C   UNL A   1      34.044  21.435  24.268  1.00  0.00     0.084 C 
BRANCH   6   7
ATOM      7  C   UNL A   1      33.742  22.942  23.953  1.00  0.00     0.024 C 
ATOM      8  C   UNL A   1      34.798  23.963  24.382  1.00  0.00     0.011 C 
BRANCH   7   9
ATOM      9  C   UNL A   1      33.375  23.240  22.482  1.00  0.00     0.163 C 
BRANCH   9  10
ATOM     10  O   UNL A   1      33.814  24.531  22.092  1.00  0.00    -0.384 OA
ATOM     11  C   UNL A   1      32.752  25.333  21.581  1.00  0.00     0.194 C 
ENDBRANCH   9  10
ENDBRANCH   7   9
ENDBRANCH   6   7
BRANCH   6  12
ATOM     12  C   UNL A   1      32.822  20.511  24.063  1.00  0.00     0.017 C 
BRANCH  12  13
ATOM     13  C   UNL A   1      33.073  18.982  24.126  1.00  0.00    -0.017 C 
ATOM     14  C   UNL A   1      32.584  18.286  25.395  1.00  0.00     0.007 C 
ATOM     15  C   UNL A   1      32.398  18.326  22.914  1.00  0.00     0.007 C 
ENDBRANCH  12  13
ENDBRANCH   6  12
ENDBRANCH   3   6
ENDBRANCH   1   2
BRANCH   1  16
ATOM     16  C   UNL A   1      38.175  19.709  24.961  1.00  0.00     0.042 C 
BRANCH  16  17
ATOM     17  C   UNL A   1      39.211  20.048  26.020  1.00  0.00     0.118 C 
BRANCH  17  18
ATOM     18  N   UNL A   1      40.310  19.090  26.041  1.00  0.00    -0.352 N 
ATOM     19  C   UNL A   1      41.663  19.303  26.055  1.00  0.00     0.251 C 
ATOM     20  H   UNL A   1      40.038  18.145  26.046  1.00  0.00     0.163 HD
ATOM     21  O   UNL A   1      42.432  18.369  25.816  1.00  0.00    -0.269 OA
BRANCH  19  22
ATOM     22  C   UNL A   1      42.206  20.647  26.335  1.00  0.00     0.039 A 
ATOM     23  C   UNL A   1      42.483  21.505  25.268  1.00  0.00     0.014 A 
ATOM     24  C   UNL A   1      42.456  21.059  27.645  1.00  0.00     0.014 A 
ATOM     25  C   UNL A   1      42.952  22.794  25.524  1.00  0.00     0.010 A 
ATOM     26  C   UNL A   1      42.811  22.377  27.903  1.00  0.00     0.010 A 
ATOM     27  C   UNL A   1      43.084  23.254  26.846  1.00  0.00    -0.014 A 
BRANCH  27  28
ATOM     28  C   UNL A   1      43.534  24.639  27.134  1.00  0.00     0.031 A 
ATOM     29  C   UNL A   1      42.570  25.647  27.700  1.00  0.00     0.074 A 
ATOM     30  C   UNL A   1      44.797  25.002  26.837  1.00  0.00     0.049 A 
ATOM     31  N   UNL A   1      42.769  26.907  27.999  1.00  0.00    -0.248 NA
ATOM     32  C   UNL A   1      41.189  25.193  27.926  1.00  0.00     0.031 C 
ATOM     33  C   UNL A   1      45.801  24.140  26.209  1.00  0.00     0.029 A 
ATOM     34  N   UNL A   1      45.454  26.191  27.028  1.00  0.00    -0.354 N 
ATOM     35  C   UNL A   1      41.541  27.393  28.427  1.00  0.00     0.074 A 
ATOM     36  C   UNL A   1      40.586  26.317  28.284  1.00  0.00     0.031 C 
ATOM     37  C   UNL A   1      46.956  24.815  26.105  1.00  0.00     0.029 A 
ATOM     38  C   UNL A   1      46.769  26.163  26.631  1.00  0.00     0.049 A 
ATOM     39  H   UNL A   1      45.024  26.989  27.412  1.00  0.00     0.167 HD
ATOM     40  C   UNL A   1      41.241  28.612  28.931  1.00  0.00     0.037 A 
ATOM     41  C   UNL A   1      47.717  27.115  26.697  1.00  0.00     0.037 A 
ATOM     42  C   UNL A   1      42.203  29.667  29.110  1.00  0.00     0.049 A 
ATOM     43  C   UNL A   1      47.372  28.447  27.305  1.00  0.00     0.074 A 
ATOM     44  C   UNL A   1      42.020  30.919  29.672  1.00  0.00     0.029 A 
ATOM     45  N   UNL A   1      43.536  29.588  28.732  1.00  0.00    -0.354 N 
ATOM     46  N   UNL A   1      46.225  28.867  27.780  1.00  0.00    -0.248 NA
ATOM     47  C   UNL A   1      48.459  29.430  27.397  1.00  0.00     0.031 C 
ATOM     48  C   UNL A   1      43.235  31.609  29.602  1.00  0.00     0.029 A 
ATOM     49  C   UNL A   1      44.185  30.773  29.037  1.00  0.00     0.049 A 
ATOM     50  H   UNL A   1      43.958  28.805  28.310  1.00  0.00     0.167 HD
ATOM     51  C   UNL A   1      46.454  30.156  28.242  1.00  0.00     0.074 A 
ATOM     52  C   UNL A   1      47.857  30.436  28.017  1.00  0.00     0.031 C 
ATOM     53  C   UNL A   1      45.581  31.032  28.798  1.00  0.00     0.037 A 
BRANCH  40  54
ATOM     54  C   UNL A   1      39.818  28.862  29.343  1.00  0.00     0.064 A 
ATOM     55  C   UNL A   1      38.870  29.365  28.437  1.00  0.00     0.173 A 
ATOM     56  C   UNL A   1      39.390  28.579  30.649  1.00  0.00     0.173 A 
ATOM     57  F   UNL A   1      39.230  29.666  27.181  1.00  0.00    -0.203 F 
ATOM     58  C   UNL A   1      37.556  29.605  28.832  1.00  0.00     0.198 A 
ATOM     59  C   UNL A   1      38.068  28.790  31.031  1.00  0.00     0.198 A 
ATOM     60  F   UNL A   1      40.254  28.095  31.553  1.00  0.00    -0.203 F 
ATOM     61  F   UNL A   1      36.685  30.137  27.965  1.00  0.00    -0.200 F 
ATOM     62  C   UNL A   1      37.155  29.311  30.127  1.00  0.00     0.200 A 
ATOM     63  F   UNL A   1      37.678  28.495  32.279  1.00  0.00    -0.200 F 
ATOM     64  F   UNL A   1      35.889  29.537  30.504  1.00  0.00    -0.200 F 
ENDBRANCH  40  54
BRANCH  41  65
ATOM     65  C   UNL A   1      49.094  26.824  26.218  1.00  0.00     0.064 A 
ATOM     66  C   UNL A   1      50.051  26.266  27.078  1.00  0.00     0.173 A 
ATOM     67  C   UNL A   1      49.481  27.093  24.898  1.00  0.00     0.173 A 
ATOM     68  F   UNL A   1      49.732  26.006  28.354  1.00  0.00    -0.203 F 
ATOM     69  C   UNL A   1      51.348  26.006  26.641  1.00  0.00     0.198 A 
ATOM     70  C   UNL A   1      50.770  26.807  24.454  1.00  0.00     0.198 A 
ATOM     71  F   UNL A   1      48.601  27.619  24.034  1.00  0.00    -0.203 F 
ATOM     72  F   UNL A   1      52.254  25.512  27.495  1.00  0.00    -0.200 F 
ATOM     73  C   UNL A   1      51.706  26.272  25.328  1.00  0.00     0.200 A 
ATOM     74  F   UNL A   1      51.107  27.051  23.181  1.00  0.00    -0.200 F 
ATOM     75  F   UNL A   1      52.951  26.017  24.905  1.00  0.00    -0.200 F 
ENDBRANCH  41  65
BRANCH  53  76
ATOM     76  C   UNL A   1      46.128  32.368  29.207  1.00  0.00     0.064 A 
ATOM     77  C   UNL A   1      46.669  32.579  30.483  1.00  0.00     0.173 A 
ATOM     78  C   UNL A   1      46.125  33.444  28.307  1.00  0.00     0.173 A 
ATOM     79  F   UNL A   1      46.679  31.584  31.384  1.00  0.00    -0.203 F 
ATOM     80  C   UNL A   1      47.156  33.828  30.856  1.00  0.00     0.198 A 
ATOM     81  C   UNL A   1      46.641  34.684  28.673  1.00  0.00     0.198 A 
ATOM     82  F   UNL A   1      45.626  33.292  27.071  1.00  0.00    -0.203 F 
ATOM     83  F   UNL A   1      47.615  34.021  32.100  1.00  0.00    -0.200 F 
ATOM     84  C   UNL A   1      47.146  34.877  29.949  1.00  0.00     0.200 A 
ATOM     85  F   UNL A   1      46.643  35.693  27.792  1.00  0.00    -0.200 F 
ATOM     86  F   UNL A   1      47.615  36.080  30.310  1.00  0.00    -0.200 F 
ENDBRANCH  53  76
ENDBRANCH  27  28
ENDBRANCH  19  22
ENDBRANCH  17  18
ENDBRANCH  16  17
ENDBRANCH   1  16
TORSDOF 15
ENDMDL
MODEL 2
REMARK VINA RESULT:     -10.4      6.070     10.144
REMARK SMILES COC[C@H](C)[C@H](CC(C)C)C(=O)NCCCNC(=O)c1ccc(-c2c3nc(c(-c4c(F)c(F)c(F)c(F)c4F)c4ccc([nH]4)c(-c4c(F)c(F)c(F)c(F)c4F)c4nc(c(-c5c(F)c(F)c(F)c(F)c5F)c5ccc2[nH]5)C=C4)C=C3)cc1
REMARK SMILES IDX 14 1 13 2 11 3 12 4 6 6 4 7 5 8 3 9 2 10 1 11 7 12 8 13 9 14
REMARK SMILES IDX 10 15 15 16 16 17 17 18 18 19 19 21 20 22 21 23 82 24 22 25
REMARK SMILES IDX 81 26 23 27 24 28 25 29 75 30 26 31 80 32 74 33 76 34 27 35
REMARK SMILES IDX 79 36 73 37 72 38 28 40 60 41 40 42 59 43 41 44 44 45 58 46
REMARK SMILES IDX 77 47 42 48 43 49 57 51 78 52 45 53 29 54 30 55 38 56 31 57
REMARK SMILES IDX 32 58 36 59 39 60 33 61 34 62 37 63 35 64 61 65 62 66 70 67
REMARK SMILES IDX 63 68 64 69 68 70 71 71 65 72 66 73 69 74 67 75 46 76 47 77
REMARK SMILES IDX 55 78 48 79 49 80 53 81 56 82 50 83 51 84 54 85 52 86
REMARK H PARENT 13 5 17 20 76 39 44 50
REMARK Flexibility Score: inf
ROOT
ATOM      1  C   UNL A   1      31.552  30.823  26.083  1.00  0.00     0.117 C 
ENDROOT
BRANCH   1   2
ATOM      2  N   UNL A   1      31.511  29.764  27.070  1.00  0.00    -0.356 N 
ATOM      3  C   UNL A   1      31.564  28.417  27.004  1.00  0.00     0.223 C 
ATOM      4  O   UNL A   1      31.396  27.837  28.083  1.00  0.00    -0.275 OA
ATOM      5  H   UNL A   1      31.426  30.101  27.990  1.00  0.00     0.163 HD
BRANCH   3   6
ATOM      6  C   UNL A   1      31.794  27.621  25.722  1.00  0.00     0.084 C 
BRANCH   6   7
ATOM      7  C   UNL A   1      33.263  27.687  25.173  1.00  0.00     0.024 C 
ATOM      8  C   UNL A   1      33.521  28.643  24.007  1.00  0.00     0.011 C 
BRANCH   7   9
ATOM      9  C   UNL A   1      34.348  27.950  26.241  1.00  0.00     0.163 C 
BRANCH   9  10
ATOM     10  O   UNL A   1      34.683  29.326  26.310  1.00  0.00    -0.384 OA
ATOM     11  C   UNL A   1      34.908  29.762  27.648  1.00  0.00     0.194 C 
ENDBRANCH   9  10
ENDBRANCH   7   9
ENDBRANCH   6   7
BRANCH   6  12
ATOM     12  C   UNL A   1      30.723  27.834  24.629  1.00  0.00     0.017 C 
BRANCH  12  13
ATOM     13  C   UNL A   1      29.731  26.669  24.374  1.00  0.00    -0.017 C 
ATOM     14  C   UNL A   1      28.527  27.009  23.497  1.00  0.00     0.007 C 
ATOM     15  C   UNL A   1      30.497  25.507  23.728  1.00  0.00     0.007 C 
ENDBRANCH  12  13
ENDBRANCH   6  12
ENDBRANCH   3   6
ENDBRANCH   1   2
BRANCH   1  16
ATOM     16  C   UNL A   1      31.392  32.210  26.687  1.00  0.00     0.042 C 
BRANCH  16  17
ATOM     17  C   UNL A   1      32.707  32.876  27.060  1.00  0.00     0.118 C 
BRANCH  17  18
ATOM     18  N   UNL A   1      32.510  34.209  27.619  1.00  0.00    -0.352 N 
ATOM     19  C   UNL A   1      33.074  34.792  28.721  1.00  0.00     0.251 C 
ATOM     20  H   UNL A   1      31.873  34.775  27.129  1.00  0.00     0.163 HD
ATOM     21  O   UNL A   1      32.592  35.832  29.178  1.00  0.00    -0.269 OA
BRANCH  19  22
ATOM     22  C   UNL A   1      34.243  34.175  29.379  1.00  0.00     0.039 A 
ATOM     23  C   UNL A   1      34.037  33.247  30.402  1.00  0.00     0.014 A 
ATOM     24  C   UNL A   1      35.541  34.520  29.000  1.00  0.00     0.014 A 
ATOM     25  C   UNL A   1      35.134  32.622  30.997  1.00  0.00     0.010 A 
ATOM     26  C   UNL A   1      36.624  33.815  29.511  1.00  0.00     0.010 A 
ATOM     27  C   UNL A   1      36.436  32.873  30.531  1.00  0.00    -0.014 A 
BRANCH  27  28
ATOM     28  C   UNL A   1      37.608  32.180  31.121  1.00  0.00     0.031 A 
ATOM     29  C   UNL A   1      38.075  32.528  32.509  1.00  0.00     0.074 A 
ATOM     30  C   UNL A   1      38.282  31.273  30.387  1.00  0.00     0.049 A 
ATOM     31  N   UNL A   1      39.088  32.049  33.187  1.00  0.00    -0.248 NA
ATOM     32  C   UNL A   1      37.331  33.582  33.216  1.00  0.00     0.031 C 
ATOM     33  C   UNL A   1      37.978  30.910  29.001  1.00  0.00     0.029 A 
ATOM     34  N   UNL A   1      39.362  30.489  30.705  1.00  0.00    -0.354 N 
ATOM     35  C   UNL A   1      39.109  32.752  34.384  1.00  0.00     0.074 A 
ATOM     36  C   UNL A   1      38.056  33.740  34.314  1.00  0.00     0.031 C 
ATOM     37  C   UNL A   1      38.823  29.946  28.604  1.00  0.00     0.029 A 
ATOM     38  C   UNL A   1      39.744  29.643  29.694  1.00  0.00     0.049 A 
ATOM     39  H   UNL A   1      39.818  30.529  31.576  1.00  0.00     0.167 HD
ATOM     40  C   UNL A   1      39.908  32.569  35.460  1.00  0.00     0.037 A 
ATOM     41  C   UNL A   1      40.722  28.718  29.657  1.00  0.00     0.037 A 
ATOM     42  C   UNL A   1      40.928  31.558  35.542  1.00  0.00     0.049 A 
ATOM     43  C   UNL A   1      41.566  28.500  30.882  1.00  0.00     0.074 A 
ATOM     44  C   UNL A   1      41.750  31.242  36.610  1.00  0.00     0.029 A 
ATOM     45  N   UNL A   1      41.262  30.692  34.510  1.00  0.00    -0.354 N 
ATOM     46  N   UNL A   1      41.523  29.119  32.037  1.00  0.00    -0.248 NA
ATOM     47  C   UNL A   1      42.584  27.445  30.802  1.00  0.00     0.031 C 
ATOM     48  C   UNL A   1      42.604  30.208  36.212  1.00  0.00     0.029 A 
ATOM     49  C   UNL A   1      42.285  29.850  34.912  1.00  0.00     0.049 A 
ATOM     50  H   UNL A   1      40.833  30.678  33.624  1.00  0.00     0.167 HD
ATOM     51  C   UNL A   1      42.494  28.518  32.826  1.00  0.00     0.074 A 
ATOM     52  C   UNL A   1      43.089  27.467  32.027  1.00  0.00     0.031 C 
ATOM     53  C   UNL A   1      42.866  28.814  34.096  1.00  0.00     0.037 A 
BRANCH  40  54
ATOM     54  C   UNL A   1      39.694  33.469  36.644  1.00  0.00     0.064 A 
ATOM     55  C   UNL A   1      38.833  33.108  37.693  1.00  0.00     0.173 A 
ATOM     56  C   UNL A   1      40.369  34.695  36.744  1.00  0.00     0.173 A 
ATOM     57  F   UNL A   1      38.152  31.954  37.641  1.00  0.00    -0.203 F 
ATOM     58  C   UNL A   1      38.632  33.955  38.781  1.00  0.00     0.198 A 
ATOM     59  C   UNL A   1      40.190  35.524  37.848  1.00  0.00     0.198 A 
ATOM     60  F   UNL A   1      41.206  35.086  35.771  1.00  0.00    -0.203 F 
ATOM     61  F   UNL A   1      37.763  33.613  39.741  1.00  0.00    -0.200 F 
ATOM     62  C   UNL A   1      39.316  35.158  38.860  1.00  0.00     0.200 A 
ATOM     63  F   UNL A   1      40.860  36.682  37.929  1.00  0.00    -0.200 F 
ATOM     64  F   UNL A   1      39.125  35.969  39.910  1.00  0.00    -0.200 F 
ENDBRANCH  40  54
BRANCH  41  65
ATOM     65  C   UNL A   1      40.921  27.899  28.433  1.00  0.00     0.064 A 
ATOM     66  C   UNL A   1      41.765  28.338  27.404  1.00  0.00     0.173 A 
ATOM     67  C   UNL A   1      40.279  26.663  28.268  1.00  0.00     0.173 A 
ATOM     68  F   UNL A   1      42.388  29.521  27.508  1.00  0.00    -0.203 F 
ATOM     69  C   UNL A   1      41.944  27.583  26.246  1.00  0.00     0.198 A 
ATOM     70  C   UNL A   1      40.481  25.896  27.122  1.00  0.00     0.198 A 
ATOM     71  F   UNL A   1      39.469  26.194  29.227  1.00  0.00    -0.203 F 
ATOM     72  F   UNL A   1      42.723  28.047  25.259  1.00  0.00    -0.200 F 
ATOM     73  C   UNL A   1      41.306  26.360  26.108  1.00  0.00     0.200 A 
ATOM     74  F   UNL A   1      39.875  24.707  27.000  1.00  0.00    -0.200 F 
ATOM     75  F   UNL A   1      41.481  25.631  24.998  1.00  0.00    -0.200 F 
ENDBRANCH  41  65
BRANCH  53  76
ATOM     76  C   UNL A   1      43.959  27.979  34.696  1.00  0.00     0.064 A 
ATOM     77  C   UNL A   1      45.304  28.366  34.616  1.00  0.00     0.173 A 
ATOM     78  C   UNL A   1      43.655  26.788  35.372  1.00  0.00     0.173 A 
ATOM     79  F   UNL A   1      45.646  29.489  33.967  1.00  0.00    -0.203 F 
ATOM     80  C   UNL A   1      46.310  27.572  35.162  1.00  0.00     0.198 A 
ATOM     81  C   UNL A   1      44.660  26.013  35.942  1.00  0.00     0.198 A 
ATOM     82  F   UNL A   1      42.382  26.377  35.482  1.00  0.00    -0.203 F 
ATOM     83  F   UNL A   1      47.593  27.933  35.023  1.00  0.00    -0.200 F 
ATOM     84  C   UNL A   1      45.987  26.400  35.828  1.00  0.00     0.200 A 
ATOM     85  F   UNL A   1      44.346  24.886  36.597  1.00  0.00    -0.200 F 
ATOM     86  F   UNL A   1      46.956  25.637  36.352  1.00  0.00    -0.200 F 
ENDBRANCH  53  76
ENDBRANCH  27  28
ENDBRANCH  19  22
ENDBRANCH  17  18
ENDBRANCH  16  17
ENDBRANCH   1  16
TORSDOF 15
ENDMDL
MODEL 3
REMARK VINA RESULT:     -10.3      5.031      8.292
REMARK SMILES COC[C@H](C)[C@H](CC(C)C)C(=O)NCCCNC(=O)c1ccc(-c2c3nc(c(-c4c(F)c(F)c(F)c(F)c4F)c4ccc([nH]4)c(-c4c(F)c(F)c(F)c(F)c4F)c4nc(c(-c5c(F)c(F)c(F)c(F)c5F)c5ccc2[nH]5)C=C4)C=C3)cc1
REMARK SMILES IDX 14 1 13 2 11 3 12 4 6 6 4 7 5 8 3 9 2 10 1 11 7 12 8 13 9 14
REMARK SMILES IDX 10 15 15 16 16 17 17 18 18 19 19 21 20 22 21 23 82 24 22 25
REMARK SMILES IDX 81 26 23 27 24 28 25 29 75 30 26 31 80 32 74 33 76 34 27 35
REMARK SMILES IDX 79 36 73 37 72 38 28 40 60 41 40 42 59 43 41 44 44 45 58 46
REMARK SMILES IDX 77 47 42 48 43 49 57 51 78 52 45 53 29 54 30 55 38 56 31 57
REMARK SMILES IDX 32 58 36 59 39 60 33 61 34 62 37 63 35 64 61 65 62 66 70 67
REMARK SMILES IDX 63 68 64 69 68 70 71 71 65 72 66 73 69 74 67 75 46 76 47 77
REMARK SMILES IDX 55 78 48 79 49 80 53 81 56 82 50 83 51 84 54 85 52 86
REMARK H PARENT 13 5 17 20 76 39 44 50
REMARK Flexibility Score: inf
ROOT
ATOM      1  C   UNL A   1      31.443  28.546  24.142  1.00  0.00     0.117 C 
ENDROOT
BRANCH   1   2
ATOM      2  N   UNL A   1      31.047  27.880  25.366  1.00  0.00    -0.356 N 
ATOM      3  C   UNL A   1      31.130  26.608  25.811  1.00  0.00     0.223 C 
ATOM      4  O   UNL A   1      30.579  26.401  26.898  1.00  0.00    -0.275 OA
ATOM      5  H   UNL A   1      30.627  28.488  26.015  1.00  0.00     0.163 HD
BRANCH   3   6
ATOM      6  C   UNL A   1      31.821  25.472  25.062  1.00  0.00     0.084 C 
BRANCH   6   7
ATOM      7  C   UNL A   1      31.009  24.130  25.027  1.00  0.00     0.024 C 
ATOM      8  C   UNL A   1      30.854  23.452  23.664  1.00  0.00     0.011 C 
BRANCH   7   9
ATOM      9  C   UNL A   1      31.479  23.055  26.032  1.00  0.00     0.163 C 
BRANCH   9  10
ATOM     10  O   UNL A   1      30.844  23.212  27.290  1.00  0.00    -0.384 OA
ATOM     11  C   UNL A   1      29.444  22.950  27.226  1.00  0.00     0.194 C 
ENDBRANCH   9  10
ENDBRANCH   7   9
ENDBRANCH   6   7
BRANCH   6  12
ATOM     12  C   UNL A   1      33.311  25.274  25.422  1.00  0.00     0.017 C 
BRANCH  12  13
ATOM     13  C   UNL A   1      34.294  25.012  24.251  1.00  0.00    -0.017 C 
ATOM     14  C   UNL A   1      34.659  23.548  24.013  1.00  0.00     0.007 C 
ATOM     15  C   UNL A   1      33.683  25.583  22.964  1.00  0.00     0.007 C 
ENDBRANCH  12  13
ENDBRANCH   6  12
ENDBRANCH   3   6
ENDBRANCH   1   2
BRANCH   1  16
ATOM     16  C   UNL A   1      32.932  28.853  24.083  1.00  0.00     0.042 C 
BRANCH  16  17
ATOM     17  C   UNL A   1      33.527  29.287  25.414  1.00  0.00     0.118 C 
BRANCH  17  18
ATOM     18  N   UNL A   1      33.039  30.595  25.834  1.00  0.00    -0.352 N 
ATOM     19  C   UNL A   1      33.388  31.357  26.917  1.00  0.00     0.251 C 
ATOM     20  H   UNL A   1      32.354  30.990  25.250  1.00  0.00     0.163 HD
ATOM     21  O   UNL A   1      32.684  32.317  27.242  1.00  0.00    -0.269 OA
BRANCH  19  22
ATOM     22  C   UNL A   1      34.588  31.026  27.710  1.00  0.00     0.039 A 
ATOM     23  C   UNL A   1      34.709  29.749  28.263  1.00  0.00     0.014 A 
ATOM     24  C   UNL A   1      35.589  31.976  27.922  1.00  0.00     0.014 A 
ATOM     25  C   UNL A   1      35.861  29.412  28.973  1.00  0.00     0.010 A 
ATOM     26  C   UNL A   1      36.782  31.604  28.527  1.00  0.00     0.010 A 
ATOM     27  C   UNL A   1      36.925  30.324  29.080  1.00  0.00    -0.014 A 
BRANCH  27  28
ATOM     28  C   UNL A   1      38.177  29.962  29.790  1.00  0.00     0.031 A 
ATOM     29  C   UNL A   1      38.440  30.485  31.177  1.00  0.00     0.074 A 
ATOM     30  C   UNL A   1      39.099  29.204  29.166  1.00  0.00     0.049 A 
ATOM     31  N   UNL A   1      39.480  30.297  31.950  1.00  0.00    -0.248 NA
ATOM     32  C   UNL A   1      37.418  31.369  31.760  1.00  0.00     0.031 C 
ATOM     33  C   UNL A   1      38.997  28.705  27.793  1.00  0.00     0.029 A 
ATOM     34  N   UNL A   1      40.304  28.716  29.607  1.00  0.00    -0.354 N 
ATOM     35  C   UNL A   1      39.243  31.049  33.093  1.00  0.00     0.074 A 
ATOM     36  C   UNL A   1      37.998  31.753  32.887  1.00  0.00     0.031 C 
ATOM     37  C   UNL A   1      40.072  27.949  27.519  1.00  0.00     0.029 A 
ATOM     38  C   UNL A   1      40.950  27.932  28.684  1.00  0.00     0.049 A 
ATOM     39  H   UNL A   1      40.669  28.910  30.500  1.00  0.00     0.167 HD
ATOM     40  C   UNL A   1      39.976  31.118  34.229  1.00  0.00     0.037 A 
ATOM     41  C   UNL A   1      42.117  27.266  28.774  1.00  0.00     0.037 A 
ATOM     42  C   UNL A   1      41.195  30.384  34.446  1.00  0.00     0.049 A 
ATOM     43  C   UNL A   1      42.889  27.320  30.063  1.00  0.00     0.074 A 
ATOM     44  C   UNL A   1      41.982  30.331  35.583  1.00  0.00     0.029 A 
ATOM     45  N   UNL A   1      41.800  29.569  33.500  1.00  0.00    -0.354 N 
ATOM     46  N   UNL A   1      42.614  27.972  31.166  1.00  0.00    -0.248 NA
ATOM     47  C   UNL A   1      44.128  26.534  30.122  1.00  0.00     0.031 C 
ATOM     48  C   UNL A   1      43.081  29.510  35.314  1.00  0.00     0.029 A 
ATOM     49  C   UNL A   1      42.957  29.017  34.024  1.00  0.00     0.049 A 
ATOM     50  H   UNL A   1      41.457  29.406  32.592  1.00  0.00     0.167 HD
ATOM     51  C   UNL A   1      43.633  27.663  32.056  1.00  0.00     0.074 A 
ATOM     52  C   UNL A   1      44.518  26.742  31.372  1.00  0.00     0.031 C 
ATOM     53  C   UNL A   1      43.825  28.107  33.323  1.00  0.00     0.037 A 
BRANCH  40  54
ATOM     54  C   UNL A   1      39.467  32.004  35.330  1.00  0.00     0.064 A 
ATOM     55  C   UNL A   1      38.638  31.504  36.348  1.00  0.00     0.173 A 
ATOM     56  C   UNL A   1      39.824  33.359  35.383  1.00  0.00     0.173 A 
ATOM     57  F   UNL A   1      38.254  30.219  36.336  1.00  0.00    -0.203 F 
ATOM     58  C   UNL A   1      38.160  32.336  37.358  1.00  0.00     0.198 A 
ATOM     59  C   UNL A   1      39.371  34.180  36.412  1.00  0.00     0.198 A 
ATOM     60  F   UNL A   1      40.616  33.887  34.438  1.00  0.00    -0.203 F 
ATOM     61  F   UNL A   1      37.326  31.848  38.286  1.00  0.00    -0.200 F 
ATOM     62  C   UNL A   1      38.533  33.671  37.393  1.00  0.00     0.200 A 
ATOM     63  F   UNL A   1      39.741  35.468  36.452  1.00  0.00    -0.200 F 
ATOM     64  F   UNL A   1      38.077  34.469  38.369  1.00  0.00    -0.200 F 
ENDBRANCH  40  54
BRANCH  41  65
ATOM     65  C   UNL A   1      42.596  26.453  27.626  1.00  0.00     0.064 A 
ATOM     66  C   UNL A   1      43.532  26.971  26.720  1.00  0.00     0.173 A 
ATOM     67  C   UNL A   1      42.136  25.146  27.413  1.00  0.00     0.173 A 
ATOM     68  F   UNL A   1      43.988  28.223  26.872  1.00  0.00    -0.203 F 
ATOM     69  C   UNL A   1      43.973  26.221  25.632  1.00  0.00     0.198 A 
ATOM     70  C   UNL A   1      42.600  24.386  26.341  1.00  0.00     0.198 A 
ATOM     71  F   UNL A   1      41.249  24.600  28.256  1.00  0.00    -0.203 F 
ATOM     72  F   UNL A   1      44.835  26.757  24.757  1.00  0.00    -0.200 F 
ATOM     73  C   UNL A   1      43.512  24.927  25.446  1.00  0.00     0.200 A 
ATOM     74  F   UNL A   1      42.164  23.131  26.174  1.00  0.00    -0.200 F 
ATOM     75  F   UNL A   1      43.940  24.203  24.403  1.00  0.00    -0.200 F 
ENDBRANCH  41  65
BRANCH  53  76
ATOM     76  C   UNL A   1      45.033  27.588  34.048  1.00  0.00     0.064 A 
ATOM     77  C   UNL A   1      44.984  26.408  34.802  1.00  0.00     0.173 A 
ATOM     78  C   UNL A   1      46.256  28.272  33.972  1.00  0.00     0.173 A 
ATOM     79  F   UNL A   1      43.833  25.727  34.916  1.00  0.00    -0.203 F 
ATOM     80  C   UNL A   1      46.107  25.948  35.484  1.00  0.00     0.198 A 
ATOM     81  C   UNL A   1      47.384  27.793  34.631  1.00  0.00     0.198 A 
ATOM     82  F   UNL A   1      46.357  29.403  33.257  1.00  0.00    -0.203 F 
ATOM     83  F   UNL A   1      46.021  24.849  36.246  1.00  0.00    -0.200 F 
ATOM     84  C   UNL A   1      47.306  26.638  35.394  1.00  0.00     0.200 A 
ATOM     85  F   UNL A   1      48.546  28.453  34.533  1.00  0.00    -0.200 F 
ATOM     86  F   UNL A   1      48.386  26.194  36.052  1.00  0.00    -0.200 F 
ENDBRANCH  53  76
ENDBRANCH  27  28
ENDBRANCH  19  22
ENDBRANCH  17  18
ENDBRANCH  16  17
ENDBRANCH   1  16
TORSDOF 15
ENDMDL
