MODEL 1
REMARK VINA RESULT:     -12.4      0.000      0.000
REMARK SMILES CCC[C@@]1(C(=O)NCCCNC(=O)c2ccc(-c3c4nc(c(-c5c(F)c(F)c(F)c(F)c5F)c5ccc([nH]5)c(-c5c(F)c(F)c(F)c(F)c5F)c5nc(c(-c6c(F)c(F)c(F)c(F)c6F)c6ccc3[nH]6)C=C5)C=C4)cc2)CCCN(C(=O)CCn2cncn2)C1
REMARK SMILES IDX 8 1 7 2 5 3 6 4 4 6 77 7 90 8 78 9 80 10 79 11 3 12 2 13
REMARK SMILES IDX 1 14 81 15 82 16 83 17 84 18 85 19 86 20 89 21 87 22 88 23
REMARK SMILES IDX 9 24 10 25 11 26 12 27 13 29 14 30 15 31 76 32 16 33 75 34
REMARK SMILES IDX 17 35 18 36 19 37 69 38 20 39 74 40 68 41 70 42 21 43 73 44
REMARK SMILES IDX 67 45 66 46 22 48 54 49 34 50 53 51 35 52 38 53 52 54 71 55
REMARK SMILES IDX 36 56 37 57 51 59 72 60 39 61 23 62 24 63 32 64 25 65 26 66
REMARK SMILES IDX 30 67 33 68 27 69 28 70 31 71 29 72 55 73 56 74 64 75 57 76
REMARK SMILES IDX 58 77 62 78 65 79 59 80 60 81 63 82 61 83 40 84 41 85 49 86
REMARK SMILES IDX 42 87 43 88 47 89 50 90 44 91 45 92 48 93 46 94
REMARK H PARENT 7 5 11 28 70 47 38 58
REMARK Flexibility Score: inf
ROOT
ATOM      1  C   UNL A   1      31.942  30.603  26.123  1.00  0.00     0.117 C 
ENDROOT
BRANCH   1   2
ATOM      2  N   UNL A   1      31.670  29.572  27.091  1.00  0.00    -0.355 N 
ATOM      3  C   UNL A   1      31.706  28.228  27.084  1.00  0.00     0.228 C 
ATOM      4  O   UNL A   1      31.536  27.735  28.213  1.00  0.00    -0.274 OA
ATOM      5  H   UNL A   1      31.391  29.937  27.962  1.00  0.00     0.163 HD
BRANCH   3   6
ATOM      6  C   UNL A   1      31.898  27.273  25.866  1.00  0.00     0.067 C 
ATOM      7  C   UNL A   1      33.414  27.339  25.527  1.00  0.00     0.020 C 
ATOM      8  C   UNL A   1      31.043  27.483  24.593  1.00  0.00     0.136 C 
ATOM      9  C   UNL A   1      33.752  28.522  24.630  1.00  0.00     0.023 C 
ATOM     10  N   UNL A   1      31.517  28.510  23.647  1.00  0.00    -0.342 N 
ATOM     11  C   UNL A   1      32.941  28.452  23.349  1.00  0.00     0.119 C 
BRANCH   6  12
ATOM     12  C   UNL A   1      31.549  25.875  26.514  1.00  0.00     0.018 C 
BRANCH  12  13
ATOM     13  C   UNL A   1      31.081  24.691  25.657  1.00  0.00    -0.002 C 
ATOM     14  C   UNL A   1      32.177  23.942  24.922  1.00  0.00     0.004 C 
ENDBRANCH  12  13
ENDBRANCH   6  12
BRANCH  10  15
ATOM     15  C   UNL A   1      30.590  29.200  22.877  1.00  0.00     0.224 C 
ATOM     16  O   UNL A   1      30.786  29.424  21.679  1.00  0.00    -0.275 OA
BRANCH  15  17
ATOM     17  C   UNL A   1      29.279  29.666  23.489  1.00  0.00     0.124 C 
BRANCH  17  18
ATOM     18  C   UNL A   1      28.152  29.831  22.471  1.00  0.00     0.156 C 
BRANCH  18  19
ATOM     19  N   UNL A   1      28.038  31.165  21.921  1.00  0.00    -0.252 N 
ATOM     20  C   UNL A   1      28.188  32.351  22.570  1.00  0.00     0.219 A 
ATOM     21  N   UNL A   1      27.764  31.361  20.619  1.00  0.00    -0.160 NA
ATOM     22  N   UNL A   1      27.953  33.339  21.740  1.00  0.00    -0.224 NA
ATOM     23  C   UNL A   1      27.717  32.696  20.558  1.00  0.00     0.246 A 
ENDBRANCH  18  19
ENDBRANCH  17  18
ENDBRANCH  15  17
ENDBRANCH  10  15
ENDBRANCH   3   6
ENDBRANCH   1   2
BRANCH   1  24
ATOM     24  C   UNL A   1      31.531  31.984  26.608  1.00  0.00     0.042 C 
BRANCH  24  25
ATOM     25  C   UNL A   1      32.651  32.737  27.301  1.00  0.00     0.118 C 
BRANCH  25  26
ATOM     26  N   UNL A   1      32.335  34.125  27.610  1.00  0.00    -0.352 N 
ATOM     27  C   UNL A   1      32.924  34.975  28.518  1.00  0.00     0.251 C 
ATOM     28  H   UNL A   1      31.592  34.512  27.093  1.00  0.00     0.163 HD
ATOM     29  O   UNL A   1      32.451  36.095  28.699  1.00  0.00    -0.269 OA
BRANCH  27  30
ATOM     30  C   UNL A   1      34.098  34.529  29.304  1.00  0.00     0.039 A 
ATOM     31  C   UNL A   1      33.897  33.968  30.569  1.00  0.00     0.014 A 
ATOM     32  C   UNL A   1      35.392  34.628  28.790  1.00  0.00     0.014 A 
ATOM     33  C   UNL A   1      34.980  33.431  31.272  1.00  0.00     0.010 A 
ATOM     34  C   UNL A   1      36.445  33.990  29.431  1.00  0.00     0.010 A 
ATOM     35  C   UNL A   1      36.255  33.393  30.685  1.00  0.00    -0.014 A 
BRANCH  35  36
ATOM     36  C   UNL A   1      37.417  32.759  31.361  1.00  0.00     0.031 A 
ATOM     37  C   UNL A   1      38.136  31.619  30.691  1.00  0.00     0.074 A 
ATOM     38  C   UNL A   1      37.758  33.138  32.609  1.00  0.00     0.049 A 
ATOM     39  N   UNL A   1      39.074  30.838  31.162  1.00  0.00    -0.248 NA
ATOM     40  C   UNL A   1      37.710  31.280  29.322  1.00  0.00     0.031 C 
ATOM     41  C   UNL A   1      37.093  34.182  33.392  1.00  0.00     0.029 A 
ATOM     42  N   UNL A   1      38.743  32.676  33.446  1.00  0.00    -0.354 N 
ATOM     43  C   UNL A   1      39.314  29.896  30.169  1.00  0.00     0.074 A 
ATOM     44  C   UNL A   1      38.390  30.169  29.092  1.00  0.00     0.031 C 
ATOM     45  C   UNL A   1      37.707  34.301  34.580  1.00  0.00     0.029 A 
ATOM     46  C   UNL A   1      38.781  33.317  34.661  1.00  0.00     0.049 A 
ATOM     47  H   UNL A   1      39.364  31.953  33.198  1.00  0.00     0.167 HD
ATOM     48  C   UNL A   1      40.242  28.911  30.145  1.00  0.00     0.037 A 
ATOM     49  C   UNL A   1      39.591  33.126  35.719  1.00  0.00     0.037 A 
ATOM     50  C   UNL A   1      41.207  28.693  31.189  1.00  0.00     0.049 A 
ATOM     51  C   UNL A   1      40.652  32.061  35.642  1.00  0.00     0.074 A 
ATOM     52  C   UNL A   1      42.250  27.783  31.225  1.00  0.00     0.029 A 
ATOM     53  N   UNL A   1      41.254  29.405  32.377  1.00  0.00    -0.354 N 
ATOM     54  N   UNL A   1      40.916  31.224  34.668  1.00  0.00    -0.248 NA
ATOM     55  C   UNL A   1      41.533  31.919  36.810  1.00  0.00     0.031 C 
ATOM     56  C   UNL A   1      42.909  27.926  32.450  1.00  0.00     0.029 A 
ATOM     57  C   UNL A   1      42.303  28.951  33.158  1.00  0.00     0.049 A 
ATOM     58  H   UNL A   1      40.634  30.128  32.628  1.00  0.00     0.167 HD
ATOM     59  C   UNL A   1      42.008  30.480  35.090  1.00  0.00     0.074 A 
ATOM     60  C   UNL A   1      42.368  30.973  36.403  1.00  0.00     0.031 C 
ATOM     61  C   UNL A   1      42.655  29.474  34.452  1.00  0.00     0.037 A 
BRANCH  48  62
ATOM     62  C   UNL A   1      40.277  28.011  28.945  1.00  0.00     0.064 A 
ATOM     63  C   UNL A   1      41.024  28.335  27.802  1.00  0.00     0.173 A 
ATOM     64  C   UNL A   1      39.588  26.788  28.953  1.00  0.00     0.173 A 
ATOM     65  F   UNL A   1      41.691  29.497  27.739  1.00  0.00    -0.203 F 
ATOM     66  C   UNL A   1      41.058  27.483  26.703  1.00  0.00     0.198 A 
ATOM     67  C   UNL A   1      39.649  25.924  27.862  1.00  0.00     0.198 A 
ATOM     68  F   UNL A   1      38.861  26.427  30.021  1.00  0.00    -0.203 F 
ATOM     69  F   UNL A   1      41.740  27.837  25.603  1.00  0.00    -0.200 F 
ATOM     70  C   UNL A   1      40.378  26.276  26.735  1.00  0.00     0.200 A 
ATOM     71  F   UNL A   1      39.000  24.752  27.900  1.00  0.00    -0.200 F 
ATOM     72  F   UNL A   1      40.420  25.451  25.679  1.00  0.00    -0.200 F 
ENDBRANCH  48  62
BRANCH  49  73
ATOM     73  C   UNL A   1      39.458  33.981  36.928  1.00  0.00     0.064 A 
ATOM     74  C   UNL A   1      40.094  35.229  36.995  1.00  0.00     0.173 A 
ATOM     75  C   UNL A   1      38.717  33.567  38.044  1.00  0.00     0.173 A 
ATOM     76  F   UNL A   1      40.832  35.660  35.960  1.00  0.00    -0.203 F 
ATOM     77  C   UNL A   1      40.015  36.020  38.139  1.00  0.00     0.198 A 
ATOM     78  C   UNL A   1      38.615  34.371  39.178  1.00  0.00     0.198 A 
ATOM     79  F   UNL A   1      38.086  32.385  38.030  1.00  0.00    -0.203 F 
ATOM     80  F   UNL A   1      40.675  37.184  38.195  1.00  0.00    -0.200 F 
ATOM     81  C   UNL A   1      39.272  35.591  39.229  1.00  0.00     0.200 A 
ATOM     82  F   UNL A   1      37.886  33.960  40.225  1.00  0.00    -0.200 F 
ATOM     83  F   UNL A   1      39.198  36.350  40.331  1.00  0.00    -0.200 F 
ENDBRANCH  49  73
BRANCH  61  84
ATOM     84  C   UNL A   1      43.841  28.874  35.143  1.00  0.00     0.064 A 
ATOM     85  C   UNL A   1      45.132  29.391  34.969  1.00  0.00     0.173 A 
ATOM     86  C   UNL A   1      43.674  27.796  36.026  1.00  0.00     0.173 A 
ATOM     87  F   UNL A   1      45.342  30.411  34.122  1.00  0.00    -0.203 F 
ATOM     88  C   UNL A   1      46.219  28.836  35.638  1.00  0.00     0.198 A 
ATOM     89  C   UNL A   1      44.759  27.264  36.715  1.00  0.00     0.198 A 
ATOM     90  F   UNL A   1      42.457  27.272  36.231  1.00  0.00    -0.203 F 
ATOM     91  F   UNL A   1      47.451  29.318  35.425  1.00  0.00    -0.200 F 
ATOM     92  C   UNL A   1      46.031  27.779  36.516  1.00  0.00     0.200 A 
ATOM     93  F   UNL A   1      44.573  26.251  37.574  1.00  0.00    -0.200 F 
ATOM     94  F   UNL A   1      47.078  27.253  37.167  1.00  0.00    -0.200 F 
ENDBRANCH  61  84
ENDBRANCH  35  36
ENDBRANCH  27  30
ENDBRANCH  25  26
ENDBRANCH  24  25
ENDBRANCH   1  24
TORSDOF 16
ENDMDL
MODEL 2
REMARK VINA RESULT:     -12.3      1.944      3.899
REMARK SMILES CCC[C@@]1(C(=O)NCCCNC(=O)c2ccc(-c3c4nc(c(-c5c(F)c(F)c(F)c(F)c5F)c5ccc([nH]5)c(-c5c(F)c(F)c(F)c(F)c5F)c5nc(c(-c6c(F)c(F)c(F)c(F)c6F)c6ccc3[nH]6)C=C5)C=C4)cc2)CCCN(C(=O)CCn2cncn2)C1
REMARK SMILES IDX 8 1 7 2 5 3 6 4 4 6 77 7 90 8 78 9 80 10 79 11 3 12 2 13
REMARK SMILES IDX 1 14 81 15 82 16 83 17 84 18 85 19 86 20 89 21 87 22 88 23
REMARK SMILES IDX 9 24 10 25 11 26 12 27 13 29 14 30 15 31 76 32 16 33 75 34
REMARK SMILES IDX 17 35 18 36 19 37 69 38 20 39 74 40 68 41 70 42 21 43 73 44
REMARK SMILES IDX 67 45 66 46 22 48 54 49 34 50 53 51 35 52 38 53 52 54 71 55
REMARK SMILES IDX 36 56 37 57 51 59 72 60 39 61 23 62 24 63 32 64 25 65 26 66
REMARK SMILES IDX 30 67 33 68 27 69 28 70 31 71 29 72 55 73 56 74 64 75 57 76
REMARK SMILES IDX 58 77 62 78 65 79 59 80 60 81 63 82 61 83 40 84 41 85 49 86
REMARK SMILES IDX 42 87 43 88 47 89 50 90 44 91 45 92 48 93 46 94
REMARK H PARENT 7 5 11 28 70 47 38 58
REMARK Flexibility Score: inf
ROOT
ATOM      1  C   UNL A   1      31.879  30.729  26.235  1.00  0.00     0.117 C 
ENDROOT
BRANCH   1   2
ATOM      2  N   UNL A   1      31.515  29.586  27.033  1.00  0.00    -0.355 N 
ATOM      3  C   UNL A   1      31.798  28.272  26.996  1.00  0.00     0.228 C 
ATOM      4  O   UNL A   1      31.381  27.661  27.995  1.00  0.00    -0.274 OA
ATOM      5  H   UNL A   1      30.919  29.823  27.780  1.00  0.00     0.163 HD
BRANCH   3   6
ATOM      6  C   UNL A   1      32.528  27.472  25.874  1.00  0.00     0.067 C 
ATOM      7  C   UNL A   1      31.772  27.822  24.561  1.00  0.00     0.020 C 
ATOM      8  C   UNL A   1      32.694  25.940  26.019  1.00  0.00     0.136 C 
ATOM      9  C   UNL A   1      30.540  26.949  24.358  1.00  0.00     0.023 C 
ATOM     10  N   UNL A   1      31.539  25.115  25.622  1.00  0.00    -0.342 N 
ATOM     11  C   UNL A   1      30.936  25.484  24.349  1.00  0.00     0.119 C 
BRANCH   6  12
ATOM     12  C   UNL A   1      33.949  28.162  25.879  1.00  0.00     0.018 C 
BRANCH  12  13
ATOM     13  C   UNL A   1      34.645  28.550  27.190  1.00  0.00    -0.002 C 
ATOM     14  C   UNL A   1      35.228  29.951  27.232  1.00  0.00     0.004 C 
ENDBRANCH  12  13
ENDBRANCH   6  12
BRANCH  10  15
ATOM     15  C   UNL A   1      31.324  23.899  26.259  1.00  0.00     0.224 C 
ATOM     16  O   UNL A   1      31.336  23.805  27.489  1.00  0.00    -0.275 OA
BRANCH  15  17
ATOM     17  C   UNL A   1      31.025  22.650  25.446  1.00  0.00     0.124 C 
BRANCH  17  18
ATOM     18  C   UNL A   1      32.269  21.839  25.091  1.00  0.00     0.156 C 
BRANCH  18  19
ATOM     19  N   UNL A   1      33.153  22.485  24.145  1.00  0.00    -0.252 N 
ATOM     20  C   UNL A   1      32.919  22.748  22.830  1.00  0.00     0.219 A 
ATOM     21  N   UNL A   1      34.368  22.927  24.515  1.00  0.00    -0.160 NA
ATOM     22  N   UNL A   1      33.985  23.298  22.296  1.00  0.00    -0.224 NA
ATOM     23  C   UNL A   1      34.837  23.408  23.358  1.00  0.00     0.246 A 
ENDBRANCH  18  19
ENDBRANCH  17  18
ENDBRANCH  15  17
ENDBRANCH  10  15
ENDBRANCH   3   6
ENDBRANCH   1   2
BRANCH   1  24
ATOM     24  C   UNL A   1      31.495  32.045  26.890  1.00  0.00     0.042 C 
BRANCH  24  25
ATOM     25  C   UNL A   1      32.687  32.838  27.393  1.00  0.00     0.118 C 
BRANCH  25  26
ATOM     26  N   UNL A   1      32.394  34.234  27.687  1.00  0.00    -0.352 N 
ATOM     27  C   UNL A   1      33.003  35.087  28.579  1.00  0.00     0.251 C 
ATOM     28  H   UNL A   1      31.651  34.625  27.173  1.00  0.00     0.163 HD
ATOM     29  O   UNL A   1      32.548  36.215  28.750  1.00  0.00    -0.269 OA
BRANCH  27  30
ATOM     30  C   UNL A   1      34.178  34.633  29.359  1.00  0.00     0.039 A 
ATOM     31  C   UNL A   1      33.993  34.189  30.672  1.00  0.00     0.014 A 
ATOM     32  C   UNL A   1      35.455  34.610  28.796  1.00  0.00     0.014 A 
ATOM     33  C   UNL A   1      35.069  33.645  31.381  1.00  0.00     0.010 A 
ATOM     34  C   UNL A   1      36.493  33.963  29.453  1.00  0.00     0.010 A 
ATOM     35  C   UNL A   1      36.316  33.482  30.757  1.00  0.00    -0.014 A 
BRANCH  35  36
ATOM     36  C   UNL A   1      37.463  32.833  31.445  1.00  0.00     0.031 A 
ATOM     37  C   UNL A   1      38.178  31.687  30.779  1.00  0.00     0.074 A 
ATOM     38  C   UNL A   1      37.795  33.205  32.697  1.00  0.00     0.049 A 
ATOM     39  N   UNL A   1      39.102  30.894  31.258  1.00  0.00    -0.248 NA
ATOM     40  C   UNL A   1      37.763  31.357  29.405  1.00  0.00     0.031 C 
ATOM     41  C   UNL A   1      37.132  34.254  33.475  1.00  0.00     0.029 A 
ATOM     42  N   UNL A   1      38.766  32.730  33.543  1.00  0.00    -0.354 N 
ATOM     43  C   UNL A   1      39.343  29.953  30.265  1.00  0.00     0.074 A 
ATOM     44  C   UNL A   1      38.434  30.238  29.179  1.00  0.00     0.031 C 
ATOM     45  C   UNL A   1      37.735  34.364  34.670  1.00  0.00     0.029 A 
ATOM     46  C   UNL A   1      38.797  33.368  34.761  1.00  0.00     0.049 A 
ATOM     47  H   UNL A   1      39.381  32.002  33.301  1.00  0.00     0.167 HD
ATOM     48  C   UNL A   1      40.261  28.958  30.249  1.00  0.00     0.037 A 
ATOM     49  C   UNL A   1      39.593  33.166  35.827  1.00  0.00     0.037 A 
ATOM     50  C   UNL A   1      41.211  28.727  31.303  1.00  0.00     0.049 A 
ATOM     51  C   UNL A   1      40.644  32.089  35.758  1.00  0.00     0.074 A 
ATOM     52  C   UNL A   1      42.244  27.806  31.348  1.00  0.00     0.029 A 
ATOM     53  N   UNL A   1      41.253  29.436  32.494  1.00  0.00    -0.354 N 
ATOM     54  N   UNL A   1      40.909  31.252  34.785  1.00  0.00    -0.248 NA
ATOM     55  C   UNL A   1      41.510  31.935  36.935  1.00  0.00     0.031 C 
ATOM     56  C   UNL A   1      42.891  27.938  32.580  1.00  0.00     0.029 A 
ATOM     57  C   UNL A   1      42.289  28.968  33.284  1.00  0.00     0.049 A 
ATOM     58  H   UNL A   1      40.638  30.164  32.739  1.00  0.00     0.167 HD
ATOM     59  C   UNL A   1      41.989  30.495  35.217  1.00  0.00     0.074 A 
ATOM     60  C   UNL A   1      42.339  30.981  36.536  1.00  0.00     0.031 C 
ATOM     61  C   UNL A   1      42.631  29.484  34.583  1.00  0.00     0.037 A 
BRANCH  48  62
ATOM     62  C   UNL A   1      40.299  28.061  29.047  1.00  0.00     0.064 A 
ATOM     63  C   UNL A   1      39.572  26.862  28.999  1.00  0.00     0.173 A 
ATOM     64  C   UNL A   1      41.038  28.425  27.911  1.00  0.00     0.173 A 
ATOM     65  F   UNL A   1      38.859  26.462  30.063  1.00  0.00    -0.203 F 
ATOM     66  C   UNL A   1      39.606  26.047  27.871  1.00  0.00     0.198 A 
ATOM     67  C   UNL A   1      41.045  27.622  26.773  1.00  0.00     0.198 A 
ATOM     68  F   UNL A   1      41.748  29.563  27.900  1.00  0.00    -0.203 F 
ATOM     69  F   UNL A   1      38.943  24.882  27.868  1.00  0.00    -0.200 F 
ATOM     70  C   UNL A   1      40.336  26.431  26.757  1.00  0.00     0.200 A 
ATOM     71  F   UNL A   1      41.742  28.000  25.692  1.00  0.00    -0.200 F 
ATOM     72  F   UNL A   1      40.360  25.649  25.667  1.00  0.00    -0.200 F 
ENDBRANCH  48  62
BRANCH  49  73
ATOM     73  C   UNL A   1      39.456  34.018  37.037  1.00  0.00     0.064 A 
ATOM     74  C   UNL A   1      38.744  33.564  38.156  1.00  0.00     0.173 A 
ATOM     75  C   UNL A   1      40.013  35.304  37.098  1.00  0.00     0.173 A 
ATOM     76  F   UNL A   1      38.175  32.348  38.138  1.00  0.00    -0.203 F 
ATOM     77  C   UNL A   1      38.569  34.370  39.278  1.00  0.00     0.198 A 
ATOM     78  C   UNL A   1      39.862  36.100  38.232  1.00  0.00     0.198 A 
ATOM     79  F   UNL A   1      40.708  35.785  36.058  1.00  0.00    -0.203 F 
ATOM     80  F   UNL A   1      37.839  33.930  40.311  1.00  0.00    -0.200 F 
ATOM     81  C   UNL A   1      39.133  35.637  39.317  1.00  0.00     0.200 A 
ATOM     82  F   UNL A   1      40.418  37.318  38.272  1.00  0.00    -0.200 F 
ATOM     83  F   UNL A   1      38.963  36.415  40.395  1.00  0.00    -0.200 F 
ENDBRANCH  49  73
BRANCH  61  84
ATOM     84  C   UNL A   1      43.803  28.869  35.286  1.00  0.00     0.064 A 
ATOM     85  C   UNL A   1      43.649  27.792  36.169  1.00  0.00     0.173 A 
ATOM     86  C   UNL A   1      45.103  29.336  35.034  1.00  0.00     0.173 A 
ATOM     87  F   UNL A   1      42.424  27.323  36.452  1.00  0.00    -0.203 F 
ATOM     88  C   UNL A   1      44.752  27.217  36.793  1.00  0.00     0.198 A 
ATOM     89  C   UNL A   1      46.205  28.739  35.637  1.00  0.00     0.198 A 
ATOM     90  F   UNL A   1      45.302  30.359  34.190  1.00  0.00    -0.203 F 
ATOM     91  F   UNL A   1      44.578  26.216  37.666  1.00  0.00    -0.200 F 
ATOM     92  C   UNL A   1      46.029  27.686  36.521  1.00  0.00     0.200 A 
ATOM     93  F   UNL A   1      47.440  29.184  35.363  1.00  0.00    -0.200 F 
ATOM     94  F   UNL A   1      47.090  27.124  37.116  1.00  0.00    -0.200 F 
ENDBRANCH  61  84
ENDBRANCH  35  36
ENDBRANCH  27  30
ENDBRANCH  25  26
ENDBRANCH  24  25
ENDBRANCH   1  24
TORSDOF 16
ENDMDL
MODEL 3
REMARK VINA RESULT:     -12.2      1.944      3.599
REMARK SMILES CCC[C@@]1(C(=O)NCCCNC(=O)c2ccc(-c3c4nc(c(-c5c(F)c(F)c(F)c(F)c5F)c5ccc([nH]5)c(-c5c(F)c(F)c(F)c(F)c5F)c5nc(c(-c6c(F)c(F)c(F)c(F)c6F)c6ccc3[nH]6)C=C5)C=C4)cc2)CCCN(C(=O)CCn2cncn2)C1
REMARK SMILES IDX 8 1 7 2 5 3 6 4 4 6 77 7 90 8 78 9 80 10 79 11 3 12 2 13
REMARK SMILES IDX 1 14 81 15 82 16 83 17 84 18 85 19 86 20 89 21 87 22 88 23
REMARK SMILES IDX 9 24 10 25 11 26 12 27 13 29 14 30 15 31 76 32 16 33 75 34
REMARK SMILES IDX 17 35 18 36 19 37 69 38 20 39 74 40 68 41 70 42 21 43 73 44
REMARK SMILES IDX 67 45 66 46 22 48 54 49 34 50 53 51 35 52 38 53 52 54 71 55
REMARK SMILES IDX 36 56 37 57 51 59 72 60 39 61 23 62 24 63 32 64 25 65 26 66
REMARK SMILES IDX 30 67 33 68 27 69 28 70 31 71 29 72 55 73 56 74 64 75 57 76
REMARK SMILES IDX 58 77 62 78 65 79 59 80 60 81 63 82 61 83 40 84 41 85 49 86
REMARK SMILES IDX 42 87 43 88 47 89 50 90 44 91 45 92 48 93 46 94
REMARK H PARENT 7 5 11 28 70 47 38 58
REMARK Flexibility Score: inf
ROOT
ATOM      1  C   UNL A   1      31.976  30.605  26.167  1.00  0.00     0.117 C 
ENDROOT
BRANCH   1   2
ATOM      2  N   UNL A   1      31.633  29.503  27.028  1.00  0.00    -0.355 N 
ATOM      3  C   UNL A   1      31.782  28.168  26.967  1.00  0.00     0.228 C 
ATOM      4  O   UNL A   1      31.469  27.599  28.028  1.00  0.00    -0.274 OA
ATOM      5  H   UNL A   1      31.186  29.795  27.855  1.00  0.00     0.163 HD
BRANCH   3   6
ATOM      6  C   UNL A   1      32.250  27.302  25.758  1.00  0.00     0.067 C 
ATOM      7  C   UNL A   1      31.091  27.377  24.725  1.00  0.00     0.020 C 
ATOM      8  C   UNL A   1      32.678  25.833  25.995  1.00  0.00     0.136 C 
ATOM      9  C   UNL A   1      29.998  26.355  25.012  1.00  0.00     0.023 C 
ATOM     10  N   UNL A   1      31.592  24.838  26.071  1.00  0.00    -0.342 N 
ATOM     11  C   UNL A   1      30.586  24.955  25.025  1.00  0.00     0.119 C 
BRANCH   6  12
ATOM     12  C   UNL A   1      33.488  28.137  25.242  1.00  0.00     0.018 C 
BRANCH  12  13
ATOM     13  C   UNL A   1      34.002  28.000  23.803  1.00  0.00    -0.002 C 
ATOM     14  C   UNL A   1      33.573  29.098  22.848  1.00  0.00     0.004 C 
ENDBRANCH  12  13
ENDBRANCH   6  12
BRANCH  10  15
ATOM     15  C   UNL A   1      31.762  23.710  26.861  1.00  0.00     0.224 C 
ATOM     16  O   UNL A   1      30.839  23.253  27.540  1.00  0.00    -0.275 OA
BRANCH  15  17
ATOM     17  C   UNL A   1      33.094  22.978  26.877  1.00  0.00     0.124 C 
BRANCH  17  18
ATOM     18  C   UNL A   1      33.241  21.950  25.757  1.00  0.00     0.156 C 
BRANCH  18  19
ATOM     19  N   UNL A   1      33.590  22.515  24.471  1.00  0.00    -0.252 N 
ATOM     20  C   UNL A   1      34.748  23.139  24.121  1.00  0.00     0.219 A 
ATOM     21  N   UNL A   1      32.741  22.458  23.430  1.00  0.00    -0.160 NA
ATOM     22  N   UNL A   1      34.661  23.560  22.881  1.00  0.00    -0.224 NA
ATOM     23  C   UNL A   1      33.433  23.109  22.489  1.00  0.00     0.246 A 
ENDBRANCH  18  19
ENDBRANCH  17  18
ENDBRANCH  15  17
ENDBRANCH  10  15
ENDBRANCH   3   6
ENDBRANCH   1   2
BRANCH   1  24
ATOM     24  C   UNL A   1      31.556  31.948  26.742  1.00  0.00     0.042 C 
BRANCH  24  25
ATOM     25  C   UNL A   1      32.711  32.738  27.329  1.00  0.00     0.118 C 
BRANCH  25  26
ATOM     26  N   UNL A   1      32.383  34.119  27.657  1.00  0.00    -0.352 N 
ATOM     27  C   UNL A   1      32.964  34.963  28.576  1.00  0.00     0.251 C 
ATOM     28  H   UNL A   1      31.636  34.507  27.146  1.00  0.00     0.163 HD
ATOM     29  O   UNL A   1      32.482  36.076  28.772  1.00  0.00    -0.269 OA
BRANCH  27  30
ATOM     30  C   UNL A   1      34.143  34.516  29.355  1.00  0.00     0.039 A 
ATOM     31  C   UNL A   1      33.949  33.936  30.612  1.00  0.00     0.014 A 
ATOM     32  C   UNL A   1      35.436  34.635  28.842  1.00  0.00     0.014 A 
ATOM     33  C   UNL A   1      35.037  33.399  31.307  1.00  0.00     0.010 A 
ATOM     34  C   UNL A   1      36.495  33.998  29.474  1.00  0.00     0.010 A 
ATOM     35  C   UNL A   1      36.311  33.382  30.719  1.00  0.00    -0.014 A 
BRANCH  35  36
ATOM     36  C   UNL A   1      37.480  32.749  31.386  1.00  0.00     0.031 A 
ATOM     37  C   UNL A   1      38.194  31.609  30.710  1.00  0.00     0.074 A 
ATOM     38  C   UNL A   1      37.831  33.129  32.630  1.00  0.00     0.049 A 
ATOM     39  N   UNL A   1      39.137  30.829  31.173  1.00  0.00    -0.248 NA
ATOM     40  C   UNL A   1      37.757  31.269  29.345  1.00  0.00     0.031 C 
ATOM     41  C   UNL A   1      37.173  34.173  33.418  1.00  0.00     0.029 A 
ATOM     42  N   UNL A   1      38.824  32.669  33.459  1.00  0.00    -0.354 N 
ATOM     43  C   UNL A   1      39.369  29.886  30.179  1.00  0.00     0.074 A 
ATOM     44  C   UNL A   1      38.435  30.157  29.110  1.00  0.00     0.031 C 
ATOM     45  C   UNL A   1      37.797  34.294  34.600  1.00  0.00     0.029 A 
ATOM     46  C   UNL A   1      38.872  33.311  34.673  1.00  0.00     0.049 A 
ATOM     47  H   UNL A   1      39.443  31.946  33.206  1.00  0.00     0.167 HD
ATOM     48  C   UNL A   1      40.298  28.902  30.148  1.00  0.00     0.037 A 
ATOM     49  C   UNL A   1      39.691  33.121  35.724  1.00  0.00     0.037 A 
ATOM     50  C   UNL A   1      41.271  28.685  31.184  1.00  0.00     0.049 A 
ATOM     51  C   UNL A   1      40.753  32.057  35.639  1.00  0.00     0.074 A 
ATOM     52  C   UNL A   1      42.315  27.777  31.211  1.00  0.00     0.029 A 
ATOM     53  N   UNL A   1      41.328  29.399  32.371  1.00  0.00    -0.354 N 
ATOM     54  N   UNL A   1      41.008  31.220  34.663  1.00  0.00    -0.248 NA
ATOM     55  C   UNL A   1      41.644  31.917  36.799  1.00  0.00     0.031 C 
ATOM     56  C   UNL A   1      42.985  27.921  32.430  1.00  0.00     0.029 A 
ATOM     57  C   UNL A   1      42.385  28.946  33.143  1.00  0.00     0.049 A 
ATOM     58  H   UNL A   1      40.710  30.121  32.626  1.00  0.00     0.167 HD
ATOM     59  C   UNL A   1      42.105  30.476  35.076  1.00  0.00     0.074 A 
ATOM     60  C   UNL A   1      42.475  30.971  36.386  1.00  0.00     0.031 C 
ATOM     61  C   UNL A   1      42.747  29.471  34.433  1.00  0.00     0.037 A 
BRANCH  48  62
ATOM     62  C   UNL A   1      40.323  28.001  28.948  1.00  0.00     0.064 A 
ATOM     63  C   UNL A   1      41.072  28.317  27.805  1.00  0.00     0.173 A 
ATOM     64  C   UNL A   1      39.622  26.785  28.957  1.00  0.00     0.173 A 
ATOM     65  F   UNL A   1      41.750  29.473  27.741  1.00  0.00    -0.203 F 
ATOM     66  C   UNL A   1      41.097  27.464  26.706  1.00  0.00     0.198 A 
ATOM     67  C   UNL A   1      39.674  25.920  27.867  1.00  0.00     0.198 A 
ATOM     68  F   UNL A   1      38.892  26.431  30.026  1.00  0.00    -0.203 F 
ATOM     69  F   UNL A   1      41.781  27.811  25.606  1.00  0.00    -0.200 F 
ATOM     70  C   UNL A   1      40.405  26.264  26.740  1.00  0.00     0.200 A 
ATOM     71  F   UNL A   1      39.013  24.754  27.906  1.00  0.00    -0.200 F 
ATOM     72  F   UNL A   1      40.438  25.438  25.684  1.00  0.00    -0.200 F 
ENDBRANCH  48  62
BRANCH  49  73
ATOM     73  C   UNL A   1      39.568  33.977  36.934  1.00  0.00     0.064 A 
ATOM     74  C   UNL A   1      38.808  33.555  38.034  1.00  0.00     0.173 A 
ATOM     75  C   UNL A   1      40.186  35.233  37.012  1.00  0.00     0.173 A 
ATOM     76  F   UNL A   1      38.181  32.369  37.998  1.00  0.00    -0.203 F 
ATOM     77  C   UNL A   1      38.648  34.366  39.155  1.00  0.00     0.198 A 
ATOM     78  C   UNL A   1      40.049  36.033  38.145  1.00  0.00     0.198 A 
ATOM     79  F   UNL A   1      40.928  35.682  35.990  1.00  0.00    -0.203 F 
ATOM     80  F   UNL A   1      37.872  33.960  40.169  1.00  0.00    -0.200 F 
ATOM     81  C   UNL A   1      39.272  35.603  39.212  1.00  0.00     0.200 A 
ATOM     82  F   UNL A   1      40.663  37.222  38.203  1.00  0.00    -0.200 F 
ATOM     83  F   UNL A   1      39.116  36.386  40.289  1.00  0.00    -0.200 F 
ENDBRANCH  49  73
BRANCH  61  84
ATOM     84  C   UNL A   1      43.939  28.872  35.114  1.00  0.00     0.064 A 
ATOM     85  C   UNL A   1      45.231  29.377  34.912  1.00  0.00     0.173 A 
ATOM     86  C   UNL A   1      43.778  27.809  36.016  1.00  0.00     0.173 A 
ATOM     87  F   UNL A   1      45.435  30.381  34.047  1.00  0.00    -0.203 F 
ATOM     88  C   UNL A   1      46.325  28.824  35.573  1.00  0.00     0.198 A 
ATOM     89  C   UNL A   1      44.870  27.279  36.697  1.00  0.00     0.198 A 
ATOM     90  F   UNL A   1      42.561  27.297  36.249  1.00  0.00    -0.203 F 
ATOM     91  F   UNL A   1      47.557  29.293  35.333  1.00  0.00    -0.200 F 
ATOM     92  C   UNL A   1      46.142  27.781  36.470  1.00  0.00     0.200 A 
ATOM     93  F   UNL A   1      44.691  26.280  37.573  1.00  0.00    -0.200 F 
ATOM     94  F   UNL A   1      47.196  27.257  37.112  1.00  0.00    -0.200 F 
ENDBRANCH  61  84
ENDBRANCH  35  36
ENDBRANCH  27  30
ENDBRANCH  25  26
ENDBRANCH  24  25
ENDBRANCH   1  24
TORSDOF 16
ENDMDL
