MODEL 1
REMARK VINA RESULT:     -12.2      0.000      0.000
REMARK SMILES COc1ccc2cc([C@@H](C)C(=O)NCCCNC(=O)c3ccc(-c4c5nc(c(-c6c(F)c(F)c(F)c(F)c6F)c6ccc([nH]6)c(-c6c(F)c(F)c(F)c(F)c6F)c6nc(c(-c7c(F)c(F)c(F)c(F)c7F)c7ccc4[nH]7)C=C6)C=C5)cc3)ccc2c1
REMARK SMILES IDX 15 1 14 2 13 3 11 4 12 5 9 7 10 8 8 9 3 10 4 11 86 12 5 13
REMARK SMILES IDX 85 14 6 15 84 16 7 17 83 18 2 19 1 20 16 21 17 22 18 23
REMARK SMILES IDX 19 25 20 26 21 27 82 28 22 29 81 30 23 31 24 32 25 33 75 34
REMARK SMILES IDX 26 35 80 36 74 37 76 38 27 39 79 40 73 41 72 42 28 44 60 45
REMARK SMILES IDX 40 46 59 47 41 48 44 49 58 50 77 51 42 52 43 53 57 55 78 56
REMARK SMILES IDX 45 57 29 58 30 59 38 60 31 61 32 62 36 63 39 64 33 65 34 66
REMARK SMILES IDX 37 67 35 68 61 69 62 70 70 71 63 72 64 73 68 74 71 75 65 76
REMARK SMILES IDX 66 77 69 78 67 79 46 80 47 81 55 82 48 83 49 84 53 85 56 86
REMARK SMILES IDX 50 87 51 88 54 89 52 90
REMARK H PARENT 13 6 17 24 76 43 44 54
REMARK Flexibility Score: inf
ROOT
ATOM      1  C   UNL A   1      33.308  28.944  23.649  1.00  0.00     0.042 C 
ENDROOT
BRANCH   1   2
ATOM      2  C   UNL A   1      31.860  28.786  23.187  1.00  0.00     0.117 C 
BRANCH   2   3
ATOM      3  N   UNL A   1      31.742  27.893  22.051  1.00  0.00    -0.356 N 
ATOM      4  C   UNL A   1      31.592  26.543  21.954  1.00  0.00     0.227 C 
ATOM      5  O   UNL A   1      31.610  26.081  20.806  1.00  0.00    -0.274 OA
ATOM      6  H   UNL A   1      31.776  28.351  21.181  1.00  0.00     0.163 HD
BRANCH   4   7
ATOM      7  C   UNL A   1      31.407  25.598  23.153  1.00  0.00     0.105 C 
ATOM      8  C   UNL A   1      30.264  25.970  24.095  1.00  0.00     0.023 C 
BRANCH   7   9
ATOM      9  C   UNL A   1      32.717  25.219  23.828  1.00  0.00    -0.035 A 
ATOM     10  C   UNL A   1      37.119  23.070  25.212  1.00  0.00     0.119 A 
ATOM     11  C   UNL A   1      36.890  22.687  23.893  1.00  0.00     0.047 A 
ATOM     12  C   UNL A   1      36.191  23.887  25.865  1.00  0.00     0.055 A 
ATOM     13  C   UNL A   1      35.772  23.169  23.211  1.00  0.00     0.012 A 
ATOM     14  C   UNL A   1      35.046  24.358  25.200  1.00  0.00    -0.015 A 
ATOM     15  C   UNL A   1      34.849  24.013  23.849  1.00  0.00    -0.018 A 
ATOM     16  C   UNL A   1      34.087  25.151  25.844  1.00  0.00     0.009 A 
ATOM     17  C   UNL A   1      33.717  24.493  23.170  1.00  0.00     0.013 A 
ATOM     18  C   UNL A   1      32.926  25.554  25.174  1.00  0.00     0.005 A 
BRANCH  10  19
ATOM     19  O   UNL A   1      38.190  22.678  25.967  1.00  0.00    -0.497 OA
ATOM     20  C   UNL A   1      38.711  21.388  25.662  1.00  0.00     0.278 C 
ENDBRANCH  10  19
ENDBRANCH   7   9
ENDBRANCH   4   7
ENDBRANCH   2   3
ENDBRANCH   1   2
BRANCH   1  21
ATOM     21  C   UNL A   1      33.472  29.070  25.158  1.00  0.00     0.118 C 
BRANCH  21  22
ATOM     22  N   UNL A   1      32.916  30.314  25.671  1.00  0.00    -0.352 N 
ATOM     23  C   UNL A   1      33.261  31.073  26.762  1.00  0.00     0.251 C 
ATOM     24  H   UNL A   1      32.163  30.671  25.146  1.00  0.00     0.163 HD
ATOM     25  O   UNL A   1      32.503  31.970  27.123  1.00  0.00    -0.269 OA
BRANCH  23  26
ATOM     26  C   UNL A   1      34.515  30.835  27.520  1.00  0.00     0.039 A 
ATOM     27  C   UNL A   1      34.730  29.566  28.070  1.00  0.00     0.014 A 
ATOM     28  C   UNL A   1      35.438  31.854  27.766  1.00  0.00     0.014 A 
ATOM     29  C   UNL A   1      35.883  29.308  28.820  1.00  0.00     0.010 A 
ATOM     30  C   UNL A   1      36.623  31.578  28.449  1.00  0.00     0.010 A 
ATOM     31  C   UNL A   1      36.853  30.306  28.994  1.00  0.00    -0.014 A 
BRANCH  31  32
ATOM     32  C   UNL A   1      38.102  30.048  29.758  1.00  0.00     0.031 A 
ATOM     33  C   UNL A   1      39.153  29.126  29.203  1.00  0.00     0.074 A 
ATOM     34  C   UNL A   1      38.261  30.583  30.984  1.00  0.00     0.049 A 
ATOM     35  N   UNL A   1      40.260  28.699  29.758  1.00  0.00    -0.248 NA
ATOM     36  C   UNL A   1      38.913  28.591  27.854  1.00  0.00     0.031 C 
ATOM     37  C   UNL A   1      37.297  31.455  31.655  1.00  0.00     0.029 A 
ATOM     38  N   UNL A   1      39.284  30.455  31.890  1.00  0.00    -0.354 N 
ATOM     39  C   UNL A   1      40.830  27.825  28.842  1.00  0.00     0.074 A 
ATOM     40  C   UNL A   1      39.931  27.753  27.711  1.00  0.00     0.031 C 
ATOM     41  C   UNL A   1      37.777  31.791  32.862  1.00  0.00     0.029 A 
ATOM     42  C   UNL A   1      39.064  31.132  33.065  1.00  0.00     0.049 A 
ATOM     43  H   UNL A   1      40.097  29.929  31.716  1.00  0.00     0.167 HD
ATOM     44  C   UNL A   1      42.005  27.155  28.929  1.00  0.00     0.037 A 
ATOM     45  C   UNL A   1      39.809  31.203  34.184  1.00  0.00     0.037 A 
ATOM     46  C   UNL A   1      42.920  27.260  30.034  1.00  0.00     0.049 A 
ATOM     47  C   UNL A   1      41.120  30.471  34.248  1.00  0.00     0.074 A 
ATOM     48  C   UNL A   1      44.176  26.694  30.173  1.00  0.00     0.029 A 
ATOM     49  N   UNL A   1      42.676  27.981  31.194  1.00  0.00    -0.354 N 
ATOM     50  N   UNL A   1      41.682  29.703  33.347  1.00  0.00    -0.248 NA
ATOM     51  C   UNL A   1      41.903  30.618  35.483  1.00  0.00     0.031 C 
ATOM     52  C   UNL A   1      44.675  27.041  31.434  1.00  0.00     0.029 A 
ATOM     53  C   UNL A   1      43.748  27.854  32.064  1.00  0.00     0.049 A 
ATOM     54  H   UNL A   1      41.862  28.504  31.373  1.00  0.00     0.167 HD
ATOM     55  C   UNL A   1      42.888  29.288  33.896  1.00  0.00     0.074 A 
ATOM     56  C   UNL A   1      42.985  29.905  35.203  1.00  0.00     0.031 C 
ATOM     57  C   UNL A   1      43.829  28.469  33.364  1.00  0.00     0.037 A 
BRANCH  44  58
ATOM     58  C   UNL A   1      42.366  26.243  27.793  1.00  0.00     0.064 A 
ATOM     59  C   UNL A   1      43.294  26.621  26.811  1.00  0.00     0.173 A 
ATOM     60  C   UNL A   1      41.795  24.965  27.700  1.00  0.00     0.173 A 
ATOM     61  F   UNL A   1      43.860  27.836  26.849  1.00  0.00    -0.203 F 
ATOM     62  C   UNL A   1      43.611  25.766  25.758  1.00  0.00     0.198 A 
ATOM     63  C   UNL A   1      42.136  24.102  26.661  1.00  0.00     0.198 A 
ATOM     64  F   UNL A   1      40.909  24.551  28.617  1.00  0.00    -0.203 F 
ATOM     65  F   UNL A   1      44.460  26.169  24.802  1.00  0.00    -0.200 F 
ATOM     66  C   UNL A   1      43.036  24.506  25.686  1.00  0.00     0.200 A 
ATOM     67  F   UNL A   1      41.588  22.880  26.599  1.00  0.00    -0.200 F 
ATOM     68  F   UNL A   1      43.342  23.685  24.673  1.00  0.00    -0.200 F 
ENDBRANCH  44  58
BRANCH  45  69
ATOM     69  C   UNL A   1      39.334  32.023  35.327  1.00  0.00     0.064 A 
ATOM     70  C   UNL A   1      39.652  33.385  35.415  1.00  0.00     0.173 A 
ATOM     71  C   UNL A   1      38.531  31.473  36.335  1.00  0.00     0.173 A 
ATOM     72  F   UNL A   1      40.433  33.951  34.483  1.00  0.00    -0.203 F 
ATOM     73  C   UNL A   1      39.189  34.165  36.472  1.00  0.00     0.198 A 
ATOM     74  C   UNL A   1      38.046  32.259  37.378  1.00  0.00     0.198 A 
ATOM     75  F   UNL A   1      38.193  30.176  36.292  1.00  0.00    -0.203 F 
ATOM     76  F   UNL A   1      39.530  35.459  36.546  1.00  0.00    -0.200 F 
ATOM     77  C   UNL A   1      38.381  33.603  37.449  1.00  0.00     0.200 A 
ATOM     78  F   UNL A   1      37.245  31.719  38.307  1.00  0.00    -0.200 F 
ATOM     79  F   UNL A   1      37.921  34.357  38.456  1.00  0.00    -0.200 F 
ENDBRANCH  45  69
BRANCH  57  80
ATOM     80  C   UNL A   1      45.052  28.203  34.190  1.00  0.00     0.064 A 
ATOM     81  C   UNL A   1      45.125  27.098  35.052  1.00  0.00     0.173 A 
ATOM     82  C   UNL A   1      46.174  29.036  34.090  1.00  0.00     0.173 A 
ATOM     83  F   UNL A   1      44.070  26.282  35.195  1.00  0.00    -0.203 F 
ATOM     84  C   UNL A   1      46.273  26.850  35.799  1.00  0.00     0.198 A 
ATOM     85  C   UNL A   1      47.331  28.771  34.819  1.00  0.00     0.198 A 
ATOM     86  F   UNL A   1      46.155  30.102  33.277  1.00  0.00    -0.203 F 
ATOM     87  F   UNL A   1      46.309  25.813  36.646  1.00  0.00    -0.200 F 
ATOM     88  C   UNL A   1      47.378  27.682  35.677  1.00  0.00     0.200 A 
ATOM     89  F   UNL A   1      48.399  29.570  34.694  1.00  0.00    -0.200 F 
ATOM     90  F   UNL A   1      48.483  27.438  36.392  1.00  0.00    -0.200 F 
ENDBRANCH  57  80
ENDBRANCH  31  32
ENDBRANCH  23  26
ENDBRANCH  21  22
ENDBRANCH   1  21
TORSDOF 12
ENDMDL
MODEL 2
REMARK VINA RESULT:     -12.1      2.267      3.678
REMARK SMILES COc1ccc2cc([C@@H](C)C(=O)NCCCNC(=O)c3ccc(-c4c5nc(c(-c6c(F)c(F)c(F)c(F)c6F)c6ccc([nH]6)c(-c6c(F)c(F)c(F)c(F)c6F)c6nc(c(-c7c(F)c(F)c(F)c(F)c7F)c7ccc4[nH]7)C=C6)C=C5)cc3)ccc2c1
REMARK SMILES IDX 15 1 14 2 13 3 11 4 12 5 9 7 10 8 8 9 3 10 4 11 86 12 5 13
REMARK SMILES IDX 85 14 6 15 84 16 7 17 83 18 2 19 1 20 16 21 17 22 18 23
REMARK SMILES IDX 19 25 20 26 21 27 82 28 22 29 81 30 23 31 24 32 25 33 75 34
REMARK SMILES IDX 26 35 80 36 74 37 76 38 27 39 79 40 73 41 72 42 28 44 60 45
REMARK SMILES IDX 40 46 59 47 41 48 44 49 58 50 77 51 42 52 43 53 57 55 78 56
REMARK SMILES IDX 45 57 29 58 30 59 38 60 31 61 32 62 36 63 39 64 33 65 34 66
REMARK SMILES IDX 37 67 35 68 61 69 62 70 70 71 63 72 64 73 68 74 71 75 65 76
REMARK SMILES IDX 66 77 69 78 67 79 46 80 47 81 55 82 48 83 49 84 53 85 56 86
REMARK SMILES IDX 50 87 51 88 54 89 52 90
REMARK H PARENT 13 6 17 24 76 43 44 54
REMARK Flexibility Score: inf
ROOT
ATOM      1  C   UNL A   1      31.305  32.566  26.507  1.00  0.00     0.042 C 
ENDROOT
BRANCH   1   2
ATOM      2  C   UNL A   1      31.183  31.043  26.503  1.00  0.00     0.117 C 
BRANCH   2   3
ATOM      3  N   UNL A   1      31.833  30.445  25.354  1.00  0.00    -0.356 N 
ATOM      4  C   UNL A   1      32.669  29.379  25.221  1.00  0.00     0.227 C 
ATOM      5  O   UNL A   1      33.119  29.186  24.084  1.00  0.00    -0.274 OA
ATOM      6  H   UNL A   1      31.631  30.897  24.503  1.00  0.00     0.163 HD
BRANCH   4   7
ATOM      7  C   UNL A   1      33.066  28.434  26.368  1.00  0.00     0.105 C 
ATOM      8  C   UNL A   1      34.333  28.834  27.121  1.00  0.00     0.023 C 
BRANCH   7   9
ATOM      9  C   UNL A   1      32.960  26.962  26.000  1.00  0.00    -0.035 A 
ATOM     10  C   UNL A   1      31.675  22.054  25.591  1.00  0.00     0.119 A 
ATOM     11  C   UNL A   1      30.575  22.705  26.141  1.00  0.00     0.047 A 
ATOM     12  C   UNL A   1      32.828  22.782  25.286  1.00  0.00     0.055 A 
ATOM     13  C   UNL A   1      30.605  24.088  26.327  1.00  0.00     0.012 A 
ATOM     14  C   UNL A   1      32.883  24.172  25.492  1.00  0.00    -0.015 A 
ATOM     15  C   UNL A   1      31.746  24.834  25.997  1.00  0.00    -0.018 A 
ATOM     16  C   UNL A   1      34.038  24.917  25.223  1.00  0.00     0.009 A 
ATOM     17  C   UNL A   1      31.785  26.224  26.191  1.00  0.00     0.013 A 
ATOM     18  C   UNL A   1      34.083  26.289  25.498  1.00  0.00     0.005 A 
BRANCH  10  19
ATOM     19  O   UNL A   1      31.747  20.710  25.345  1.00  0.00    -0.497 OA
ATOM     20  C   UNL A   1      32.856  20.294  24.552  1.00  0.00     0.278 C 
ENDBRANCH  10  19
ENDBRANCH   7   9
ENDBRANCH   4   7
ENDBRANCH   2   3
ENDBRANCH   1   2
BRANCH   1  21
ATOM     21  C   UNL A   1      32.606  33.087  27.105  1.00  0.00     0.118 C 
BRANCH  21  22
ATOM     22  N   UNL A   1      32.450  34.409  27.695  1.00  0.00    -0.352 N 
ATOM     23  C   UNL A   1      33.058  34.988  28.781  1.00  0.00     0.251 C 
ATOM     24  H   UNL A   1      31.795  34.985  27.238  1.00  0.00     0.163 HD
ATOM     25  O   UNL A   1      32.604  36.040  29.225  1.00  0.00    -0.269 OA
BRANCH  23  26
ATOM     26  C   UNL A   1      34.241  34.377  29.438  1.00  0.00     0.039 A 
ATOM     27  C   UNL A   1      34.043  33.632  30.608  1.00  0.00     0.014 A 
ATOM     28  C   UNL A   1      35.540  34.589  28.972  1.00  0.00     0.014 A 
ATOM     29  C   UNL A   1      35.134  33.066  31.276  1.00  0.00     0.010 A 
ATOM     30  C   UNL A   1      36.620  33.963  29.596  1.00  0.00     0.010 A 
ATOM     31  C   UNL A   1      36.431  33.205  30.761  1.00  0.00    -0.014 A 
BRANCH  31  32
ATOM     32  C   UNL A   1      37.604  32.586  31.434  1.00  0.00     0.031 A 
ATOM     33  C   UNL A   1      38.330  31.439  30.788  1.00  0.00     0.074 A 
ATOM     34  C   UNL A   1      37.970  33.005  32.661  1.00  0.00     0.049 A 
ATOM     35  N   UNL A   1      39.308  30.704  31.257  1.00  0.00    -0.248 NA
ATOM     36  C   UNL A   1      37.878  31.047  29.444  1.00  0.00     0.031 C 
ATOM     37  C   UNL A   1      37.321  34.074  33.416  1.00  0.00     0.029 A 
ATOM     38  N   UNL A   1      38.969  32.565  33.495  1.00  0.00    -0.354 N 
ATOM     39  C   UNL A   1      39.565  29.749  30.283  1.00  0.00     0.074 A 
ATOM     40  C   UNL A   1      38.618  29.972  29.212  1.00  0.00     0.031 C 
ATOM     41  C   UNL A   1      37.941  34.216  34.598  1.00  0.00     0.029 A 
ATOM     42  C   UNL A   1      39.008  33.225  34.698  1.00  0.00     0.049 A 
ATOM     43  H   UNL A   1      39.596  31.847  33.253  1.00  0.00     0.167 HD
ATOM     44  C   UNL A   1      40.516  28.783  30.275  1.00  0.00     0.037 A 
ATOM     45  C   UNL A   1      39.806  33.043  35.768  1.00  0.00     0.037 A 
ATOM     46  C   UNL A   1      41.485  28.588  31.321  1.00  0.00     0.049 A 
ATOM     47  C   UNL A   1      40.868  31.981  35.726  1.00  0.00     0.074 A 
ATOM     48  C   UNL A   1      42.544  27.698  31.362  1.00  0.00     0.029 A 
ATOM     49  N   UNL A   1      41.513  29.298  32.513  1.00  0.00    -0.354 N 
ATOM     50  N   UNL A   1      41.149  31.130  34.770  1.00  0.00    -0.248 NA
ATOM     51  C   UNL A   1      41.730  31.857  36.911  1.00  0.00     0.031 C 
ATOM     52  C   UNL A   1      43.189  27.841  32.596  1.00  0.00     0.029 A 
ATOM     53  C   UNL A   1      42.556  28.847  33.306  1.00  0.00     0.049 A 
ATOM     54  H   UNL A   1      40.883  30.013  32.758  1.00  0.00     0.167 HD
ATOM     55  C   UNL A   1      42.224  30.381  35.227  1.00  0.00     0.074 A 
ATOM     56  C   UNL A   1      42.559  30.891  36.542  1.00  0.00     0.031 C 
ATOM     57  C   UNL A   1      42.874  29.361  34.614  1.00  0.00     0.037 A 
BRANCH  44  58
ATOM     58  C   UNL A   1      40.550  27.857  29.094  1.00  0.00     0.064 A 
ATOM     59  C   UNL A   1      39.759  26.700  29.042  1.00  0.00     0.173 A 
ATOM     60  C   UNL A   1      41.365  28.146  27.990  1.00  0.00     0.173 A 
ATOM     61  F   UNL A   1      38.971  26.374  30.077  1.00  0.00    -0.203 F 
ATOM     62  C   UNL A   1      39.810  25.847  27.942  1.00  0.00     0.198 A 
ATOM     63  C   UNL A   1      41.392  27.305  26.879  1.00  0.00     0.198 A 
ATOM     64  F   UNL A   1      42.135  29.244  27.984  1.00  0.00    -0.203 F 
ATOM     65  F   UNL A   1      39.085  24.719  27.937  1.00  0.00    -0.200 F 
ATOM     66  C   UNL A   1      40.621  26.152  26.860  1.00  0.00     0.200 A 
ATOM     67  F   UNL A   1      42.168  27.607  25.829  1.00  0.00    -0.200 F 
ATOM     68  F   UNL A   1      40.668  25.331  25.803  1.00  0.00    -0.200 F 
ENDBRANCH  44  58
BRANCH  45  69
ATOM     69  C   UNL A   1      39.638  33.911  36.960  1.00  0.00     0.064 A 
ATOM     70  C   UNL A   1      40.236  35.178  37.017  1.00  0.00     0.173 A 
ATOM     71  C   UNL A   1      38.854  33.508  38.051  1.00  0.00     0.173 A 
ATOM     72  F   UNL A   1      41.009  35.597  36.005  1.00  0.00    -0.203 F 
ATOM     73  C   UNL A   1      40.061  36.005  38.123  1.00  0.00     0.198 A 
ATOM     74  C   UNL A   1      38.658  34.348  39.145  1.00  0.00     0.198 A 
ATOM     75  F   UNL A   1      38.255  32.309  38.041  1.00  0.00    -0.203 F 
ATOM     76  F   UNL A   1      40.666  37.201  38.165  1.00  0.00    -0.200 F 
ATOM     77  C   UNL A   1      39.267  35.593  39.183  1.00  0.00     0.200 A 
ATOM     78  F   UNL A   1      37.871  33.956  40.157  1.00  0.00    -0.200 F 
ATOM     79  F   UNL A   1      39.086  36.397  40.240  1.00  0.00    -0.200 F 
ENDBRANCH  45  69
BRANCH  57  80
ATOM     80  C   UNL A   1      44.022  28.738  35.351  1.00  0.00     0.064 A 
ATOM     81  C   UNL A   1      45.339  29.185  35.165  1.00  0.00     0.173 A 
ATOM     82  C   UNL A   1      43.799  27.712  36.280  1.00  0.00     0.173 A 
ATOM     83  F   UNL A   1      45.605  30.152  34.275  1.00  0.00    -0.203 F 
ATOM     84  C   UNL A   1      46.394  28.612  35.871  1.00  0.00     0.198 A 
ATOM     85  C   UNL A   1      44.853  27.159  37.002  1.00  0.00     0.198 A 
ATOM     86  F   UNL A   1      42.557  27.253  36.495  1.00  0.00    -0.203 F 
ATOM     87  F   UNL A   1      47.648  29.026  35.650  1.00  0.00    -0.200 F 
ATOM     88  C   UNL A   1      46.149  27.604  36.793  1.00  0.00     0.200 A 
ATOM     89  F   UNL A   1      44.614  26.191  37.899  1.00  0.00    -0.200 F 
ATOM     90  F   UNL A   1      47.165  27.058  37.475  1.00  0.00    -0.200 F 
ENDBRANCH  57  80
ENDBRANCH  31  32
ENDBRANCH  23  26
ENDBRANCH  21  22
ENDBRANCH   1  21
TORSDOF 12
ENDMDL
MODEL 3
REMARK VINA RESULT:     -12.1      3.619      7.192
REMARK SMILES COc1ccc2cc([C@@H](C)C(=O)NCCCNC(=O)c3ccc(-c4c5nc(c(-c6c(F)c(F)c(F)c(F)c6F)c6ccc([nH]6)c(-c6c(F)c(F)c(F)c(F)c6F)c6nc(c(-c7c(F)c(F)c(F)c(F)c7F)c7ccc4[nH]7)C=C6)C=C5)cc3)ccc2c1
REMARK SMILES IDX 15 1 14 2 13 3 11 4 12 5 9 7 10 8 8 9 3 10 4 11 86 12 5 13
REMARK SMILES IDX 85 14 6 15 84 16 7 17 83 18 2 19 1 20 16 21 17 22 18 23
REMARK SMILES IDX 19 25 20 26 21 27 82 28 22 29 81 30 23 31 24 32 25 33 75 34
REMARK SMILES IDX 26 35 80 36 74 37 76 38 27 39 79 40 73 41 72 42 28 44 60 45
REMARK SMILES IDX 40 46 59 47 41 48 44 49 58 50 77 51 42 52 43 53 57 55 78 56
REMARK SMILES IDX 45 57 29 58 30 59 38 60 31 61 32 62 36 63 39 64 33 65 34 66
REMARK SMILES IDX 37 67 35 68 61 69 62 70 70 71 63 72 64 73 68 74 71 75 65 76
REMARK SMILES IDX 66 77 69 78 67 79 46 80 47 81 55 82 48 83 49 84 53 85 56 86
REMARK SMILES IDX 50 87 51 88 54 89 52 90
REMARK H PARENT 13 6 17 24 76 43 44 54
REMARK Flexibility Score: inf
ROOT
ATOM      1  C   UNL A   1      35.968  23.169  23.847  1.00  0.00     0.042 C 
ENDROOT
BRANCH   1   2
ATOM      2  C   UNL A   1      34.853  24.127  23.431  1.00  0.00     0.117 C 
BRANCH   2   3
ATOM      3  N   UNL A   1      33.539  23.525  23.555  1.00  0.00    -0.356 N 
ATOM      4  C   UNL A   1      32.703  23.353  24.615  1.00  0.00     0.227 C 
ATOM      5  O   UNL A   1      31.670  22.710  24.386  1.00  0.00    -0.274 OA
ATOM      6  H   UNL A   1      33.182  23.173  22.708  1.00  0.00     0.163 HD
BRANCH   4   7
ATOM      7  C   UNL A   1      32.964  23.898  26.029  1.00  0.00     0.105 C 
ATOM      8  C   UNL A   1      32.428  23.026  27.163  1.00  0.00     0.023 C 
BRANCH   7   9
ATOM      9  C   UNL A   1      32.687  25.387  26.161  1.00  0.00    -0.035 A 
ATOM     10  C   UNL A   1      32.934  30.401  27.005  1.00  0.00     0.119 A 
ATOM     11  C   UNL A   1      34.248  29.954  26.899  1.00  0.00     0.047 A 
ATOM     12  C   UNL A   1      31.881  29.489  26.884  1.00  0.00     0.055 A 
ATOM     13  C   UNL A   1      34.506  28.613  26.610  1.00  0.00     0.012 A 
ATOM     14  C   UNL A   1      32.127  28.131  26.620  1.00  0.00    -0.015 A 
ATOM     15  C   UNL A   1      33.456  27.695  26.458  1.00  0.00    -0.018 A 
ATOM     16  C   UNL A   1      31.089  27.193  26.527  1.00  0.00     0.009 A 
ATOM     17  C   UNL A   1      33.711  26.342  26.178  1.00  0.00     0.013 A 
ATOM     18  C   UNL A   1      31.368  25.837  26.325  1.00  0.00     0.005 A 
BRANCH  10  19
ATOM     19  O   UNL A   1      32.564  31.693  27.262  1.00  0.00    -0.497 OA
ATOM     20  C   UNL A   1      31.374  32.128  26.612  1.00  0.00     0.278 C 
ENDBRANCH  10  19
ENDBRANCH   7   9
ENDBRANCH   4   7
ENDBRANCH   2   3
ENDBRANCH   1   2
BRANCH   1  21
ATOM     21  C   UNL A   1      36.851  23.692  24.973  1.00  0.00     0.118 C 
BRANCH  21  22
ATOM     22  N   UNL A   1      37.807  22.694  25.431  1.00  0.00    -0.352 N 
ATOM     23  C   UNL A   1      38.989  22.826  26.118  1.00  0.00     0.251 C 
ATOM     24  H   UNL A   1      37.566  21.766  25.209  1.00  0.00     0.163 HD
ATOM     25  O   UNL A   1      39.738  21.856  26.202  1.00  0.00    -0.269 OA
BRANCH  23  26
ATOM     26  C   UNL A   1      39.389  24.107  26.754  1.00  0.00     0.039 A 
ATOM     27  C   UNL A   1      40.137  25.020  26.000  1.00  0.00     0.014 A 
ATOM     28  C   UNL A   1      39.112  24.388  28.093  1.00  0.00     0.014 A 
ATOM     29  C   UNL A   1      40.563  26.224  26.570  1.00  0.00     0.010 A 
ATOM     30  C   UNL A   1      39.471  25.621  28.640  1.00  0.00     0.010 A 
ATOM     31  C   UNL A   1      40.211  26.547  27.890  1.00  0.00    -0.014 A 
BRANCH  31  32
ATOM     32  C   UNL A   1      40.622  27.835  28.509  1.00  0.00     0.031 A 
ATOM     33  C   UNL A   1      42.034  28.026  28.991  1.00  0.00     0.074 A 
ATOM     34  C   UNL A   1      39.710  28.805  28.706  1.00  0.00     0.049 A 
ATOM     35  N   UNL A   1      42.559  29.033  29.644  1.00  0.00    -0.248 NA
ATOM     36  C   UNL A   1      42.974  26.926  28.730  1.00  0.00     0.031 C 
ATOM     37  C   UNL A   1      38.300  28.727  28.328  1.00  0.00     0.029 A 
ATOM     38  N   UNL A   1      39.831  30.041  29.292  1.00  0.00    -0.354 N 
ATOM     39  C   UNL A   1      43.877  28.675  29.896  1.00  0.00     0.074 A 
ATOM     40  C   UNL A   1      44.063  27.345  29.359  1.00  0.00     0.031 C 
ATOM     41  C   UNL A   1      37.687  29.867  28.682  1.00  0.00     0.029 A 
ATOM     42  C   UNL A   1      38.651  30.742  29.343  1.00  0.00     0.049 A 
ATOM     43  H   UNL A   1      40.681  30.391  29.642  1.00  0.00     0.167 HD
ATOM     44  C   UNL A   1      44.849  29.398  30.505  1.00  0.00     0.037 A 
ATOM     45  C   UNL A   1      38.374  31.948  29.874  1.00  0.00     0.037 A 
ATOM     46  C   UNL A   1      44.676  30.738  30.999  1.00  0.00     0.049 A 
ATOM     47  C   UNL A   1      39.473  32.740  30.524  1.00  0.00     0.074 A 
ATOM     48  C   UNL A   1      45.623  31.585  31.548  1.00  0.00     0.029 A 
ATOM     49  N   UNL A   1      43.472  31.427  31.005  1.00  0.00    -0.354 N 
ATOM     50  N   UNL A   1      40.733  32.421  30.693  1.00  0.00    -0.248 NA
ATOM     51  C   UNL A   1      39.114  34.064  31.052  1.00  0.00     0.031 C 
ATOM     52  C   UNL A   1      44.984  32.773  31.922  1.00  0.00     0.029 A 
ATOM     53  C   UNL A   1      43.648  32.680  31.571  1.00  0.00     0.049 A 
ATOM     54  H   UNL A   1      42.619  31.077  30.661  1.00  0.00     0.167 HD
ATOM     55  C   UNL A   1      41.320  33.504  31.332  1.00  0.00     0.074 A 
ATOM     56  C   UNL A   1      40.282  34.501  31.503  1.00  0.00     0.031 C 
ATOM     57  C   UNL A   1      42.604  33.659  31.739  1.00  0.00     0.037 A 
BRANCH  44  58
ATOM     58  C   UNL A   1      46.191  28.747  30.673  1.00  0.00     0.064 A 
ATOM     59  C   UNL A   1      46.515  28.013  31.823  1.00  0.00     0.173 A 
ATOM     60  C   UNL A   1      47.155  28.837  29.658  1.00  0.00     0.173 A 
ATOM     61  F   UNL A   1      45.632  27.907  32.827  1.00  0.00    -0.203 F 
ATOM     62  C   UNL A   1      47.768  27.423  31.967  1.00  0.00     0.198 A 
ATOM     63  C   UNL A   1      48.397  28.221  29.793  1.00  0.00     0.198 A 
ATOM     64  F   UNL A   1      46.893  29.519  28.533  1.00  0.00    -0.203 F 
ATOM     65  F   UNL A   1      48.075  26.772  33.098  1.00  0.00    -0.200 F 
ATOM     66  C   UNL A   1      48.707  27.523  30.951  1.00  0.00     0.200 A 
ATOM     67  F   UNL A   1      49.299  28.309  28.804  1.00  0.00    -0.200 F 
ATOM     68  F   UNL A   1      49.911  26.954  31.090  1.00  0.00    -0.200 F 
ENDBRANCH  44  58
BRANCH  45  69
ATOM     69  C   UNL A   1      36.992  32.484  29.788  1.00  0.00     0.064 A 
ATOM     70  C   UNL A   1      36.095  32.333  30.855  1.00  0.00     0.173 A 
ATOM     71  C   UNL A   1      36.549  33.182  28.656  1.00  0.00     0.173 A 
ATOM     72  F   UNL A   1      36.469  31.656  31.951  1.00  0.00    -0.203 F 
ATOM     73  C   UNL A   1      34.806  32.854  30.789  1.00  0.00     0.198 A 
ATOM     74  C   UNL A   1      35.268  33.726  28.601  1.00  0.00     0.198 A 
ATOM     75  F   UNL A   1      37.372  33.359  27.612  1.00  0.00    -0.203 F 
ATOM     76  F   UNL A   1      33.960  32.673  31.812  1.00  0.00    -0.200 F 
ATOM     77  C   UNL A   1      34.396  33.557  29.666  1.00  0.00     0.200 A 
ATOM     78  F   UNL A   1      34.883  34.425  27.525  1.00  0.00    -0.200 F 
ATOM     79  F   UNL A   1      33.161  34.074  29.610  1.00  0.00    -0.200 F 
ENDBRANCH  45  69
BRANCH  57  80
ATOM     80  C   UNL A   1      42.962  34.957  32.400  1.00  0.00     0.064 A 
ATOM     81  C   UNL A   1      43.486  36.031  31.664  1.00  0.00     0.173 A 
ATOM     82  C   UNL A   1      42.742  35.143  33.772  1.00  0.00     0.173 A 
ATOM     83  F   UNL A   1      43.730  35.896  30.352  1.00  0.00    -0.203 F 
ATOM     84  C   UNL A   1      43.795  37.238  32.285  1.00  0.00     0.198 A 
ATOM     85  C   UNL A   1      43.028  36.360  34.384  1.00  0.00     0.198 A 
ATOM     86  F   UNL A   1      42.238  34.148  34.516  1.00  0.00    -0.203 F 
ATOM     87  F   UNL A   1      44.332  38.238  31.573  1.00  0.00    -0.200 F 
ATOM     88  C   UNL A   1      43.559  37.405  33.642  1.00  0.00     0.200 A 
ATOM     89  F   UNL A   1      42.792  36.522  35.694  1.00  0.00    -0.200 F 
ATOM     90  F   UNL A   1      43.853  38.569  34.236  1.00  0.00    -0.200 F 
ENDBRANCH  57  80
ENDBRANCH  31  32
ENDBRANCH  23  26
ENDBRANCH  21  22
ENDBRANCH   1  21
TORSDOF 12
ENDMDL
