MODEL 1
REMARK VINA RESULT:     -11.3      0.000      0.000
REMARK SMILES C[NH2+][C@H](CC(=O)NCCCNC(=O)c1ccc(-c2c3nc(c(-c4c(F)c(F)c(F)c(F)c4F)c4ccc([nH]4)c(-c4c(F)c(F)c(F)c(F)c4F)c4nc(c(-c5c(F)c(F)c(F)c(F)c5F)c5ccc2[nH]5)C=C4)C=C3)cc1)c1cccc(C2CC2)c1
REMARK SMILES IDX 8 1 7 2 5 3 6 4 4 6 3 7 2 8 1 9 77 12 78 13 85 14 79 15
REMARK SMILES IDX 81 16 80 17 82 18 83 19 84 20 9 21 10 22 11 23 12 24 13 26
REMARK SMILES IDX 14 27 15 28 76 29 16 30 75 31 17 32 18 33 19 34 69 35 20 36
REMARK SMILES IDX 74 37 68 38 70 39 21 40 73 41 67 42 66 43 22 45 54 46 34 47
REMARK SMILES IDX 53 48 35 49 38 50 52 51 71 52 36 53 37 54 51 56 72 57 39 58
REMARK SMILES IDX 23 59 24 60 32 61 25 62 26 63 30 64 33 65 27 66 28 67 31 68
REMARK SMILES IDX 29 69 55 70 56 71 64 72 57 73 58 74 62 75 65 76 59 77 60 78
REMARK SMILES IDX 63 79 61 80 40 81 41 82 49 83 42 84 43 85 47 86 50 87 44 88
REMARK SMILES IDX 45 89 48 90 46 91
REMARK H PARENT 7 5 2 10 2 11 11 25 70 44 38 55
REMARK Flexibility Score: inf
ROOT
ATOM      1  C   UNL A   1      31.032  30.664  25.444  1.00  0.00     0.117 C 
ENDROOT
BRANCH   1   2
ATOM      2  N   UNL A   1      32.323  30.029  25.646  1.00  0.00    -0.356 N 
ATOM      3  C   UNL A   1      32.974  29.114  24.870  1.00  0.00     0.226 C 
ATOM      4  O   UNL A   1      33.840  28.432  25.423  1.00  0.00    -0.275 OA
ATOM      5  H   UNL A   1      32.799  30.298  26.464  1.00  0.00     0.163 HD
BRANCH   3   6
ATOM      6  C   UNL A   1      32.712  29.017  23.376  1.00  0.00     0.170 C 
BRANCH   6   7
ATOM      7  C   UNL A   1      32.026  27.729  22.845  1.00  0.00     0.222 C 
BRANCH   7   8
ATOM      8  N   UNL A   1      32.752  26.547  23.324  1.00  0.00    -0.342 N 
ATOM      9  C   UNL A   1      33.172  25.592  22.319  1.00  0.00     0.331 C 
ATOM     10  H   UNL A   1      33.586  26.872  23.810  1.00  0.00     0.346 HD
ATOM     11  H   UNL A   1      32.087  26.043  23.911  1.00  0.00     0.346 HD
ENDBRANCH   7   8
BRANCH   7  12
ATOM     12  C   UNL A   1      30.506  27.738  23.020  1.00  0.00     0.010 A 
ATOM     13  C   UNL A   1      29.789  26.716  23.653  1.00  0.00     0.010 A 
ATOM     14  C   UNL A   1      29.772  28.850  22.538  1.00  0.00     0.014 A 
ATOM     15  C   UNL A   1      28.400  26.784  23.771  1.00  0.00     0.001 A 
ATOM     16  C   UNL A   1      28.389  29.014  22.772  1.00  0.00    -0.044 A 
ATOM     17  C   UNL A   1      27.714  27.921  23.341  1.00  0.00     0.004 A 
BRANCH  16  18
ATOM     18  C   UNL A   1      27.654  30.335  22.606  1.00  0.00     0.019 C 
ATOM     19  C   UNL A   1      27.698  31.364  23.719  1.00  0.00     0.009 C 
ATOM     20  C   UNL A   1      28.335  31.656  22.392  1.00  0.00     0.009 C 
ENDBRANCH  16  18
ENDBRANCH   7  12
ENDBRANCH   6   7
ENDBRANCH   3   6
ENDBRANCH   1   2
BRANCH   1  21
ATOM     21  C   UNL A   1      31.024  32.025  26.131  1.00  0.00     0.042 C 
BRANCH  21  22
ATOM     22  C   UNL A   1      32.359  32.551  26.625  1.00  0.00     0.118 C 
BRANCH  22  23
ATOM     23  N   UNL A   1      32.259  33.810  27.347  1.00  0.00    -0.352 N 
ATOM     24  C   UNL A   1      32.978  34.405  28.352  1.00  0.00     0.251 C 
ATOM     25  H   UNL A   1      31.501  34.360  27.045  1.00  0.00     0.163 HD
ATOM     26  O   UNL A   1      32.537  35.480  28.780  1.00  0.00    -0.269 OA
BRANCH  24  27
ATOM     27  C   UNL A   1      34.219  33.858  28.976  1.00  0.00     0.039 A 
ATOM     28  C   UNL A   1      34.080  32.740  29.821  1.00  0.00     0.014 A 
ATOM     29  C   UNL A   1      35.491  34.413  28.849  1.00  0.00     0.014 A 
ATOM     30  C   UNL A   1      35.184  32.179  30.479  1.00  0.00     0.010 A 
ATOM     31  C   UNL A   1      36.610  33.793  29.420  1.00  0.00     0.010 A 
ATOM     32  C   UNL A   1      36.473  32.678  30.258  1.00  0.00    -0.014 A 
BRANCH  32  33
ATOM     33  C   UNL A   1      37.676  32.085  30.914  1.00  0.00     0.031 A 
ATOM     34  C   UNL A   1      38.495  31.035  30.201  1.00  0.00     0.074 A 
ATOM     35  C   UNL A   1      38.005  32.433  32.174  1.00  0.00     0.049 A 
ATOM     36  N   UNL A   1      39.491  30.309  30.650  1.00  0.00    -0.248 NA
ATOM     37  C   UNL A   1      38.131  30.745  28.806  1.00  0.00     0.031 C 
ATOM     38  C   UNL A   1      37.294  33.413  32.995  1.00  0.00     0.029 A 
ATOM     39  N   UNL A   1      39.014  31.986  32.995  1.00  0.00    -0.354 N 
ATOM     40  C   UNL A   1      39.846  29.462  29.607  1.00  0.00     0.074 A 
ATOM     41  C   UNL A   1      38.935  29.732  28.516  1.00  0.00     0.031 C 
ATOM     42  C   UNL A   1      37.895  33.505  34.193  1.00  0.00     0.029 A 
ATOM     43  C   UNL A   1      39.002  32.555  34.247  1.00  0.00     0.049 A 
ATOM     44  H   UNL A   1      39.682  31.320  32.713  1.00  0.00     0.167 HD
ATOM     45  C   UNL A   1      40.852  28.555  29.552  1.00  0.00     0.037 A 
ATOM     46  C   UNL A   1      39.778  32.324  35.324  1.00  0.00     0.037 A 
ATOM     47  C   UNL A   1      41.791  28.313  30.618  1.00  0.00     0.049 A 
ATOM     48  C   UNL A   1      40.877  31.298  35.241  1.00  0.00     0.074 A 
ATOM     49  C   UNL A   1      42.882  27.460  30.628  1.00  0.00     0.029 A 
ATOM     50  N   UNL A   1      41.751  28.923  31.861  1.00  0.00    -0.354 N 
ATOM     51  N   UNL A   1      41.233  30.543  34.232  1.00  0.00    -0.248 NA
ATOM     52  C   UNL A   1      41.687  31.096  36.452  1.00  0.00     0.031 C 
ATOM     53  C   UNL A   1      43.472  27.516  31.894  1.00  0.00     0.029 A 
ATOM     54  C   UNL A   1      42.783  28.446  32.655  1.00  0.00     0.049 A 
ATOM     55  H   UNL A   1      41.088  29.595  32.141  1.00  0.00     0.167 HD
ATOM     56  C   UNL A   1      42.324  29.804  34.672  1.00  0.00     0.074 A 
ATOM     57  C   UNL A   1      42.582  30.212  36.037  1.00  0.00     0.031 C 
ATOM     58  C   UNL A   1      43.045  28.869  34.006  1.00  0.00     0.037 A 
BRANCH  45  59
ATOM     59  C   UNL A   1      41.005  27.748  28.294  1.00  0.00     0.064 A 
ATOM     60  C   UNL A   1      41.773  28.204  27.212  1.00  0.00     0.173 A 
ATOM     61  C   UNL A   1      40.431  26.470  28.195  1.00  0.00     0.173 A 
ATOM     62  F   UNL A   1      42.336  29.422  27.250  1.00  0.00    -0.203 F 
ATOM     63  C   UNL A   1      41.941  27.424  26.071  1.00  0.00     0.198 A 
ATOM     64  C   UNL A   1      40.628  25.679  27.066  1.00  0.00     0.198 A 
ATOM     65  F   UNL A   1      39.695  25.980  29.204  1.00  0.00    -0.203 F 
ATOM     66  F   UNL A   1      42.644  27.900  25.034  1.00  0.00    -0.200 F 
ATOM     67  C   UNL A   1      41.377  26.159  26.003  1.00  0.00     0.200 A 
ATOM     68  F   UNL A   1      40.095  24.451  27.009  1.00  0.00    -0.200 F 
ATOM     69  F   UNL A   1      41.553  25.403  24.911  1.00  0.00    -0.200 F 
ENDBRANCH  45  59
BRANCH  46  70
ATOM     70  C   UNL A   1      39.548  33.078  36.587  1.00  0.00     0.064 A 
ATOM     71  C   UNL A   1      38.626  32.620  37.540  1.00  0.00     0.173 A 
ATOM     72  C   UNL A   1      40.216  34.282  36.852  1.00  0.00     0.173 A 
ATOM     73  F   UNL A   1      37.943  31.487  37.320  1.00  0.00    -0.203 F 
ATOM     74  C   UNL A   1      38.360  33.352  38.695  1.00  0.00     0.198 A 
ATOM     75  C   UNL A   1      39.974  34.996  38.025  1.00  0.00     0.198 A 
ATOM     76  F   UNL A   1      41.108  34.763  35.976  1.00  0.00    -0.203 F 
ATOM     77  F   UNL A   1      37.430  32.922  39.558  1.00  0.00    -0.200 F 
ATOM     78  C   UNL A   1      39.038  34.537  38.939  1.00  0.00     0.200 A 
ATOM     79  F   UNL A   1      40.640  36.134  38.262  1.00  0.00    -0.200 F 
ATOM     80  F   UNL A   1      38.780  35.242  40.049  1.00  0.00    -0.200 F 
ENDBRANCH  46  70
BRANCH  58  81
ATOM     81  C   UNL A   1      44.213  28.255  34.722  1.00  0.00     0.064 A 
ATOM     82  C   UNL A   1      45.486  28.844  34.700  1.00  0.00     0.173 A 
ATOM     83  C   UNL A   1      44.047  27.081  35.473  1.00  0.00     0.173 A 
ATOM     84  F   UNL A   1      45.703  29.959  33.987  1.00  0.00    -0.203 F 
ATOM     85  C   UNL A   1      46.556  28.264  35.379  1.00  0.00     0.198 A 
ATOM     86  C   UNL A   1      45.110  26.522  36.176  1.00  0.00     0.198 A 
ATOM     87  F   UNL A   1      42.849  26.481  35.534  1.00  0.00    -0.203 F 
ATOM     88  F   UNL A   1      47.774  28.816  35.301  1.00  0.00    -0.200 F 
ATOM     89  C   UNL A   1      46.365  27.108  36.123  1.00  0.00     0.200 A 
ATOM     90  F   UNL A   1      44.920  25.414  36.907  1.00  0.00    -0.200 F 
ATOM     91  F   UNL A   1      47.393  26.557  36.782  1.00  0.00    -0.200 F 
ENDBRANCH  58  81
ENDBRANCH  32  33
ENDBRANCH  24  27
ENDBRANCH  22  23
ENDBRANCH  21  22
ENDBRANCH   1  21
TORSDOF 14
ENDMDL
MODEL 2
REMARK VINA RESULT:     -11.1      2.175      4.360
REMARK SMILES C[NH2+][C@H](CC(=O)NCCCNC(=O)c1ccc(-c2c3nc(c(-c4c(F)c(F)c(F)c(F)c4F)c4ccc([nH]4)c(-c4c(F)c(F)c(F)c(F)c4F)c4nc(c(-c5c(F)c(F)c(F)c(F)c5F)c5ccc2[nH]5)C=C4)C=C3)cc1)c1cccc(C2CC2)c1
REMARK SMILES IDX 8 1 7 2 5 3 6 4 4 6 3 7 2 8 1 9 77 12 78 13 85 14 79 15
REMARK SMILES IDX 81 16 80 17 82 18 83 19 84 20 9 21 10 22 11 23 12 24 13 26
REMARK SMILES IDX 14 27 15 28 76 29 16 30 75 31 17 32 18 33 19 34 69 35 20 36
REMARK SMILES IDX 74 37 68 38 70 39 21 40 73 41 67 42 66 43 22 45 54 46 34 47
REMARK SMILES IDX 53 48 35 49 38 50 52 51 71 52 36 53 37 54 51 56 72 57 39 58
REMARK SMILES IDX 23 59 24 60 32 61 25 62 26 63 30 64 33 65 27 66 28 67 31 68
REMARK SMILES IDX 29 69 55 70 56 71 64 72 57 73 58 74 62 75 65 76 59 77 60 78
REMARK SMILES IDX 63 79 61 80 40 81 41 82 49 83 42 84 43 85 47 86 50 87 44 88
REMARK SMILES IDX 45 89 48 90 46 91
REMARK H PARENT 7 5 2 10 2 11 11 25 70 44 38 55
REMARK Flexibility Score: inf
ROOT
ATOM      1  C   UNL A   1      31.998  28.041  22.772  1.00  0.00     0.117 C 
ENDROOT
BRANCH   1   2
ATOM      2  N   UNL A   1      32.718  26.966  22.112  1.00  0.00    -0.356 N 
ATOM      3  C   UNL A   1      33.003  25.707  22.556  1.00  0.00     0.226 C 
ATOM      4  O   UNL A   1      33.945  25.125  22.012  1.00  0.00    -0.275 OA
ATOM      5  H   UNL A   1      33.050  27.177  21.209  1.00  0.00     0.163 HD
BRANCH   3   6
ATOM      6  C   UNL A   1      32.135  25.022  23.599  1.00  0.00     0.170 C 
BRANCH   6   7
ATOM      7  C   UNL A   1      32.594  25.093  25.080  1.00  0.00     0.222 C 
BRANCH   7   8
ATOM      8  N   UNL A   1      31.427  25.258  25.954  1.00  0.00    -0.342 N 
ATOM      9  C   UNL A   1      30.563  26.388  25.677  1.00  0.00     0.331 C 
ATOM     10  H   UNL A   1      30.863  24.412  25.879  1.00  0.00     0.346 HD
ATOM     11  H   UNL A   1      31.809  25.433  26.883  1.00  0.00     0.346 HD
ENDBRANCH   7   8
BRANCH   7  12
ATOM     12  C   UNL A   1      33.603  24.005  25.453  1.00  0.00     0.010 A 
ATOM     13  C   UNL A   1      33.259  22.666  25.670  1.00  0.00     0.010 A 
ATOM     14  C   UNL A   1      34.971  24.355  25.569  1.00  0.00     0.014 A 
ATOM     15  C   UNL A   1      34.229  21.725  26.017  1.00  0.00     0.001 A 
ATOM     16  C   UNL A   1      35.991  23.401  25.775  1.00  0.00    -0.044 A 
ATOM     17  C   UNL A   1      35.576  22.089  26.061  1.00  0.00     0.004 A 
BRANCH  16  18
ATOM     18  C   UNL A   1      37.467  23.676  25.534  1.00  0.00     0.019 C 
ATOM     19  C   UNL A   1      38.308  24.284  26.640  1.00  0.00     0.009 C 
ATOM     20  C   UNL A   1      38.583  22.888  26.161  1.00  0.00     0.009 C 
ENDBRANCH  16  18
ENDBRANCH   7  12
ENDBRANCH   6   7
ENDBRANCH   3   6
ENDBRANCH   1   2
BRANCH   1  21
ATOM     21  C   UNL A   1      32.993  28.984  23.437  1.00  0.00     0.042 C 
BRANCH  21  22
ATOM     22  C   UNL A   1      33.082  28.929  24.951  1.00  0.00     0.118 C 
BRANCH  22  23
ATOM     23  N   UNL A   1      32.669  30.162  25.605  1.00  0.00    -0.352 N 
ATOM     24  C   UNL A   1      33.142  30.899  26.659  1.00  0.00     0.251 C 
ATOM     25  H   UNL A   1      31.864  30.555  25.197  1.00  0.00     0.163 HD
ATOM     26  O   UNL A   1      32.464  31.881  26.991  1.00  0.00    -0.269 OA
BRANCH  24  27
ATOM     27  C   UNL A   1      34.379  30.605  27.442  1.00  0.00     0.039 A 
ATOM     28  C   UNL A   1      35.251  31.680  27.700  1.00  0.00     0.014 A 
ATOM     29  C   UNL A   1      34.775  29.340  27.869  1.00  0.00     0.014 A 
ATOM     30  C   UNL A   1      36.454  31.494  28.397  1.00  0.00     0.010 A 
ATOM     31  C   UNL A   1      35.921  29.168  28.655  1.00  0.00     0.010 A 
ATOM     32  C   UNL A   1      36.789  30.237  28.916  1.00  0.00    -0.014 A 
BRANCH  32  33
ATOM     33  C   UNL A   1      38.043  30.009  29.693  1.00  0.00     0.031 A 
ATOM     34  C   UNL A   1      39.113  29.085  29.161  1.00  0.00     0.074 A 
ATOM     35  C   UNL A   1      38.204  30.574  30.906  1.00  0.00     0.049 A 
ATOM     36  N   UNL A   1      40.208  28.656  29.743  1.00  0.00    -0.248 NA
ATOM     37  C   UNL A   1      38.914  28.551  27.805  1.00  0.00     0.031 C 
ATOM     38  C   UNL A   1      37.248  31.469  31.558  1.00  0.00     0.029 A 
ATOM     39  N   UNL A   1      39.228  30.465  31.818  1.00  0.00    -0.354 N 
ATOM     40  C   UNL A   1      40.805  27.785  28.839  1.00  0.00     0.074 A 
ATOM     41  C   UNL A   1      39.933  27.711  27.687  1.00  0.00     0.031 C 
ATOM     42  C   UNL A   1      37.733  31.838  32.754  1.00  0.00     0.029 A 
ATOM     43  C   UNL A   1      39.010  31.169  32.980  1.00  0.00     0.049 A 
ATOM     44  H   UNL A   1      40.040  29.933  31.656  1.00  0.00     0.167 HD
ATOM     45  C   UNL A   1      41.982  27.122  28.948  1.00  0.00     0.037 A 
ATOM     46  C   UNL A   1      39.743  31.249  34.108  1.00  0.00     0.037 A 
ATOM     47  C   UNL A   1      42.877  27.226  30.072  1.00  0.00     0.049 A 
ATOM     48  C   UNL A   1      41.039  30.488  34.208  1.00  0.00     0.074 A 
ATOM     49  C   UNL A   1      44.121  26.642  30.240  1.00  0.00     0.029 A 
ATOM     50  N   UNL A   1      42.624  27.962  31.219  1.00  0.00    -0.354 N 
ATOM     51  N   UNL A   1      41.614  29.710  33.325  1.00  0.00    -0.248 NA
ATOM     52  C   UNL A   1      41.789  30.620  35.466  1.00  0.00     0.031 C 
ATOM     53  C   UNL A   1      44.599  26.983  31.509  1.00  0.00     0.029 A 
ATOM     54  C   UNL A   1      43.678  27.826  32.110  1.00  0.00     0.049 A 
ATOM     55  H   UNL A   1      41.816  28.501  31.378  1.00  0.00     0.167 HD
ATOM     56  C   UNL A   1      42.805  29.290  33.904  1.00  0.00     0.074 A 
ATOM     57  C   UNL A   1      42.878  29.910  35.210  1.00  0.00     0.031 C 
ATOM     58  C   UNL A   1      43.752  28.461  33.400  1.00  0.00     0.037 A 
BRANCH  45  59
ATOM     59  C   UNL A   1      42.388  26.219  27.817  1.00  0.00     0.064 A 
ATOM     60  C   UNL A   1      41.880  24.917  27.693  1.00  0.00     0.173 A 
ATOM     61  C   UNL A   1      43.242  26.687  26.806  1.00  0.00     0.173 A 
ATOM     62  F   UNL A   1      41.066  24.417  28.636  1.00  0.00    -0.203 F 
ATOM     63  C   UNL A   1      42.231  24.109  26.615  1.00  0.00     0.198 A 
ATOM     64  C   UNL A   1      43.565  25.888  25.712  1.00  0.00     0.198 A 
ATOM     65  F   UNL A   1      43.748  27.927  26.868  1.00  0.00    -0.203 F 
ATOM     66  F   UNL A   1      41.767  22.854  26.541  1.00  0.00    -0.200 F 
ATOM     67  C   UNL A   1      43.065  24.598  25.620  1.00  0.00     0.200 A 
ATOM     68  F   UNL A   1      44.358  26.368  24.744  1.00  0.00    -0.200 F 
ATOM     69  F   UNL A   1      43.388  23.825  24.575  1.00  0.00    -0.200 F 
ENDBRANCH  45  59
BRANCH  46  70
ATOM     70  C   UNL A   1      39.273  32.084  35.247  1.00  0.00     0.064 A 
ATOM     71  C   UNL A   1      38.510  31.525  36.282  1.00  0.00     0.173 A 
ATOM     72  C   UNL A   1      39.546  33.458  35.308  1.00  0.00     0.173 A 
ATOM     73  F   UNL A   1      38.201  30.220  36.256  1.00  0.00    -0.203 F 
ATOM     74  C   UNL A   1      38.015  32.313  37.319  1.00  0.00     0.198 A 
ATOM     75  C   UNL A   1      39.079  34.239  36.364  1.00  0.00     0.198 A 
ATOM     76  F   UNL A   1      40.272  34.043  34.345  1.00  0.00    -0.203 F 
ATOM     77  F   UNL A   1      37.237  31.764  38.262  1.00  0.00    -0.200 F 
ATOM     78  C   UNL A   1      38.303  33.669  37.361  1.00  0.00     0.200 A 
ATOM     79  F   UNL A   1      39.370  35.546  36.407  1.00  0.00    -0.200 F 
ATOM     80  F   UNL A   1      37.825  34.427  38.357  1.00  0.00    -0.200 F 
ENDBRANCH  46  70
BRANCH  58  81
ATOM     81  C   UNL A   1      44.973  28.212  34.237  1.00  0.00     0.064 A 
ATOM     82  C   UNL A   1      45.040  27.150  35.150  1.00  0.00     0.173 A 
ATOM     83  C   UNL A   1      46.107  29.027  34.096  1.00  0.00     0.173 A 
ATOM     84  F   UNL A   1      43.979  26.349  35.334  1.00  0.00    -0.203 F 
ATOM     85  C   UNL A   1      46.187  26.929  35.910  1.00  0.00     0.198 A 
ATOM     86  C   UNL A   1      47.263  28.785  34.834  1.00  0.00     0.198 A 
ATOM     87  F   UNL A   1      46.100  30.053  33.231  1.00  0.00    -0.203 F 
ATOM     88  F   UNL A   1      46.209  25.939  36.813  1.00  0.00    -0.200 F 
ATOM     89  C   UNL A   1      47.299  27.741  35.746  1.00  0.00     0.200 A 
ATOM     90  F   UNL A   1      48.341  29.561  34.661  1.00  0.00    -0.200 F 
ATOM     91  F   UNL A   1      48.404  27.523  36.473  1.00  0.00    -0.200 F 
ENDBRANCH  58  81
ENDBRANCH  32  33
ENDBRANCH  24  27
ENDBRANCH  22  23
ENDBRANCH  21  22
ENDBRANCH   1  21
TORSDOF 14
ENDMDL
MODEL 3
REMARK VINA RESULT:     -11.0      4.167     10.650
REMARK SMILES C[NH2+][C@H](CC(=O)NCCCNC(=O)c1ccc(-c2c3nc(c(-c4c(F)c(F)c(F)c(F)c4F)c4ccc([nH]4)c(-c4c(F)c(F)c(F)c(F)c4F)c4nc(c(-c5c(F)c(F)c(F)c(F)c5F)c5ccc2[nH]5)C=C4)C=C3)cc1)c1cccc(C2CC2)c1
REMARK SMILES IDX 8 1 7 2 5 3 6 4 4 6 3 7 2 8 1 9 77 12 78 13 85 14 79 15
REMARK SMILES IDX 81 16 80 17 82 18 83 19 84 20 9 21 10 22 11 23 12 24 13 26
REMARK SMILES IDX 14 27 15 28 76 29 16 30 75 31 17 32 18 33 19 34 69 35 20 36
REMARK SMILES IDX 74 37 68 38 70 39 21 40 73 41 67 42 66 43 22 45 54 46 34 47
REMARK SMILES IDX 53 48 35 49 38 50 52 51 71 52 36 53 37 54 51 56 72 57 39 58
REMARK SMILES IDX 23 59 24 60 32 61 25 62 26 63 30 64 33 65 27 66 28 67 31 68
REMARK SMILES IDX 29 69 55 70 56 71 64 72 57 73 58 74 62 75 65 76 59 77 60 78
REMARK SMILES IDX 63 79 61 80 40 81 41 82 49 83 42 84 43 85 47 86 50 87 44 88
REMARK SMILES IDX 45 89 48 90 46 91
REMARK H PARENT 7 5 2 10 2 11 11 25 70 44 38 55
REMARK Flexibility Score: inf
ROOT
ATOM      1  C   UNL A   1      36.216  32.696  30.866  1.00  0.00     0.117 C 
ENDROOT
BRANCH   1   2
ATOM      2  N   UNL A   1      36.426  33.832  31.747  1.00  0.00    -0.356 N 
ATOM      3  C   UNL A   1      37.299  33.979  32.785  1.00  0.00     0.226 C 
ATOM      4  O   UNL A   1      37.029  34.845  33.621  1.00  0.00    -0.275 OA
ATOM      5  H   UNL A   1      35.852  34.612  31.568  1.00  0.00     0.163 HD
BRANCH   3   6
ATOM      6  C   UNL A   1      38.592  33.183  32.848  1.00  0.00     0.170 C 
BRANCH   6   7
ATOM      7  C   UNL A   1      38.806  32.247  34.069  1.00  0.00     0.222 C 
BRANCH   7   8
ATOM      8  N   UNL A   1      37.697  32.409  35.017  1.00  0.00    -0.342 N 
ATOM      9  C   UNL A   1      37.908  31.897  36.356  1.00  0.00     0.331 C 
ATOM     10  H   UNL A   1      37.499  33.405  35.095  1.00  0.00     0.346 HD
ATOM     11  H   UNL A   1      36.933  31.852  34.634  1.00  0.00     0.346 HD
ENDBRANCH   7   8
BRANCH   7  12
ATOM     12  C   UNL A   1      39.192  30.820  33.677  1.00  0.00     0.010 A 
ATOM     13  C   UNL A   1      38.316  29.918  33.060  1.00  0.00     0.010 A 
ATOM     14  C   UNL A   1      40.515  30.379  33.925  1.00  0.00     0.014 A 
ATOM     15  C   UNL A   1      38.731  28.626  32.736  1.00  0.00     0.001 A 
ATOM     16  C   UNL A   1      41.004  29.132  33.478  1.00  0.00    -0.044 A 
ATOM     17  C   UNL A   1      40.059  28.244  32.937  1.00  0.00     0.004 A 
BRANCH  16  18
ATOM     18  C   UNL A   1      42.482  28.785  33.392  1.00  0.00     0.019 C 
ATOM     19  C   UNL A   1      43.094  27.848  34.416  1.00  0.00     0.009 C 
ATOM     20  C   UNL A   1      43.008  27.441  32.974  1.00  0.00     0.009 C 
ENDBRANCH  16  18
ENDBRANCH   7  12
ENDBRANCH   6   7
ENDBRANCH   3   6
ENDBRANCH   1   2
BRANCH   1  21
ATOM     21  C   UNL A   1      34.756  32.656  30.431  1.00  0.00     0.042 C 
BRANCH  21  22
ATOM     22  C   UNL A   1      34.476  32.845  28.951  1.00  0.00     0.118 C 
BRANCH  22  23
ATOM     23  N   UNL A   1      34.011  31.637  28.286  1.00  0.00    -0.352 N 
ATOM     24  C   UNL A   1      34.584  30.436  27.958  1.00  0.00     0.251 C 
ATOM     25  H   UNL A   1      33.069  31.698  28.007  1.00  0.00     0.163 HD
ATOM     26  O   UNL A   1      33.882  29.653  27.304  1.00  0.00    -0.269 OA
BRANCH  24  27
ATOM     27  C   UNL A   1      35.973  30.011  28.302  1.00  0.00     0.039 A 
ATOM     28  C   UNL A   1      36.973  30.223  27.334  1.00  0.00     0.014 A 
ATOM     29  C   UNL A   1      36.342  29.352  29.473  1.00  0.00     0.014 A 
ATOM     30  C   UNL A   1      38.300  29.825  27.554  1.00  0.00     0.010 A 
ATOM     31  C   UNL A   1      37.684  29.049  29.739  1.00  0.00     0.010 A 
ATOM     32  C   UNL A   1      38.680  29.262  28.778  1.00  0.00    -0.014 A 
BRANCH  32  33
ATOM     33  C   UNL A   1      40.090  28.858  29.060  1.00  0.00     0.031 A 
ATOM     34  C   UNL A   1      41.033  29.812  29.754  1.00  0.00     0.074 A 
ATOM     35  C   UNL A   1      40.551  27.663  28.641  1.00  0.00     0.049 A 
ATOM     36  N   UNL A   1      42.322  29.698  29.970  1.00  0.00    -0.248 NA
ATOM     37  C   UNL A   1      40.457  31.071  30.248  1.00  0.00     0.031 C 
ATOM     38  C   UNL A   1      39.765  26.650  27.938  1.00  0.00     0.029 A 
ATOM     39  N   UNL A   1      41.805  27.104  28.729  1.00  0.00    -0.354 N 
ATOM     40  C   UNL A   1      42.710  30.878  30.594  1.00  0.00     0.074 A 
ATOM     41  C   UNL A   1      41.532  31.713  30.684  1.00  0.00     0.031 C 
ATOM     42  C   UNL A   1      40.545  25.590  27.673  1.00  0.00     0.029 A 
ATOM     43  C   UNL A   1      41.901  25.865  28.138  1.00  0.00     0.049 A 
ATOM     44  H   UNL A   1      42.563  27.548  29.173  1.00  0.00     0.167 HD
ATOM     45  C   UNL A   1      43.931  31.229  31.067  1.00  0.00     0.037 A 
ATOM     46  C   UNL A   1      42.962  25.052  27.971  1.00  0.00     0.037 A 
ATOM     47  C   UNL A   1      45.097  30.385  31.020  1.00  0.00     0.049 A 
ATOM     48  C   UNL A   1      44.311  25.475  28.490  1.00  0.00     0.074 A 
ATOM     49  C   UNL A   1      46.360  30.631  31.532  1.00  0.00     0.029 A 
ATOM     50  N   UNL A   1      45.145  29.134  30.427  1.00  0.00    -0.354 N 
ATOM     51  N   UNL A   1      44.650  26.571  29.123  1.00  0.00    -0.248 NA
ATOM     52  C   UNL A   1      45.427  24.541  28.274  1.00  0.00     0.031 C 
ATOM     53  C   UNL A   1      47.185  29.550  31.205  1.00  0.00     0.029 A 
ATOM     54  C   UNL A   1      46.422  28.606  30.539  1.00  0.00     0.049 A 
ATOM     55  H   UNL A   1      44.385  28.685  29.990  1.00  0.00     0.167 HD
ATOM     56  C   UNL A   1      46.003  26.444  29.409  1.00  0.00     0.074 A 
ATOM     57  C   UNL A   1      46.422  25.158  28.894  1.00  0.00     0.031 C 
ATOM     58  C   UNL A   1      46.827  27.317  30.040  1.00  0.00     0.037 A 
BRANCH  45  59
ATOM     59  C   UNL A   1      44.081  32.589  31.687  1.00  0.00     0.064 A 
ATOM     60  C   UNL A   1      44.376  33.724  30.918  1.00  0.00     0.173 A 
ATOM     61  C   UNL A   1      43.857  32.772  33.061  1.00  0.00     0.173 A 
ATOM     62  F   UNL A   1      44.607  33.606  29.601  1.00  0.00    -0.203 F 
ATOM     63  C   UNL A   1      44.467  34.985  31.502  1.00  0.00     0.198 A 
ATOM     64  C   UNL A   1      43.916  34.038  33.637  1.00  0.00     0.198 A 
ATOM     65  F   UNL A   1      43.562  31.722  33.843  1.00  0.00    -0.203 F 
ATOM     66  F   UNL A   1      44.792  36.047  30.753  1.00  0.00    -0.200 F 
ATOM     67  C   UNL A   1      44.227  35.142  32.859  1.00  0.00     0.200 A 
ATOM     68  F   UNL A   1      43.669  34.190  34.946  1.00  0.00    -0.200 F 
ATOM     69  F   UNL A   1      44.299  36.359  33.417  1.00  0.00    -0.200 F 
ENDBRANCH  45  59
BRANCH  46  70
ATOM     70  C   UNL A   1      42.801  23.747  27.274  1.00  0.00     0.064 A 
ATOM     71  C   UNL A   1      42.277  22.633  27.946  1.00  0.00     0.173 A 
ATOM     72  C   UNL A   1      43.195  23.577  25.939  1.00  0.00     0.173 A 
ATOM     73  F   UNL A   1      41.909  22.738  29.231  1.00  0.00    -0.203 F 
ATOM     74  C   UNL A   1      42.181  21.393  27.318  1.00  0.00     0.198 A 
ATOM     75  C   UNL A   1      43.067  22.344  25.301  1.00  0.00     0.198 A 
ATOM     76  F   UNL A   1      43.700  24.610  25.250  1.00  0.00    -0.203 F 
ATOM     77  F   UNL A   1      41.734  20.331  28.002  1.00  0.00    -0.200 F 
ATOM     78  C   UNL A   1      42.572  21.251  25.994  1.00  0.00     0.200 A 
ATOM     79  F   UNL A   1      43.434  22.215  24.019  1.00  0.00    -0.200 F 
ATOM     80  F   UNL A   1      42.481  20.057  25.392  1.00  0.00    -0.200 F 
ENDBRANCH  46  70
BRANCH  58  81
ATOM     81  C   UNL A   1      48.252  26.895  30.254  1.00  0.00     0.064 A 
ATOM     82  C   UNL A   1      49.275  27.271  29.372  1.00  0.00     0.173 A 
ATOM     83  C   UNL A   1      48.604  26.136  31.381  1.00  0.00     0.173 A 
ATOM     84  F   UNL A   1      48.990  27.985  28.272  1.00  0.00    -0.203 F 
ATOM     85  C   UNL A   1      50.593  26.878  29.594  1.00  0.00     0.198 A 
ATOM     86  C   UNL A   1      49.927  25.773  31.617  1.00  0.00     0.198 A 
ATOM     87  F   UNL A   1      47.666  25.757  32.262  1.00  0.00    -0.203 F 
ATOM     88  F   UNL A   1      51.546  27.205  28.709  1.00  0.00    -0.200 F 
ATOM     89  C   UNL A   1      50.920  26.137  30.720  1.00  0.00     0.200 A 
ATOM     90  F   UNL A   1      50.242  25.071  32.714  1.00  0.00    -0.200 F 
ATOM     91  F   UNL A   1      52.189  25.767  30.936  1.00  0.00    -0.200 F 
ENDBRANCH  58  81
ENDBRANCH  32  33
ENDBRANCH  24  27
ENDBRANCH  22  23
ENDBRANCH  21  22
ENDBRANCH   1  21
TORSDOF 14
ENDMDL
