MODEL 1
REMARK VINA RESULT:     -14.3      0.000      0.000
REMARK SMILES Cc1ccc(-c2c(C(=O)NCCCNC(=O)c3ccc(-c4c5nc(c(-c6c(F)c(F)c(F)c(F)c6F)c6ccc([nH]6)c(-c6c(F)c(F)c(F)c(F)c6F)c6nc(c(-c7c(F)c(F)c(F)c(F)c7F)c7ccc4[nH]7)C=C6)C=C5)cc3)nnn2Cc2c(F)cccc2Cl)cc1
REMARK SMILES IDX 12 1 11 2 10 3 8 4 9 5 7 7 6 8 82 9 80 10 81 11 5 12 1 13
REMARK SMILES IDX 2 14 3 15 93 16 4 17 92 18 83 19 84 20 85 21 90 22 86 23
REMARK SMILES IDX 87 24 89 25 91 26 88 27 13 28 14 29 15 30 16 32 17 33 18 34
REMARK SMILES IDX 79 35 19 36 78 37 20 38 21 39 22 40 72 41 23 42 77 43 71 44
REMARK SMILES IDX 73 45 24 46 76 47 70 48 69 49 25 51 57 52 37 53 56 54 38 55
REMARK SMILES IDX 41 56 55 57 74 58 39 59 40 60 54 62 75 63 42 64 26 65 27 66
REMARK SMILES IDX 35 67 28 68 29 69 33 70 36 71 30 72 31 73 34 74 32 75 58 76
REMARK SMILES IDX 59 77 67 78 60 79 61 80 65 81 68 82 62 83 63 84 66 85 64 86
REMARK SMILES IDX 43 87 44 88 52 89 45 90 46 91 50 92 53 93 47 94 48 95 51 96
REMARK SMILES IDX 49 97
REMARK H PARENT 10 6 14 31 73 50 41 61
REMARK Flexibility Score: inf
ROOT
ATOM      1  C   UNL A   1      32.869  30.822  26.887  1.00  0.00     0.042 C 
ENDROOT
BRANCH   1   2
ATOM      2  C   UNL A   1      32.136  29.805  26.030  1.00  0.00     0.118 C 
BRANCH   2   3
ATOM      3  N   UNL A   1      32.938  29.458  24.884  1.00  0.00    -0.351 N 
ATOM      4  C   UNL A   1      33.142  28.317  24.157  1.00  0.00     0.274 C 
ATOM      5  O   UNL A   1      34.036  28.453  23.312  1.00  0.00    -0.267 OA
ATOM      6  H   UNL A   1      33.461  30.219  24.545  1.00  0.00     0.163 HD
BRANCH   4   7
ATOM      7  C   UNL A   1      32.414  27.044  24.259  1.00  0.00     0.178 A 
ATOM      8  C   UNL A   1      32.692  25.671  24.339  1.00  0.00     0.102 A 
ATOM      9  N   UNL A   1      31.432  25.108  24.491  1.00  0.00    -0.239 N 
ATOM     10  N   UNL A   1      31.030  27.187  24.236  1.00  0.00    -0.124 NA
ATOM     11  N   UNL A   1      30.457  26.011  24.343  1.00  0.00    -0.066 NA
BRANCH   8  12
ATOM     12  C   UNL A   1      33.877  24.821  24.285  1.00  0.00     0.002 A 
ATOM     13  C   UNL A   1      37.246  22.110  24.254  1.00  0.00     0.044 C 
ATOM     14  C   UNL A   1      36.136  23.123  24.236  1.00  0.00    -0.051 A 
ATOM     15  C   UNL A   1      35.297  23.222  23.121  1.00  0.00     0.004 A 
ATOM     16  C   UNL A   1      35.874  23.924  25.355  1.00  0.00     0.004 A 
ATOM     17  C   UNL A   1      34.190  24.078  23.140  1.00  0.00     0.011 A 
ATOM     18  C   UNL A   1      34.759  24.773  25.376  1.00  0.00     0.011 A 
ENDBRANCH   8  12
BRANCH   9  19
ATOM     19  C   UNL A   1      31.029  23.721  24.694  1.00  0.00     0.187 C 
BRANCH  19  20
ATOM     20  C   UNL A   1      31.925  22.889  25.576  1.00  0.00     0.028 A 
ATOM     21  C   UNL A   1      32.161  23.373  26.871  1.00  0.00     0.129 A 
ATOM     22  C   UNL A   1      32.593  21.713  25.202  1.00  0.00     0.049 A 
ATOM     23  F   UNL A   1      31.618  24.540  27.250  1.00  0.00    -0.207 F 
ATOM     24  C   UNL A   1      32.957  22.694  27.789  1.00  0.00     0.040 A 
ATOM     25  C   UNL A   1      33.364  21.002  26.133  1.00  0.00     0.021 A 
ATOM     26  Cl  UNL A   1      32.538  21.059  23.605  1.00  0.00    -0.084 Cl
ATOM     27  C   UNL A   1      33.542  21.487  27.427  1.00  0.00     0.005 A 
ENDBRANCH  19  20
ENDBRANCH   9  19
ENDBRANCH   4   7
ENDBRANCH   2   3
ENDBRANCH   1   2
BRANCH   1  28
ATOM     28  C   UNL A   1      34.051  30.269  27.650  1.00  0.00     0.118 C 
BRANCH  28  29
ATOM     29  N   UNL A   1      34.753  31.241  28.482  1.00  0.00    -0.352 N 
ATOM     30  C   UNL A   1      35.997  31.101  29.086  1.00  0.00     0.251 C 
ATOM     31  H   UNL A   1      34.291  32.098  28.634  1.00  0.00     0.163 HD
ATOM     32  O   UNL A   1      36.480  31.984  29.774  1.00  0.00    -0.269 OA
BRANCH  30  33
ATOM     33  C   UNL A   1      36.774  29.883  28.754  1.00  0.00     0.039 A 
ATOM     34  C   UNL A   1      36.974  28.956  29.780  1.00  0.00     0.014 A 
ATOM     35  C   UNL A   1      37.592  29.899  27.630  1.00  0.00     0.014 A 
ATOM     36  C   UNL A   1      38.168  28.245  29.811  1.00  0.00     0.010 A 
ATOM     37  C   UNL A   1      38.833  29.305  27.736  1.00  0.00     0.010 A 
ATOM     38  C   UNL A   1      39.151  28.538  28.865  1.00  0.00    -0.014 A 
BRANCH  38  39
ATOM     39  C   UNL A   1      40.561  28.208  29.062  1.00  0.00     0.031 A 
ATOM     40  C   UNL A   1      41.123  26.963  28.492  1.00  0.00     0.074 A 
ATOM     41  C   UNL A   1      41.382  29.074  29.702  1.00  0.00     0.049 A 
ATOM     42  N   UNL A   1      42.202  26.391  28.911  1.00  0.00    -0.248 NA
ATOM     43  C   UNL A   1      40.460  26.216  27.434  1.00  0.00     0.031 C 
ATOM     44  C   UNL A   1      42.844  29.048  29.722  1.00  0.00     0.029 A 
ATOM     45  N   UNL A   1      41.041  30.065  30.643  1.00  0.00    -0.354 N 
ATOM     46  C   UNL A   1      42.527  25.389  28.024  1.00  0.00     0.074 A 
ATOM     47  C   UNL A   1      41.363  25.264  27.183  1.00  0.00     0.031 C 
ATOM     48  C   UNL A   1      43.277  29.721  30.798  1.00  0.00     0.029 A 
ATOM     49  C   UNL A   1      42.108  30.085  31.574  1.00  0.00     0.049 A 
ATOM     50  H   UNL A   1      40.232  30.625  30.650  1.00  0.00     0.167 HD
ATOM     51  C   UNL A   1      43.797  24.883  28.039  1.00  0.00     0.037 A 
ATOM     52  C   UNL A   1      41.928  29.796  32.894  1.00  0.00     0.037 A 
ATOM     53  C   UNL A   1      44.556  25.413  29.175  1.00  0.00     0.049 A 
ATOM     54  C   UNL A   1      42.777  28.655  33.401  1.00  0.00     0.074 A 
ATOM     55  C   UNL A   1      45.525  26.397  29.287  1.00  0.00     0.029 A 
ATOM     56  N   UNL A   1      44.157  25.105  30.472  1.00  0.00    -0.354 N 
ATOM     57  N   UNL A   1      43.336  27.771  32.624  1.00  0.00    -0.248 NA
ATOM     58  C   UNL A   1      43.024  28.393  34.815  1.00  0.00     0.031 C 
ATOM     59  C   UNL A   1      45.690  26.698  30.662  1.00  0.00     0.029 A 
ATOM     60  C   UNL A   1      44.830  25.891  31.387  1.00  0.00     0.049 A 
ATOM     61  H   UNL A   1      43.487  24.423  30.706  1.00  0.00     0.167 HD
ATOM     62  C   UNL A   1      43.974  26.827  33.389  1.00  0.00     0.074 A 
ATOM     63  C   UNL A   1      43.769  27.274  34.753  1.00  0.00     0.031 C 
ATOM     64  C   UNL A   1      44.596  25.753  32.817  1.00  0.00     0.037 A 
BRANCH  51  65
ATOM     65  C   UNL A   1      44.462  24.137  26.887  1.00  0.00     0.064 A 
ATOM     66  C   UNL A   1      44.163  22.774  26.650  1.00  0.00     0.173 A 
ATOM     67  C   UNL A   1      45.456  24.655  26.035  1.00  0.00     0.173 A 
ATOM     68  F   UNL A   1      43.158  22.155  27.282  1.00  0.00    -0.203 F 
ATOM     69  C   UNL A   1      44.883  21.982  25.746  1.00  0.00     0.198 A 
ATOM     70  C   UNL A   1      46.201  23.859  25.158  1.00  0.00     0.198 A 
ATOM     71  F   UNL A   1      45.710  25.962  25.955  1.00  0.00    -0.203 F 
ATOM     72  F   UNL A   1      44.562  20.691  25.590  1.00  0.00    -0.200 F 
ATOM     73  C   UNL A   1      45.928  22.518  25.026  1.00  0.00     0.200 A 
ATOM     74  F   UNL A   1      47.187  24.416  24.437  1.00  0.00    -0.200 F 
ATOM     75  F   UNL A   1      46.641  21.757  24.185  1.00  0.00    -0.200 F 
ENDBRANCH  51  65
BRANCH  52  76
ATOM     76  C   UNL A   1      40.572  30.133  33.394  1.00  0.00     0.064 A 
ATOM     77  C   UNL A   1      40.284  31.481  33.680  1.00  0.00     0.173 A 
ATOM     78  C   UNL A   1      39.493  29.259  33.224  1.00  0.00     0.173 A 
ATOM     79  F   UNL A   1      41.286  32.359  33.848  1.00  0.00    -0.203 F 
ATOM     80  C   UNL A   1      38.976  31.957  33.675  1.00  0.00     0.198 A 
ATOM     81  C   UNL A   1      38.181  29.739  33.230  1.00  0.00     0.198 A 
ATOM     82  F   UNL A   1      39.705  27.970  32.925  1.00  0.00    -0.203 F 
ATOM     83  F   UNL A   1      38.740  33.268  33.834  1.00  0.00    -0.200 F 
ATOM     84  C   UNL A   1      37.927  31.090  33.420  1.00  0.00     0.200 A 
ATOM     85  F   UNL A   1      37.168  28.909  32.946  1.00  0.00    -0.200 F 
ATOM     86  F   UNL A   1      36.678  31.562  33.309  1.00  0.00    -0.200 F 
ENDBRANCH  52  76
BRANCH  64  87
ATOM     87  C   UNL A   1      45.125  24.526  33.528  1.00  0.00     0.064 A 
ATOM     88  C   UNL A   1      44.370  23.369  33.783  1.00  0.00     0.173 A 
ATOM     89  C   UNL A   1      46.502  24.429  33.855  1.00  0.00     0.173 A 
ATOM     90  F   UNL A   1      43.086  23.276  33.413  1.00  0.00    -0.203 F 
ATOM     91  C   UNL A   1      44.928  22.232  34.377  1.00  0.00     0.198 A 
ATOM     92  C   UNL A   1      47.068  23.273  34.392  1.00  0.00     0.198 A 
ATOM     93  F   UNL A   1      47.350  25.444  33.638  1.00  0.00    -0.203 F 
ATOM     94  F   UNL A   1      44.153  21.171  34.635  1.00  0.00    -0.200 F 
ATOM     95  C   UNL A   1      46.278  22.179  34.669  1.00  0.00     0.200 A 
ATOM     96  F   UNL A   1      48.390  23.221  34.617  1.00  0.00    -0.200 F 
ATOM     97  F   UNL A   1      46.818  21.070  35.191  1.00  0.00    -0.200 F 
ENDBRANCH  64  87
ENDBRANCH  38  39
ENDBRANCH  30  33
ENDBRANCH  28  29
ENDBRANCH   1  28
TORSDOF 13
ENDMDL
MODEL 2
REMARK VINA RESULT:     -14.3      4.183     10.111
REMARK SMILES Cc1ccc(-c2c(C(=O)NCCCNC(=O)c3ccc(-c4c5nc(c(-c6c(F)c(F)c(F)c(F)c6F)c6ccc([nH]6)c(-c6c(F)c(F)c(F)c(F)c6F)c6nc(c(-c7c(F)c(F)c(F)c(F)c7F)c7ccc4[nH]7)C=C6)C=C5)cc3)nnn2Cc2c(F)cccc2Cl)cc1
REMARK SMILES IDX 12 1 11 2 10 3 8 4 9 5 7 7 6 8 82 9 80 10 81 11 5 12 1 13
REMARK SMILES IDX 2 14 3 15 93 16 4 17 92 18 83 19 84 20 85 21 90 22 86 23
REMARK SMILES IDX 87 24 89 25 91 26 88 27 13 28 14 29 15 30 16 32 17 33 18 34
REMARK SMILES IDX 79 35 19 36 78 37 20 38 21 39 22 40 72 41 23 42 77 43 71 44
REMARK SMILES IDX 73 45 24 46 76 47 70 48 69 49 25 51 57 52 37 53 56 54 38 55
REMARK SMILES IDX 41 56 55 57 74 58 39 59 40 60 54 62 75 63 42 64 26 65 27 66
REMARK SMILES IDX 35 67 28 68 29 69 33 70 36 71 30 72 31 73 34 74 32 75 58 76
REMARK SMILES IDX 59 77 67 78 60 79 61 80 65 81 68 82 62 83 63 84 66 85 64 86
REMARK SMILES IDX 43 87 44 88 52 89 45 90 46 91 50 92 53 93 47 94 48 95 51 96
REMARK SMILES IDX 49 97
REMARK H PARENT 10 6 14 31 73 50 41 61
REMARK Flexibility Score: inf
ROOT
ATOM      1  C   UNL A   1      38.834  21.519  25.729  1.00  0.00     0.042 C 
ENDROOT
BRANCH   1   2
ATOM      2  C   UNL A   1      37.454  21.536  25.095  1.00  0.00     0.118 C 
BRANCH   2   3
ATOM      3  N   UNL A   1      36.467  21.921  26.072  1.00  0.00    -0.351 N 
ATOM      4  C   UNL A   1      35.365  22.730  26.066  1.00  0.00     0.274 C 
ATOM      5  O   UNL A   1      34.876  22.866  27.195  1.00  0.00    -0.267 OA
ATOM      6  H   UNL A   1      36.623  21.503  26.950  1.00  0.00     0.163 HD
BRANCH   4   7
ATOM      7  C   UNL A   1      34.731  23.376  24.907  1.00  0.00     0.178 A 
ATOM      8  C   UNL A   1      34.057  24.567  24.599  1.00  0.00     0.102 A 
ATOM      9  N   UNL A   1      33.835  24.453  23.233  1.00  0.00    -0.239 N 
ATOM     10  N   UNL A   1      34.743  22.595  23.755  1.00  0.00    -0.124 NA
ATOM     11  N   UNL A   1      34.171  23.246  22.769  1.00  0.00    -0.066 NA
BRANCH   8  12
ATOM     12  C   UNL A   1      33.587  25.742  25.326  1.00  0.00     0.002 A 
ATOM     13  C   UNL A   1      32.087  29.313  27.249  1.00  0.00     0.044 C 
ATOM     14  C   UNL A   1      32.660  28.055  26.662  1.00  0.00    -0.051 A 
ATOM     15  C   UNL A   1      31.934  26.861  26.720  1.00  0.00     0.004 A 
ATOM     16  C   UNL A   1      33.885  28.070  25.981  1.00  0.00     0.004 A 
ATOM     17  C   UNL A   1      32.404  25.711  26.075  1.00  0.00     0.011 A 
ATOM     18  C   UNL A   1      34.349  26.921  25.327  1.00  0.00     0.011 A 
ENDBRANCH   8  12
BRANCH   9  19
ATOM     19  C   UNL A   1      33.234  25.385  22.287  1.00  0.00     0.187 C 
BRANCH  19  20
ATOM     20  C   UNL A   1      31.957  26.054  22.730  1.00  0.00     0.028 A 
ATOM     21  C   UNL A   1      31.965  27.456  22.784  1.00  0.00     0.129 A 
ATOM     22  C   UNL A   1      30.786  25.406  23.152  1.00  0.00     0.049 A 
ATOM     23  F   UNL A   1      33.089  28.123  22.477  1.00  0.00    -0.207 F 
ATOM     24  C   UNL A   1      30.849  28.196  23.162  1.00  0.00     0.040 A 
ATOM     25  C   UNL A   1      29.644  26.144  23.496  1.00  0.00     0.021 A 
ATOM     26  Cl  UNL A   1      30.652  23.691  23.293  1.00  0.00    -0.084 Cl
ATOM     27  C   UNL A   1      29.672  27.538  23.497  1.00  0.00     0.005 A 
ENDBRANCH  19  20
ENDBRANCH   9  19
ENDBRANCH   4   7
ENDBRANCH   2   3
ENDBRANCH   1   2
BRANCH   1  28
ATOM     28  C   UNL A   1      39.171  22.751  26.537  1.00  0.00     0.118 C 
BRANCH  28  29
ATOM     29  N   UNL A   1      40.599  23.018  26.681  1.00  0.00    -0.352 N 
ATOM     30  C   UNL A   1      41.227  24.254  26.765  1.00  0.00     0.251 C 
ATOM     31  H   UNL A   1      41.186  22.229  26.724  1.00  0.00     0.163 HD
ATOM     32  O   UNL A   1      42.437  24.354  26.872  1.00  0.00    -0.269 OA
BRANCH  30  33
ATOM     33  C   UNL A   1      40.354  25.450  26.850  1.00  0.00     0.039 A 
ATOM     34  C   UNL A   1      40.780  26.599  26.179  1.00  0.00     0.014 A 
ATOM     35  C   UNL A   1      39.419  25.522  27.878  1.00  0.00     0.014 A 
ATOM     36  C   UNL A   1      40.490  27.839  26.734  1.00  0.00     0.010 A 
ATOM     37  C   UNL A   1      39.255  26.740  28.505  1.00  0.00     0.010 A 
ATOM     38  C   UNL A   1      39.855  27.890  27.975  1.00  0.00    -0.014 A 
BRANCH  38  39
ATOM     39  C   UNL A   1      39.907  29.065  28.843  1.00  0.00     0.031 A 
ATOM     40  C   UNL A   1      38.856  30.104  28.757  1.00  0.00     0.074 A 
ATOM     41  C   UNL A   1      40.873  29.177  29.784  1.00  0.00     0.049 A 
ATOM     42  N   UNL A   1      38.997  31.320  29.168  1.00  0.00    -0.248 NA
ATOM     43  C   UNL A   1      37.568  29.866  28.123  1.00  0.00     0.031 C 
ATOM     44  C   UNL A   1      40.901  30.109  30.911  1.00  0.00     0.029 A 
ATOM     45  N   UNL A   1      42.149  28.580  29.799  1.00  0.00    -0.354 N 
ATOM     46  C   UNL A   1      37.764  31.933  29.119  1.00  0.00     0.074 A 
ATOM     47  C   UNL A   1      36.937  31.016  28.375  1.00  0.00     0.031 C 
ATOM     48  C   UNL A   1      42.169  30.263  31.318  1.00  0.00     0.029 A 
ATOM     49  C   UNL A   1      43.009  29.541  30.382  1.00  0.00     0.049 A 
ATOM     50  H   UNL A   1      42.390  27.683  29.472  1.00  0.00     0.167 HD
ATOM     51  C   UNL A   1      37.574  33.084  29.831  1.00  0.00     0.037 A 
ATOM     52  C   UNL A   1      44.066  30.078  29.708  1.00  0.00     0.037 A 
ATOM     53  C   UNL A   1      38.838  33.562  30.398  1.00  0.00     0.049 A 
ATOM     54  C   UNL A   1      44.032  31.583  29.601  1.00  0.00     0.074 A 
ATOM     55  C   UNL A   1      39.385  33.505  31.670  1.00  0.00     0.029 A 
ATOM     56  N   UNL A   1      39.863  33.969  29.548  1.00  0.00    -0.354 N 
ATOM     57  N   UNL A   1      42.954  32.295  29.771  1.00  0.00    -0.248 NA
ATOM     58  C   UNL A   1      45.191  32.398  29.249  1.00  0.00     0.031 C 
ATOM     59  C   UNL A   1      40.754  33.856  31.577  1.00  0.00     0.029 A 
ATOM     60  C   UNL A   1      41.039  34.138  30.252  1.00  0.00     0.049 A 
ATOM     61  H   UNL A   1      39.763  34.115  28.580  1.00  0.00     0.167 HD
ATOM     62  C   UNL A   1      43.236  33.616  29.532  1.00  0.00     0.074 A 
ATOM     63  C   UNL A   1      44.655  33.631  29.233  1.00  0.00     0.031 C 
ATOM     64  C   UNL A   1      42.260  34.571  29.588  1.00  0.00     0.037 A 
BRANCH  51  65
ATOM     65  C   UNL A   1      36.221  33.638  30.266  1.00  0.00     0.064 A 
ATOM     66  C   UNL A   1      35.324  34.168  29.308  1.00  0.00     0.173 A 
ATOM     67  C   UNL A   1      35.771  33.765  31.594  1.00  0.00     0.173 A 
ATOM     68  F   UNL A   1      35.532  34.021  27.994  1.00  0.00    -0.203 F 
ATOM     69  C   UNL A   1      34.164  34.871  29.658  1.00  0.00     0.198 A 
ATOM     70  C   UNL A   1      34.633  34.498  31.949  1.00  0.00     0.198 A 
ATOM     71  F   UNL A   1      36.366  33.134  32.607  1.00  0.00    -0.203 F 
ATOM     72  F   UNL A   1      33.371  35.367  28.698  1.00  0.00    -0.200 F 
ATOM     73  C   UNL A   1      33.838  35.067  30.982  1.00  0.00     0.200 A 
ATOM     74  F   UNL A   1      34.316  34.639  33.245  1.00  0.00    -0.200 F 
ATOM     75  F   UNL A   1      32.748  35.768  31.323  1.00  0.00    -0.200 F 
ENDBRANCH  51  65
BRANCH  52  76
ATOM     76  C   UNL A   1      44.644  29.165  28.691  1.00  0.00     0.064 A 
ATOM     77  C   UNL A   1      45.497  28.135  29.128  1.00  0.00     0.173 A 
ATOM     78  C   UNL A   1      44.085  29.050  27.414  1.00  0.00     0.173 A 
ATOM     79  F   UNL A   1      46.053  28.199  30.348  1.00  0.00    -0.203 F 
ATOM     80  C   UNL A   1      45.685  26.982  28.369  1.00  0.00     0.198 A 
ATOM     81  C   UNL A   1      44.286  27.896  26.651  1.00  0.00     0.198 A 
ATOM     82  F   UNL A   1      43.245  29.988  26.953  1.00  0.00    -0.203 F 
ATOM     83  F   UNL A   1      46.409  25.967  28.864  1.00  0.00    -0.200 F 
ATOM     84  C   UNL A   1      45.055  26.852  27.145  1.00  0.00     0.200 A 
ATOM     85  F   UNL A   1      43.646  27.752  25.483  1.00  0.00    -0.200 F 
ATOM     86  F   UNL A   1      45.148  25.703  26.461  1.00  0.00    -0.200 F 
ENDBRANCH  52  76
BRANCH  64  87
ATOM     87  C   UNL A   1      42.367  36.008  29.124  1.00  0.00     0.064 A 
ATOM     88  C   UNL A   1      43.113  37.000  29.780  1.00  0.00     0.173 A 
ATOM     89  C   UNL A   1      41.811  36.398  27.878  1.00  0.00     0.173 A 
ATOM     90  F   UNL A   1      43.794  36.736  30.903  1.00  0.00    -0.203 F 
ATOM     91  C   UNL A   1      43.241  38.296  29.268  1.00  0.00     0.198 A 
ATOM     92  C   UNL A   1      41.991  37.674  27.341  1.00  0.00     0.198 A 
ATOM     93  F   UNL A   1      41.101  35.546  27.126  1.00  0.00    -0.203 F 
ATOM     94  F   UNL A   1      43.931  39.216  29.956  1.00  0.00    -0.200 F 
ATOM     95  C   UNL A   1      42.691  38.629  28.044  1.00  0.00     0.200 A 
ATOM     96  F   UNL A   1      41.497  37.960  26.128  1.00  0.00    -0.200 F 
ATOM     97  F   UNL A   1      42.858  39.856  27.535  1.00  0.00    -0.200 F 
ENDBRANCH  64  87
ENDBRANCH  38  39
ENDBRANCH  30  33
ENDBRANCH  28  29
ENDBRANCH   1  28
TORSDOF 13
ENDMDL
MODEL 3
REMARK VINA RESULT:     -14.1      3.876      9.840
REMARK SMILES Cc1ccc(-c2c(C(=O)NCCCNC(=O)c3ccc(-c4c5nc(c(-c6c(F)c(F)c(F)c(F)c6F)c6ccc([nH]6)c(-c6c(F)c(F)c(F)c(F)c6F)c6nc(c(-c7c(F)c(F)c(F)c(F)c7F)c7ccc4[nH]7)C=C6)C=C5)cc3)nnn2Cc2c(F)cccc2Cl)cc1
REMARK SMILES IDX 12 1 11 2 10 3 8 4 9 5 7 7 6 8 82 9 80 10 81 11 5 12 1 13
REMARK SMILES IDX 2 14 3 15 93 16 4 17 92 18 83 19 84 20 85 21 90 22 86 23
REMARK SMILES IDX 87 24 89 25 91 26 88 27 13 28 14 29 15 30 16 32 17 33 18 34
REMARK SMILES IDX 79 35 19 36 78 37 20 38 21 39 22 40 72 41 23 42 77 43 71 44
REMARK SMILES IDX 73 45 24 46 76 47 70 48 69 49 25 51 57 52 37 53 56 54 38 55
REMARK SMILES IDX 41 56 55 57 74 58 39 59 40 60 54 62 75 63 42 64 26 65 27 66
REMARK SMILES IDX 35 67 28 68 29 69 33 70 36 71 30 72 31 73 34 74 32 75 58 76
REMARK SMILES IDX 59 77 67 78 60 79 61 80 65 81 68 82 62 83 63 84 66 85 64 86
REMARK SMILES IDX 43 87 44 88 52 89 45 90 46 91 50 92 53 93 47 94 48 95 51 96
REMARK SMILES IDX 49 97
REMARK H PARENT 10 6 14 31 73 50 41 61
REMARK Flexibility Score: inf
ROOT
ATOM      1  C   UNL A   1      37.818  21.275  25.612  1.00  0.00     0.042 C 
ENDROOT
BRANCH   1   2
ATOM      2  C   UNL A   1      36.336  21.329  25.287  1.00  0.00     0.118 C 
BRANCH   2   3
ATOM      3  N   UNL A   1      35.568  21.407  26.504  1.00  0.00    -0.351 N 
ATOM      4  C   UNL A   1      34.312  21.842  26.829  1.00  0.00     0.274 C 
ATOM      5  O   UNL A   1      34.115  21.836  28.050  1.00  0.00    -0.267 OA
ATOM      6  H   UNL A   1      36.062  21.067  27.285  1.00  0.00     0.163 HD
BRANCH   4   7
ATOM      7  C   UNL A   1      33.237  22.250  25.912  1.00  0.00     0.178 A 
ATOM      8  C   UNL A   1      32.599  23.425  25.488  1.00  0.00     0.102 A 
ATOM      9  N   UNL A   1      31.714  22.966  24.522  1.00  0.00    -0.239 N 
ATOM     10  N   UNL A   1      32.608  21.183  25.278  1.00  0.00    -0.124 NA
ATOM     11  N   UNL A   1      31.673  21.631  24.472  1.00  0.00    -0.066 NA
BRANCH   8  12
ATOM     12  C   UNL A   1      32.655  24.845  25.822  1.00  0.00     0.002 A 
ATOM     13  C   UNL A   1      32.913  28.982  27.056  1.00  0.00     0.044 C 
ATOM     14  C   UNL A   1      32.773  27.574  26.548  1.00  0.00    -0.051 A 
ATOM     15  C   UNL A   1      33.810  26.988  25.814  1.00  0.00     0.004 A 
ATOM     16  C   UNL A   1      31.648  26.803  26.866  1.00  0.00     0.004 A 
ATOM     17  C   UNL A   1      33.740  25.642  25.438  1.00  0.00     0.011 A 
ATOM     18  C   UNL A   1      31.585  25.452  26.498  1.00  0.00     0.011 A 
ENDBRANCH   8  12
BRANCH   9  19
ATOM     19  C   UNL A   1      30.798  23.693  23.651  1.00  0.00     0.187 C 
BRANCH  19  20
ATOM     20  C   UNL A   1      31.355  24.918  22.971  1.00  0.00     0.028 A 
ATOM     21  C   UNL A   1      30.671  26.124  23.184  1.00  0.00     0.129 A 
ATOM     22  C   UNL A   1      32.454  24.953  22.098  1.00  0.00     0.049 A 
ATOM     23  F   UNL A   1      29.561  26.129  23.938  1.00  0.00    -0.207 F 
ATOM     24  C   UNL A   1      31.089  27.328  22.627  1.00  0.00     0.040 A 
ATOM     25  C   UNL A   1      32.905  26.169  21.565  1.00  0.00     0.021 A 
ATOM     26  Cl  UNL A   1      33.318  23.542  21.607  1.00  0.00    -0.084 Cl
ATOM     27  C   UNL A   1      32.228  27.357  21.833  1.00  0.00     0.005 A 
ENDBRANCH  19  20
ENDBRANCH   9  19
ENDBRANCH   4   7
ENDBRANCH   2   3
ENDBRANCH   1   2
BRANCH   1  28
ATOM     28  C   UNL A   1      38.452  22.618  25.893  1.00  0.00     0.118 C 
BRANCH  28  29
ATOM     29  N   UNL A   1      39.867  22.566  26.247  1.00  0.00    -0.352 N 
ATOM     30  C   UNL A   1      40.659  23.599  26.732  1.00  0.00     0.251 C 
ATOM     31  H   UNL A   1      40.313  21.696  26.129  1.00  0.00     0.163 HD
ATOM     32  O   UNL A   1      41.842  23.439  26.983  1.00  0.00    -0.269 OA
BRANCH  30  33
ATOM     33  C   UNL A   1      39.978  24.876  27.056  1.00  0.00     0.039 A 
ATOM     34  C   UNL A   1      40.370  26.008  26.338  1.00  0.00     0.014 A 
ATOM     35  C   UNL A   1      39.322  24.991  28.278  1.00  0.00     0.014 A 
ATOM     36  C   UNL A   1      40.366  27.239  26.982  1.00  0.00     0.010 A 
ATOM     37  C   UNL A   1      39.454  26.182  28.962  1.00  0.00     0.010 A 
ATOM     38  C   UNL A   1      40.047  27.288  28.339  1.00  0.00    -0.014 A 
BRANCH  38  39
ATOM     39  C   UNL A   1      40.438  28.400  29.204  1.00  0.00     0.031 A 
ATOM     40  C   UNL A   1      39.462  29.458  29.548  1.00  0.00     0.074 A 
ATOM     41  C   UNL A   1      41.673  28.432  29.758  1.00  0.00     0.049 A 
ATOM     42  N   UNL A   1      39.781  30.640  29.958  1.00  0.00    -0.248 NA
ATOM     43  C   UNL A   1      38.026  29.283  29.385  1.00  0.00     0.031 C 
ATOM     44  C   UNL A   1      42.121  29.284  30.859  1.00  0.00     0.029 A 
ATOM     45  N   UNL A   1      42.852  27.817  29.295  1.00  0.00    -0.354 N 
ATOM     46  C   UNL A   1      38.630  31.273  30.374  1.00  0.00     0.074 A 
ATOM     47  C   UNL A   1      37.564  30.422  29.908  1.00  0.00     0.031 C 
ATOM     48  C   UNL A   1      43.456  29.391  30.812  1.00  0.00     0.029 A 
ATOM     49  C   UNL A   1      43.897  28.723  29.602  1.00  0.00     0.049 A 
ATOM     50  H   UNL A   1      42.933  26.942  28.852  1.00  0.00     0.167 HD
ATOM     51  C   UNL A   1      38.740  32.375  31.175  1.00  0.00     0.037 A 
ATOM     52  C   UNL A   1      44.676  29.290  28.638  1.00  0.00     0.037 A 
ATOM     53  C   UNL A   1      40.139  32.794  31.298  1.00  0.00     0.049 A 
ATOM     54  C   UNL A   1      44.664  30.799  28.639  1.00  0.00     0.074 A 
ATOM     55  C   UNL A   1      41.087  32.641  32.297  1.00  0.00     0.029 A 
ATOM     56  N   UNL A   1      40.823  33.244  30.173  1.00  0.00    -0.354 N 
ATOM     57  N   UNL A   1      43.738  31.513  29.213  1.00  0.00    -0.248 NA
ATOM     58  C   UNL A   1      45.662  31.619  27.958  1.00  0.00     0.031 C 
ATOM     59  C   UNL A   1      42.353  32.978  31.758  1.00  0.00     0.029 A 
ATOM     60  C   UNL A   1      42.175  33.346  30.436  1.00  0.00     0.049 A 
ATOM     61  H   UNL A   1      40.402  33.458  29.309  1.00  0.00     0.167 HD
ATOM     62  C   UNL A   1      43.970  32.844  28.971  1.00  0.00     0.074 A 
ATOM     63  C   UNL A   1      45.199  32.859  28.202  1.00  0.00     0.031 C 
ATOM     64  C   UNL A   1      43.109  33.806  29.418  1.00  0.00     0.037 A 
BRANCH  51  65
ATOM     65  C   UNL A   1      37.640  32.917  32.082  1.00  0.00     0.064 A 
ATOM     66  C   UNL A   1      36.592  33.703  31.546  1.00  0.00     0.173 A 
ATOM     67  C   UNL A   1      37.590  32.788  33.483  1.00  0.00     0.173 A 
ATOM     68  F   UNL A   1      36.413  33.828  30.225  1.00  0.00    -0.203 F 
ATOM     69  C   UNL A   1      35.673  34.395  32.345  1.00  0.00     0.198 A 
ATOM     70  C   UNL A   1      36.697  33.506  34.286  1.00  0.00     0.198 A 
ATOM     71  F   UNL A   1      38.352  31.912  34.142  1.00  0.00    -0.203 F 
ATOM     72  F   UNL A   1      34.720  35.141  31.770  1.00  0.00    -0.200 F 
ATOM     73  C   UNL A   1      35.749  34.324  33.719  1.00  0.00     0.200 A 
ATOM     74  F   UNL A   1      36.766  33.387  35.621  1.00  0.00    -0.200 F 
ATOM     75  F   UNL A   1      34.894  35.011  34.488  1.00  0.00    -0.200 F 
ENDBRANCH  51  65
BRANCH  52  76
ATOM     76  C   UNL A   1      44.835  28.441  27.431  1.00  0.00     0.064 A 
ATOM     77  C   UNL A   1      45.716  27.347  27.497  1.00  0.00     0.173 A 
ATOM     78  C   UNL A   1      43.886  28.452  26.403  1.00  0.00     0.173 A 
ATOM     79  F   UNL A   1      46.641  27.289  28.469  1.00  0.00    -0.203 F 
ATOM     80  C   UNL A   1      45.576  26.253  26.647  1.00  0.00     0.198 A 
ATOM     81  C   UNL A   1      43.756  27.357  25.545  1.00  0.00     0.198 A 
ATOM     82  F   UNL A   1      43.003  29.456  26.304  1.00  0.00    -0.203 F 
ATOM     83  F   UNL A   1      46.355  25.173  26.810  1.00  0.00    -0.200 F 
ATOM     84  C   UNL A   1      44.576  26.247  25.690  1.00  0.00     0.200 A 
ATOM     85  F   UNL A   1      42.764  27.333  24.644  1.00  0.00    -0.200 F 
ATOM     86  F   UNL A   1      44.369  25.155  24.942  1.00  0.00    -0.200 F 
ENDBRANCH  52  76
BRANCH  64  87
ATOM     87  C   UNL A   1      43.104  35.270  29.032  1.00  0.00     0.064 A 
ATOM     88  C   UNL A   1      42.496  35.783  27.874  1.00  0.00     0.173 A 
ATOM     89  C   UNL A   1      43.610  36.246  29.928  1.00  0.00     0.173 A 
ATOM     90  F   UNL A   1      41.870  34.985  27.000  1.00  0.00    -0.203 F 
ATOM     91  C   UNL A   1      42.454  37.155  27.602  1.00  0.00     0.198 A 
ATOM     92  C   UNL A   1      43.513  37.616  29.682  1.00  0.00     0.198 A 
ATOM     93  F   UNL A   1      44.189  35.904  31.088  1.00  0.00    -0.203 F 
ATOM     94  F   UNL A   1      41.898  37.588  26.462  1.00  0.00    -0.200 F 
ATOM     95  C   UNL A   1      42.951  38.071  28.510  1.00  0.00     0.200 A 
ATOM     96  F   UNL A   1      43.950  38.490  30.601  1.00  0.00    -0.200 F 
ATOM     97  F   UNL A   1      42.864  39.385  28.268  1.00  0.00    -0.200 F 
ENDBRANCH  64  87
ENDBRANCH  38  39
ENDBRANCH  30  33
ENDBRANCH  28  29
ENDBRANCH   1  28
TORSDOF 13
ENDMDL
