MODEL 1
REMARK VINA RESULT:     -11.9      0.000      0.000
REMARK SMILES C/C(=N\Nc1nc(-c2ccc(Cl)cc2)cs1)c1nnn(-c2ccc(C(=O)NCCCNC(=O)c3ccc(-c4c5nc(c(-c6c(F)c(F)c(F)c(F)c6F)c6ccc([nH]6)c(-c6c(F)c(F)c(F)c(F)c6F)c6nc(c(-c7c(F)c(F)c(F)c(F)c7F)c7ccc4[nH]7)C=C6)C=C5)cc3)cc2)c1C
REMARK SMILES IDX 25 1 26 2 27 3 24 5 21 6 22 7 98 8 23 9 97 10 20 11 17 12
REMARK SMILES IDX 18 13 99 14 19 15 100 16 2 17 1 18 3 19 4 20 5 22 6 23 16 24
REMARK SMILES IDX 7 25 15 26 8 27 9 28 14 29 10 30 13 31 11 32 12 33 28 34
REMARK SMILES IDX 29 35 30 36 31 37 32 38 33 40 34 41 35 42 96 43 36 44 95 45
REMARK SMILES IDX 37 46 38 47 39 48 89 49 40 50 94 51 88 52 90 53 41 54 93 55
REMARK SMILES IDX 87 56 86 57 42 59 74 60 54 61 73 62 55 63 58 64 72 65 91 66
REMARK SMILES IDX 56 67 57 68 71 70 92 71 59 72 43 73 44 74 52 75 45 76 46 77
REMARK SMILES IDX 50 78 53 79 47 80 48 81 51 82 49 83 75 84 76 85 84 86 77 87
REMARK SMILES IDX 78 88 82 89 85 90 79 91 80 92 83 93 81 94 60 95 61 96 69 97
REMARK SMILES IDX 62 98 63 99 67 100 70 101 64 102 65 103 68 104 66 105
REMARK H PARENT 27 4 4 21 31 39 90 58 58 69
REMARK Flexibility Score: inf
ROOT
ATOM      1  C   UNL A   1      37.152  32.761  34.489  1.00  0.00     0.251 C 
ATOM      2  O   UNL A   1      37.199  31.968  35.428  1.00  0.00    -0.269 OA
ATOM      3  N   UNL A   1      35.925  33.290  34.152  1.00  0.00    -0.352 N 
ATOM      4  H   UNL A   1      35.170  32.895  34.645  1.00  0.00     0.163 HD
ENDROOT
BRANCH   1   5
ATOM      5  C   UNL A   1      38.416  33.154  33.805  1.00  0.00     0.039 A 
ATOM      6  C   UNL A   1      40.602  34.065  32.333  1.00  0.00     0.067 A 
ATOM      7  C   UNL A   1      40.016  34.919  33.267  1.00  0.00     0.029 A 
ATOM      8  C   UNL A   1      40.199  32.737  32.224  1.00  0.00     0.029 A 
ATOM      9  C   UNL A   1      38.903  34.462  33.986  1.00  0.00     0.016 A 
ATOM     10  C   UNL A   1      39.137  32.282  32.990  1.00  0.00     0.016 A 
BRANCH   6  11
ATOM     11  N   UNL A   1      41.499  34.559  31.375  1.00  0.00    -0.217 N 
ATOM     12  C   UNL A   1      42.390  35.348  29.558  1.00  0.00     0.132 A 
ATOM     13  N   UNL A   1      43.348  35.299  30.534  1.00  0.00    -0.128 NA
ATOM     14  C   UNL A   1      41.191  34.871  30.065  1.00  0.00     0.071 A 
ATOM     15  N   UNL A   1      42.768  34.901  31.662  1.00  0.00    -0.061 NA
ATOM     16  C   UNL A   1      39.817  34.856  29.493  1.00  0.00     0.069 C 
BRANCH  12  17
ATOM     17  C   UNL A   1      42.557  35.992  28.266  1.00  0.00     0.087 C 
ATOM     18  C   UNL A   1      43.062  35.076  27.174  1.00  0.00     0.071 C 
ATOM     19  N   UNL A   1      42.319  37.274  28.211  1.00  0.00    -0.176 NA
BRANCH  19  20
ATOM     20  N   UNL A   1      42.556  38.024  27.080  1.00  0.00    -0.252 N 
ATOM     21  H   UNL A   1      42.634  37.508  26.245  1.00  0.00     0.193 HD
BRANCH  20  22
ATOM     22  C   UNL A   1      42.701  39.367  26.944  1.00  0.00     0.203 A 
ATOM     23  N   UNL A   1      42.363  40.069  25.889  1.00  0.00    -0.219 NA
ATOM     24  S   UNL A   1      43.530  40.287  28.150  1.00  0.00    -0.103 S 
ATOM     25  C   UNL A   1      43.057  41.260  25.859  1.00  0.00     0.084 A 
ATOM     26  C   UNL A   1      43.759  41.553  27.007  1.00  0.00     0.097 A 
BRANCH  25  27
ATOM     27  C   UNL A   1      43.084  42.031  24.628  1.00  0.00     0.001 A 
ATOM     28  C   UNL A   1      41.932  42.082  23.832  1.00  0.00     0.012 A 
ATOM     29  C   UNL A   1      44.274  42.600  24.153  1.00  0.00     0.012 A 
ATOM     30  C   UNL A   1      41.957  42.719  22.590  1.00  0.00     0.021 A 
ATOM     31  C   UNL A   1      44.301  43.229  22.904  1.00  0.00     0.021 A 
ATOM     32  C   UNL A   1      43.140  43.290  22.131  1.00  0.00     0.041 A 
ATOM     33  Cl  UNL A   1      43.178  44.059  20.593  1.00  0.00    -0.084 Cl
ENDBRANCH  25  27
ENDBRANCH  20  22
ENDBRANCH  19  20
ENDBRANCH  12  17
ENDBRANCH   6  11
ENDBRANCH   1   5
BRANCH   3  34
ATOM     34  C   UNL A   1      35.535  34.328  33.204  1.00  0.00     0.118 C 
BRANCH  34  35
ATOM     35  C   UNL A   1      35.572  33.835  31.748  1.00  0.00     0.042 C 
BRANCH  35  36
ATOM     36  C   UNL A   1      34.798  32.549  31.554  1.00  0.00     0.118 C 
BRANCH  36  37
ATOM     37  N   UNL A   1      34.425  32.317  30.157  1.00  0.00    -0.352 N 
ATOM     38  C   UNL A   1      35.212  31.838  29.122  1.00  0.00     0.251 C 
ATOM     39  H   UNL A   1      33.493  32.529  29.922  1.00  0.00     0.163 HD
ATOM     40  O   UNL A   1      34.903  32.022  27.959  1.00  0.00    -0.269 OA
BRANCH  38  41
ATOM     41  C   UNL A   1      36.437  31.090  29.465  1.00  0.00     0.039 A 
ATOM     42  C   UNL A   1      36.429  29.716  29.720  1.00  0.00     0.014 A 
ATOM     43  C   UNL A   1      37.627  31.807  29.490  1.00  0.00     0.014 A 
ATOM     44  C   UNL A   1      37.646  29.072  29.936  1.00  0.00     0.010 A 
ATOM     45  C   UNL A   1      38.816  31.143  29.450  1.00  0.00     0.010 A 
ATOM     46  C   UNL A   1      38.836  29.800  29.783  1.00  0.00    -0.014 A 
BRANCH  46  47
ATOM     47  C   UNL A   1      40.151  29.179  29.845  1.00  0.00     0.031 A 
ATOM     48  C   UNL A   1      40.660  29.045  31.232  1.00  0.00     0.074 A 
ATOM     49  C   UNL A   1      40.693  28.555  28.773  1.00  0.00     0.049 A 
ATOM     50  N   UNL A   1      41.638  29.689  31.772  1.00  0.00    -0.248 NA
ATOM     51  C   UNL A   1      39.874  28.251  32.192  1.00  0.00     0.031 C 
ATOM     52  C   UNL A   1      40.094  28.362  27.441  1.00  0.00     0.029 A 
ATOM     53  N   UNL A   1      41.858  27.857  28.669  1.00  0.00    -0.354 N 
ATOM     54  C   UNL A   1      41.744  29.194  33.070  1.00  0.00     0.074 A 
ATOM     55  C   UNL A   1      40.508  28.515  33.337  1.00  0.00     0.031 C 
ATOM     56  C   UNL A   1      40.781  27.423  26.756  1.00  0.00     0.029 A 
ATOM     57  C   UNL A   1      41.963  27.073  27.518  1.00  0.00     0.049 A 
ATOM     58  H   UNL A   1      42.567  27.902  29.348  1.00  0.00     0.167 HD
ATOM     59  C   UNL A   1      42.967  29.108  33.667  1.00  0.00     0.037 A 
ATOM     60  C   UNL A   1      42.956  26.195  27.227  1.00  0.00     0.037 A 
ATOM     61  C   UNL A   1      43.932  29.878  32.916  1.00  0.00     0.049 A 
ATOM     62  C   UNL A   1      44.104  26.557  28.085  1.00  0.00     0.074 A 
ATOM     63  C   UNL A   1      44.154  31.210  32.644  1.00  0.00     0.029 A 
ATOM     64  N   UNL A   1      44.603  29.156  31.962  1.00  0.00    -0.354 N 
ATOM     65  N   UNL A   1      44.780  27.664  27.954  1.00  0.00    -0.248 NA
ATOM     66  C   UNL A   1      44.251  25.882  29.366  1.00  0.00     0.031 C 
ATOM     67  C   UNL A   1      44.723  31.246  31.334  1.00  0.00     0.029 A 
ATOM     68  C   UNL A   1      44.893  29.938  30.880  1.00  0.00     0.049 A 
ATOM     69  H   UNL A   1      44.843  28.206  32.046  1.00  0.00     0.167 HD
ATOM     70  C   UNL A   1      45.067  28.049  29.251  1.00  0.00     0.074 A 
ATOM     71  C   UNL A   1      44.865  26.848  30.056  1.00  0.00     0.031 C 
ATOM     72  C   UNL A   1      45.130  29.377  29.569  1.00  0.00     0.037 A 
BRANCH  59  73
ATOM     73  C   UNL A   1      43.424  27.961  34.557  1.00  0.00     0.064 A 
ATOM     74  C   UNL A   1      43.367  26.649  34.034  1.00  0.00     0.173 A 
ATOM     75  C   UNL A   1      43.589  28.035  35.958  1.00  0.00     0.173 A 
ATOM     76  F   UNL A   1      43.218  26.444  32.716  1.00  0.00    -0.203 F 
ATOM     77  C   UNL A   1      43.353  25.518  34.856  1.00  0.00     0.198 A 
ATOM     78  C   UNL A   1      43.621  26.903  36.771  1.00  0.00     0.198 A 
ATOM     79  F   UNL A   1      43.618  29.193  36.623  1.00  0.00    -0.203 F 
ATOM     80  F   UNL A   1      43.154  24.306  34.320  1.00  0.00    -0.200 F 
ATOM     81  C   UNL A   1      43.467  25.647  36.227  1.00  0.00     0.200 A 
ATOM     82  F   UNL A   1      43.719  27.051  38.100  1.00  0.00    -0.200 F 
ATOM     83  F   UNL A   1      43.382  24.574  37.024  1.00  0.00    -0.200 F 
ENDBRANCH  59  73
BRANCH  60  84
ATOM     84  C   UNL A   1      42.922  24.924  26.464  1.00  0.00     0.064 A 
ATOM     85  C   UNL A   1      43.749  24.723  25.345  1.00  0.00     0.173 A 
ATOM     86  C   UNL A   1      42.311  23.777  27.003  1.00  0.00     0.173 A 
ATOM     87  F   UNL A   1      44.402  25.758  24.794  1.00  0.00    -0.203 F 
ATOM     88  C   UNL A   1      43.984  23.445  24.823  1.00  0.00     0.198 A 
ATOM     89  C   UNL A   1      42.546  22.503  26.481  1.00  0.00     0.198 A 
ATOM     90  F   UNL A   1      41.560  23.861  28.110  1.00  0.00    -0.203 F 
ATOM     91  F   UNL A   1      44.836  23.286  23.799  1.00  0.00    -0.200 F 
ATOM     92  C   UNL A   1      43.395  22.335  25.402  1.00  0.00     0.200 A 
ATOM     93  F   UNL A   1      42.003  21.431  27.075  1.00  0.00    -0.200 F 
ATOM     94  F   UNL A   1      43.677  21.104  24.950  1.00  0.00    -0.200 F 
ENDBRANCH  60  84
BRANCH  72  95
ATOM     95  C   UNL A   1      45.301  30.341  28.430  1.00  0.00     0.064 A 
ATOM     96  C   UNL A   1      44.250  30.862  27.655  1.00  0.00     0.173 A 
ATOM     97  C   UNL A   1      46.590  30.829  28.180  1.00  0.00     0.173 A 
ATOM     98  F   UNL A   1      42.980  30.510  27.887  1.00  0.00    -0.203 F 
ATOM     99  C   UNL A   1      44.490  31.796  26.649  1.00  0.00     0.198 A 
ATOM    100  C   UNL A   1      46.822  31.789  27.201  1.00  0.00     0.198 A 
ATOM    101  F   UNL A   1      47.623  30.401  28.921  1.00  0.00    -0.203 F 
ATOM    102  F   UNL A   1      43.473  32.264  25.909  1.00  0.00    -0.200 F 
ATOM    103  C   UNL A   1      45.775  32.262  26.427  1.00  0.00     0.200 A 
ATOM    104  F   UNL A   1      48.059  32.270  27.023  1.00  0.00    -0.200 F 
ATOM    105  F   UNL A   1      46.003  33.187  25.484  1.00  0.00    -0.200 F 
ENDBRANCH  72  95
ENDBRANCH  46  47
ENDBRANCH  38  41
ENDBRANCH  36  37
ENDBRANCH  35  36
ENDBRANCH  34  35
ENDBRANCH   3  34
TORSDOF 15
ENDMDL
MODEL 2
REMARK VINA RESULT:     -11.7      5.988     13.820
REMARK SMILES C/C(=N\Nc1nc(-c2ccc(Cl)cc2)cs1)c1nnn(-c2ccc(C(=O)NCCCNC(=O)c3ccc(-c4c5nc(c(-c6c(F)c(F)c(F)c(F)c6F)c6ccc([nH]6)c(-c6c(F)c(F)c(F)c(F)c6F)c6nc(c(-c7c(F)c(F)c(F)c(F)c7F)c7ccc4[nH]7)C=C6)C=C5)cc3)cc2)c1C
REMARK SMILES IDX 25 1 26 2 27 3 24 5 21 6 22 7 98 8 23 9 97 10 20 11 17 12
REMARK SMILES IDX 18 13 99 14 19 15 100 16 2 17 1 18 3 19 4 20 5 22 6 23 16 24
REMARK SMILES IDX 7 25 15 26 8 27 9 28 14 29 10 30 13 31 11 32 12 33 28 34
REMARK SMILES IDX 29 35 30 36 31 37 32 38 33 40 34 41 35 42 96 43 36 44 95 45
REMARK SMILES IDX 37 46 38 47 39 48 89 49 40 50 94 51 88 52 90 53 41 54 93 55
REMARK SMILES IDX 87 56 86 57 42 59 74 60 54 61 73 62 55 63 58 64 72 65 91 66
REMARK SMILES IDX 56 67 57 68 71 70 92 71 59 72 43 73 44 74 52 75 45 76 46 77
REMARK SMILES IDX 50 78 53 79 47 80 48 81 51 82 49 83 75 84 76 85 84 86 77 87
REMARK SMILES IDX 78 88 82 89 85 90 79 91 80 92 83 93 81 94 60 95 61 96 69 97
REMARK SMILES IDX 62 98 63 99 67 100 70 101 64 102 65 103 68 104 66 105
REMARK H PARENT 27 4 4 21 31 39 90 58 58 69
REMARK Flexibility Score: inf
ROOT
ATOM      1  C   UNL A   1      46.018  25.356  25.286  1.00  0.00     0.251 C 
ATOM      2  O   UNL A   1      46.551  26.245  24.624  1.00  0.00    -0.269 OA
ATOM      3  N   UNL A   1      45.584  24.230  24.622  1.00  0.00    -0.352 N 
ATOM      4  H   UNL A   1      45.652  24.292  23.642  1.00  0.00     0.163 HD
ENDROOT
BRANCH   1   5
ATOM      5  C   UNL A   1      45.922  25.509  26.766  1.00  0.00     0.039 A 
ATOM      6  C   UNL A   1      45.742  25.479  29.547  1.00  0.00     0.067 A 
ATOM      7  C   UNL A   1      46.972  25.207  28.950  1.00  0.00     0.029 A 
ATOM      8  C   UNL A   1      44.650  25.891  28.787  1.00  0.00     0.029 A 
ATOM      9  C   UNL A   1      47.049  25.201  27.550  1.00  0.00     0.016 A 
ATOM     10  C   UNL A   1      44.762  25.941  27.407  1.00  0.00     0.016 A 
BRANCH   6  11
ATOM     11  N   UNL A   1      45.527  25.195  30.904  1.00  0.00    -0.217 N 
ATOM     12  C   UNL A   1      44.882  24.297  32.773  1.00  0.00     0.132 A 
ATOM     13  N   UNL A   1      45.722  25.341  33.052  1.00  0.00    -0.128 NA
ATOM     14  C   UNL A   1      44.730  24.182  31.401  1.00  0.00     0.071 A 
ATOM     15  N   UNL A   1      46.178  25.822  31.900  1.00  0.00    -0.061 NA
ATOM     16  C   UNL A   1      44.071  23.139  30.568  1.00  0.00     0.069 C 
BRANCH  12  17
ATOM     17  C   UNL A   1      44.401  23.339  33.755  1.00  0.00     0.087 C 
ATOM     18  C   UNL A   1      43.096  23.726  34.414  1.00  0.00     0.071 C 
ATOM     19  N   UNL A   1      45.163  22.307  33.995  1.00  0.00    -0.176 NA
BRANCH  19  20
ATOM     20  N   UNL A   1      44.881  21.393  34.986  1.00  0.00    -0.252 N 
ATOM     21  H   UNL A   1      43.929  21.309  35.220  1.00  0.00     0.193 HD
BRANCH  20  22
ATOM     22  C   UNL A   1      45.720  20.590  35.690  1.00  0.00     0.203 A 
ATOM     23  N   UNL A   1      45.355  19.602  36.472  1.00  0.00    -0.219 NA
ATOM     24  S   UNL A   1      47.416  20.922  35.741  1.00  0.00    -0.103 S 
ATOM     25  C   UNL A   1      46.348  19.317  37.386  1.00  0.00     0.084 A 
ATOM     26  C   UNL A   1      47.550  19.948  37.154  1.00  0.00     0.097 A 
BRANCH  25  27
ATOM     27  C   UNL A   1      46.030  18.494  38.540  1.00  0.00     0.001 A 
ATOM     28  C   UNL A   1      45.100  17.456  38.399  1.00  0.00     0.012 A 
ATOM     29  C   UNL A   1      46.524  18.808  39.814  1.00  0.00     0.012 A 
ATOM     30  C   UNL A   1      44.688  16.719  39.511  1.00  0.00     0.021 A 
ATOM     31  C   UNL A   1      46.103  18.077  40.929  1.00  0.00     0.021 A 
ATOM     32  C   UNL A   1      45.191  17.032  40.771  1.00  0.00     0.041 A 
ATOM     33  Cl  UNL A   1      44.671  16.138  42.146  1.00  0.00    -0.084 Cl
ENDBRANCH  25  27
ENDBRANCH  20  22
ENDBRANCH  19  20
ENDBRANCH  12  17
ENDBRANCH   6  11
ENDBRANCH   1   5
BRANCH   3  34
ATOM     34  C   UNL A   1      45.041  22.962  25.099  1.00  0.00     0.118 C 
BRANCH  34  35
ATOM     35  C   UNL A   1      43.512  22.890  24.961  1.00  0.00     0.042 C 
BRANCH  35  36
ATOM     36  C   UNL A   1      42.860  22.171  26.123  1.00  0.00     0.118 C 
BRANCH  36  37
ATOM     37  N   UNL A   1      41.417  21.997  25.945  1.00  0.00    -0.352 N 
ATOM     38  C   UNL A   1      40.386  22.767  26.457  1.00  0.00     0.251 C 
ATOM     39  H   UNL A   1      41.144  21.232  25.387  1.00  0.00     0.163 HD
ATOM     40  O   UNL A   1      39.252  22.329  26.535  1.00  0.00    -0.269 OA
BRANCH  38  41
ATOM     41  C   UNL A   1      40.693  24.140  26.901  1.00  0.00     0.039 A 
ATOM     42  C   UNL A   1      40.395  25.263  26.124  1.00  0.00     0.014 A 
ATOM     43  C   UNL A   1      41.267  24.282  28.158  1.00  0.00     0.014 A 
ATOM     44  C   UNL A   1      40.627  26.527  26.665  1.00  0.00     0.010 A 
ATOM     45  C   UNL A   1      41.256  25.498  28.772  1.00  0.00     0.010 A 
ATOM     46  C   UNL A   1      41.047  26.628  28.000  1.00  0.00    -0.014 A 
BRANCH  46  47
ATOM     47  C   UNL A   1      41.173  27.903  28.690  1.00  0.00     0.031 A 
ATOM     48  C   UNL A   1      42.353  28.684  28.246  1.00  0.00     0.074 A 
ATOM     49  C   UNL A   1      40.163  28.409  29.437  1.00  0.00     0.049 A 
ATOM     50  N   UNL A   1      43.423  28.935  28.920  1.00  0.00    -0.248 NA
ATOM     51  C   UNL A   1      42.445  29.066  26.826  1.00  0.00     0.031 C 
ATOM     52  C   UNL A   1      38.825  27.834  29.656  1.00  0.00     0.029 A 
ATOM     53  N   UNL A   1      40.071  29.607  30.078  1.00  0.00    -0.354 N 
ATOM     54  C   UNL A   1      44.217  29.721  28.087  1.00  0.00     0.074 A 
ATOM     55  C   UNL A   1      43.685  29.558  26.764  1.00  0.00     0.031 C 
ATOM     56  C   UNL A   1      37.998  28.769  30.172  1.00  0.00     0.029 A 
ATOM     57  C   UNL A   1      38.780  29.949  30.484  1.00  0.00     0.049 A 
ATOM     58  H   UNL A   1      40.850  30.184  30.242  1.00  0.00     0.167 HD
ATOM     59  C   UNL A   1      45.021  30.683  28.623  1.00  0.00     0.037 A 
ATOM     60  C   UNL A   1      38.390  31.128  31.031  1.00  0.00     0.037 A 
ATOM     61  C   UNL A   1      45.136  30.483  30.050  1.00  0.00     0.049 A 
ATOM     62  C   UNL A   1      39.615  31.780  31.544  1.00  0.00     0.074 A 
ATOM     63  C   UNL A   1      45.697  29.542  30.885  1.00  0.00     0.029 A 
ATOM     64  N   UNL A   1      44.208  31.172  30.788  1.00  0.00    -0.354 N 
ATOM     65  N   UNL A   1      40.309  31.320  32.548  1.00  0.00    -0.248 NA
ATOM     66  C   UNL A   1      40.312  32.721  30.680  1.00  0.00     0.031 C 
ATOM     67  C   UNL A   1      44.859  29.505  32.041  1.00  0.00     0.029 A 
ATOM     68  C   UNL A   1      43.859  30.468  31.905  1.00  0.00     0.049 A 
ATOM     69  H   UNL A   1      43.843  32.053  30.546  1.00  0.00     0.167 HD
ATOM     70  C   UNL A   1      41.625  31.553  32.193  1.00  0.00     0.074 A 
ATOM     71  C   UNL A   1      41.559  32.551  31.129  1.00  0.00     0.031 C 
ATOM     72  C   UNL A   1      42.600  30.679  32.584  1.00  0.00     0.037 A 
BRANCH  59  73
ATOM     73  C   UNL A   1      45.255  32.060  28.019  1.00  0.00     0.064 A 
ATOM     74  C   UNL A   1      44.132  32.889  27.796  1.00  0.00     0.173 A 
ATOM     75  C   UNL A   1      46.434  32.467  27.356  1.00  0.00     0.173 A 
ATOM     76  F   UNL A   1      42.953  32.613  28.375  1.00  0.00    -0.203 F 
ATOM     77  C   UNL A   1      44.160  33.957  26.894  1.00  0.00     0.198 A 
ATOM     78  C   UNL A   1      46.470  33.561  26.492  1.00  0.00     0.198 A 
ATOM     79  F   UNL A   1      47.575  31.775  27.419  1.00  0.00    -0.203 F 
ATOM     80  F   UNL A   1      43.032  34.622  26.613  1.00  0.00    -0.200 F 
ATOM     81  C   UNL A   1      45.327  34.284  26.231  1.00  0.00     0.200 A 
ATOM     82  F   UNL A   1      47.610  33.852  25.848  1.00  0.00    -0.200 F 
ATOM     83  F   UNL A   1      45.343  35.259  25.314  1.00  0.00    -0.200 F 
ENDBRANCH  59  73
BRANCH  60  84
ATOM     84  C   UNL A   1      37.103  31.857  30.930  1.00  0.00     0.064 A 
ATOM     85  C   UNL A   1      36.251  31.990  32.041  1.00  0.00     0.173 A 
ATOM     86  C   UNL A   1      36.837  32.698  29.834  1.00  0.00     0.173 A 
ATOM     87  F   UNL A   1      36.460  31.255  33.143  1.00  0.00    -0.203 F 
ATOM     88  C   UNL A   1      35.220  32.938  32.069  1.00  0.00     0.198 A 
ATOM     89  C   UNL A   1      35.807  33.643  29.863  1.00  0.00     0.198 A 
ATOM     90  F   UNL A   1      37.637  32.691  28.758  1.00  0.00    -0.203 F 
ATOM     91  F   UNL A   1      34.474  33.083  33.174  1.00  0.00    -0.200 F 
ATOM     92  C   UNL A   1      35.010  33.773  30.986  1.00  0.00     0.200 A 
ATOM     93  F   UNL A   1      35.640  34.475  28.826  1.00  0.00    -0.200 F 
ATOM     94  F   UNL A   1      34.073  34.731  31.040  1.00  0.00    -0.200 F 
ENDBRANCH  60  84
BRANCH  72  95
ATOM     95  C   UNL A   1      42.267  29.750  33.717  1.00  0.00     0.064 A 
ATOM     96  C   UNL A   1      41.759  28.448  33.564  1.00  0.00     0.173 A 
ATOM     97  C   UNL A   1      42.570  30.176  35.016  1.00  0.00     0.173 A 
ATOM     98  F   UNL A   1      41.523  27.937  32.350  1.00  0.00    -0.203 F 
ATOM     99  C   UNL A   1      41.526  27.630  34.668  1.00  0.00     0.198 A 
ATOM    100  C   UNL A   1      42.374  29.345  36.113  1.00  0.00     0.198 A 
ATOM    101  F   UNL A   1      43.101  31.392  35.215  1.00  0.00    -0.203 F 
ATOM    102  F   UNL A   1      41.023  26.398  34.499  1.00  0.00    -0.200 F 
ATOM    103  C   UNL A   1      41.840  28.077  35.941  1.00  0.00     0.200 A 
ATOM    104  F   UNL A   1      42.722  29.766  37.336  1.00  0.00    -0.200 F 
ATOM    105  F   UNL A   1      41.651  27.280  37.001  1.00  0.00    -0.200 F 
ENDBRANCH  72  95
ENDBRANCH  46  47
ENDBRANCH  38  41
ENDBRANCH  36  37
ENDBRANCH  35  36
ENDBRANCH  34  35
ENDBRANCH   3  34
TORSDOF 15
ENDMDL
MODEL 3
REMARK VINA RESULT:     -11.5      5.612     12.052
REMARK SMILES C/C(=N\Nc1nc(-c2ccc(Cl)cc2)cs1)c1nnn(-c2ccc(C(=O)NCCCNC(=O)c3ccc(-c4c5nc(c(-c6c(F)c(F)c(F)c(F)c6F)c6ccc([nH]6)c(-c6c(F)c(F)c(F)c(F)c6F)c6nc(c(-c7c(F)c(F)c(F)c(F)c7F)c7ccc4[nH]7)C=C6)C=C5)cc3)cc2)c1C
REMARK SMILES IDX 25 1 26 2 27 3 24 5 21 6 22 7 98 8 23 9 97 10 20 11 17 12
REMARK SMILES IDX 18 13 99 14 19 15 100 16 2 17 1 18 3 19 4 20 5 22 6 23 16 24
REMARK SMILES IDX 7 25 15 26 8 27 9 28 14 29 10 30 13 31 11 32 12 33 28 34
REMARK SMILES IDX 29 35 30 36 31 37 32 38 33 40 34 41 35 42 96 43 36 44 95 45
REMARK SMILES IDX 37 46 38 47 39 48 89 49 40 50 94 51 88 52 90 53 41 54 93 55
REMARK SMILES IDX 87 56 86 57 42 59 74 60 54 61 73 62 55 63 58 64 72 65 91 66
REMARK SMILES IDX 56 67 57 68 71 70 92 71 59 72 43 73 44 74 52 75 45 76 46 77
REMARK SMILES IDX 50 78 53 79 47 80 48 81 51 82 49 83 75 84 76 85 84 86 77 87
REMARK SMILES IDX 78 88 82 89 85 90 79 91 80 92 83 93 81 94 60 95 61 96 69 97
REMARK SMILES IDX 62 98 63 99 67 100 70 101 64 102 65 103 68 104 66 105
REMARK H PARENT 27 4 4 21 31 39 90 58 58 69
REMARK Flexibility Score: inf
ROOT
ATOM      1  C   UNL A   1      44.880  30.552  28.409  1.00  0.00     0.251 C 
ATOM      2  O   UNL A   1      45.307  30.468  29.560  1.00  0.00    -0.269 OA
ATOM      3  N   UNL A   1      44.757  31.808  27.857  1.00  0.00    -0.352 N 
ATOM      4  H   UNL A   1      44.932  32.542  28.489  1.00  0.00     0.163 HD
ENDROOT
BRANCH   1   5
ATOM      5  C   UNL A   1      44.576  29.304  27.653  1.00  0.00     0.039 A 
ATOM      6  C   UNL A   1      43.813  26.894  26.478  1.00  0.00     0.067 A 
ATOM      7  C   UNL A   1      42.931  27.973  26.433  1.00  0.00     0.029 A 
ATOM      8  C   UNL A   1      45.105  27.043  26.976  1.00  0.00     0.029 A 
ATOM      9  C   UNL A   1      43.311  29.174  27.047  1.00  0.00     0.016 A 
ATOM     10  C   UNL A   1      45.488  28.258  27.522  1.00  0.00     0.016 A 
BRANCH   6  11
ATOM     11  N   UNL A   1      43.375  25.598  26.169  1.00  0.00    -0.217 N 
ATOM     12  C   UNL A   1      42.413  23.652  26.215  1.00  0.00     0.132 A 
ATOM     13  N   UNL A   1      43.064  23.793  25.019  1.00  0.00    -0.128 NA
ATOM     14  C   UNL A   1      42.601  24.792  26.980  1.00  0.00     0.071 A 
ATOM     15  N   UNL A   1      43.571  25.021  24.969  1.00  0.00    -0.061 NA
ATOM     16  C   UNL A   1      41.992  25.224  28.267  1.00  0.00     0.069 C 
BRANCH  12  17
ATOM     17  C   UNL A   1      41.501  22.566  26.536  1.00  0.00     0.087 C 
ATOM     18  C   UNL A   1      42.181  21.302  27.010  1.00  0.00     0.071 C 
ATOM     19  N   UNL A   1      40.231  22.781  26.324  1.00  0.00    -0.176 NA
BRANCH  19  20
ATOM     20  N   UNL A   1      39.279  21.796  26.472  1.00  0.00    -0.252 N 
ATOM     21  H   UNL A   1      39.474  21.127  27.167  1.00  0.00     0.193 HD
BRANCH  20  22
ATOM     22  C   UNL A   1      38.112  21.610  25.804  1.00  0.00     0.203 A 
ATOM     23  N   UNL A   1      37.097  22.441  25.792  1.00  0.00    -0.219 NA
ATOM     24  S   UNL A   1      37.791  20.113  25.000  1.00  0.00    -0.103 S 
ATOM     25  C   UNL A   1      35.935  21.778  25.455  1.00  0.00     0.084 A 
ATOM     26  C   UNL A   1      36.111  20.490  25.001  1.00  0.00     0.097 A 
BRANCH  25  27
ATOM     27  C   UNL A   1      34.658  22.425  25.700  1.00  0.00     0.001 A 
ATOM     28  C   UNL A   1      33.480  21.682  25.550  1.00  0.00     0.012 A 
ATOM     29  C   UNL A   1      34.576  23.804  25.940  1.00  0.00     0.012 A 
ATOM     30  C   UNL A   1      32.233  22.300  25.667  1.00  0.00     0.021 A 
ATOM     31  C   UNL A   1      33.327  24.424  26.046  1.00  0.00     0.021 A 
ATOM     32  C   UNL A   1      32.161  23.668  25.915  1.00  0.00     0.041 A 
ATOM     33  Cl  UNL A   1      30.627  24.435  26.041  1.00  0.00    -0.084 Cl
ENDBRANCH  25  27
ENDBRANCH  20  22
ENDBRANCH  19  20
ENDBRANCH  12  17
ENDBRANCH   6  11
ENDBRANCH   1   5
BRANCH   3  34
ATOM     34  C   UNL A   1      44.417  32.256  26.510  1.00  0.00     0.118 C 
BRANCH  34  35
ATOM     35  C   UNL A   1      45.414  33.293  25.968  1.00  0.00     0.042 C 
BRANCH  35  36
ATOM     36  C   UNL A   1      44.729  34.546  25.467  1.00  0.00     0.118 C 
BRANCH  36  37
ATOM     37  N   UNL A   1      45.401  35.772  25.901  1.00  0.00    -0.352 N 
ATOM     38  C   UNL A   1      45.006  36.673  26.876  1.00  0.00     0.251 C 
ATOM     39  H   UNL A   1      46.245  35.984  25.440  1.00  0.00     0.163 HD
ATOM     40  O   UNL A   1      45.446  37.809  26.899  1.00  0.00    -0.269 OA
BRANCH  38  41
ATOM     41  C   UNL A   1      44.039  36.221  27.895  1.00  0.00     0.039 A 
ATOM     42  C   UNL A   1      42.701  36.624  27.888  1.00  0.00     0.014 A 
ATOM     43  C   UNL A   1      44.507  35.338  28.859  1.00  0.00     0.014 A 
ATOM     44  C   UNL A   1      41.835  36.068  28.828  1.00  0.00     0.010 A 
ATOM     45  C   UNL A   1      43.621  34.617  29.602  1.00  0.00     0.010 A 
ATOM     46  C   UNL A   1      42.309  35.053  29.673  1.00  0.00    -0.014 A 
BRANCH  46  47
ATOM     47  C   UNL A   1      41.442  34.317  30.581  1.00  0.00     0.031 A 
ATOM     48  C   UNL A   1      42.049  34.114  31.919  1.00  0.00     0.074 A 
ATOM     49  C   UNL A   1      40.135  34.103  30.299  1.00  0.00     0.049 A 
ATOM     50  N   UNL A   1      42.464  33.005  32.430  1.00  0.00    -0.248 NA
ATOM     51  C   UNL A   1      42.419  35.303  32.706  1.00  0.00     0.031 C 
ATOM     52  C   UNL A   1      39.377  34.567  29.123  1.00  0.00     0.029 A 
ATOM     53  N   UNL A   1      39.166  33.516  31.054  1.00  0.00    -0.354 N 
ATOM     54  C   UNL A   1      42.921  33.326  33.707  1.00  0.00     0.074 A 
ATOM     55  C   UNL A   1      43.093  34.752  33.719  1.00  0.00     0.031 C 
ATOM     56  C   UNL A   1      38.051  34.448  29.352  1.00  0.00     0.029 A 
ATOM     57  C   UNL A   1      37.864  33.744  30.605  1.00  0.00     0.049 A 
ATOM     58  H   UNL A   1      39.367  32.976  31.850  1.00  0.00     0.167 HD
ATOM     59  C   UNL A   1      42.790  32.426  34.722  1.00  0.00     0.037 A 
ATOM     60  C   UNL A   1      36.717  33.380  31.233  1.00  0.00     0.037 A 
ATOM     61  C   UNL A   1      42.470  31.124  34.181  1.00  0.00     0.049 A 
ATOM     62  C   UNL A   1      37.083  32.320  32.197  1.00  0.00     0.074 A 
ATOM     63  C   UNL A   1      43.112  30.175  33.416  1.00  0.00     0.029 A 
ATOM     64  N   UNL A   1      41.126  30.870  34.091  1.00  0.00    -0.354 N 
ATOM     65  N   UNL A   1      37.494  31.135  31.842  1.00  0.00    -0.248 NA
ATOM     66  C   UNL A   1      37.392  32.705  33.566  1.00  0.00     0.031 C 
ATOM     67  C   UNL A   1      42.088  29.549  32.641  1.00  0.00     0.029 A 
ATOM     68  C   UNL A   1      40.854  30.086  33.007  1.00  0.00     0.049 A 
ATOM     69  H   UNL A   1      40.450  31.207  34.722  1.00  0.00     0.167 HD
ATOM     70  C   UNL A   1      38.476  30.818  32.763  1.00  0.00     0.074 A 
ATOM     71  C   UNL A   1      38.256  31.735  33.879  1.00  0.00     0.031 C 
ATOM     72  C   UNL A   1      39.550  30.065  32.382  1.00  0.00     0.037 A 
BRANCH  59  73
ATOM     73  C   UNL A   1      42.416  32.775  36.155  1.00  0.00     0.064 A 
ATOM     74  C   UNL A   1      43.235  32.281  37.196  1.00  0.00     0.173 A 
ATOM     75  C   UNL A   1      41.157  33.263  36.571  1.00  0.00     0.173 A 
ATOM     76  F   UNL A   1      44.458  31.795  36.932  1.00  0.00    -0.203 F 
ATOM     77  C   UNL A   1      42.783  32.174  38.515  1.00  0.00     0.198 A 
ATOM     78  C   UNL A   1      40.727  33.197  37.895  1.00  0.00     0.198 A 
ATOM     79  F   UNL A   1      40.242  33.724  35.715  1.00  0.00    -0.203 F 
ATOM     80  F   UNL A   1      43.546  31.569  39.434  1.00  0.00    -0.200 F 
ATOM     81  C   UNL A   1      41.522  32.621  38.861  1.00  0.00     0.200 A 
ATOM     82  F   UNL A   1      39.495  33.624  38.208  1.00  0.00    -0.200 F 
ATOM     83  F   UNL A   1      41.056  32.456  40.106  1.00  0.00    -0.200 F 
ENDBRANCH  59  73
BRANCH  60  84
ATOM     84  C   UNL A   1      35.386  34.033  31.259  1.00  0.00     0.064 A 
ATOM     85  C   UNL A   1      35.082  35.029  32.205  1.00  0.00     0.173 A 
ATOM     86  C   UNL A   1      34.505  33.916  30.169  1.00  0.00     0.173 A 
ATOM     87  F   UNL A   1      35.892  35.234  33.254  1.00  0.00    -0.203 F 
ATOM     88  C   UNL A   1      33.985  35.884  32.046  1.00  0.00     0.198 A 
ATOM     89  C   UNL A   1      33.410  34.770  30.012  1.00  0.00     0.198 A 
ATOM     90  F   UNL A   1      34.752  33.042  29.184  1.00  0.00    -0.203 F 
ATOM     91  F   UNL A   1      33.768  36.867  32.931  1.00  0.00    -0.200 F 
ATOM     92  C   UNL A   1      33.160  35.763  30.941  1.00  0.00     0.200 A 
ATOM     93  F   UNL A   1      32.643  34.672  28.917  1.00  0.00    -0.200 F 
ATOM     94  F   UNL A   1      32.153  36.629  30.749  1.00  0.00    -0.200 F 
ENDBRANCH  60  84
BRANCH  72  95
ATOM     95  C   UNL A   1      39.409  29.271  31.115  1.00  0.00     0.064 A 
ATOM     96  C   UNL A   1      39.768  29.732  29.836  1.00  0.00     0.173 A 
ATOM     97  C   UNL A   1      38.975  27.944  31.224  1.00  0.00     0.173 A 
ATOM     98  F   UNL A   1      40.271  30.959  29.660  1.00  0.00    -0.203 F 
ATOM     99  C   UNL A   1      39.654  28.911  28.715  1.00  0.00     0.198 A 
ATOM    100  C   UNL A   1      38.898  27.115  30.111  1.00  0.00     0.198 A 
ATOM    101  F   UNL A   1      38.663  27.439  32.427  1.00  0.00    -0.203 F 
ATOM    102  F   UNL A   1      39.985  29.378  27.502  1.00  0.00    -0.200 F 
ATOM    103  C   UNL A   1      39.226  27.601  28.855  1.00  0.00     0.200 A 
ATOM    104  F   UNL A   1      38.527  25.836  30.259  1.00  0.00    -0.200 F 
ATOM    105  F   UNL A   1      39.149  26.798  27.785  1.00  0.00    -0.200 F 
ENDBRANCH  72  95
ENDBRANCH  46  47
ENDBRANCH  38  41
ENDBRANCH  36  37
ENDBRANCH  35  36
ENDBRANCH  34  35
ENDBRANCH   3  34
TORSDOF 15
ENDMDL
