MODEL 1
REMARK VINA RESULT:     -12.2      0.000      0.000
REMARK SMILES C[C@H](NC(=O)c1cc(Br)nn1-c1ncccc1Cl)C(=O)NCCCNC(=O)c1ccc(-c2c3nc(c(-c4c(F)c(F)c(F)c(F)c4F)c4ccc([nH]4)c(-c4c(F)c(F)c(F)c(F)c4F)c4nc(c(-c5c(F)c(F)c(F)c(F)c5F)c5ccc2[nH]5)C=C4)C=C3)cc1
REMARK SMILES IDX 22 1 21 2 19 3 20 4 2 6 1 7 3 8 4 9 5 11 6 12 7 13 11 14
REMARK SMILES IDX 8 15 10 16 9 17 12 18 13 19 17 20 14 21 16 22 18 23 15 24
REMARK SMILES IDX 23 25 24 26 25 27 26 28 27 30 28 31 29 32 90 33 30 34 89 35
REMARK SMILES IDX 31 36 32 37 33 38 83 39 34 40 88 41 82 42 84 43 35 44 87 45
REMARK SMILES IDX 81 46 80 47 36 49 68 50 48 51 67 52 49 53 52 54 66 55 85 56
REMARK SMILES IDX 50 57 51 58 65 60 86 61 53 62 37 63 38 64 46 65 39 66 40 67
REMARK SMILES IDX 44 68 47 69 41 70 42 71 45 72 43 73 69 74 70 75 78 76 71 77
REMARK SMILES IDX 72 78 76 79 79 80 73 81 74 82 77 83 75 84 54 85 55 86 63 87
REMARK SMILES IDX 56 88 57 89 61 90 64 91 58 92 59 93 62 94 60 95
REMARK H PARENT 21 5 3 10 25 29 84 48 52 59
REMARK Flexibility Score: inf
ROOT
ATOM      1  C   UNL A   1      37.427  20.501  24.677  1.00  0.00     0.117 C 
ENDROOT
BRANCH   1   2
ATOM      2  N   UNL A   1      37.967  21.805  25.021  1.00  0.00    -0.354 N 
ATOM      3  C   UNL A   1      37.336  22.961  25.381  1.00  0.00     0.242 C 
ATOM      4  O   UNL A   1      38.041  23.918  25.711  1.00  0.00    -0.273 OA
ATOM      5  H   UNL A   1      38.949  21.866  24.989  1.00  0.00     0.163 HD
BRANCH   3   6
ATOM      6  C   UNL A   1      35.803  23.067  25.398  1.00  0.00     0.168 C 
ATOM      7  C   UNL A   1      35.305  24.496  25.169  1.00  0.00     0.041 C 
BRANCH   6   8
ATOM      8  N   UNL A   1      35.266  22.496  26.634  1.00  0.00    -0.339 N 
ATOM      9  C   UNL A   1      34.232  21.611  26.791  1.00  0.00     0.270 C 
ATOM     10  H   UNL A   1      35.707  22.787  27.464  1.00  0.00     0.164 HD
ATOM     11  O   UNL A   1      33.819  21.412  27.930  1.00  0.00    -0.267 OA
BRANCH   9  12
ATOM     12  C   UNL A   1      33.662  20.975  25.638  1.00  0.00     0.135 A 
ATOM     13  C   UNL A   1      33.967  19.743  25.082  1.00  0.00     0.072 A 
ATOM     14  N   UNL A   1      32.538  21.433  24.956  1.00  0.00    -0.207 N 
ATOM     15  C   UNL A   1      32.962  19.516  24.139  1.00  0.00     0.129 A 
ATOM     16  N   UNL A   1      32.068  20.494  24.084  1.00  0.00    -0.159 NA
ATOM     17  Br  UNL A   1      32.858  17.956  23.100  1.00  0.00    -0.027 Br
BRANCH  14  18
ATOM     18  C   UNL A   1      31.857  22.684  25.076  1.00  0.00     0.173 A 
ATOM     19  N   UNL A   1      31.024  22.822  26.152  1.00  0.00    -0.236 NA
ATOM     20  C   UNL A   1      32.005  23.695  24.122  1.00  0.00     0.085 A 
ATOM     21  C   UNL A   1      30.398  24.006  26.321  1.00  0.00     0.113 A 
ATOM     22  C   UNL A   1      31.345  24.908  24.335  1.00  0.00     0.026 A 
ATOM     23  Cl  UNL A   1      32.755  23.500  22.581  1.00  0.00    -0.080 Cl
ATOM     24  C   UNL A   1      30.540  25.074  25.455  1.00  0.00     0.022 A 
ENDBRANCH  14  18
ENDBRANCH   9  12
ENDBRANCH   6   8
ENDBRANCH   3   6
ENDBRANCH   1   2
BRANCH   1  25
ATOM     25  C   UNL A   1      38.361  19.351  25.053  1.00  0.00     0.042 C 
BRANCH  25  26
ATOM     26  C   UNL A   1      39.558  19.793  25.883  1.00  0.00     0.118 C 
BRANCH  26  27
ATOM     27  N   UNL A   1      40.744  18.978  25.646  1.00  0.00    -0.352 N 
ATOM     28  C   UNL A   1      42.068  19.326  25.818  1.00  0.00     0.251 C 
ATOM     29  H   UNL A   1      40.580  18.062  25.324  1.00  0.00     0.163 HD
ATOM     30  O   UNL A   1      42.964  18.634  25.352  1.00  0.00    -0.269 OA
BRANCH  28  31
ATOM     31  C   UNL A   1      42.384  20.577  26.529  1.00  0.00     0.039 A 
ATOM     32  C   UNL A   1      42.766  21.706  25.805  1.00  0.00     0.014 A 
ATOM     33  C   UNL A   1      42.223  20.639  27.910  1.00  0.00     0.014 A 
ATOM     34  C   UNL A   1      42.889  22.932  26.463  1.00  0.00     0.010 A 
ATOM     35  C   UNL A   1      42.252  21.871  28.542  1.00  0.00     0.010 A 
ATOM     36  C   UNL A   1      42.599  23.027  27.832  1.00  0.00    -0.014 A 
BRANCH  36  37
ATOM     37  C   UNL A   1      42.583  24.346  28.486  1.00  0.00     0.031 A 
ATOM     38  C   UNL A   1      41.389  25.234  28.277  1.00  0.00     0.074 A 
ATOM     39  C   UNL A   1      43.456  24.714  29.450  1.00  0.00     0.049 A 
ATOM     40  N   UNL A   1      41.371  26.486  27.932  1.00  0.00    -0.248 NA
ATOM     41  C   UNL A   1      40.052  24.669  28.510  1.00  0.00     0.031 C 
ATOM     42  C   UNL A   1      44.522  23.924  30.070  1.00  0.00     0.029 A 
ATOM     43  N   UNL A   1      43.463  25.867  30.182  1.00  0.00    -0.354 N 
ATOM     44  C   UNL A   1      40.042  26.909  28.013  1.00  0.00     0.074 A 
ATOM     45  C   UNL A   1      39.266  25.735  28.329  1.00  0.00     0.031 C 
ATOM     46  C   UNL A   1      44.891  24.508  31.230  1.00  0.00     0.029 A 
ATOM     47  C   UNL A   1      44.211  25.786  31.342  1.00  0.00     0.049 A 
ATOM     48  H   UNL A   1      42.979  26.680  29.910  1.00  0.00     0.167 HD
ATOM     49  C   UNL A   1      39.677  28.222  27.934  1.00  0.00     0.037 A 
ATOM     50  C   UNL A   1      44.245  26.681  32.355  1.00  0.00     0.037 A 
ATOM     51  C   UNL A   1      40.712  29.041  27.368  1.00  0.00     0.049 A 
ATOM     52  C   UNL A   1      43.791  27.988  31.823  1.00  0.00     0.074 A 
ATOM     53  C   UNL A   1      41.407  29.045  26.172  1.00  0.00     0.029 A 
ATOM     54  N   UNL A   1      41.395  29.919  28.172  1.00  0.00    -0.354 N 
ATOM     55  N   UNL A   1      44.468  28.711  30.974  1.00  0.00    -0.248 NA
ATOM     56  C   UNL A   1      42.387  28.341  31.967  1.00  0.00     0.031 C 
ATOM     57  C   UNL A   1      42.721  29.483  26.510  1.00  0.00     0.029 A 
ATOM     58  C   UNL A   1      42.720  29.726  27.883  1.00  0.00     0.049 A 
ATOM     59  H   UNL A   1      41.013  30.554  28.821  1.00  0.00     0.167 HD
ATOM     60  C   UNL A   1      43.505  29.321  30.187  1.00  0.00     0.074 A 
ATOM     61  C   UNL A   1      42.255  29.161  30.922  1.00  0.00     0.031 C 
ATOM     62  C   UNL A   1      43.754  29.649  28.886  1.00  0.00     0.037 A 
BRANCH  49  63
ATOM     63  C   UNL A   1      38.451  28.834  28.566  1.00  0.00     0.064 A 
ATOM     64  C   UNL A   1      37.676  29.769  27.846  1.00  0.00     0.173 A 
ATOM     65  C   UNL A   1      38.171  28.746  29.944  1.00  0.00     0.173 A 
ATOM     66  F   UNL A   1      37.881  29.961  26.533  1.00  0.00    -0.203 F 
ATOM     67  C   UNL A   1      36.731  30.588  28.469  1.00  0.00     0.198 A 
ATOM     68  C   UNL A   1      37.190  29.530  30.555  1.00  0.00     0.198 A 
ATOM     69  F   UNL A   1      38.905  27.977  30.759  1.00  0.00    -0.203 F 
ATOM     70  F   UNL A   1      36.100  31.536  27.762  1.00  0.00    -0.200 F 
ATOM     71  C   UNL A   1      36.488  30.469  29.824  1.00  0.00     0.200 A 
ATOM     72  F   UNL A   1      36.980  29.416  31.874  1.00  0.00    -0.200 F 
ATOM     73  F   UNL A   1      35.619  31.285  30.434  1.00  0.00    -0.200 F 
ENDBRANCH  49  63
BRANCH  50  74
ATOM     74  C   UNL A   1      44.482  26.423  33.791  1.00  0.00     0.064 A 
ATOM     75  C   UNL A   1      45.741  26.630  34.371  1.00  0.00     0.173 A 
ATOM     76  C   UNL A   1      43.415  26.178  34.678  1.00  0.00     0.173 A 
ATOM     77  F   UNL A   1      46.799  26.928  33.602  1.00  0.00    -0.203 F 
ATOM     78  C   UNL A   1      45.923  26.594  35.756  1.00  0.00     0.198 A 
ATOM     79  C   UNL A   1      43.599  26.125  36.059  1.00  0.00     0.198 A 
ATOM     80  F   UNL A   1      42.156  26.068  34.228  1.00  0.00    -0.203 F 
ATOM     81  F   UNL A   1      47.131  26.849  36.278  1.00  0.00    -0.200 F 
ATOM     82  C   UNL A   1      44.852  26.342  36.598  1.00  0.00     0.200 A 
ATOM     83  F   UNL A   1      42.547  25.914  36.863  1.00  0.00    -0.200 F 
ATOM     84  F   UNL A   1      45.019  26.347  37.929  1.00  0.00    -0.200 F 
ENDBRANCH  50  74
BRANCH  62  85
ATOM     85  C   UNL A   1      45.169  29.599  28.390  1.00  0.00     0.064 A 
ATOM     86  C   UNL A   1      45.783  28.427  27.916  1.00  0.00     0.173 A 
ATOM     87  C   UNL A   1      45.868  30.803  28.226  1.00  0.00     0.173 A 
ATOM     88  F   UNL A   1      45.134  27.256  27.927  1.00  0.00    -0.203 F 
ATOM     89  C   UNL A   1      47.056  28.453  27.352  1.00  0.00     0.198 A 
ATOM     90  C   UNL A   1      47.126  30.832  27.629  1.00  0.00     0.198 A 
ATOM     91  F   UNL A   1      45.306  31.964  28.597  1.00  0.00    -0.203 F 
ATOM     92  F   UNL A   1      47.621  27.317  26.915  1.00  0.00    -0.200 F 
ATOM     93  C   UNL A   1      47.724  29.657  27.203  1.00  0.00     0.200 A 
ATOM     94  F   UNL A   1      47.747  32.004  27.437  1.00  0.00    -0.200 F 
ATOM     95  F   UNL A   1      48.930  29.688  26.618  1.00  0.00    -0.200 F 
ENDBRANCH  62  85
ENDBRANCH  36  37
ENDBRANCH  28  31
ENDBRANCH  26  27
ENDBRANCH  25  26
ENDBRANCH   1  25
TORSDOF 13
ENDMDL
MODEL 2
REMARK VINA RESULT:     -12.2      2.179      6.907
REMARK SMILES C[C@H](NC(=O)c1cc(Br)nn1-c1ncccc1Cl)C(=O)NCCCNC(=O)c1ccc(-c2c3nc(c(-c4c(F)c(F)c(F)c(F)c4F)c4ccc([nH]4)c(-c4c(F)c(F)c(F)c(F)c4F)c4nc(c(-c5c(F)c(F)c(F)c(F)c5F)c5ccc2[nH]5)C=C4)C=C3)cc1
REMARK SMILES IDX 22 1 21 2 19 3 20 4 2 6 1 7 3 8 4 9 5 11 6 12 7 13 11 14
REMARK SMILES IDX 8 15 10 16 9 17 12 18 13 19 17 20 14 21 16 22 18 23 15 24
REMARK SMILES IDX 23 25 24 26 25 27 26 28 27 30 28 31 29 32 90 33 30 34 89 35
REMARK SMILES IDX 31 36 32 37 33 38 83 39 34 40 88 41 82 42 84 43 35 44 87 45
REMARK SMILES IDX 81 46 80 47 36 49 68 50 48 51 67 52 49 53 52 54 66 55 85 56
REMARK SMILES IDX 50 57 51 58 65 60 86 61 53 62 37 63 38 64 46 65 39 66 40 67
REMARK SMILES IDX 44 68 47 69 41 70 42 71 45 72 43 73 69 74 70 75 78 76 71 77
REMARK SMILES IDX 72 78 76 79 79 80 73 81 74 82 77 83 75 84 54 85 55 86 63 87
REMARK SMILES IDX 56 88 57 89 61 90 64 91 58 92 59 93 62 94 60 95
REMARK H PARENT 21 5 3 10 25 29 84 48 52 59
REMARK Flexibility Score: inf
ROOT
ATOM      1  C   UNL A   1      38.927  20.582  25.603  1.00  0.00     0.117 C 
ENDROOT
BRANCH   1   2
ATOM      2  N   UNL A   1      38.845  22.021  25.796  1.00  0.00    -0.354 N 
ATOM      3  C   UNL A   1      37.776  22.866  25.731  1.00  0.00     0.242 C 
ATOM      4  O   UNL A   1      37.964  24.050  26.026  1.00  0.00    -0.273 OA
ATOM      5  H   UNL A   1      39.702  22.457  26.008  1.00  0.00     0.163 HD
BRANCH   3   6
ATOM      6  C   UNL A   1      36.380  22.367  25.327  1.00  0.00     0.168 C 
ATOM      7  C   UNL A   1      35.685  23.294  24.327  1.00  0.00     0.041 C 
BRANCH   6   8
ATOM      8  N   UNL A   1      35.558  22.134  26.515  1.00  0.00    -0.339 N 
ATOM      9  C   UNL A   1      34.377  21.448  26.620  1.00  0.00     0.270 C 
ATOM     10  H   UNL A   1      35.900  22.522  27.352  1.00  0.00     0.164 HD
ATOM     11  O   UNL A   1      33.755  21.540  27.674  1.00  0.00    -0.267 OA
BRANCH   9  12
ATOM     12  C   UNL A   1      33.904  20.677  25.506  1.00  0.00     0.135 A 
ATOM     13  C   UNL A   1      34.277  19.405  25.104  1.00  0.00     0.072 A 
ATOM     14  N   UNL A   1      32.818  21.026  24.707  1.00  0.00    -0.207 N 
ATOM     15  C   UNL A   1      33.345  19.049  24.128  1.00  0.00     0.129 A 
ATOM     16  N   UNL A   1      32.433  19.987  23.910  1.00  0.00    -0.159 NA
ATOM     17  Br  UNL A   1      33.351  17.386  23.255  1.00  0.00    -0.027 Br
BRANCH  14  18
ATOM     18  C   UNL A   1      32.099  22.260  24.648  1.00  0.00     0.173 A 
ATOM     19  N   UNL A   1      31.285  22.541  25.710  1.00  0.00    -0.236 NA
ATOM     20  C   UNL A   1      32.195  23.114  23.545  1.00  0.00     0.085 A 
ATOM     21  C   UNL A   1      30.625  23.717  25.709  1.00  0.00     0.113 A 
ATOM     22  C   UNL A   1      31.501  24.326  23.583  1.00  0.00     0.026 A 
ATOM     23  Cl  UNL A   1      32.920  22.703  22.035  1.00  0.00    -0.080 Cl
ATOM     24  C   UNL A   1      30.714  24.642  24.684  1.00  0.00     0.022 A 
ENDBRANCH  14  18
ENDBRANCH   9  12
ENDBRANCH   6   8
ENDBRANCH   3   6
ENDBRANCH   1   2
BRANCH   1  25
ATOM     25  C   UNL A   1      40.204  19.975  26.179  1.00  0.00     0.042 C 
BRANCH  25  26
ATOM     26  C   UNL A   1      41.188  21.016  26.696  1.00  0.00     0.118 C 
BRANCH  26  27
ATOM     27  N   UNL A   1      42.215  21.361  25.719  1.00  0.00    -0.352 N 
ATOM     28  C   UNL A   1      42.733  22.605  25.429  1.00  0.00     0.251 C 
ATOM     29  H   UNL A   1      42.587  20.610  25.202  1.00  0.00     0.163 HD
ATOM     30  O   UNL A   1      43.408  22.785  24.424  1.00  0.00    -0.269 OA
BRANCH  28  31
ATOM     31  C   UNL A   1      42.414  23.731  26.324  1.00  0.00     0.039 A 
ATOM     32  C   UNL A   1      43.137  23.901  27.506  1.00  0.00     0.014 A 
ATOM     33  C   UNL A   1      41.448  24.658  25.943  1.00  0.00     0.014 A 
ATOM     34  C   UNL A   1      42.956  25.064  28.257  1.00  0.00     0.010 A 
ATOM     35  C   UNL A   1      41.342  25.851  26.637  1.00  0.00     0.010 A 
ATOM     36  C   UNL A   1      42.079  26.063  27.808  1.00  0.00    -0.014 A 
BRANCH  36  37
ATOM     37  C   UNL A   1      42.008  27.348  28.523  1.00  0.00     0.031 A 
ATOM     38  C   UNL A   1      43.049  28.390  28.227  1.00  0.00     0.074 A 
ATOM     39  C   UNL A   1      40.937  27.742  29.246  1.00  0.00     0.049 A 
ATOM     40  N   UNL A   1      43.764  29.071  29.070  1.00  0.00    -0.248 NA
ATOM     41  C   UNL A   1      43.303  28.741  26.822  1.00  0.00     0.031 C 
ATOM     42  C   UNL A   1      39.657  27.056  29.437  1.00  0.00     0.029 A 
ATOM     43  N   UNL A   1      40.733  28.946  29.858  1.00  0.00    -0.354 N 
ATOM     44  C   UNL A   1      44.475  30.017  28.326  1.00  0.00     0.074 A 
ATOM     45  C   UNL A   1      44.187  29.736  26.941  1.00  0.00     0.031 C 
ATOM     46  C   UNL A   1      38.741  27.940  29.885  1.00  0.00     0.029 A 
ATOM     47  C   UNL A   1      39.410  29.197  30.169  1.00  0.00     0.049 A 
ATOM     48  H   UNL A   1      41.462  29.577  30.060  1.00  0.00     0.167 HD
ATOM     49  C   UNL A   1      45.161  31.047  28.902  1.00  0.00     0.037 A 
ATOM     50  C   UNL A   1      38.878  30.367  30.589  1.00  0.00     0.037 A 
ATOM     51  C   UNL A   1      45.407  30.824  30.300  1.00  0.00     0.049 A 
ATOM     52  C   UNL A   1      39.972  31.180  31.172  1.00  0.00     0.074 A 
ATOM     53  C   UNL A   1      46.047  29.840  31.030  1.00  0.00     0.029 A 
ATOM     54  N   UNL A   1      44.730  31.568  31.232  1.00  0.00    -0.354 N 
ATOM     55  N   UNL A   1      40.585  30.896  32.288  1.00  0.00    -0.248 NA
ATOM     56  C   UNL A   1      40.644  32.147  30.317  1.00  0.00     0.031 C 
ATOM     57  C   UNL A   1      45.298  29.731  32.239  1.00  0.00     0.029 A 
ATOM     58  C   UNL A   1      44.268  30.668  32.155  1.00  0.00     0.049 A 
ATOM     59  H   UNL A   1      44.603  32.545  31.237  1.00  0.00     0.167 HD
ATOM     60  C   UNL A   1      41.888  31.317  32.089  1.00  0.00     0.074 A 
ATOM     61  C   UNL A   1      41.833  32.190  30.920  1.00  0.00     0.031 C 
ATOM     62  C   UNL A   1      42.937  30.703  32.710  1.00  0.00     0.037 A 
BRANCH  49  63
ATOM     63  C   UNL A   1      45.441  32.384  28.261  1.00  0.00     0.064 A 
ATOM     64  C   UNL A   1      44.373  33.237  27.910  1.00  0.00     0.173 A 
ATOM     65  C   UNL A   1      46.699  32.734  27.730  1.00  0.00     0.173 A 
ATOM     66  F   UNL A   1      43.125  32.980  28.331  1.00  0.00    -0.203 F 
ATOM     67  C   UNL A   1      44.543  34.326  27.050  1.00  0.00     0.198 A 
ATOM     68  C   UNL A   1      46.875  33.853  26.912  1.00  0.00     0.198 A 
ATOM     69  F   UNL A   1      47.772  31.951  27.899  1.00  0.00    -0.203 F 
ATOM     70  F   UNL A   1      43.479  35.040  26.658  1.00  0.00    -0.200 F 
ATOM     71  C   UNL A   1      45.795  34.633  26.551  1.00  0.00     0.200 A 
ATOM     72  F   UNL A   1      48.092  34.126  26.421  1.00  0.00    -0.200 F 
ATOM     73  F   UNL A   1      45.954  35.646  25.689  1.00  0.00    -0.200 F 
ENDBRANCH  49  63
BRANCH  50  74
ATOM     74  C   UNL A   1      37.513  30.884  30.354  1.00  0.00     0.064 A 
ATOM     75  C   UNL A   1      36.686  31.268  31.419  1.00  0.00     0.173 A 
ATOM     76  C   UNL A   1      37.070  31.223  29.061  1.00  0.00     0.173 A 
ATOM     77  F   UNL A   1      37.062  31.036  32.685  1.00  0.00    -0.203 F 
ATOM     78  C   UNL A   1      35.485  31.950  31.203  1.00  0.00     0.198 A 
ATOM     79  C   UNL A   1      35.864  31.889  28.843  1.00  0.00     0.198 A 
ATOM     80  F   UNL A   1      37.838  30.990  27.986  1.00  0.00    -0.203 F 
ATOM     81  F   UNL A   1      34.746  32.348  32.247  1.00  0.00    -0.200 F 
ATOM     82  C   UNL A   1      35.076  32.260  29.916  1.00  0.00     0.200 A 
ATOM     83  F   UNL A   1      35.498  32.212  27.595  1.00  0.00    -0.200 F 
ATOM     84  F   UNL A   1      33.945  32.949  29.711  1.00  0.00    -0.200 F 
ENDBRANCH  50  74
BRANCH  62  85
ATOM     85  C   UNL A   1      42.649  29.744  33.827  1.00  0.00     0.064 A 
ATOM     86  C   UNL A   1      42.255  28.410  33.621  1.00  0.00     0.173 A 
ATOM     87  C   UNL A   1      42.946  30.131  35.141  1.00  0.00     0.173 A 
ATOM     88  F   UNL A   1      42.067  27.929  32.386  1.00  0.00    -0.203 F 
ATOM     89  C   UNL A   1      42.117  27.523  34.686  1.00  0.00     0.198 A 
ATOM     90  C   UNL A   1      42.843  29.233  36.200  1.00  0.00     0.198 A 
ATOM     91  F   UNL A   1      43.392  31.373  35.392  1.00  0.00    -0.203 F 
ATOM     92  F   UNL A   1      41.732  26.258  34.461  1.00  0.00    -0.200 F 
ATOM     93  C   UNL A   1      42.418  27.933  35.974  1.00  0.00     0.200 A 
ATOM     94  F   UNL A   1      43.187  29.617  37.437  1.00  0.00    -0.200 F 
ATOM     95  F   UNL A   1      42.330  27.067  36.993  1.00  0.00    -0.200 F 
ENDBRANCH  62  85
ENDBRANCH  36  37
ENDBRANCH  28  31
ENDBRANCH  26  27
ENDBRANCH  25  26
ENDBRANCH   1  25
TORSDOF 13
ENDMDL
MODEL 3
REMARK VINA RESULT:     -12.1      3.273      7.572
REMARK SMILES C[C@H](NC(=O)c1cc(Br)nn1-c1ncccc1Cl)C(=O)NCCCNC(=O)c1ccc(-c2c3nc(c(-c4c(F)c(F)c(F)c(F)c4F)c4ccc([nH]4)c(-c4c(F)c(F)c(F)c(F)c4F)c4nc(c(-c5c(F)c(F)c(F)c(F)c5F)c5ccc2[nH]5)C=C4)C=C3)cc1
REMARK SMILES IDX 22 1 21 2 19 3 20 4 2 6 1 7 3 8 4 9 5 11 6 12 7 13 11 14
REMARK SMILES IDX 8 15 10 16 9 17 12 18 13 19 17 20 14 21 16 22 18 23 15 24
REMARK SMILES IDX 23 25 24 26 25 27 26 28 27 30 28 31 29 32 90 33 30 34 89 35
REMARK SMILES IDX 31 36 32 37 33 38 83 39 34 40 88 41 82 42 84 43 35 44 87 45
REMARK SMILES IDX 81 46 80 47 36 49 68 50 48 51 67 52 49 53 52 54 66 55 85 56
REMARK SMILES IDX 50 57 51 58 65 60 86 61 53 62 37 63 38 64 46 65 39 66 40 67
REMARK SMILES IDX 44 68 47 69 41 70 42 71 45 72 43 73 69 74 70 75 78 76 71 77
REMARK SMILES IDX 72 78 76 79 79 80 73 81 74 82 77 83 75 84 54 85 55 86 63 87
REMARK SMILES IDX 56 88 57 89 61 90 64 91 58 92 59 93 62 94 60 95
REMARK H PARENT 21 5 3 10 25 29 84 48 52 59
REMARK Flexibility Score: inf
ROOT
ATOM      1  C   UNL A   1      33.052  28.042  26.302  1.00  0.00     0.117 C 
ENDROOT
BRANCH   1   2
ATOM      2  N   UNL A   1      31.987  27.491  25.481  1.00  0.00    -0.354 N 
ATOM      3  C   UNL A   1      32.041  26.771  24.323  1.00  0.00     0.242 C 
ATOM      4  O   UNL A   1      30.979  26.341  23.866  1.00  0.00    -0.273 OA
ATOM      5  H   UNL A   1      31.078  27.665  25.815  1.00  0.00     0.163 HD
BRANCH   3   6
ATOM      6  C   UNL A   1      33.375  26.482  23.617  1.00  0.00     0.168 C 
ATOM      7  C   UNL A   1      33.919  27.694  22.856  1.00  0.00     0.041 C 
BRANCH   6   8
ATOM      8  N   UNL A   1      33.251  25.307  22.752  1.00  0.00    -0.339 N 
ATOM      9  C   UNL A   1      33.929  24.119  22.818  1.00  0.00     0.270 C 
ATOM     10  H   UNL A   1      32.592  25.382  22.026  1.00  0.00     0.164 HD
ATOM     11  O   UNL A   1      33.810  23.342  21.875  1.00  0.00    -0.267 OA
BRANCH   9  12
ATOM     12  C   UNL A   1      34.757  23.837  23.956  1.00  0.00     0.135 A 
ATOM     13  C   UNL A   1      36.134  23.930  24.077  1.00  0.00     0.072 A 
ATOM     14  N   UNL A   1      34.278  23.577  25.237  1.00  0.00    -0.207 N 
ATOM     15  C   UNL A   1      36.385  23.780  25.442  1.00  0.00     0.129 A 
ATOM     16  N   UNL A   1      35.282  23.617  26.161  1.00  0.00    -0.159 NA
ATOM     17  Br  UNL A   1      38.107  23.859  26.188  1.00  0.00    -0.027 Br
BRANCH  14  18
ATOM     18  C   UNL A   1      32.940  23.312  25.665  1.00  0.00     0.173 A 
ATOM     19  N   UNL A   1      32.366  24.249  26.479  1.00  0.00    -0.236 NA
ATOM     20  C   UNL A   1      32.272  22.140  25.302  1.00  0.00     0.085 A 
ATOM     21  C   UNL A   1      31.089  24.053  26.867  1.00  0.00     0.113 A 
ATOM     22  C   UNL A   1      30.948  21.975  25.719  1.00  0.00     0.026 A 
ATOM     23  Cl  UNL A   1      33.012  20.764  24.569  1.00  0.00    -0.080 Cl
ATOM     24  C   UNL A   1      30.340  22.949  26.501  1.00  0.00     0.022 A 
ENDBRANCH  14  18
ENDBRANCH   9  12
ENDBRANCH   6   8
ENDBRANCH   3   6
ENDBRANCH   1   2
BRANCH   1  25
ATOM     25  C   UNL A   1      32.657  29.346  26.994  1.00  0.00     0.042 C 
BRANCH  25  26
ATOM     26  C   UNL A   1      33.705  30.442  26.859  1.00  0.00     0.118 C 
BRANCH  26  27
ATOM     27  N   UNL A   1      33.616  31.445  27.915  1.00  0.00    -0.352 N 
ATOM     28  C   UNL A   1      34.539  31.732  28.899  1.00  0.00     0.251 C 
ATOM     29  H   UNL A   1      32.793  31.985  27.928  1.00  0.00     0.163 HD
ATOM     30  O   UNL A   1      34.234  32.424  29.862  1.00  0.00    -0.269 OA
BRANCH  28  31
ATOM     31  C   UNL A   1      35.888  31.149  28.796  1.00  0.00     0.039 A 
ATOM     32  C   UNL A   1      37.008  31.969  28.930  1.00  0.00     0.014 A 
ATOM     33  C   UNL A   1      36.029  29.772  28.645  1.00  0.00     0.014 A 
ATOM     34  C   UNL A   1      38.275  31.388  29.012  1.00  0.00     0.010 A 
ATOM     35  C   UNL A   1      37.274  29.194  28.823  1.00  0.00     0.010 A 
ATOM     36  C   UNL A   1      38.412  29.992  28.993  1.00  0.00    -0.014 A 
BRANCH  36  37
ATOM     37  C   UNL A   1      39.731  29.384  29.233  1.00  0.00     0.031 A 
ATOM     38  C   UNL A   1      40.139  29.095  30.650  1.00  0.00     0.074 A 
ATOM     39  C   UNL A   1      40.496  28.849  28.256  1.00  0.00     0.049 A 
ATOM     40  N   UNL A   1      41.254  29.400  31.242  1.00  0.00    -0.248 NA
ATOM     41  C   UNL A   1      39.205  28.347  31.505  1.00  0.00     0.031 C 
ATOM     42  C   UNL A   1      40.196  28.710  26.829  1.00  0.00     0.029 A 
ATOM     43  N   UNL A   1      41.679  28.178  28.387  1.00  0.00    -0.354 N 
ATOM     44  C   UNL A   1      41.224  28.792  32.499  1.00  0.00     0.074 A 
ATOM     45  C   UNL A   1      39.917  28.195  32.625  1.00  0.00     0.031 C 
ATOM     46  C   UNL A   1      41.026  27.793  26.288  1.00  0.00     0.029 A 
ATOM     47  C   UNL A   1      42.012  27.415  27.283  1.00  0.00     0.049 A 
ATOM     48  H   UNL A   1      42.241  28.232  29.194  1.00  0.00     0.167 HD
ATOM     49  C   UNL A   1      42.320  28.716  33.310  1.00  0.00     0.037 A 
ATOM     50  C   UNL A   1      43.002  26.498  27.194  1.00  0.00     0.037 A 
ATOM     51  C   UNL A   1      43.345  29.647  32.929  1.00  0.00     0.049 A 
ATOM     52  C   UNL A   1      43.999  26.801  28.249  1.00  0.00     0.074 A 
ATOM     53  C   UNL A   1      43.408  31.020  32.785  1.00  0.00     0.029 A 
ATOM     54  N   UNL A   1      44.502  29.181  32.357  1.00  0.00    -0.354 N 
ATOM     55  N   UNL A   1      44.777  27.847  28.247  1.00  0.00    -0.248 NA
ATOM     56  C   UNL A   1      43.889  26.106  29.522  1.00  0.00     0.031 C 
ATOM     57  C   UNL A   1      44.296  31.237  31.690  1.00  0.00     0.029 A 
ATOM     58  C   UNL A   1      44.717  29.977  31.263  1.00  0.00     0.049 A 
ATOM     59  H   UNL A   1      45.061  28.432  32.668  1.00  0.00     0.167 HD
ATOM     60  C   UNL A   1      44.920  28.182  29.582  1.00  0.00     0.074 A 
ATOM     61  C   UNL A   1      44.463  27.007  30.320  1.00  0.00     0.031 C 
ATOM     62  C   UNL A   1      45.125  29.473  29.975  1.00  0.00     0.037 A 
BRANCH  49  63
ATOM     63  C   UNL A   1      42.578  27.644  34.341  1.00  0.00     0.064 A 
ATOM     64  C   UNL A   1      43.212  26.440  33.965  1.00  0.00     0.173 A 
ATOM     65  C   UNL A   1      41.979  27.643  35.616  1.00  0.00     0.173 A 
ATOM     66  F   UNL A   1      43.786  26.317  32.758  1.00  0.00    -0.203 F 
ATOM     67  C   UNL A   1      43.201  25.307  34.783  1.00  0.00     0.198 A 
ATOM     68  C   UNL A   1      42.014  26.525  36.453  1.00  0.00     0.198 A 
ATOM     69  F   UNL A   1      41.255  28.683  36.049  1.00  0.00    -0.203 F 
ATOM     70  F   UNL A   1      43.721  24.156  34.336  1.00  0.00    -0.200 F 
ATOM     71  C   UNL A   1      42.601  25.350  36.027  1.00  0.00     0.200 A 
ATOM     72  F   UNL A   1      41.410  26.577  37.649  1.00  0.00    -0.200 F 
ATOM     73  F   UNL A   1      42.545  24.253  36.794  1.00  0.00    -0.200 F 
ENDBRANCH  49  63
BRANCH  50  74
ATOM     74  C   UNL A   1      43.041  25.278  26.361  1.00  0.00     0.064 A 
ATOM     75  C   UNL A   1      44.055  25.073  25.415  1.00  0.00     0.173 A 
ATOM     76  C   UNL A   1      42.204  24.177  26.632  1.00  0.00     0.173 A 
ATOM     77  F   UNL A   1      44.933  26.050  25.142  1.00  0.00    -0.203 F 
ATOM     78  C   UNL A   1      44.222  23.840  24.777  1.00  0.00     0.198 A 
ATOM     79  C   UNL A   1      42.359  22.953  25.984  1.00  0.00     0.198 A 
ATOM     80  F   UNL A   1      41.270  24.242  27.593  1.00  0.00    -0.203 F 
ATOM     81  F   UNL A   1      45.235  23.665  23.918  1.00  0.00    -0.200 F 
ATOM     82  C   UNL A   1      43.374  22.782  25.063  1.00  0.00     0.200 A 
ATOM     83  F   UNL A   1      41.553  21.928  26.296  1.00  0.00    -0.200 F 
ATOM     84  F   UNL A   1      43.559  21.588  24.481  1.00  0.00    -0.200 F 
ENDBRANCH  50  74
BRANCH  62  85
ATOM     85  C   UNL A   1      45.473  30.494  28.933  1.00  0.00     0.064 A 
ATOM     86  C   UNL A   1      44.513  31.161  28.151  1.00  0.00     0.173 A 
ATOM     87  C   UNL A   1      46.799  30.938  28.841  1.00  0.00     0.173 A 
ATOM     88  F   UNL A   1      43.210  30.878  28.268  1.00  0.00    -0.203 F 
ATOM     89  C   UNL A   1      44.874  32.188  27.283  1.00  0.00     0.198 A 
ATOM     90  C   UNL A   1      47.152  31.990  27.999  1.00  0.00     0.198 A 
ATOM     91  F   UNL A   1      47.749  30.386  29.612  1.00  0.00    -0.203 F 
ATOM     92  F   UNL A   1      43.938  32.802  26.543  1.00  0.00    -0.200 F 
ATOM     93  C   UNL A   1      46.192  32.607  27.212  1.00  0.00     0.200 A 
ATOM     94  F   UNL A   1      48.418  32.429  27.973  1.00  0.00    -0.200 F 
ATOM     95  F   UNL A   1      46.532  33.627  26.411  1.00  0.00    -0.200 F 
ENDBRANCH  62  85
ENDBRANCH  36  37
ENDBRANCH  28  31
ENDBRANCH  26  27
ENDBRANCH  25  26
ENDBRANCH   1  25
TORSDOF 13
ENDMDL
