MODEL 1
REMARK VINA RESULT:     -12.3      0.000      0.000
REMARK SMILES CC(C)[C@H](NC(=O)Cc1csc(-c2c(Cl)cccc2Cl)n1)C(=O)NCCCNC(=O)c1ccc(-c2c3nc(c(-c4c(F)c(F)c(F)c(F)c4F)c4ccc([nH]4)c(-c4c(F)c(F)c(F)c(F)c4F)c4nc(c(-c5c(F)c(F)c(F)c(F)c5F)c5ccc2[nH]5)C=C4)C=C3)cc1
REMARK SMILES IDX 25 1 24 2 22 3 23 4 4 6 2 7 1 8 3 9 5 10 6 11 7 13 8 14 9 15
REMARK SMILES IDX 10 16 21 17 11 18 12 19 13 20 14 21 19 22 15 23 16 24 18 25
REMARK SMILES IDX 20 26 17 27 26 28 27 29 28 30 29 31 30 33 31 34 32 35 93 36
REMARK SMILES IDX 33 37 92 38 34 39 35 40 36 41 86 42 37 43 91 44 85 45 87 46
REMARK SMILES IDX 38 47 90 48 84 49 83 50 39 52 71 53 51 54 70 55 52 56 55 57
REMARK SMILES IDX 69 58 88 59 53 60 54 61 68 63 89 64 56 65 40 66 41 67 49 68
REMARK SMILES IDX 42 69 43 70 47 71 50 72 44 73 45 74 48 75 46 76 72 77 73 78
REMARK SMILES IDX 81 79 74 80 75 81 79 82 82 83 76 84 77 85 80 86 78 87 57 88
REMARK SMILES IDX 58 89 66 90 59 91 60 92 64 93 67 94 61 95 62 96 65 97 63 98
REMARK H PARENT 24 5 5 12 28 32 87 51 55 62
REMARK Flexibility Score: inf
ROOT
ATOM      1  C   UNL A   1      31.847  30.936  26.716  1.00  0.00     0.117 C 
ENDROOT
BRANCH   1   2
ATOM      2  N   UNL A   1      31.573  30.286  25.457  1.00  0.00    -0.354 N 
ATOM      3  C   UNL A   1      31.377  28.951  25.230  1.00  0.00     0.242 C 
ATOM      4  O   UNL A   1      30.673  28.656  24.257  1.00  0.00    -0.273 OA
ATOM      5  H   UNL A   1      31.522  30.873  24.668  1.00  0.00     0.163 HD
BRANCH   3   6
ATOM      6  C   UNL A   1      31.970  27.819  26.146  1.00  0.00     0.173 C 
BRANCH   6   7
ATOM      7  C   UNL A   1      33.410  27.339  25.842  1.00  0.00     0.015 C 
ATOM      8  C   UNL A   1      33.732  27.188  24.362  1.00  0.00     0.010 C 
ATOM      9  C   UNL A   1      34.474  28.223  26.500  1.00  0.00     0.010 C 
ENDBRANCH   6   7
BRANCH   6  10
ATOM     10  N   UNL A   1      30.983  26.789  26.530  1.00  0.00    -0.344 N 
ATOM     11  C   UNL A   1      30.537  25.598  26.052  1.00  0.00     0.226 C 
ATOM     12  H   UNL A   1      30.520  27.033  27.364  1.00  0.00     0.164 HD
ATOM     13  O   UNL A   1      29.436  25.244  26.499  1.00  0.00    -0.275 OA
BRANCH  11  14
ATOM     14  C   UNL A   1      31.327  24.638  25.187  1.00  0.00     0.157 C 
BRANCH  14  15
ATOM     15  C   UNL A   1      32.336  23.693  25.787  1.00  0.00     0.061 A 
ATOM     16  C   UNL A   1      32.185  23.132  27.047  1.00  0.00     0.091 A 
ATOM     17  N   UNL A   1      33.467  23.235  25.114  1.00  0.00    -0.240 NA
ATOM     18  S   UNL A   1      33.521  22.141  27.443  1.00  0.00    -0.122 S 
ATOM     19  C   UNL A   1      34.176  22.415  25.876  1.00  0.00     0.126 A 
BRANCH  19  20
ATOM     20  C   UNL A   1      35.385  21.680  25.468  1.00  0.00     0.048 A 
ATOM     21  C   UNL A   1      35.350  20.349  25.001  1.00  0.00     0.052 A 
ATOM     22  C   UNL A   1      36.647  22.296  25.555  1.00  0.00     0.052 A 
ATOM     23  Cl  UNL A   1      33.896  19.462  24.735  1.00  0.00    -0.084 Cl
ATOM     24  C   UNL A   1      36.527  19.651  24.694  1.00  0.00     0.021 A 
ATOM     25  C   UNL A   1      37.815  21.610  25.195  1.00  0.00     0.021 A 
ATOM     26  Cl  UNL A   1      36.846  23.921  26.127  1.00  0.00    -0.084 Cl
ATOM     27  C   UNL A   1      37.759  20.280  24.791  1.00  0.00     0.003 A 
ENDBRANCH  19  20
ENDBRANCH  14  15
ENDBRANCH  11  14
ENDBRANCH   6  10
ENDBRANCH   3   6
ENDBRANCH   1   2
BRANCH   1  28
ATOM     28  C   UNL A   1      31.398  32.383  26.829  1.00  0.00     0.042 C 
BRANCH  28  29
ATOM     29  C   UNL A   1      32.554  33.371  26.734  1.00  0.00     0.118 C 
BRANCH  29  30
ATOM     30  N   UNL A   1      32.561  34.371  27.800  1.00  0.00    -0.352 N 
ATOM     31  C   UNL A   1      33.414  34.558  28.860  1.00  0.00     0.251 C 
ATOM     32  H   UNL A   1      31.825  35.023  27.750  1.00  0.00     0.163 HD
ATOM     33  O   UNL A   1      33.197  35.440  29.677  1.00  0.00    -0.269 OA
BRANCH  31  34
ATOM     34  C   UNL A   1      34.551  33.653  29.098  1.00  0.00     0.039 A 
ATOM     35  C   UNL A   1      35.834  34.211  29.035  1.00  0.00     0.014 A 
ATOM     36  C   UNL A   1      34.380  32.314  29.435  1.00  0.00     0.014 A 
ATOM     37  C   UNL A   1      36.929  33.466  29.450  1.00  0.00     0.010 A 
ATOM     38  C   UNL A   1      35.453  31.605  29.949  1.00  0.00     0.010 A 
ATOM     39  C   UNL A   1      36.726  32.190  29.990  1.00  0.00    -0.014 A 
BRANCH  39  40
ATOM     40  C   UNL A   1      37.828  31.477  30.665  1.00  0.00     0.031 A 
ATOM     41  C   UNL A   1      38.173  31.818  32.079  1.00  0.00     0.074 A 
ATOM     42  C   UNL A   1      38.554  30.595  29.954  1.00  0.00     0.049 A 
ATOM     43  N   UNL A   1      39.161  31.382  32.815  1.00  0.00    -0.248 NA
ATOM     44  C   UNL A   1      37.314  32.809  32.747  1.00  0.00     0.031 C 
ATOM     45  C   UNL A   1      38.326  30.251  28.546  1.00  0.00     0.029 A 
ATOM     46  N   UNL A   1      39.633  29.829  30.308  1.00  0.00    -0.354 N 
ATOM     47  C   UNL A   1      39.057  32.064  34.019  1.00  0.00     0.074 A 
ATOM     48  C   UNL A   1      37.944  32.977  33.900  1.00  0.00     0.031 C 
ATOM     49  C   UNL A   1      39.213  29.319  28.169  1.00  0.00     0.029 A 
ATOM     50  C   UNL A   1      40.097  29.030  29.291  1.00  0.00     0.049 A 
ATOM     51  H   UNL A   1      40.038  29.850  31.205  1.00  0.00     0.167 HD
ATOM     52  C   UNL A   1      39.816  31.915  35.128  1.00  0.00     0.037 A 
ATOM     53  C   UNL A   1      41.126  28.165  29.276  1.00  0.00     0.037 A 
ATOM     54  C   UNL A   1      40.902  30.977  35.228  1.00  0.00     0.049 A 
ATOM     55  C   UNL A   1      41.929  27.994  30.534  1.00  0.00     0.074 A 
ATOM     56  C   UNL A   1      41.716  30.706  36.311  1.00  0.00     0.029 A 
ATOM     57  N   UNL A   1      41.317  30.147  34.194  1.00  0.00    -0.354 N 
ATOM     58  N   UNL A   1      41.793  28.604  31.688  1.00  0.00    -0.248 NA
ATOM     59  C   UNL A   1      43.022  27.015  30.495  1.00  0.00     0.031 C 
ATOM     60  C   UNL A   1      42.643  29.733  35.923  1.00  0.00     0.029 A 
ATOM     61  C   UNL A   1      42.382  29.369  34.611  1.00  0.00     0.049 A 
ATOM     62  H   UNL A   1      40.914  30.119  33.296  1.00  0.00     0.167 HD
ATOM     63  C   UNL A   1      42.766  28.072  32.519  1.00  0.00     0.074 A 
ATOM     64  C   UNL A   1      43.474  27.074  31.740  1.00  0.00     0.031 C 
ATOM     65  C   UNL A   1      43.054  28.380  33.807  1.00  0.00     0.037 A 
BRANCH  52  66
ATOM     66  C   UNL A   1      39.490  32.786  36.305  1.00  0.00     0.064 A 
ATOM     67  C   UNL A   1      38.511  32.419  37.243  1.00  0.00     0.173 A 
ATOM     68  C   UNL A   1      40.154  34.008  36.495  1.00  0.00     0.173 A 
ATOM     69  F   UNL A   1      37.832  31.272  37.095  1.00  0.00    -0.203 F 
ATOM     70  C   UNL A   1      38.186  33.258  38.306  1.00  0.00     0.198 A 
ATOM     71  C   UNL A   1      39.846  34.829  37.577  1.00  0.00     0.198 A 
ATOM     72  F   UNL A   1      41.095  34.408  35.628  1.00  0.00    -0.203 F 
ATOM     73  F   UNL A   1      37.206  32.914  39.152  1.00  0.00    -0.200 F 
ATOM     74  C   UNL A   1      38.857  34.459  38.475  1.00  0.00     0.200 A 
ATOM     75  F   UNL A   1      40.500  35.988  37.743  1.00  0.00    -0.200 F 
ATOM     76  F   UNL A   1      38.540  35.267  39.497  1.00  0.00    -0.200 F 
ENDBRANCH  52  66
BRANCH  53  77
ATOM     77  C   UNL A   1      41.417  27.375  28.052  1.00  0.00     0.064 A 
ATOM     78  C   UNL A   1      42.327  27.846  27.094  1.00  0.00     0.173 A 
ATOM     79  C   UNL A   1      40.814  26.130  27.820  1.00  0.00     0.173 A 
ATOM     80  F   UNL A   1      42.919  29.037  27.264  1.00  0.00    -0.203 F 
ATOM     81  C   UNL A   1      42.608  27.112  25.944  1.00  0.00     0.198 A 
ATOM     82  C   UNL A   1      41.116  25.384  26.681  1.00  0.00     0.198 A 
ATOM     83  F   UNL A   1      39.943  25.630  28.708  1.00  0.00    -0.203 F 
ATOM     84  F   UNL A   1      43.453  27.604  25.028  1.00  0.00    -0.200 F 
ATOM     85  C   UNL A   1      42.008  25.878  25.741  1.00  0.00     0.200 A 
ATOM     86  F   UNL A   1      40.544  24.188  26.495  1.00  0.00    -0.200 F 
ATOM     87  F   UNL A   1      42.283  25.171  24.637  1.00  0.00    -0.200 F 
ENDBRANCH  53  77
BRANCH  65  88
ATOM     88  C   UNL A   1      44.162  27.607  34.453  1.00  0.00     0.064 A 
ATOM     89  C   UNL A   1      43.925  26.379  35.087  1.00  0.00     0.173 A 
ATOM     90  C   UNL A   1      45.481  28.080  34.396  1.00  0.00     0.173 A 
ATOM     91  F   UNL A   1      42.677  25.898  35.179  1.00  0.00    -0.203 F 
ATOM     92  C   UNL A   1      44.968  25.661  35.661  1.00  0.00     0.198 A 
ATOM     93  C   UNL A   1      46.526  27.346  34.947  1.00  0.00     0.198 A 
ATOM     94  F   UNL A   1      45.756  29.247  33.794  1.00  0.00    -0.203 F 
ATOM     95  F   UNL A   1      44.716  24.511  36.299  1.00  0.00    -0.200 F 
ATOM     96  C   UNL A   1      46.269  26.141  35.585  1.00  0.00     0.200 A 
ATOM     97  F   UNL A   1      47.782  27.804  34.863  1.00  0.00    -0.200 F 
ATOM     98  F   UNL A   1      47.273  25.444  36.131  1.00  0.00    -0.200 F 
ENDBRANCH  65  88
ENDBRANCH  39  40
ENDBRANCH  31  34
ENDBRANCH  29  30
ENDBRANCH  28  29
ENDBRANCH   1  28
TORSDOF 15
ENDMDL
MODEL 2
REMARK VINA RESULT:     -12.2      3.464      4.735
REMARK SMILES CC(C)[C@H](NC(=O)Cc1csc(-c2c(Cl)cccc2Cl)n1)C(=O)NCCCNC(=O)c1ccc(-c2c3nc(c(-c4c(F)c(F)c(F)c(F)c4F)c4ccc([nH]4)c(-c4c(F)c(F)c(F)c(F)c4F)c4nc(c(-c5c(F)c(F)c(F)c(F)c5F)c5ccc2[nH]5)C=C4)C=C3)cc1
REMARK SMILES IDX 25 1 24 2 22 3 23 4 4 6 2 7 1 8 3 9 5 10 6 11 7 13 8 14 9 15
REMARK SMILES IDX 10 16 21 17 11 18 12 19 13 20 14 21 19 22 15 23 16 24 18 25
REMARK SMILES IDX 20 26 17 27 26 28 27 29 28 30 29 31 30 33 31 34 32 35 93 36
REMARK SMILES IDX 33 37 92 38 34 39 35 40 36 41 86 42 37 43 91 44 85 45 87 46
REMARK SMILES IDX 38 47 90 48 84 49 83 50 39 52 71 53 51 54 70 55 52 56 55 57
REMARK SMILES IDX 69 58 88 59 53 60 54 61 68 63 89 64 56 65 40 66 41 67 49 68
REMARK SMILES IDX 42 69 43 70 47 71 50 72 44 73 45 74 48 75 46 76 72 77 73 78
REMARK SMILES IDX 81 79 74 80 75 81 79 82 82 83 76 84 77 85 80 86 78 87 57 88
REMARK SMILES IDX 58 89 66 90 59 91 60 92 64 93 67 94 61 95 62 96 65 97 63 98
REMARK H PARENT 24 5 5 12 28 32 87 51 55 62
REMARK Flexibility Score: inf
ROOT
ATOM      1  C   UNL A   1      33.304  27.135  25.245  1.00  0.00     0.117 C 
ENDROOT
BRANCH   1   2
ATOM      2  N   UNL A   1      33.766  26.824  23.914  1.00  0.00    -0.354 N 
ATOM      3  C   UNL A   1      33.049  26.859  22.750  1.00  0.00     0.242 C 
ATOM      4  O   UNL A   1      33.691  27.071  21.714  1.00  0.00    -0.273 OA
ATOM      5  H   UNL A   1      34.710  26.553  23.835  1.00  0.00     0.163 HD
BRANCH   3   6
ATOM      6  C   UNL A   1      31.489  26.675  22.686  1.00  0.00     0.173 C 
BRANCH   6   7
ATOM      7  C   UNL A   1      30.620  27.679  23.482  1.00  0.00     0.015 C 
ATOM      8  C   UNL A   1      30.772  29.132  23.054  1.00  0.00     0.010 C 
ATOM      9  C   UNL A   1      29.135  27.306  23.473  1.00  0.00     0.010 C 
ENDBRANCH   6   7
BRANCH   6  10
ATOM     10  N   UNL A   1      31.057  25.262  22.685  1.00  0.00    -0.344 N 
ATOM     11  C   UNL A   1      31.164  24.180  23.498  1.00  0.00     0.226 C 
ATOM     12  H   UNL A   1      30.552  25.045  21.868  1.00  0.00     0.164 HD
ATOM     13  O   UNL A   1      30.965  23.092  22.937  1.00  0.00    -0.275 OA
BRANCH  11  14
ATOM     14  C   UNL A   1      31.333  24.215  25.004  1.00  0.00     0.157 C 
BRANCH  14  15
ATOM     15  C   UNL A   1      32.443  23.458  25.685  1.00  0.00     0.061 A 
ATOM     16  C   UNL A   1      32.415  23.131  27.032  1.00  0.00     0.091 A 
ATOM     17  N   UNL A   1      33.558  22.950  25.020  1.00  0.00    -0.240 NA
ATOM     18  S   UNL A   1      33.841  22.309  27.496  1.00  0.00    -0.122 S 
ATOM     19  C   UNL A   1      34.371  22.327  25.859  1.00  0.00     0.126 A 
BRANCH  19  20
ATOM     20  C   UNL A   1      35.600  21.601  25.498  1.00  0.00     0.048 A 
ATOM     21  C   UNL A   1      35.594  20.267  25.042  1.00  0.00     0.052 A 
ATOM     22  C   UNL A   1      36.852  22.231  25.622  1.00  0.00     0.052 A 
ATOM     23  Cl  UNL A   1      34.159  19.363  24.734  1.00  0.00    -0.084 Cl
ATOM     24  C   UNL A   1      36.788  19.578  24.780  1.00  0.00     0.021 A 
ATOM     25  C   UNL A   1      38.039  21.554  25.308  1.00  0.00     0.021 A 
ATOM     26  Cl  UNL A   1      37.016  23.863  26.188  1.00  0.00    -0.084 Cl
ATOM     27  C   UNL A   1      38.010  20.220  24.913  1.00  0.00     0.003 A 
ENDBRANCH  19  20
ENDBRANCH  14  15
ENDBRANCH  11  14
ENDBRANCH   6  10
ENDBRANCH   3   6
ENDBRANCH   1   2
BRANCH   1  28
ATOM     28  C   UNL A   1      33.620  28.532  25.750  1.00  0.00     0.042 C 
BRANCH  28  29
ATOM     29  C   UNL A   1      33.236  28.735  27.211  1.00  0.00     0.118 C 
BRANCH  29  30
ATOM     30  N   UNL A   1      33.394  30.113  27.673  1.00  0.00    -0.352 N 
ATOM     31  C   UNL A   1      34.488  30.781  28.168  1.00  0.00     0.251 C 
ATOM     32  H   UNL A   1      32.575  30.656  27.619  1.00  0.00     0.163 HD
ATOM     33  O   UNL A   1      34.381  31.936  28.553  1.00  0.00    -0.269 OA
BRANCH  31  34
ATOM     34  C   UNL A   1      35.785  30.106  28.340  1.00  0.00     0.039 A 
ATOM     35  C   UNL A   1      36.687  30.178  27.271  1.00  0.00     0.014 A 
ATOM     36  C   UNL A   1      36.147  29.475  29.526  1.00  0.00     0.014 A 
ATOM     37  C   UNL A   1      37.995  29.746  27.444  1.00  0.00     0.010 A 
ATOM     38  C   UNL A   1      37.474  29.142  29.736  1.00  0.00     0.010 A 
ATOM     39  C   UNL A   1      38.411  29.307  28.706  1.00  0.00    -0.014 A 
BRANCH  39  40
ATOM     40  C   UNL A   1      39.842  29.080  28.988  1.00  0.00     0.031 A 
ATOM     41  C   UNL A   1      40.637  30.137  29.683  1.00  0.00     0.074 A 
ATOM     42  C   UNL A   1      40.416  27.952  28.528  1.00  0.00     0.049 A 
ATOM     43  N   UNL A   1      41.919  30.175  29.933  1.00  0.00    -0.248 NA
ATOM     44  C   UNL A   1      39.900  31.332  30.124  1.00  0.00     0.031 C 
ATOM     45  C   UNL A   1      39.725  26.895  27.781  1.00  0.00     0.029 A 
ATOM     46  N   UNL A   1      41.708  27.505  28.612  1.00  0.00    -0.354 N 
ATOM     47  C   UNL A   1      42.144  31.404  30.536  1.00  0.00     0.074 A 
ATOM     48  C   UNL A   1      40.880  32.103  30.570  1.00  0.00     0.031 C 
ATOM     49  C   UNL A   1      40.592  25.908  27.509  1.00  0.00     0.029 A 
ATOM     50  C   UNL A   1      41.904  26.280  28.021  1.00  0.00     0.049 A 
ATOM     51  H   UNL A   1      42.426  28.013  29.053  1.00  0.00     0.167 HD
ATOM     52  C   UNL A   1      43.305  31.886  31.036  1.00  0.00     0.037 A 
ATOM     53  C   UNL A   1      43.026  25.547  27.910  1.00  0.00     0.037 A 
ATOM     54  C   UNL A   1      44.543  31.155  31.013  1.00  0.00     0.049 A 
ATOM     55  C   UNL A   1      44.293  26.092  28.506  1.00  0.00     0.074 A 
ATOM     56  C   UNL A   1      45.774  31.521  31.524  1.00  0.00     0.029 A 
ATOM     57  N   UNL A   1      44.699  29.895  30.449  1.00  0.00    -0.354 N 
ATOM     58  N   UNL A   1      44.489  27.234  29.123  1.00  0.00    -0.248 NA
ATOM     59  C   UNL A   1      45.491  25.251  28.398  1.00  0.00     0.031 C 
ATOM     60  C   UNL A   1      46.682  30.494  31.243  1.00  0.00     0.029 A 
ATOM     61  C   UNL A   1      46.008  29.471  30.592  1.00  0.00     0.049 A 
ATOM     62  H   UNL A   1      43.983  29.381  30.011  1.00  0.00     0.167 HD
ATOM     63  C   UNL A   1      45.823  27.242  29.496  1.00  0.00     0.074 A 
ATOM     64  C   UNL A   1      46.386  25.981  29.051  1.00  0.00     0.031 C 
ATOM     65  C   UNL A   1      46.526  28.204  30.142  1.00  0.00     0.037 A 
BRANCH  52  66
ATOM     66  C   UNL A   1      43.274  33.258  31.640  1.00  0.00     0.064 A 
ATOM     67  C   UNL A   1      43.044  33.453  33.011  1.00  0.00     0.173 A 
ATOM     68  C   UNL A   1      43.467  34.395  30.840  1.00  0.00     0.173 A 
ATOM     69  F   UNL A   1      42.833  32.401  33.816  1.00  0.00    -0.203 F 
ATOM     70  C   UNL A   1      42.974  34.734  33.552  1.00  0.00     0.198 A 
ATOM     71  C   UNL A   1      43.425  35.673  31.391  1.00  0.00     0.198 A 
ATOM     72  F   UNL A   1      43.688  34.267  29.524  1.00  0.00    -0.203 F 
ATOM     73  F   UNL A   1      42.692  34.896  34.852  1.00  0.00    -0.200 F 
ATOM     74  C   UNL A   1      43.169  35.843  32.743  1.00  0.00     0.200 A 
ATOM     75  F   UNL A   1      43.621  36.745  30.608  1.00  0.00    -0.200 F 
ATOM     76  F   UNL A   1      43.098  37.076  33.264  1.00  0.00    -0.200 F 
ENDBRANCH  52  66
BRANCH  53  77
ATOM     77  C   UNL A   1      42.984  24.217  27.250  1.00  0.00     0.064 A 
ATOM     78  C   UNL A   1      43.328  24.076  25.898  1.00  0.00     0.173 A 
ATOM     79  C   UNL A   1      42.621  23.059  27.953  1.00  0.00     0.173 A 
ATOM     80  F   UNL A   1      43.669  25.156  25.179  1.00  0.00    -0.203 F 
ATOM     81  C   UNL A   1      43.294  22.832  25.271  1.00  0.00     0.198 A 
ATOM     82  C   UNL A   1      42.613  21.811  27.331  1.00  0.00     0.198 A 
ATOM     83  F   UNL A   1      42.292  23.136  29.251  1.00  0.00    -0.203 F 
ATOM     84  F   UNL A   1      43.592  22.733  23.968  1.00  0.00    -0.200 F 
ATOM     85  C   UNL A   1      42.943  21.700  25.989  1.00  0.00     0.200 A 
ATOM     86  F   UNL A   1      42.286  20.717  28.032  1.00  0.00    -0.200 F 
ATOM     87  F   UNL A   1      42.915  20.503  25.386  1.00  0.00    -0.200 F 
ENDBRANCH  53  77
BRANCH  65  88
ATOM     88  C   UNL A   1      47.966  27.910  30.427  1.00  0.00     0.064 A 
ATOM     89  C   UNL A   1      48.983  28.311  29.549  1.00  0.00     0.173 A 
ATOM     90  C   UNL A   1      48.334  27.259  31.614  1.00  0.00     0.173 A 
ATOM     91  F   UNL A   1      48.675  28.922  28.395  1.00  0.00    -0.203 F 
ATOM     92  C   UNL A   1      50.318  28.053  29.839  1.00  0.00     0.198 A 
ATOM     93  C   UNL A   1      49.672  27.026  31.914  1.00  0.00     0.198 A 
ATOM     94  F   UNL A   1      47.396  26.862  32.487  1.00  0.00    -0.203 F 
ATOM     95  F   UNL A   1      51.271  28.406  28.968  1.00  0.00    -0.200 F 
ATOM     96  C   UNL A   1      50.662  27.416  31.024  1.00  0.00     0.200 A 
ATOM     97  F   UNL A   1      50.004  26.423  33.063  1.00  0.00    -0.200 F 
ATOM     98  F   UNL A   1      51.949  27.176  31.306  1.00  0.00    -0.200 F 
ENDBRANCH  65  88
ENDBRANCH  39  40
ENDBRANCH  31  34
ENDBRANCH  29  30
ENDBRANCH  28  29
ENDBRANCH   1  28
TORSDOF 15
ENDMDL
MODEL 3
REMARK VINA RESULT:     -12.1      1.107      1.944
REMARK SMILES CC(C)[C@H](NC(=O)Cc1csc(-c2c(Cl)cccc2Cl)n1)C(=O)NCCCNC(=O)c1ccc(-c2c3nc(c(-c4c(F)c(F)c(F)c(F)c4F)c4ccc([nH]4)c(-c4c(F)c(F)c(F)c(F)c4F)c4nc(c(-c5c(F)c(F)c(F)c(F)c5F)c5ccc2[nH]5)C=C4)C=C3)cc1
REMARK SMILES IDX 25 1 24 2 22 3 23 4 4 6 2 7 1 8 3 9 5 10 6 11 7 13 8 14 9 15
REMARK SMILES IDX 10 16 21 17 11 18 12 19 13 20 14 21 19 22 15 23 16 24 18 25
REMARK SMILES IDX 20 26 17 27 26 28 27 29 28 30 29 31 30 33 31 34 32 35 93 36
REMARK SMILES IDX 33 37 92 38 34 39 35 40 36 41 86 42 37 43 91 44 85 45 87 46
REMARK SMILES IDX 38 47 90 48 84 49 83 50 39 52 71 53 51 54 70 55 52 56 55 57
REMARK SMILES IDX 69 58 88 59 53 60 54 61 68 63 89 64 56 65 40 66 41 67 49 68
REMARK SMILES IDX 42 69 43 70 47 71 50 72 44 73 45 74 48 75 46 76 72 77 73 78
REMARK SMILES IDX 81 79 74 80 75 81 79 82 82 83 76 84 77 85 80 86 78 87 57 88
REMARK SMILES IDX 58 89 66 90 59 91 60 92 64 93 67 94 61 95 62 96 65 97 63 98
REMARK H PARENT 24 5 5 12 28 32 87 51 55 62
REMARK Flexibility Score: inf
ROOT
ATOM      1  C   UNL A   1      31.447  30.212  25.528  1.00  0.00     0.117 C 
ENDROOT
BRANCH   1   2
ATOM      2  N   UNL A   1      32.726  29.887  24.943  1.00  0.00    -0.354 N 
ATOM      3  C   UNL A   1      33.001  28.916  24.020  1.00  0.00     0.242 C 
ATOM      4  O   UNL A   1      33.974  29.118  23.283  1.00  0.00    -0.273 OA
ATOM      5  H   UNL A   1      33.490  30.429  25.245  1.00  0.00     0.163 HD
BRANCH   3   6
ATOM      6  C   UNL A   1      32.139  27.613  23.847  1.00  0.00     0.173 C 
BRANCH   6   7
ATOM      7  C   UNL A   1      31.234  27.518  22.595  1.00  0.00     0.015 C 
ATOM      8  C   UNL A   1      31.415  26.250  21.773  1.00  0.00     0.010 C 
ATOM      9  C   UNL A   1      29.750  27.692  22.930  1.00  0.00     0.010 C 
ENDBRANCH   6   7
BRANCH   6  10
ATOM     10  N   UNL A   1      31.592  27.091  25.117  1.00  0.00    -0.344 N 
ATOM     11  C   UNL A   1      31.081  25.922  25.584  1.00  0.00     0.226 C 
ATOM     12  H   UNL A   1      31.600  27.781  25.818  1.00  0.00     0.164 HD
ATOM     13  O   UNL A   1      30.403  26.033  26.617  1.00  0.00    -0.275 OA
BRANCH  11  14
ATOM     14  C   UNL A   1      31.407  24.539  25.058  1.00  0.00     0.157 C 
BRANCH  14  15
ATOM     15  C   UNL A   1      32.440  23.670  25.729  1.00  0.00     0.061 A 
ATOM     16  C   UNL A   1      32.296  23.193  27.023  1.00  0.00     0.091 A 
ATOM     17  N   UNL A   1      33.590  23.203  25.095  1.00  0.00    -0.240 NA
ATOM     18  S   UNL A   1      33.659  22.275  27.494  1.00  0.00    -0.122 S 
ATOM     19  C   UNL A   1      34.318  22.460  25.916  1.00  0.00     0.126 A 
BRANCH  19  20
ATOM     20  C   UNL A   1      35.553  21.738  25.567  1.00  0.00     0.048 A 
ATOM     21  C   UNL A   1      36.829  22.335  25.621  1.00  0.00     0.052 A 
ATOM     22  C   UNL A   1      35.488  20.399  25.138  1.00  0.00     0.052 A 
ATOM     23  Cl  UNL A   1      37.120  23.928  26.212  1.00  0.00    -0.084 Cl
ATOM     24  C   UNL A   1      37.978  21.644  25.208  1.00  0.00     0.021 A 
ATOM     25  C   UNL A   1      36.647  19.697  24.777  1.00  0.00     0.021 A 
ATOM     26  Cl  UNL A   1      33.987  19.541  25.005  1.00  0.00    -0.084 Cl
ATOM     27  C   UNL A   1      37.888  20.326  24.786  1.00  0.00     0.003 A 
ENDBRANCH  19  20
ENDBRANCH  14  15
ENDBRANCH  11  14
ENDBRANCH   6  10
ENDBRANCH   3   6
ENDBRANCH   1   2
BRANCH   1  28
ATOM     28  C   UNL A   1      31.333  31.590  26.156  1.00  0.00     0.042 C 
BRANCH  28  29
ATOM     29  C   UNL A   1      32.286  31.787  27.330  1.00  0.00     0.118 C 
BRANCH  29  30
ATOM     30  N   UNL A   1      32.703  33.174  27.520  1.00  0.00    -0.352 N 
ATOM     31  C   UNL A   1      33.908  33.713  27.903  1.00  0.00     0.251 C 
ATOM     32  H   UNL A   1      31.999  33.838  27.343  1.00  0.00     0.163 HD
ATOM     33  O   UNL A   1      34.022  34.920  28.055  1.00  0.00    -0.269 OA
BRANCH  31  34
ATOM     34  C   UNL A   1      35.060  32.857  28.233  1.00  0.00     0.039 A 
ATOM     35  C   UNL A   1      36.311  33.479  28.322  1.00  0.00     0.014 A 
ATOM     36  C   UNL A   1      34.925  31.501  28.513  1.00  0.00     0.014 A 
ATOM     37  C   UNL A   1      37.395  32.775  28.828  1.00  0.00     0.010 A 
ATOM     38  C   UNL A   1      35.975  30.829  29.117  1.00  0.00     0.010 A 
ATOM     39  C   UNL A   1      37.204  31.474  29.307  1.00  0.00    -0.014 A 
BRANCH  39  40
ATOM     40  C   UNL A   1      38.266  30.793  30.074  1.00  0.00     0.031 A 
ATOM     41  C   UNL A   1      38.481  31.143  31.511  1.00  0.00     0.074 A 
ATOM     42  C   UNL A   1      39.075  29.933  29.428  1.00  0.00     0.049 A 
ATOM     43  N   UNL A   1      39.416  30.737  32.328  1.00  0.00    -0.248 NA
ATOM     44  C   UNL A   1      37.541  32.109  32.102  1.00  0.00     0.031 C 
ATOM     45  C   UNL A   1      38.976  29.583  28.007  1.00  0.00     0.029 A 
ATOM     46  N   UNL A   1      40.143  29.200  29.873  1.00  0.00    -0.354 N 
ATOM     47  C   UNL A   1      39.191  31.415  33.518  1.00  0.00     0.074 A 
ATOM     48  C   UNL A   1      38.066  32.296  33.303  1.00  0.00     0.031 C 
ATOM     49  C   UNL A   1      39.918  28.677  27.708  1.00  0.00     0.029 A 
ATOM     50  C   UNL A   1      40.713  28.415  28.900  1.00  0.00     0.049 A 
ATOM     51  H   UNL A   1      40.470  29.232  30.801  1.00  0.00     0.167 HD
ATOM     52  C   UNL A   1      39.859  31.289  34.687  1.00  0.00     0.037 A 
ATOM     53  C   UNL A   1      41.765  27.580  28.974  1.00  0.00     0.037 A 
ATOM     54  C   UNL A   1      40.960  30.383  34.879  1.00  0.00     0.049 A 
ATOM     55  C   UNL A   1      42.464  27.432  30.295  1.00  0.00     0.074 A 
ATOM     56  C   UNL A   1      41.688  30.137  36.028  1.00  0.00     0.029 A 
ATOM     57  N   UNL A   1      41.484  29.566  33.886  1.00  0.00    -0.354 N 
ATOM     58  N   UNL A   1      42.214  28.038  31.433  1.00  0.00    -0.248 NA
ATOM     59  C   UNL A   1      43.584  26.487  30.350  1.00  0.00     0.031 C 
ATOM     60  C   UNL A   1      42.673  29.191  35.722  1.00  0.00     0.029 A 
ATOM     61  C   UNL A   1      42.533  28.819  34.393  1.00  0.00     0.049 A 
ATOM     62  H   UNL A   1      41.159  29.526  32.958  1.00  0.00     0.167 HD
ATOM     63  C   UNL A   1      43.129  27.535  32.343  1.00  0.00     0.074 A 
ATOM     64  C   UNL A   1      43.929  26.558  31.629  1.00  0.00     0.031 C 
ATOM     65  C   UNL A   1      43.299  27.851  33.650  1.00  0.00     0.037 A 
BRANCH  52  66
ATOM     66  C   UNL A   1      39.410  32.150  35.830  1.00  0.00     0.064 A 
ATOM     67  C   UNL A   1      39.954  33.426  36.048  1.00  0.00     0.173 A 
ATOM     68  C   UNL A   1      38.430  31.694  36.725  1.00  0.00     0.173 A 
ATOM     69  F   UNL A   1      40.909  33.900  35.234  1.00  0.00    -0.203 F 
ATOM     70  C   UNL A   1      39.561  34.197  37.139  1.00  0.00     0.198 A 
ATOM     71  C   UNL A   1      38.018  32.481  37.797  1.00  0.00     0.198 A 
ATOM     72  F   UNL A   1      37.879  30.483  36.565  1.00  0.00    -0.203 F 
ATOM     73  F   UNL A   1      40.140  35.385  37.361  1.00  0.00    -0.200 F 
ATOM     74  C   UNL A   1      38.590  33.727  38.010  1.00  0.00     0.200 A 
ATOM     75  F   UNL A   1      37.074  32.028  38.635  1.00  0.00    -0.200 F 
ATOM     76  F   UNL A   1      38.214  34.469  39.060  1.00  0.00    -0.200 F 
ENDBRANCH  52  66
BRANCH  53  77
ATOM     77  C   UNL A   1      42.181  26.800  27.781  1.00  0.00     0.064 A 
ATOM     78  C   UNL A   1      43.154  27.296  26.902  1.00  0.00     0.173 A 
ATOM     79  C   UNL A   1      41.635  25.538  27.501  1.00  0.00     0.173 A 
ATOM     80  F   UNL A   1      43.695  28.504  27.119  1.00  0.00    -0.203 F 
ATOM     81  C   UNL A   1      43.552  26.571  25.781  1.00  0.00     0.198 A 
ATOM     82  C   UNL A   1      42.053  24.801  26.393  1.00  0.00     0.198 A 
ATOM     83  F   UNL A   1      40.707  25.012  28.314  1.00  0.00    -0.203 F 
ATOM     84  F   UNL A   1      44.457  27.087  24.938  1.00  0.00    -0.200 F 
ATOM     85  C   UNL A   1      43.007  25.321  25.531  1.00  0.00     0.200 A 
ATOM     86  F   UNL A   1      41.534  23.588  26.162  1.00  0.00    -0.200 F 
ATOM     87  F   UNL A   1      43.394  24.622  24.455  1.00  0.00    -0.200 F 
ENDBRANCH  53  77
BRANCH  65  88
ATOM     88  C   UNL A   1      44.371  27.111  34.388  1.00  0.00     0.064 A 
ATOM     89  C   UNL A   1      44.116  25.880  35.009  1.00  0.00     0.173 A 
ATOM     90  C   UNL A   1      45.677  27.619  34.436  1.00  0.00     0.173 A 
ATOM     91  F   UNL A   1      42.878  25.364  35.002  1.00  0.00    -0.203 F 
ATOM     92  C   UNL A   1      45.128  25.192  35.669  1.00  0.00     0.198 A 
ATOM     93  C   UNL A   1      46.693  26.916  35.075  1.00  0.00     0.198 A 
ATOM     94  F   UNL A   1      45.969  28.792  33.852  1.00  0.00    -0.203 F 
ATOM     95  F   UNL A   1      44.855  24.039  36.292  1.00  0.00    -0.200 F 
ATOM     96  C   UNL A   1      46.417  25.708  35.696  1.00  0.00     0.200 A 
ATOM     97  F   UNL A   1      47.939  27.408  35.090  1.00  0.00    -0.200 F 
ATOM     98  F   UNL A   1      47.393  25.040  36.326  1.00  0.00    -0.200 F 
ENDBRANCH  65  88
ENDBRANCH  39  40
ENDBRANCH  31  34
ENDBRANCH  29  30
ENDBRANCH  28  29
ENDBRANCH   1  28
TORSDOF 15
ENDMDL
