MODEL 1
REMARK VINA RESULT:     -12.2      0.000      0.000
REMARK SMILES C[C@@H]1C[N@H+](Cc2ccccc2)CC[C@@H]1CC(=O)NCCCNC(=O)c1ccc(-c2c3nc(c(-c4c(F)c(F)c(F)c(F)c4F)c4ccc([nH]4)c(-c4c(F)c(F)c(F)c(F)c4F)c4nc(c(-c5c(F)c(F)c(F)c(F)c5F)c5ccc2[nH]5)C=C4)C=C3)cc1
REMARK SMILES IDX 19 1 18 2 16 3 17 4 15 6 14 7 1 8 2 9 3 10 4 11 13 12 12 13
REMARK SMILES IDX 5 15 6 16 7 17 11 18 8 19 10 20 9 21 20 22 21 23 22 24 23 25
REMARK SMILES IDX 24 27 25 28 26 29 87 30 27 31 86 32 28 33 29 34 30 35 80 36
REMARK SMILES IDX 31 37 85 38 79 39 81 40 32 41 84 42 78 43 77 44 33 46 65 47
REMARK SMILES IDX 45 48 64 49 46 50 49 51 63 52 82 53 47 54 48 55 62 57 83 58
REMARK SMILES IDX 50 59 34 60 35 61 43 62 36 63 37 64 41 65 44 66 38 67 39 68
REMARK SMILES IDX 42 69 40 70 66 71 67 72 75 73 68 74 69 75 73 76 76 77 70 78
REMARK SMILES IDX 71 79 74 80 72 81 51 82 52 83 60 84 53 85 54 86 58 87 61 88
REMARK SMILES IDX 55 89 56 90 59 91 57 92
REMARK H PARENT 18 5 4 14 22 26 81 45 49 56
REMARK Flexibility Score: inf
ROOT
ATOM      1  C   UNL A   1      32.204  27.839  23.075  1.00  0.00     0.117 C 
ENDROOT
BRANCH   1   2
ATOM      2  N   UNL A   1      32.550  27.165  21.844  1.00  0.00    -0.356 N 
ATOM      3  C   UNL A   1      33.053  25.930  21.611  1.00  0.00     0.220 C 
ATOM      4  O   UNL A   1      33.040  25.527  20.444  1.00  0.00    -0.275 OA
ATOM      5  H   UNL A   1      32.391  27.698  21.031  1.00  0.00     0.163 HD
BRANCH   3   6
ATOM      6  C   UNL A   1      33.596  25.057  22.722  1.00  0.00     0.104 C 
BRANCH   6   7
ATOM      7  C   UNL A   1      32.683  24.012  23.412  1.00  0.00     0.012 C 
ATOM      8  C   UNL A   1      33.011  25.249  25.719  1.00  0.00     0.014 C 
ATOM      9  C   UNL A   1      32.186  24.292  24.863  1.00  0.00     0.045 C 
ATOM     10  C   UNL A   1      31.748  23.032  25.648  1.00  0.00     0.265 C 
ATOM     11  N   UNL A   1      32.496  21.811  25.435  1.00  0.00    -0.331 N 
ATOM     12  C   UNL A   1      33.357  22.631  23.251  1.00  0.00     0.066 C 
ATOM     13  C   UNL A   1      32.689  21.504  24.030  1.00  0.00     0.262 C 
ATOM     14  H   UNL A   1      31.864  21.081  25.762  1.00  0.00     0.348 HD
BRANCH  11  15
ATOM     15  C   UNL A   1      33.566  21.470  26.376  1.00  0.00     0.299 C 
BRANCH  15  16
ATOM     16  C   UNL A   1      34.983  21.809  25.974  1.00  0.00     0.006 A 
ATOM     17  C   UNL A   1      35.801  20.855  25.349  1.00  0.00     0.009 A 
ATOM     18  C   UNL A   1      35.501  23.092  26.176  1.00  0.00     0.009 A 
ATOM     19  C   UNL A   1      37.053  21.209  24.843  1.00  0.00     0.001 A 
ATOM     20  C   UNL A   1      36.738  23.459  25.643  1.00  0.00     0.001 A 
ATOM     21  C   UNL A   1      37.507  22.521  24.962  1.00  0.00     0.000 A 
ENDBRANCH  15  16
ENDBRANCH  11  15
ENDBRANCH   6   7
ENDBRANCH   3   6
ENDBRANCH   1   2
BRANCH   1  22
ATOM     22  C   UNL A   1      33.165  28.942  23.517  1.00  0.00     0.042 C 
BRANCH  22  23
ATOM     23  C   UNL A   1      33.444  29.065  25.013  1.00  0.00     0.118 C 
BRANCH  23  24
ATOM     24  N   UNL A   1      32.743  30.149  25.662  1.00  0.00    -0.352 N 
ATOM     25  C   UNL A   1      33.120  30.907  26.743  1.00  0.00     0.251 C 
ATOM     26  H   UNL A   1      31.869  30.378  25.272  1.00  0.00     0.163 HD
ATOM     27  O   UNL A   1      32.353  31.767  27.171  1.00  0.00    -0.269 OA
BRANCH  25  28
ATOM     28  C   UNL A   1      34.412  30.685  27.440  1.00  0.00     0.039 A 
ATOM     29  C   UNL A   1      34.635  29.421  27.996  1.00  0.00     0.014 A 
ATOM     30  C   UNL A   1      35.364  31.696  27.626  1.00  0.00     0.014 A 
ATOM     31  C   UNL A   1      35.809  29.158  28.705  1.00  0.00     0.010 A 
ATOM     32  C   UNL A   1      36.561  31.419  28.303  1.00  0.00     0.010 A 
ATOM     33  C   UNL A   1      36.792  30.150  28.857  1.00  0.00    -0.014 A 
BRANCH  33  34
ATOM     34  C   UNL A   1      38.039  29.841  29.610  1.00  0.00     0.031 A 
ATOM     35  C   UNL A   1      38.265  30.393  30.991  1.00  0.00     0.074 A 
ATOM     36  C   UNL A   1      38.966  29.029  29.064  1.00  0.00     0.049 A 
ATOM     37  N   UNL A   1      39.255  30.169  31.821  1.00  0.00    -0.248 NA
ATOM     38  C   UNL A   1      37.251  31.326  31.505  1.00  0.00     0.031 C 
ATOM     39  C   UNL A   1      38.886  28.440  27.728  1.00  0.00     0.029 A 
ATOM     40  N   UNL A   1      40.151  28.553  29.569  1.00  0.00    -0.354 N 
ATOM     41  C   UNL A   1      38.982  30.924  32.953  1.00  0.00     0.074 A 
ATOM     42  C   UNL A   1      37.756  31.649  32.688  1.00  0.00     0.031 C 
ATOM     43  C   UNL A   1      39.964  27.664  27.527  1.00  0.00     0.029 A 
ATOM     44  C   UNL A   1      40.821  27.717  28.709  1.00  0.00     0.049 A 
ATOM     45  H   UNL A   1      40.490  28.789  30.463  1.00  0.00     0.167 HD
ATOM     46  C   UNL A   1      39.677  30.993  34.115  1.00  0.00     0.037 A 
ATOM     47  C   UNL A   1      41.990  27.064  28.855  1.00  0.00     0.037 A 
ATOM     48  C   UNL A   1      40.890  30.267  34.392  1.00  0.00     0.049 A 
ATOM     49  C   UNL A   1      42.753  27.175  30.147  1.00  0.00     0.074 A 
ATOM     50  C   UNL A   1      41.631  30.239  35.563  1.00  0.00     0.029 A 
ATOM     51  N   UNL A   1      41.545  29.446  33.488  1.00  0.00    -0.354 N 
ATOM     52  N   UNL A   1      42.445  27.836  31.235  1.00  0.00    -0.248 NA
ATOM     53  C   UNL A   1      44.024  26.439  30.233  1.00  0.00     0.031 C 
ATOM     54  C   UNL A   1      42.757  29.436  35.353  1.00  0.00     0.029 A 
ATOM     55  C   UNL A   1      42.694  28.928  34.066  1.00  0.00     0.049 A 
ATOM     56  H   UNL A   1      41.239  29.257  32.572  1.00  0.00     0.167 HD
ATOM     57  C   UNL A   1      43.465  27.576  32.142  1.00  0.00     0.074 A 
ATOM     58  C   UNL A   1      44.396  26.686  31.481  1.00  0.00     0.031 C 
ATOM     59  C   UNL A   1      43.614  28.037  33.407  1.00  0.00     0.037 A 
BRANCH  46  60
ATOM     60  C   UNL A   1      39.141  31.890  35.192  1.00  0.00     0.064 A 
ATOM     61  C   UNL A   1      38.380  31.382  36.256  1.00  0.00     0.173 A 
ATOM     62  C   UNL A   1      39.442  33.260  35.195  1.00  0.00     0.173 A 
ATOM     63  F   UNL A   1      38.060  30.079  36.294  1.00  0.00    -0.203 F 
ATOM     64  C   UNL A   1      37.922  32.217  37.271  1.00  0.00     0.198 A 
ATOM     65  C   UNL A   1      39.004  34.087  36.226  1.00  0.00     0.198 A 
ATOM     66  F   UNL A   1      40.175  33.793  34.206  1.00  0.00    -0.203 F 
ATOM     67  F   UNL A   1      37.167  31.716  38.259  1.00  0.00    -0.200 F 
ATOM     68  C   UNL A   1      38.240  33.567  37.259  1.00  0.00     0.200 A 
ATOM     69  F   UNL A   1      39.323  35.390  36.220  1.00  0.00    -0.200 F 
ATOM     70  F   UNL A   1      37.808  34.367  38.243  1.00  0.00    -0.200 F 
ENDBRANCH  46  60
BRANCH  47  71
ATOM     71  C   UNL A   1      42.508  26.220  27.746  1.00  0.00     0.064 A 
ATOM     72  C   UNL A   1      43.402  26.740  26.800  1.00  0.00     0.173 A 
ATOM     73  C   UNL A   1      42.109  24.883  27.605  1.00  0.00     0.173 A 
ATOM     74  F   UNL A   1      43.791  28.021  26.880  1.00  0.00    -0.203 F 
ATOM     75  C   UNL A   1      43.863  25.959  25.743  1.00  0.00     0.198 A 
ATOM     76  C   UNL A   1      42.592  24.097  26.563  1.00  0.00     0.198 A 
ATOM     77  F   UNL A   1      41.255  24.341  28.484  1.00  0.00    -0.203 F 
ATOM     78  F   UNL A   1      44.683  26.492  24.827  1.00  0.00    -0.200 F 
ATOM     79  C   UNL A   1      43.463  24.636  25.628  1.00  0.00     0.200 A 
ATOM     80  F   UNL A   1      42.210  22.815  26.461  1.00  0.00    -0.200 F 
ATOM     81  F   UNL A   1      43.909  23.884  24.613  1.00  0.00    -0.200 F 
ENDBRANCH  47  71
BRANCH  59  82
ATOM     82  C   UNL A   1      44.814  27.567  34.176  1.00  0.00     0.064 A 
ATOM     83  C   UNL A   1      44.788  26.382  34.927  1.00  0.00     0.173 A 
ATOM     84  C   UNL A   1      46.015  28.291  34.133  1.00  0.00     0.173 A 
ATOM     85  F   UNL A   1      43.658  25.664  35.014  1.00  0.00    -0.203 F 
ATOM     86  C   UNL A   1      45.914  25.952  35.626  1.00  0.00     0.198 A 
ATOM     87  C   UNL A   1      47.146  27.843  34.810  1.00  0.00     0.198 A 
ATOM     88  F   UNL A   1      46.095  29.428  33.425  1.00  0.00    -0.203 F 
ATOM     89  F   UNL A   1      45.853  24.840  36.371  1.00  0.00    -0.200 F 
ATOM     90  C   UNL A   1      47.093  26.679  35.561  1.00  0.00     0.200 A 
ATOM     91  F   UNL A   1      48.289  28.542  34.739  1.00  0.00    -0.200 F 
ATOM     92  F   UNL A   1      48.177  26.260  36.230  1.00  0.00    -0.200 F 
ENDBRANCH  59  82
ENDBRANCH  33  34
ENDBRANCH  25  28
ENDBRANCH  23  24
ENDBRANCH  22  23
ENDBRANCH   1  22
TORSDOF 13
ENDMDL
MODEL 2
REMARK VINA RESULT:     -12.1      2.314      4.106
REMARK SMILES C[C@@H]1C[N@H+](Cc2ccccc2)CC[C@@H]1CC(=O)NCCCNC(=O)c1ccc(-c2c3nc(c(-c4c(F)c(F)c(F)c(F)c4F)c4ccc([nH]4)c(-c4c(F)c(F)c(F)c(F)c4F)c4nc(c(-c5c(F)c(F)c(F)c(F)c5F)c5ccc2[nH]5)C=C4)C=C3)cc1
REMARK SMILES IDX 19 1 18 2 16 3 17 4 15 6 14 7 1 8 2 9 3 10 4 11 13 12 12 13
REMARK SMILES IDX 5 15 6 16 7 17 11 18 8 19 10 20 9 21 20 22 21 23 22 24 23 25
REMARK SMILES IDX 24 27 25 28 26 29 87 30 27 31 86 32 28 33 29 34 30 35 80 36
REMARK SMILES IDX 31 37 85 38 79 39 81 40 32 41 84 42 78 43 77 44 33 46 65 47
REMARK SMILES IDX 45 48 64 49 46 50 49 51 63 52 82 53 47 54 48 55 62 57 83 58
REMARK SMILES IDX 50 59 34 60 35 61 43 62 36 63 37 64 41 65 44 66 38 67 39 68
REMARK SMILES IDX 42 69 40 70 66 71 67 72 75 73 68 74 69 75 73 76 76 77 70 78
REMARK SMILES IDX 71 79 74 80 72 81 51 82 52 83 60 84 53 85 54 86 58 87 61 88
REMARK SMILES IDX 55 89 56 90 59 91 57 92
REMARK H PARENT 18 5 4 14 22 26 81 45 49 56
REMARK Flexibility Score: inf
ROOT
ATOM      1  C   UNL A   1      31.785  30.527  26.648  1.00  0.00     0.117 C 
ENDROOT
BRANCH   1   2
ATOM      2  N   UNL A   1      32.938  30.061  27.386  1.00  0.00    -0.356 N 
ATOM      3  C   UNL A   1      33.872  29.126  27.091  1.00  0.00     0.220 C 
ATOM      4  O   UNL A   1      34.879  29.092  27.804  1.00  0.00    -0.275 OA
ATOM      5  H   UNL A   1      33.068  30.503  28.256  1.00  0.00     0.163 HD
BRANCH   3   6
ATOM      6  C   UNL A   1      33.715  28.169  25.930  1.00  0.00     0.104 C 
BRANCH   6   7
ATOM      7  C   UNL A   1      32.985  26.816  26.125  1.00  0.00     0.012 C 
ATOM      8  C   UNL A   1      34.028  25.927  23.871  1.00  0.00     0.014 C 
ATOM      9  C   UNL A   1      33.380  25.612  25.216  1.00  0.00     0.045 C 
ATOM     10  C   UNL A   1      32.301  24.509  25.103  1.00  0.00     0.265 C 
ATOM     11  N   UNL A   1      30.913  24.923  25.076  1.00  0.00    -0.331 N 
ATOM     12  C   UNL A   1      31.467  27.105  26.133  1.00  0.00     0.066 C 
ATOM     13  C   UNL A   1      30.584  25.862  26.131  1.00  0.00     0.262 C 
ATOM     14  H   UNL A   1      30.404  24.078  25.332  1.00  0.00     0.348 HD
BRANCH  11  15
ATOM     15  C   UNL A   1      30.250  25.073  23.779  1.00  0.00     0.299 C 
BRANCH  15  16
ATOM     16  C   UNL A   1      29.975  26.477  23.292  1.00  0.00     0.006 A 
ATOM     17  C   UNL A   1      28.725  27.078  23.502  1.00  0.00     0.009 A 
ATOM     18  C   UNL A   1      30.971  27.227  22.659  1.00  0.00     0.009 A 
ATOM     19  C   UNL A   1      28.519  28.423  23.190  1.00  0.00     0.001 A 
ATOM     20  C   UNL A   1      30.779  28.580  22.375  1.00  0.00     0.001 A 
ATOM     21  C   UNL A   1      29.558  29.183  22.656  1.00  0.00     0.000 A 
ENDBRANCH  15  16
ENDBRANCH  11  15
ENDBRANCH   6   7
ENDBRANCH   3   6
ENDBRANCH   1   2
BRANCH   1  22
ATOM     22  C   UNL A   1      31.402  31.988  26.875  1.00  0.00     0.042 C 
BRANCH  22  23
ATOM     23  C   UNL A   1      32.533  33.015  26.863  1.00  0.00     0.118 C 
BRANCH  23  24
ATOM     24  N   UNL A   1      32.262  34.207  27.634  1.00  0.00    -0.352 N 
ATOM     25  C   UNL A   1      32.967  34.745  28.683  1.00  0.00     0.251 C 
ATOM     26  H   UNL A   1      31.457  34.705  27.369  1.00  0.00     0.163 HD
ATOM     27  O   UNL A   1      32.542  35.757  29.236  1.00  0.00    -0.269 OA
BRANCH  25  28
ATOM     28  C   UNL A   1      34.207  34.111  29.197  1.00  0.00     0.039 A 
ATOM     29  C   UNL A   1      34.061  33.058  30.107  1.00  0.00     0.014 A 
ATOM     30  C   UNL A   1      35.490  34.568  28.874  1.00  0.00     0.014 A 
ATOM     31  C   UNL A   1      35.186  32.447  30.665  1.00  0.00     0.010 A 
ATOM     32  C   UNL A   1      36.620  33.927  29.404  1.00  0.00     0.010 A 
ATOM     33  C   UNL A   1      36.479  32.865  30.313  1.00  0.00    -0.014 A 
BRANCH  33  34
ATOM     34  C   UNL A   1      37.662  32.191  30.916  1.00  0.00     0.031 A 
ATOM     35  C   UNL A   1      38.122  32.536  32.306  1.00  0.00     0.074 A 
ATOM     36  C   UNL A   1      38.312  31.236  30.223  1.00  0.00     0.049 A 
ATOM     37  N   UNL A   1      39.084  31.998  33.017  1.00  0.00    -0.248 NA
ATOM     38  C   UNL A   1      37.416  33.632  32.985  1.00  0.00     0.031 C 
ATOM     39  C   UNL A   1      37.988  30.816  28.860  1.00  0.00     0.029 A 
ATOM     40  N   UNL A   1      39.375  30.439  30.574  1.00  0.00    -0.354 N 
ATOM     41  C   UNL A   1      39.094  32.683  34.224  1.00  0.00     0.074 A 
ATOM     42  C   UNL A   1      38.073  33.706  34.135  1.00  0.00     0.031 C 
ATOM     43  C   UNL A   1      38.819  29.824  28.498  1.00  0.00     0.029 A 
ATOM     44  C   UNL A   1      39.747  29.552  29.592  1.00  0.00     0.049 A 
ATOM     45  H   UNL A   1      39.828  30.497  31.447  1.00  0.00     0.167 HD
ATOM     46  C   UNL A   1      39.869  32.468  35.316  1.00  0.00     0.037 A 
ATOM     47  C   UNL A   1      40.723  28.624  29.575  1.00  0.00     0.037 A 
ATOM     48  C   UNL A   1      40.878  31.445  35.419  1.00  0.00     0.049 A 
ATOM     49  C   UNL A   1      41.584  28.420  30.792  1.00  0.00     0.074 A 
ATOM     50  C   UNL A   1      41.674  31.125  36.507  1.00  0.00     0.029 A 
ATOM     51  N   UNL A   1      41.237  30.581  34.396  1.00  0.00    -0.354 N 
ATOM     52  N   UNL A   1      41.534  29.027  31.952  1.00  0.00    -0.248 NA
ATOM     53  C   UNL A   1      42.632  27.393  30.699  1.00  0.00     0.031 C 
ATOM     54  C   UNL A   1      42.544  30.096  36.129  1.00  0.00     0.029 A 
ATOM     55  C   UNL A   1      42.259  29.746  34.820  1.00  0.00     0.049 A 
ATOM     56  H   UNL A   1      40.826  30.563  33.502  1.00  0.00     0.167 HD
ATOM     57  C   UNL A   1      42.521  28.441  32.733  1.00  0.00     0.074 A 
ATOM     58  C   UNL A   1      43.147  27.419  31.921  1.00  0.00     0.031 C 
ATOM     59  C   UNL A   1      42.875  28.727  34.010  1.00  0.00     0.037 A 
BRANCH  46  60
ATOM     60  C   UNL A   1      39.657  33.359  36.504  1.00  0.00     0.064 A 
ATOM     61  C   UNL A   1      40.299  34.602  36.611  1.00  0.00     0.173 A 
ATOM     62  C   UNL A   1      38.755  32.996  37.516  1.00  0.00     0.173 A 
ATOM     63  F   UNL A   1      41.175  34.991  35.672  1.00  0.00    -0.203 F 
ATOM     64  C   UNL A   1      40.064  35.439  37.699  1.00  0.00     0.198 A 
ATOM     65  C   UNL A   1      38.503  33.847  38.589  1.00  0.00     0.198 A 
ATOM     66  F   UNL A   1      38.108  31.823  37.455  1.00  0.00    -0.203 F 
ATOM     67  F   UNL A   1      40.715  36.606  37.798  1.00  0.00    -0.200 F 
ATOM     68  C   UNL A   1      39.161  35.063  38.683  1.00  0.00     0.200 A 
ATOM     69  F   UNL A   1      37.621  33.489  39.533  1.00  0.00    -0.200 F 
ATOM     70  F   UNL A   1      38.927  35.875  39.723  1.00  0.00    -0.200 F 
ENDBRANCH  46  60
BRANCH  47  71
ATOM     71  C   UNL A   1      40.928  27.791  28.361  1.00  0.00     0.064 A 
ATOM     72  C   UNL A   1      40.291  26.550  28.221  1.00  0.00     0.173 A 
ATOM     73  C   UNL A   1      41.773  28.213  27.326  1.00  0.00     0.173 A 
ATOM     74  F   UNL A   1      39.493  26.093  29.198  1.00  0.00    -0.203 F 
ATOM     75  C   UNL A   1      40.508  25.754  27.098  1.00  0.00     0.198 A 
ATOM     76  C   UNL A   1      41.968  27.429  26.192  1.00  0.00     0.198 A 
ATOM     77  F   UNL A   1      42.405  29.393  27.415  1.00  0.00    -0.203 F 
ATOM     78  F   UNL A   1      39.921  24.553  27.008  1.00  0.00    -0.200 F 
ATOM     79  C   UNL A   1      41.341  26.197  26.082  1.00  0.00     0.200 A 
ATOM     80  F   UNL A   1      42.766  27.866  25.207  1.00  0.00    -0.200 F 
ATOM     81  F   UNL A   1      41.546  25.434  25.000  1.00  0.00    -0.200 F 
ENDBRANCH  47  71
BRANCH  59  82
ATOM     82  C   UNL A   1      43.973  27.907  34.622  1.00  0.00     0.064 A 
ATOM     83  C   UNL A   1      43.710  26.686  35.261  1.00  0.00     0.173 A 
ATOM     84  C   UNL A   1      45.308  28.329  34.537  1.00  0.00     0.173 A 
ATOM     85  F   UNL A   1      42.448  26.247  35.383  1.00  0.00    -0.203 F 
ATOM     86  C   UNL A   1      44.741  25.930  35.813  1.00  0.00     0.198 A 
ATOM     87  C   UNL A   1      46.339  27.557  35.066  1.00  0.00     0.198 A 
ATOM     88  F   UNL A   1      45.615  29.486  33.930  1.00  0.00    -0.203 F 
ATOM     89  F   UNL A   1      44.461  24.788  36.457  1.00  0.00    -0.200 F 
ATOM     90  C   UNL A   1      46.054  26.362  35.709  1.00  0.00     0.200 A 
ATOM     91  F   UNL A   1      47.610  27.971  34.956  1.00  0.00    -0.200 F 
ATOM     92  F   UNL A   1      47.046  25.630  36.237  1.00  0.00    -0.200 F 
ENDBRANCH  59  82
ENDBRANCH  33  34
ENDBRANCH  25  28
ENDBRANCH  23  24
ENDBRANCH  22  23
ENDBRANCH   1  22
TORSDOF 13
ENDMDL
MODEL 3
REMARK VINA RESULT:     -12.0      4.147      8.897
REMARK SMILES C[C@@H]1C[N@H+](Cc2ccccc2)CC[C@@H]1CC(=O)NCCCNC(=O)c1ccc(-c2c3nc(c(-c4c(F)c(F)c(F)c(F)c4F)c4ccc([nH]4)c(-c4c(F)c(F)c(F)c(F)c4F)c4nc(c(-c5c(F)c(F)c(F)c(F)c5F)c5ccc2[nH]5)C=C4)C=C3)cc1
REMARK SMILES IDX 19 1 18 2 16 3 17 4 15 6 14 7 1 8 2 9 3 10 4 11 13 12 12 13
REMARK SMILES IDX 5 15 6 16 7 17 11 18 8 19 10 20 9 21 20 22 21 23 22 24 23 25
REMARK SMILES IDX 24 27 25 28 26 29 87 30 27 31 86 32 28 33 29 34 30 35 80 36
REMARK SMILES IDX 31 37 85 38 79 39 81 40 32 41 84 42 78 43 77 44 33 46 65 47
REMARK SMILES IDX 45 48 64 49 46 50 49 51 63 52 82 53 47 54 48 55 62 57 83 58
REMARK SMILES IDX 50 59 34 60 35 61 43 62 36 63 37 64 41 65 44 66 38 67 39 68
REMARK SMILES IDX 42 69 40 70 66 71 67 72 75 73 68 74 69 75 73 76 76 77 70 78
REMARK SMILES IDX 71 79 74 80 72 81 51 82 52 83 60 84 53 85 54 86 58 87 61 88
REMARK SMILES IDX 55 89 56 90 59 91 57 92
REMARK H PARENT 18 5 4 14 22 26 81 45 49 56
REMARK Flexibility Score: inf
ROOT
ATOM      1  C   UNL A   1      35.206  21.162  25.454  1.00  0.00     0.117 C 
ENDROOT
BRANCH   1   2
ATOM      2  N   UNL A   1      34.051  20.328  25.700  1.00  0.00    -0.356 N 
ATOM      3  C   UNL A   1      32.942  20.095  24.960  1.00  0.00     0.220 C 
ATOM      4  O   UNL A   1      32.219  19.158  25.310  1.00  0.00    -0.275 OA
ATOM      5  H   UNL A   1      34.077  19.843  26.557  1.00  0.00     0.163 HD
BRANCH   3   6
ATOM      6  C   UNL A   1      32.597  20.923  23.741  1.00  0.00     0.104 C 
BRANCH   6   7
ATOM      7  C   UNL A   1      31.832  22.261  23.897  1.00  0.00     0.012 C 
ATOM      8  C   UNL A   1      33.911  23.562  22.924  1.00  0.00     0.014 C 
ATOM      9  C   UNL A   1      32.414  23.541  23.222  1.00  0.00     0.045 C 
ATOM     10  C   UNL A   1      31.918  24.873  23.833  1.00  0.00     0.265 C 
ATOM     11  N   UNL A   1      31.713  24.923  25.265  1.00  0.00    -0.331 N 
ATOM     12  C   UNL A   1      31.525  22.447  25.399  1.00  0.00     0.066 C 
ATOM     13  C   UNL A   1      30.935  23.805  25.764  1.00  0.00     0.262 C 
ATOM     14  H   UNL A   1      31.098  25.727  25.393  1.00  0.00     0.348 HD
BRANCH  11  15
ATOM     15  C   UNL A   1      32.783  25.458  26.110  1.00  0.00     0.299 C 
BRANCH  15  16
ATOM     16  C   UNL A   1      32.773  26.943  26.393  1.00  0.00     0.006 A 
ATOM     17  C   UNL A   1      31.637  27.563  26.933  1.00  0.00     0.009 A 
ATOM     18  C   UNL A   1      33.909  27.726  26.164  1.00  0.00     0.009 A 
ATOM     19  C   UNL A   1      31.677  28.900  27.335  1.00  0.00     0.001 A 
ATOM     20  C   UNL A   1      33.963  29.053  26.594  1.00  0.00     0.001 A 
ATOM     21  C   UNL A   1      32.852  29.636  27.195  1.00  0.00     0.000 A 
ENDBRANCH  15  16
ENDBRANCH  11  15
ENDBRANCH   6   7
ENDBRANCH   3   6
ENDBRANCH   1   2
BRANCH   1  22
ATOM     22  C   UNL A   1      35.155  22.559  26.072  1.00  0.00     0.042 C 
BRANCH  22  23
ATOM     23  C   UNL A   1      36.461  23.351  26.113  1.00  0.00     0.118 C 
BRANCH  23  24
ATOM     24  N   UNL A   1      37.650  22.545  25.954  1.00  0.00    -0.352 N 
ATOM     25  C   UNL A   1      38.948  22.829  26.303  1.00  0.00     0.251 C 
ATOM     26  H   UNL A   1      37.509  21.666  25.535  1.00  0.00     0.163 HD
ATOM     27  O   UNL A   1      39.831  22.016  26.043  1.00  0.00    -0.269 OA
BRANCH  25  28
ATOM     28  C   UNL A   1      39.320  24.114  26.947  1.00  0.00     0.039 A 
ATOM     29  C   UNL A   1      40.029  25.039  26.173  1.00  0.00     0.014 A 
ATOM     30  C   UNL A   1      39.062  24.398  28.293  1.00  0.00     0.014 A 
ATOM     31  C   UNL A   1      40.451  26.249  26.730  1.00  0.00     0.010 A 
ATOM     32  C   UNL A   1      39.450  25.630  28.840  1.00  0.00     0.010 A 
ATOM     33  C   UNL A   1      40.157  26.565  28.066  1.00  0.00    -0.014 A 
BRANCH  33  34
ATOM     34  C   UNL A   1      40.610  27.865  28.632  1.00  0.00     0.031 A 
ATOM     35  C   UNL A   1      42.065  28.117  28.921  1.00  0.00     0.074 A 
ATOM     36  C   UNL A   1      39.713  28.844  28.860  1.00  0.00     0.049 A 
ATOM     37  N   UNL A   1      42.648  29.212  29.344  1.00  0.00    -0.248 NA
ATOM     38  C   UNL A   1      42.986  26.989  28.716  1.00  0.00     0.031 C 
ATOM     39  C   UNL A   1      38.271  28.731  28.645  1.00  0.00     0.029 A 
ATOM     40  N   UNL A   1      39.884  30.129  29.314  1.00  0.00    -0.354 N 
ATOM     41  C   UNL A   1      43.999  28.910  29.450  1.00  0.00     0.074 A 
ATOM     42  C   UNL A   1      44.145  27.515  29.089  1.00  0.00     0.031 C 
ATOM     43  C   UNL A   1      37.690  29.905  28.945  1.00  0.00     0.029 A 
ATOM     44  C   UNL A   1      38.714  30.846  29.394  1.00  0.00     0.049 A 
ATOM     45  H   UNL A   1      40.761  30.503  29.559  1.00  0.00     0.167 HD
ATOM     46  C   UNL A   1      45.026  29.724  29.795  1.00  0.00     0.037 A 
ATOM     47  C   UNL A   1      38.489  32.116  29.781  1.00  0.00     0.037 A 
ATOM     48  C   UNL A   1      44.893  31.115  30.142  1.00  0.00     0.049 A 
ATOM     49  C   UNL A   1      39.645  32.992  30.181  1.00  0.00     0.074 A 
ATOM     50  C   UNL A   1      45.889  32.026  30.454  1.00  0.00     0.029 A 
ATOM     51  N   UNL A   1      43.689  31.797  30.229  1.00  0.00    -0.354 N 
ATOM     52  N   UNL A   1      40.925  32.713  30.206  1.00  0.00    -0.248 NA
ATOM     53  C   UNL A   1      39.324  34.366  30.598  1.00  0.00     0.031 C 
ATOM     54  C   UNL A   1      45.284  33.247  30.773  1.00  0.00     0.029 A 
ATOM     55  C   UNL A   1      43.916  33.109  30.616  1.00  0.00     0.049 A 
ATOM     56  H   UNL A   1      42.804  31.408  30.043  1.00  0.00     0.167 HD
ATOM     57  C   UNL A   1      41.563  33.877  30.613  1.00  0.00     0.074 A 
ATOM     58  C   UNL A   1      40.531  34.872  30.812  1.00  0.00     0.031 C 
ATOM     59  C   UNL A   1      42.886  34.098  30.806  1.00  0.00     0.037 A 
BRANCH  46  60
ATOM     60  C   UNL A   1      46.405  29.131  29.813  1.00  0.00     0.064 A 
ATOM     61  C   UNL A   1      46.934  28.546  30.973  1.00  0.00     0.173 A 
ATOM     62  C   UNL A   1      47.181  29.092  28.644  1.00  0.00     0.173 A 
ATOM     63  F   UNL A   1      46.234  28.563  32.117  1.00  0.00    -0.203 F 
ATOM     64  C   UNL A   1      48.199  27.963  30.968  1.00  0.00     0.198 A 
ATOM     65  C   UNL A   1      48.434  28.486  28.637  1.00  0.00     0.198 A 
ATOM     66  F   UNL A   1      46.715  29.629  27.507  1.00  0.00    -0.203 F 
ATOM     67  F   UNL A   1      48.699  27.441  32.097  1.00  0.00    -0.200 F 
ATOM     68  C   UNL A   1      48.944  27.927  29.799  1.00  0.00     0.200 A 
ATOM     69  F   UNL A   1      49.148  28.440  27.503  1.00  0.00    -0.200 F 
ATOM     70  F   UNL A   1      50.156  27.356  29.793  1.00  0.00    -0.200 F 
ENDBRANCH  46  60
BRANCH  47  71
ATOM     71  C   UNL A   1      37.103  32.651  29.790  1.00  0.00     0.064 A 
ATOM     72  C   UNL A   1      36.267  32.473  30.902  1.00  0.00     0.173 A 
ATOM     73  C   UNL A   1      36.583  33.338  28.684  1.00  0.00     0.173 A 
ATOM     74  F   UNL A   1      36.713  31.800  31.973  1.00  0.00    -0.203 F 
ATOM     75  C   UNL A   1      34.957  32.947  30.898  1.00  0.00     0.198 A 
ATOM     76  C   UNL A   1      35.282  33.834  28.693  1.00  0.00     0.198 A 
ATOM     77  F   UNL A   1      37.343  33.532  27.597  1.00  0.00    -0.203 F 
ATOM     78  F   UNL A   1      34.165  32.726  31.956  1.00  0.00    -0.200 F 
ATOM     79  C   UNL A   1      34.468  33.632  29.797  1.00  0.00     0.200 A 
ATOM     80  F   UNL A   1      34.816  34.504  27.629  1.00  0.00    -0.200 F 
ATOM     81  F   UNL A   1      33.209  34.091  29.795  1.00  0.00    -0.200 F 
ENDBRANCH  47  71
BRANCH  59  82
ATOM     82  C   UNL A   1      43.301  35.477  31.228  1.00  0.00     0.064 A 
ATOM     83  C   UNL A   1      43.418  35.827  32.582  1.00  0.00     0.173 A 
ATOM     84  C   UNL A   1      43.619  36.450  30.269  1.00  0.00     0.173 A 
ATOM     85  F   UNL A   1      43.109  34.937  33.537  1.00  0.00    -0.203 F 
ATOM     86  C   UNL A   1      43.817  37.107  32.959  1.00  0.00     0.198 A 
ATOM     87  C   UNL A   1      44.044  37.720  30.650  1.00  0.00     0.198 A 
ATOM     88  F   UNL A   1      43.530  36.165  28.961  1.00  0.00    -0.203 F 
ATOM     89  F   UNL A   1      43.880  37.432  34.258  1.00  0.00    -0.200 F 
ATOM     90  C   UNL A   1      44.136  38.049  31.993  1.00  0.00     0.200 A 
ATOM     91  F   UNL A   1      44.361  38.627  29.715  1.00  0.00    -0.200 F 
ATOM     92  F   UNL A   1      44.524  39.280  32.359  1.00  0.00    -0.200 F 
ENDBRANCH  59  82
ENDBRANCH  33  34
ENDBRANCH  25  28
ENDBRANCH  23  24
ENDBRANCH  22  23
ENDBRANCH   1  22
TORSDOF 13
ENDMDL
