MODEL 1
REMARK VINA RESULT:     -10.6      0.000      0.000
REMARK SMILES O=C(CCSc1nc(-c2cccs2)cc(C(F)(F)F)n1)NCCCNC(=O)c1ccc(-c2c3nc(c(-c4c(F)c(F)c(F)c(F)c4F)c4ccc([nH]4)c(-c4c(F)c(F)c(F)c(F)c4F)c4nc(c(-c5c(F)c(F)c(F)c(F)c5F)c5ccc2[nH]5)C=C4)C=C3)cc1
REMARK SMILES IDX 22 1 21 2 1 3 2 4 3 6 4 7 5 8 6 9 7 10 20 11 8 12 15 13
REMARK SMILES IDX 14 14 9 15 10 16 13 17 11 18 12 19 16 20 17 21 18 22 19 23
REMARK SMILES IDX 23 24 24 25 25 26 26 27 27 29 28 30 29 31 90 32 30 33 89 34
REMARK SMILES IDX 31 35 32 36 33 37 83 38 34 39 88 40 82 41 84 42 35 43 87 44
REMARK SMILES IDX 81 45 80 46 36 48 68 49 48 50 67 51 49 52 52 53 66 54 85 55
REMARK SMILES IDX 50 56 51 57 65 59 86 60 53 61 37 62 38 63 46 64 39 65 40 66
REMARK SMILES IDX 44 67 47 68 41 69 42 70 45 71 43 72 69 73 70 74 78 75 71 76
REMARK SMILES IDX 72 77 76 78 79 79 73 80 74 81 77 82 75 83 54 84 55 85 63 86
REMARK SMILES IDX 56 87 57 88 61 89 64 90 58 91 59 92 62 93 60 94
REMARK H PARENT 21 5 25 28 84 47 52 58
REMARK Flexibility Score: inf
ROOT
ATOM      1  C   UNL A   1      33.464  34.832  29.220  1.00  0.00     0.117 C 
ENDROOT
BRANCH   1   2
ATOM      2  N   UNL A   1      34.018  35.844  30.087  1.00  0.00    -0.356 N 
ATOM      3  O   UNL A   1      32.006  36.453  31.031  1.00  0.00    -0.275 OA
ATOM      4  C   UNL A   1      33.226  36.492  31.013  1.00  0.00     0.220 C 
ATOM      5  H   UNL A   1      34.973  36.075  30.017  1.00  0.00     0.163 HD
BRANCH   4   6
ATOM      6  C   UNL A   1      34.029  37.200  32.080  1.00  0.00     0.111 C 
BRANCH   6   7
ATOM      7  C   UNL A   1      33.935  36.467  33.417  1.00  0.00     0.088 C 
BRANCH   7   8
ATOM      8  S   UNL A   1      34.389  34.703  33.321  1.00  0.00    -0.086 SA
BRANCH   8   9
ATOM      9  C   UNL A   1      36.142  34.778  32.972  1.00  0.00     0.188 A 
ATOM     10  N   UNL A   1      37.005  34.618  33.986  1.00  0.00    -0.222 NA
ATOM     11  N   UNL A   1      36.459  34.578  31.691  1.00  0.00    -0.218 NA
ATOM     12  C   UNL A   1      38.271  34.233  33.679  1.00  0.00     0.085 A 
ATOM     13  C   UNL A   1      37.723  34.162  31.406  1.00  0.00     0.149 A 
ATOM     14  C   UNL A   1      38.678  33.987  32.391  1.00  0.00     0.063 A 
BRANCH  12  15
ATOM     15  C   UNL A   1      39.133  33.938  34.832  1.00  0.00     0.053 A 
ATOM     16  C   UNL A   1      39.441  34.724  35.927  1.00  0.00     0.022 A 
ATOM     17  S   UNL A   1      39.873  32.390  34.978  1.00  0.00    -0.142 S 
ATOM     18  C   UNL A   1      40.143  34.002  36.943  1.00  0.00     0.012 A 
ATOM     19  C   UNL A   1      40.371  32.694  36.583  1.00  0.00     0.065 A 
ENDBRANCH  12  15
BRANCH  13  20
ATOM     20  C   UNL A   1      38.055  33.828  29.964  1.00  0.00     0.433 C 
ATOM     21  F   UNL A   1      39.361  34.048  29.642  1.00  0.00    -0.165 F 
ATOM     22  F   UNL A   1      37.815  32.516  29.672  1.00  0.00    -0.165 F 
ATOM     23  F   UNL A   1      37.323  34.538  29.057  1.00  0.00    -0.165 F 
ENDBRANCH  13  20
ENDBRANCH   8   9
ENDBRANCH   7   8
ENDBRANCH   6   7
ENDBRANCH   4   6
ENDBRANCH   1   2
BRANCH   1  24
ATOM     24  C   UNL A   1      34.125  33.459  29.325  1.00  0.00     0.042 C 
BRANCH  24  25
ATOM     25  C   UNL A   1      34.650  32.791  28.051  1.00  0.00     0.118 C 
BRANCH  25  26
ATOM     26  N   UNL A   1      34.172  31.452  27.734  1.00  0.00    -0.352 N 
ATOM     27  C   UNL A   1      34.686  30.178  27.831  1.00  0.00     0.251 C 
ATOM     28  H   UNL A   1      33.262  31.459  27.359  1.00  0.00     0.163 HD
ATOM     29  O   UNL A   1      33.985  29.225  27.492  1.00  0.00    -0.269 OA
BRANCH  27  30
ATOM     30  C   UNL A   1      36.079  29.911  28.262  1.00  0.00     0.039 A 
ATOM     31  C   UNL A   1      36.310  29.417  29.554  1.00  0.00     0.014 A 
ATOM     32  C   UNL A   1      37.167  30.158  27.437  1.00  0.00     0.014 A 
ATOM     33  C   UNL A   1      37.608  29.087  29.964  1.00  0.00     0.010 A 
ATOM     34  C   UNL A   1      38.429  29.693  27.782  1.00  0.00     0.010 A 
ATOM     35  C   UNL A   1      38.673  29.169  29.057  1.00  0.00    -0.014 A 
BRANCH  35  36
ATOM     36  C   UNL A   1      40.056  28.744  29.397  1.00  0.00     0.031 A 
ATOM     37  C   UNL A   1      40.957  29.671  30.173  1.00  0.00     0.074 A 
ATOM     38  C   UNL A   1      40.540  27.586  28.906  1.00  0.00     0.049 A 
ATOM     39  N   UNL A   1      42.239  29.568  30.426  1.00  0.00    -0.248 NA
ATOM     40  C   UNL A   1      40.346  30.906  30.694  1.00  0.00     0.031 C 
ATOM     41  C   UNL A   1      39.791  26.631  28.089  1.00  0.00     0.029 A 
ATOM     42  N   UNL A   1      41.790  27.025  29.006  1.00  0.00    -0.354 N 
ATOM     43  C   UNL A   1      42.586  30.734  31.099  1.00  0.00     0.074 A 
ATOM     44  C   UNL A   1      41.401  31.560  31.155  1.00  0.00     0.031 C 
ATOM     45  C   UNL A   1      40.583  25.591  27.785  1.00  0.00     0.029 A 
ATOM     46  C   UNL A   1      41.910  25.828  28.341  1.00  0.00     0.049 A 
ATOM     47  H   UNL A   1      42.529  27.439  29.508  1.00  0.00     0.167 HD
ATOM     48  C   UNL A   1      43.777  31.072  31.648  1.00  0.00     0.037 A 
ATOM     49  C   UNL A   1      42.976  25.020  28.188  1.00  0.00     0.037 A 
ATOM     50  C   UNL A   1      44.942  30.227  31.624  1.00  0.00     0.049 A 
ATOM     51  C   UNL A   1      44.284  25.411  28.820  1.00  0.00     0.074 A 
ATOM     52  C   UNL A   1      46.177  30.440  32.208  1.00  0.00     0.029 A 
ATOM     53  N   UNL A   1      45.011  29.000  30.978  1.00  0.00    -0.354 N 
ATOM     54  N   UNL A   1      44.584  26.485  29.512  1.00  0.00    -0.248 NA
ATOM     55  C   UNL A   1      45.402  24.473  28.657  1.00  0.00     0.031 C 
ATOM     56  C   UNL A   1      47.010  29.368  31.872  1.00  0.00     0.029 A 
ATOM     57  C   UNL A   1      46.275  28.455  31.134  1.00  0.00     0.049 A 
ATOM     58  H   UNL A   1      44.270  28.579  30.484  1.00  0.00     0.167 HD
ATOM     59  C   UNL A   1      45.910  26.335  29.895  1.00  0.00     0.074 A 
ATOM     60  C   UNL A   1      46.351  25.058  29.373  1.00  0.00     0.031 C 
ATOM     61  C   UNL A   1      46.694  27.178  30.613  1.00  0.00     0.037 A 
BRANCH  48  62
ATOM     62  C   UNL A   1      43.879  32.411  32.329  1.00  0.00     0.064 A 
ATOM     63  C   UNL A   1      44.269  33.567  31.635  1.00  0.00     0.173 A 
ATOM     64  C   UNL A   1      43.550  32.546  33.687  1.00  0.00     0.173 A 
ATOM     65  F   UNL A   1      44.604  33.495  30.338  1.00  0.00    -0.203 F 
ATOM     66  C   UNL A   1      44.363  34.797  32.281  1.00  0.00     0.198 A 
ATOM     67  C   UNL A   1      43.609  33.786  34.321  1.00  0.00     0.198 A 
ATOM     68  F   UNL A   1      43.165  31.478  34.401  1.00  0.00    -0.203 F 
ATOM     69  F   UNL A   1      44.797  35.873  31.609  1.00  0.00    -0.200 F 
ATOM     70  C   UNL A   1      44.025  34.907  33.620  1.00  0.00     0.200 A 
ATOM     71  F   UNL A   1      43.266  33.893  35.612  1.00  0.00    -0.200 F 
ATOM     72  F   UNL A   1      44.106  36.094  34.238  1.00  0.00    -0.200 F 
ENDBRANCH  48  62
BRANCH  49  73
ATOM     73  C   UNL A   1      42.843  23.746  27.432  1.00  0.00     0.064 A 
ATOM     74  C   UNL A   1      42.343  22.593  28.054  1.00  0.00     0.173 A 
ATOM     75  C   UNL A   1      43.208  23.649  26.081  1.00  0.00     0.173 A 
ATOM     76  F   UNL A   1      41.995  22.629  29.350  1.00  0.00    -0.203 F 
ATOM     77  C   UNL A   1      42.239  21.387  27.365  1.00  0.00     0.198 A 
ATOM     78  C   UNL A   1      43.073  22.451  25.383  1.00  0.00     0.198 A 
ATOM     79  F   UNL A   1      43.684  24.724  25.435  1.00  0.00    -0.203 F 
ATOM     80  F   UNL A   1      41.807  20.289  28.000  1.00  0.00    -0.200 F 
ATOM     81  C   UNL A   1      42.598  21.318  26.027  1.00  0.00     0.200 A 
ATOM     82  F   UNL A   1      43.403  22.394  24.086  1.00  0.00    -0.200 F 
ATOM     83  F   UNL A   1      42.493  20.160  25.362  1.00  0.00    -0.200 F 
ENDBRANCH  49  73
BRANCH  61  84
ATOM     84  C   UNL A   1      48.094  26.723  30.914  1.00  0.00     0.064 A 
ATOM     85  C   UNL A   1      49.173  27.043  30.077  1.00  0.00     0.173 A 
ATOM     86  C   UNL A   1      48.360  25.973  32.070  1.00  0.00     0.173 A 
ATOM     87  F   UNL A   1      48.970  27.746  28.952  1.00  0.00    -0.203 F 
ATOM     88  C   UNL A   1      50.459  26.596  30.366  1.00  0.00     0.198 A 
ATOM     89  C   UNL A   1      49.653  25.561  32.376  1.00  0.00     0.198 A 
ATOM     90  F   UNL A   1      47.365  25.649  32.911  1.00  0.00    -0.203 F 
ATOM     91  F   UNL A   1      51.463  26.859  29.518  1.00  0.00    -0.200 F 
ATOM     92  C   UNL A   1      50.699  25.862  31.517  1.00  0.00     0.200 A 
ATOM     93  F   UNL A   1      49.886  24.867  33.499  1.00  0.00    -0.200 F 
ATOM     94  F   UNL A   1      51.939  25.435  31.796  1.00  0.00    -0.200 F 
ENDBRANCH  61  84
ENDBRANCH  35  36
ENDBRANCH  27  30
ENDBRANCH  25  26
ENDBRANCH  24  25
ENDBRANCH   1  24
TORSDOF 15
ENDMDL
MODEL 2
REMARK VINA RESULT:     -10.5      5.131     10.961
REMARK SMILES O=C(CCSc1nc(-c2cccs2)cc(C(F)(F)F)n1)NCCCNC(=O)c1ccc(-c2c3nc(c(-c4c(F)c(F)c(F)c(F)c4F)c4ccc([nH]4)c(-c4c(F)c(F)c(F)c(F)c4F)c4nc(c(-c5c(F)c(F)c(F)c(F)c5F)c5ccc2[nH]5)C=C4)C=C3)cc1
REMARK SMILES IDX 22 1 21 2 1 3 2 4 3 6 4 7 5 8 6 9 7 10 20 11 8 12 15 13
REMARK SMILES IDX 14 14 9 15 10 16 13 17 11 18 12 19 16 20 17 21 18 22 19 23
REMARK SMILES IDX 23 24 24 25 25 26 26 27 27 29 28 30 29 31 90 32 30 33 89 34
REMARK SMILES IDX 31 35 32 36 33 37 83 38 34 39 88 40 82 41 84 42 35 43 87 44
REMARK SMILES IDX 81 45 80 46 36 48 68 49 48 50 67 51 49 52 52 53 66 54 85 55
REMARK SMILES IDX 50 56 51 57 65 59 86 60 53 61 37 62 38 63 46 64 39 65 40 66
REMARK SMILES IDX 44 67 47 68 41 69 42 70 45 71 43 72 69 73 70 74 78 75 71 76
REMARK SMILES IDX 72 77 76 78 79 79 73 80 74 81 77 82 75 83 54 84 55 85 63 86
REMARK SMILES IDX 56 87 57 88 61 89 64 90 58 91 59 92 62 93 60 94
REMARK H PARENT 21 5 25 28 84 47 52 58
REMARK Flexibility Score: inf
ROOT
ATOM      1  C   UNL A   1      31.134  27.377  25.164  1.00  0.00     0.117 C 
ENDROOT
BRANCH   1   2
ATOM      2  N   UNL A   1      31.400  25.965  25.018  1.00  0.00    -0.356 N 
ATOM      3  O   UNL A   1      29.747  25.278  26.470  1.00  0.00    -0.275 OA
ATOM      4  C   UNL A   1      30.583  25.027  25.615  1.00  0.00     0.220 C 
ATOM      5  H   UNL A   1      32.174  25.668  24.487  1.00  0.00     0.163 HD
BRANCH   4   6
ATOM      6  C   UNL A   1      30.761  23.641  25.040  1.00  0.00     0.111 C 
BRANCH   6   7
ATOM      7  C   UNL A   1      30.991  22.612  26.145  1.00  0.00     0.088 C 
BRANCH   7   8
ATOM      8  S   UNL A   1      32.385  23.019  27.250  1.00  0.00    -0.086 SA
BRANCH   8   9
ATOM      9  C   UNL A   1      33.662  21.903  26.681  1.00  0.00     0.188 A 
ATOM     10  N   UNL A   1      33.297  20.797  26.014  1.00  0.00    -0.222 NA
ATOM     11  N   UNL A   1      34.878  22.449  26.601  1.00  0.00    -0.218 NA
ATOM     12  C   UNL A   1      34.227  20.208  25.218  1.00  0.00     0.085 A 
ATOM     13  C   UNL A   1      35.785  21.862  25.774  1.00  0.00     0.149 A 
ATOM     14  C   UNL A   1      35.495  20.713  25.062  1.00  0.00     0.063 A 
BRANCH  12  15
ATOM     15  C   UNL A   1      33.735  19.087  24.405  1.00  0.00     0.053 A 
ATOM     16  C   UNL A   1      32.640  19.022  23.564  1.00  0.00     0.022 A 
ATOM     17  S   UNL A   1      34.607  17.602  24.371  1.00  0.00    -0.142 S 
ATOM     18  C   UNL A   1      32.616  17.824  22.783  1.00  0.00     0.012 A 
ATOM     19  C   UNL A   1      33.679  16.999  23.070  1.00  0.00     0.065 A 
ENDBRANCH  12  15
BRANCH  13  20
ATOM     20  C   UNL A   1      37.130  22.541  25.596  1.00  0.00     0.433 C 
ATOM     21  F   UNL A   1      37.269  23.676  26.337  1.00  0.00    -0.165 F 
ATOM     22  F   UNL A   1      38.167  21.730  25.957  1.00  0.00    -0.165 F 
ATOM     23  F   UNL A   1      37.391  22.905  24.306  1.00  0.00    -0.165 F 
ENDBRANCH  13  20
ENDBRANCH   8   9
ENDBRANCH   7   8
ENDBRANCH   6   7
ENDBRANCH   4   6
ENDBRANCH   1   2
BRANCH   1  24
ATOM     24  C   UNL A   1      32.091  28.121  26.093  1.00  0.00     0.042 C 
BRANCH  24  25
ATOM     25  C   UNL A   1      32.817  29.362  25.566  1.00  0.00     0.118 C 
BRANCH  25  26
ATOM     26  N   UNL A   1      32.503  30.649  26.174  1.00  0.00    -0.352 N 
ATOM     27  C   UNL A   1      33.151  31.514  27.026  1.00  0.00     0.251 C 
ATOM     28  H   UNL A   1      31.612  30.977  25.915  1.00  0.00     0.163 HD
ATOM     29  O   UNL A   1      32.600  32.572  27.334  1.00  0.00    -0.269 OA
BRANCH  27  30
ATOM     30  C   UNL A   1      34.459  31.195  27.645  1.00  0.00     0.039 A 
ATOM     31  C   UNL A   1      35.352  32.238  27.930  1.00  0.00     0.014 A 
ATOM     32  C   UNL A   1      34.842  29.891  27.931  1.00  0.00     0.014 A 
ATOM     33  C   UNL A   1      36.564  31.974  28.581  1.00  0.00     0.010 A 
ATOM     34  C   UNL A   1      35.966  29.644  28.707  1.00  0.00     0.010 A 
ATOM     35  C   UNL A   1      36.854  30.678  29.027  1.00  0.00    -0.014 A 
BRANCH  35  36
ATOM     36  C   UNL A   1      38.076  30.348  29.807  1.00  0.00     0.031 A 
ATOM     37  C   UNL A   1      39.084  29.375  29.248  1.00  0.00     0.074 A 
ATOM     38  C   UNL A   1      38.219  30.824  31.060  1.00  0.00     0.049 A 
ATOM     39  N   UNL A   1      40.121  28.826  29.830  1.00  0.00    -0.248 NA
ATOM     40  C   UNL A   1      38.867  28.920  27.864  1.00  0.00     0.031 C 
ATOM     41  C   UNL A   1      37.283  31.722  31.739  1.00  0.00     0.029 A 
ATOM     42  N   UNL A   1      39.198  30.600  31.996  1.00  0.00    -0.354 N 
ATOM     43  C   UNL A   1      40.653  27.942  28.898  1.00  0.00     0.074 A 
ATOM     44  C   UNL A   1      39.787  27.975  27.741  1.00  0.00     0.031 C 
ATOM     45  C   UNL A   1      37.746  31.994  32.969  1.00  0.00     0.029 A 
ATOM     46  C   UNL A   1      38.982  31.251  33.186  1.00  0.00     0.049 A 
ATOM     47  H   UNL A   1      39.982  30.027  31.829  1.00  0.00     0.167 HD
ATOM     48  C   UNL A   1      41.778  27.194  28.986  1.00  0.00     0.037 A 
ATOM     49  C   UNL A   1      39.696  31.240  34.328  1.00  0.00     0.037 A 
ATOM     50  C   UNL A   1      42.657  27.197  30.126  1.00  0.00     0.049 A 
ATOM     51  C   UNL A   1      40.950  30.412  34.395  1.00  0.00     0.074 A 
ATOM     52  C   UNL A   1      43.859  26.532  30.293  1.00  0.00     0.029 A 
ATOM     53  N   UNL A   1      42.427  27.907  31.296  1.00  0.00    -0.354 N 
ATOM     54  N   UNL A   1      41.479  29.631  33.483  1.00  0.00    -0.248 NA
ATOM     55  C   UNL A   1      41.712  30.470  35.650  1.00  0.00     0.031 C 
ATOM     56  C   UNL A   1      44.329  26.796  31.582  1.00  0.00     0.029 A 
ATOM     57  C   UNL A   1      43.455  27.678  32.196  1.00  0.00     0.049 A 
ATOM     58  H   UNL A   1      41.649  28.487  31.461  1.00  0.00     0.167 HD
ATOM     59  C   UNL A   1      42.651  29.135  34.040  1.00  0.00     0.074 A 
ATOM     60  C   UNL A   1      42.762  29.716  35.361  1.00  0.00     0.031 C 
ATOM     61  C   UNL A   1      43.553  28.273  33.506  1.00  0.00     0.037 A 
BRANCH  48  62
ATOM     62  C   UNL A   1      42.127  26.314  27.815  1.00  0.00     0.064 A 
ATOM     63  C   UNL A   1      43.085  26.697  26.862  1.00  0.00     0.173 A 
ATOM     64  C   UNL A   1      41.520  25.058  27.660  1.00  0.00     0.173 A 
ATOM     65  F   UNL A   1      43.690  27.892  26.955  1.00  0.00    -0.203 F 
ATOM     66  C   UNL A   1      43.393  25.875  25.782  1.00  0.00     0.198 A 
ATOM     67  C   UNL A   1      41.859  24.222  26.598  1.00  0.00     0.198 A 
ATOM     68  F   UNL A   1      40.602  24.636  28.542  1.00  0.00    -0.203 F 
ATOM     69  F   UNL A   1      44.267  26.291  24.854  1.00  0.00    -0.200 F 
ATOM     70  C   UNL A   1      42.787  24.636  25.655  1.00  0.00     0.200 A 
ATOM     71  F   UNL A   1      41.284  23.017  26.487  1.00  0.00    -0.200 F 
ATOM     72  F   UNL A   1      43.092  23.841  24.620  1.00  0.00    -0.200 F 
ENDBRANCH  48  62
BRANCH  49  73
ATOM     73  C   UNL A   1      39.259  32.064  35.487  1.00  0.00     0.064 A 
ATOM     74  C   UNL A   1      39.640  33.410  35.593  1.00  0.00     0.173 A 
ATOM     75  C   UNL A   1      38.459  31.532  36.509  1.00  0.00     0.173 A 
ATOM     76  F   UNL A   1      40.420  33.960  34.650  1.00  0.00    -0.203 F 
ATOM     77  C   UNL A   1      39.261  34.184  36.687  1.00  0.00     0.198 A 
ATOM     78  C   UNL A   1      38.053  32.316  37.587  1.00  0.00     0.198 A 
ATOM     79  F   UNL A   1      38.060  30.253  36.453  1.00  0.00    -0.203 F 
ATOM     80  F   UNL A   1      39.684  35.451  36.787  1.00  0.00    -0.200 F 
ATOM     81  C   UNL A   1      38.462  33.638  37.681  1.00  0.00     0.200 A 
ATOM     82  F   UNL A   1      37.265  31.791  38.535  1.00  0.00    -0.200 F 
ATOM     83  F   UNL A   1      38.093  34.384  38.731  1.00  0.00    -0.200 F 
ENDBRANCH  49  73
BRANCH  61  84
ATOM     84  C   UNL A   1      44.762  27.945  34.336  1.00  0.00     0.064 A 
ATOM     85  C   UNL A   1      44.785  26.848  35.209  1.00  0.00     0.173 A 
ATOM     86  C   UNL A   1      45.920  28.731  34.238  1.00  0.00     0.173 A 
ATOM     87  F   UNL A   1      43.699  26.073  35.350  1.00  0.00    -0.203 F 
ATOM     88  C   UNL A   1      45.910  26.573  35.982  1.00  0.00     0.198 A 
ATOM     89  C   UNL A   1      47.056  28.431  34.983  1.00  0.00     0.198 A 
ATOM     90  F   UNL A   1      45.955  29.787  33.409  1.00  0.00    -0.203 F 
ATOM     91  F   UNL A   1      45.887  25.558  36.857  1.00  0.00    -0.200 F 
ATOM     92  C   UNL A   1      47.046  27.360  35.864  1.00  0.00     0.200 A 
ATOM     93  F   UNL A   1      48.158  29.182  34.853  1.00  0.00    -0.200 F 
ATOM     94  F   UNL A   1      48.129  27.092  36.606  1.00  0.00    -0.200 F 
ENDBRANCH  61  84
ENDBRANCH  35  36
ENDBRANCH  27  30
ENDBRANCH  25  26
ENDBRANCH  24  25
ENDBRANCH   1  24
TORSDOF 15
ENDMDL
MODEL 3
REMARK VINA RESULT:     -10.5      0.499      2.055
REMARK SMILES O=C(CCSc1nc(-c2cccs2)cc(C(F)(F)F)n1)NCCCNC(=O)c1ccc(-c2c3nc(c(-c4c(F)c(F)c(F)c(F)c4F)c4ccc([nH]4)c(-c4c(F)c(F)c(F)c(F)c4F)c4nc(c(-c5c(F)c(F)c(F)c(F)c5F)c5ccc2[nH]5)C=C4)C=C3)cc1
REMARK SMILES IDX 22 1 21 2 1 3 2 4 3 6 4 7 5 8 6 9 7 10 20 11 8 12 15 13
REMARK SMILES IDX 14 14 9 15 10 16 13 17 11 18 12 19 16 20 17 21 18 22 19 23
REMARK SMILES IDX 23 24 24 25 25 26 26 27 27 29 28 30 29 31 90 32 30 33 89 34
REMARK SMILES IDX 31 35 32 36 33 37 83 38 34 39 88 40 82 41 84 42 35 43 87 44
REMARK SMILES IDX 81 45 80 46 36 48 68 49 48 50 67 51 49 52 52 53 66 54 85 55
REMARK SMILES IDX 50 56 51 57 65 59 86 60 53 61 37 62 38 63 46 64 39 65 40 66
REMARK SMILES IDX 44 67 47 68 41 69 42 70 45 71 43 72 69 73 70 74 78 75 71 76
REMARK SMILES IDX 72 77 76 78 79 79 73 80 74 81 77 82 75 83 54 84 55 85 63 86
REMARK SMILES IDX 56 87 57 88 61 89 64 90 58 91 59 92 62 93 60 94
REMARK H PARENT 21 5 25 28 84 47 52 58
REMARK Flexibility Score: inf
ROOT
ATOM      1  C   UNL A   1      33.468  34.814  29.238  1.00  0.00     0.117 C 
ENDROOT
BRANCH   1   2
ATOM      2  N   UNL A   1      34.022  35.826  30.104  1.00  0.00    -0.356 N 
ATOM      3  O   UNL A   1      32.008  36.446  31.038  1.00  0.00    -0.275 OA
ATOM      4  C   UNL A   1      33.229  36.480  31.025  1.00  0.00     0.220 C 
ATOM      5  H   UNL A   1      34.978  36.054  30.037  1.00  0.00     0.163 HD
BRANCH   4   6
ATOM      6  C   UNL A   1      34.030  37.189  32.092  1.00  0.00     0.111 C 
BRANCH   6   7
ATOM      7  C   UNL A   1      33.933  36.458  33.430  1.00  0.00     0.088 C 
BRANCH   7   8
ATOM      8  S   UNL A   1      34.413  34.700  33.343  1.00  0.00    -0.086 SA
BRANCH   8   9
ATOM      9  C   UNL A   1      36.155  34.799  32.948  1.00  0.00     0.188 A 
ATOM     10  N   UNL A   1      37.046  34.671  33.941  1.00  0.00    -0.222 NA
ATOM     11  N   UNL A   1      36.442  34.582  31.661  1.00  0.00    -0.218 NA
ATOM     12  C   UNL A   1      38.311  34.303  33.607  1.00  0.00     0.085 A 
ATOM     13  C   UNL A   1      37.706  34.183  31.351  1.00  0.00     0.149 A 
ATOM     14  C   UNL A   1      38.689  34.041  32.314  1.00  0.00     0.063 A 
BRANCH  12  15
ATOM     15  C   UNL A   1      39.207  34.042  34.743  1.00  0.00     0.053 A 
ATOM     16  C   UNL A   1      39.839  32.870  35.116  1.00  0.00     0.022 A 
ATOM     17  S   UNL A   1      39.653  35.328  35.798  1.00  0.00    -0.142 S 
ATOM     18  C   UNL A   1      40.801  33.071  36.156  1.00  0.00     0.012 A 
ATOM     19  C   UNL A   1      40.854  34.385  36.563  1.00  0.00     0.065 A 
ENDBRANCH  12  15
BRANCH  13  20
ATOM     20  C   UNL A   1      38.007  33.830  29.907  1.00  0.00     0.433 C 
ATOM     21  F   UNL A   1      37.281  34.552  29.008  1.00  0.00    -0.165 F 
ATOM     22  F   UNL A   1      39.317  34.044  29.587  1.00  0.00    -0.165 F 
ATOM     23  F   UNL A   1      37.774  32.519  29.606  1.00  0.00    -0.165 F 
ENDBRANCH  13  20
ENDBRANCH   8   9
ENDBRANCH   7   8
ENDBRANCH   6   7
ENDBRANCH   4   6
ENDBRANCH   1   2
BRANCH   1  24
ATOM     24  C   UNL A   1      34.131  33.442  29.340  1.00  0.00     0.042 C 
BRANCH  24  25
ATOM     25  C   UNL A   1      34.632  32.764  28.062  1.00  0.00     0.118 C 
BRANCH  25  26
ATOM     26  N   UNL A   1      34.157  31.418  27.770  1.00  0.00    -0.352 N 
ATOM     27  C   UNL A   1      34.687  30.151  27.860  1.00  0.00     0.251 C 
ATOM     28  H   UNL A   1      33.235  31.414  27.424  1.00  0.00     0.163 HD
ATOM     29  O   UNL A   1      33.984  29.188  27.550  1.00  0.00    -0.269 OA
BRANCH  27  30
ATOM     30  C   UNL A   1      36.094  29.900  28.249  1.00  0.00     0.039 A 
ATOM     31  C   UNL A   1      36.372  29.423  29.538  1.00  0.00     0.014 A 
ATOM     32  C   UNL A   1      37.154  30.146  27.385  1.00  0.00     0.014 A 
ATOM     33  C   UNL A   1      37.686  29.110  29.908  1.00  0.00     0.010 A 
ATOM     34  C   UNL A   1      38.430  29.696  27.694  1.00  0.00     0.010 A 
ATOM     35  C   UNL A   1      38.719  29.189  28.966  1.00  0.00    -0.014 A 
BRANCH  35  36
ATOM     36  C   UNL A   1      40.117  28.780  29.266  1.00  0.00     0.031 A 
ATOM     37  C   UNL A   1      41.046  29.737  29.969  1.00  0.00     0.074 A 
ATOM     38  C   UNL A   1      40.585  27.605  28.800  1.00  0.00     0.049 A 
ATOM     39  N   UNL A   1      42.337  29.646  30.174  1.00  0.00    -0.248 NA
ATOM     40  C   UNL A   1      40.452  30.990  30.467  1.00  0.00     0.031 C 
ATOM     41  C   UNL A   1      39.806  26.618  28.050  1.00  0.00     0.029 A 
ATOM     42  N   UNL A   1      41.839  27.050  28.870  1.00  0.00    -0.354 N 
ATOM     43  C   UNL A   1      42.707  30.837  30.788  1.00  0.00     0.074 A 
ATOM     44  C   UNL A   1      41.523  31.663  30.860  1.00  0.00     0.031 C 
ATOM     45  C   UNL A   1      40.589  25.569  27.754  1.00  0.00     0.029 A 
ATOM     46  C   UNL A   1      41.936  25.829  28.247  1.00  0.00     0.049 A 
ATOM     47  H   UNL A   1      42.596  27.484  29.326  1.00  0.00     0.167 HD
ATOM     48  C   UNL A   1      43.918  31.198  31.274  1.00  0.00     0.037 A 
ATOM     49  C   UNL A   1      42.998  25.018  28.081  1.00  0.00     0.037 A 
ATOM     50  C   UNL A   1      45.084  30.354  31.235  1.00  0.00     0.049 A 
ATOM     51  C   UNL A   1      44.329  25.435  28.644  1.00  0.00     0.074 A 
ATOM     52  C   UNL A   1      46.341  30.591  31.761  1.00  0.00     0.029 A 
ATOM     53  N   UNL A   1      45.131  29.104  30.635  1.00  0.00    -0.354 N 
ATOM     54  N   UNL A   1      44.653  26.534  29.283  1.00  0.00    -0.248 NA
ATOM     55  C   UNL A   1      45.442  24.492  28.472  1.00  0.00     0.031 C 
ATOM     56  C   UNL A   1      47.163  29.509  31.432  1.00  0.00     0.029 A 
ATOM     57  C   UNL A   1      46.402  28.568  30.759  1.00  0.00     0.049 A 
ATOM     58  H   UNL A   1      44.372  28.663  30.187  1.00  0.00     0.167 HD
ATOM     59  C   UNL A   1      45.994  26.401  29.617  1.00  0.00     0.074 A 
ATOM     60  C   UNL A   1      46.417  25.106  29.127  1.00  0.00     0.031 C 
ATOM     61  C   UNL A   1      46.803  27.272  30.270  1.00  0.00     0.037 A 
BRANCH  48  62
ATOM     62  C   UNL A   1      44.043  32.562  31.900  1.00  0.00     0.064 A 
ATOM     63  C   UNL A   1      43.876  32.760  33.280  1.00  0.00     0.173 A 
ATOM     64  C   UNL A   1      44.365  33.680  31.116  1.00  0.00     0.173 A 
ATOM     65  F   UNL A   1      43.557  31.729  34.078  1.00  0.00    -0.203 F 
ATOM     66  C   UNL A   1      43.989  34.028  33.843  1.00  0.00     0.198 A 
ATOM     67  C   UNL A   1      44.514  34.941  31.688  1.00  0.00     0.198 A 
ATOM     68  F   UNL A   1      44.542  33.550  29.792  1.00  0.00    -0.203 F 
ATOM     69  F   UNL A   1      43.765  34.200  35.154  1.00  0.00    -0.200 F 
ATOM     70  C   UNL A   1      44.317  35.116  33.049  1.00  0.00     0.200 A 
ATOM     71  F   UNL A   1      44.848  35.988  30.921  1.00  0.00    -0.200 F 
ATOM     72  F   UNL A   1      44.436  36.335  33.594  1.00  0.00    -0.200 F 
ENDBRANCH  48  62
BRANCH  49  73
ATOM     73  C   UNL A   1      42.838  23.716  27.380  1.00  0.00     0.064 A 
ATOM     74  C   UNL A   1      43.233  23.569  26.042  1.00  0.00     0.173 A 
ATOM     75  C   UNL A   1      42.291  22.595  28.022  1.00  0.00     0.173 A 
ATOM     76  F   UNL A   1      43.746  24.617  25.378  1.00  0.00    -0.203 F 
ATOM     77  C   UNL A   1      43.063  22.363  25.366  1.00  0.00     0.198 A 
ATOM     78  C   UNL A   1      42.151  21.379  27.356  1.00  0.00     0.198 A 
ATOM     79  F   UNL A   1      41.904  22.678  29.304  1.00  0.00    -0.203 F 
ATOM     80  F   UNL A   1      43.401  22.269  24.073  1.00  0.00    -0.200 F 
ATOM     81  C   UNL A   1      42.527  21.267  26.025  1.00  0.00     0.200 A 
ATOM     82  F   UNL A   1      41.651  20.318  28.001  1.00  0.00    -0.200 F 
ATOM     83  F   UNL A   1      42.369  20.105  25.377  1.00  0.00    -0.200 F 
ENDBRANCH  49  73
BRANCH  61  84
ATOM     84  C   UNL A   1      48.216  26.832  30.531  1.00  0.00     0.064 A 
ATOM     85  C   UNL A   1      48.557  26.066  31.656  1.00  0.00     0.173 A 
ATOM     86  C   UNL A   1      49.238  27.166  29.630  1.00  0.00     0.173 A 
ATOM     87  F   UNL A   1      47.620  25.731  32.556  1.00  0.00    -0.203 F 
ATOM     88  C   UNL A   1      49.875  25.683  31.888  1.00  0.00     0.198 A 
ATOM     89  C   UNL A   1      50.548  26.750  29.845  1.00  0.00     0.198 A 
ATOM     90  F   UNL A   1      48.964  27.888  28.533  1.00  0.00    -0.203 F 
ATOM     91  F   UNL A   1      50.188  25.007  33.001  1.00  0.00    -0.200 F 
ATOM     92  C   UNL A   1      50.868  26.020  30.979  1.00  0.00     0.200 A 
ATOM     93  F   UNL A   1      51.502  27.060  28.956  1.00  0.00    -0.200 F 
ATOM     94  F   UNL A   1      52.136  25.648  31.202  1.00  0.00    -0.200 F 
ENDBRANCH  61  84
ENDBRANCH  35  36
ENDBRANCH  27  30
ENDBRANCH  25  26
ENDBRANCH  24  25
ENDBRANCH   1  24
TORSDOF 15
ENDMDL
