MODEL 1
REMARK VINA RESULT:     -11.2      0.000      0.000
REMARK SMILES N#CCC1(C[N@@H+]2CCO[C@H](CC(=O)NCCCNC(=O)c3ccc(-c4c5nc(c(-c6c(F)c(F)c(F)c(F)c6F)c6ccc([nH]6)c(-c6c(F)c(F)c(F)c(F)c6F)c6nc(c(-c7c(F)c(F)c(F)c(F)c7F)c7ccc4[nH]7)C=C6)C=C5)cc3)C2)CC1
REMARK SMILES IDX 12 1 13 2 14 3 11 5 10 6 6 7 7 8 84 9 8 11 9 12 5 13 4 14
REMARK SMILES IDX 85 15 86 16 3 17 2 18 1 19 15 20 16 21 17 22 18 23 19 24
REMARK SMILES IDX 20 26 21 27 22 28 83 29 23 30 82 31 24 32 25 33 26 34 76 35
REMARK SMILES IDX 27 36 81 37 75 38 77 39 28 40 80 41 74 42 73 43 29 45 61 46
REMARK SMILES IDX 41 47 60 48 42 49 45 50 59 51 78 52 43 53 44 54 58 56 79 57
REMARK SMILES IDX 46 58 30 59 31 60 39 61 32 62 33 63 37 64 40 65 34 66 35 67
REMARK SMILES IDX 38 68 36 69 62 70 63 71 71 72 64 73 65 74 69 75 72 76 66 77
REMARK SMILES IDX 67 78 70 79 68 80 47 81 48 82 56 83 49 84 50 85 54 86 57 87
REMARK SMILES IDX 51 88 52 89 55 90 53 91
REMARK H PARENT 14 4 6 10 18 25 77 44 45 55
REMARK Flexibility Score: inf
ROOT
ATOM      1  C   UNL A   1      31.774  28.566  27.112  1.00  0.00     0.222 C 
ATOM      2  O   UNL A   1      31.448  27.872  28.071  1.00  0.00    -0.275 OA
ATOM      3  N   UNL A   1      31.735  29.924  27.198  1.00  0.00    -0.356 N 
ATOM      4  H   UNL A   1      31.801  30.327  28.095  1.00  0.00     0.163 HD
ENDROOT
BRANCH   1   5
ATOM      5  C   UNL A   1      32.302  27.987  25.839  1.00  0.00     0.138 C 
BRANCH   5   6
ATOM      6  C   UNL A   1      31.448  26.934  25.151  1.00  0.00     0.182 C 
ATOM      7  N   UNL A   1      33.121  25.236  24.402  1.00  0.00    -0.330 N 
ATOM      8  C   UNL A   1      32.939  25.651  23.022  1.00  0.00     0.291 C 
ATOM      9  C   UNL A   1      31.989  25.499  25.267  1.00  0.00     0.295 C 
ATOM     10  H   UNL A   1      33.123  24.227  24.250  1.00  0.00     0.348 HD
ATOM     11  C   UNL A   1      32.315  27.048  22.876  1.00  0.00     0.222 C 
ATOM     12  O   UNL A   1      31.210  27.286  23.765  1.00  0.00    -0.366 OA
BRANCH   7  13
ATOM     13  C   UNL A   1      34.426  25.052  24.986  1.00  0.00     0.270 C 
BRANCH  13  14
ATOM     14  C   UNL A   1      34.844  23.583  25.280  1.00  0.00     0.032 C 
ATOM     15  C   UNL A   1      34.676  23.123  26.734  1.00  0.00     0.015 C 
ATOM     16  C   UNL A   1      36.038  23.437  26.228  1.00  0.00     0.015 C 
BRANCH  14  17
ATOM     17  C   UNL A   1      34.410  22.475  24.216  1.00  0.00     0.133 C 
BRANCH  17  18
ATOM     18  C   UNL A   1      35.599  22.785  23.322  1.00  0.00     0.063 C 
ATOM     19  N   UNL A   1      36.586  23.042  22.579  1.00  0.00    -0.198 NA
ENDBRANCH  17  18
ENDBRANCH  14  17
ENDBRANCH  13  14
ENDBRANCH   7  13
ENDBRANCH   5   6
ENDBRANCH   1   5
BRANCH   3  20
ATOM     20  C   UNL A   1      31.603  30.824  26.066  1.00  0.00     0.117 C 
BRANCH  20  21
ATOM     21  C   UNL A   1      31.423  32.266  26.533  1.00  0.00     0.042 C 
BRANCH  21  22
ATOM     22  C   UNL A   1      32.556  32.707  27.451  1.00  0.00     0.118 C 
BRANCH  22  23
ATOM     23  N   UNL A   1      32.530  34.157  27.587  1.00  0.00    -0.352 N 
ATOM     24  C   UNL A   1      33.053  34.865  28.637  1.00  0.00     0.251 C 
ATOM     25  H   UNL A   1      32.101  34.670  26.864  1.00  0.00     0.163 HD
ATOM     26  O   UNL A   1      32.577  35.931  28.995  1.00  0.00    -0.269 OA
BRANCH  24  27
ATOM     27  C   UNL A   1      34.223  34.276  29.303  1.00  0.00     0.039 A 
ATOM     28  C   UNL A   1      35.508  34.555  28.847  1.00  0.00     0.014 A 
ATOM     29  C   UNL A   1      34.006  33.481  30.434  1.00  0.00     0.014 A 
ATOM     30  C   UNL A   1      36.594  34.033  29.546  1.00  0.00     0.010 A 
ATOM     31  C   UNL A   1      35.082  33.069  31.192  1.00  0.00     0.010 A 
ATOM     32  C   UNL A   1      36.382  33.294  30.724  1.00  0.00    -0.014 A 
BRANCH  32  33
ATOM     33  C   UNL A   1      37.495  32.652  31.447  1.00  0.00     0.031 A 
ATOM     34  C   UNL A   1      38.210  31.500  30.798  1.00  0.00     0.074 A 
ATOM     35  C   UNL A   1      37.799  33.049  32.694  1.00  0.00     0.049 A 
ATOM     36  N   UNL A   1      39.151  30.730  31.278  1.00  0.00    -0.248 NA
ATOM     37  C   UNL A   1      37.770  31.130  29.440  1.00  0.00     0.031 C 
ATOM     38  C   UNL A   1      37.120  34.113  33.434  1.00  0.00     0.029 A 
ATOM     39  N   UNL A   1      38.756  32.595  33.561  1.00  0.00    -0.354 N 
ATOM     40  C   UNL A   1      39.389  29.777  30.296  1.00  0.00     0.074 A 
ATOM     41  C   UNL A   1      38.441  30.010  29.232  1.00  0.00     0.031 C 
ATOM     42  C   UNL A   1      37.711  34.259  34.630  1.00  0.00     0.029 A 
ATOM     43  C   UNL A   1      38.783  33.276  34.751  1.00  0.00     0.049 A 
ATOM     44  H   UNL A   1      39.366  31.853  33.350  1.00  0.00     0.167 HD
ATOM     45  C   UNL A   1      40.342  28.817  30.270  1.00  0.00     0.037 A 
ATOM     46  C   UNL A   1      39.594  33.118  35.813  1.00  0.00     0.037 A 
ATOM     47  C   UNL A   1      41.304  28.631  31.319  1.00  0.00     0.049 A 
ATOM     48  C   UNL A   1      40.659  32.059  35.755  1.00  0.00     0.074 A 
ATOM     49  C   UNL A   1      42.363  27.745  31.376  1.00  0.00     0.029 A 
ATOM     50  N   UNL A   1      41.320  29.357  32.503  1.00  0.00    -0.354 N 
ATOM     51  N   UNL A   1      40.931  31.211  34.792  1.00  0.00    -0.248 NA
ATOM     52  C   UNL A   1      41.535  31.942  36.926  1.00  0.00     0.031 C 
ATOM     53  C   UNL A   1      42.995  27.905  32.615  1.00  0.00     0.029 A 
ATOM     54  C   UNL A   1      42.360  28.925  33.309  1.00  0.00     0.049 A 
ATOM     55  H   UNL A   1      40.686  30.073  32.735  1.00  0.00     0.167 HD
ATOM     56  C   UNL A   1      42.023  30.473  35.228  1.00  0.00     0.074 A 
ATOM     57  C   UNL A   1      42.372  30.989  36.539  1.00  0.00     0.031 C 
ATOM     58  C   UNL A   1      42.680  29.463  34.606  1.00  0.00     0.037 A 
BRANCH  45  59
ATOM     59  C   UNL A   1      40.379  27.918  29.067  1.00  0.00     0.064 A 
ATOM     60  C   UNL A   1      41.137  28.236  27.928  1.00  0.00     0.173 A 
ATOM     61  C   UNL A   1      39.632  26.732  29.042  1.00  0.00     0.173 A 
ATOM     62  F   UNL A   1      41.857  29.369  27.891  1.00  0.00    -0.203 F 
ATOM     63  C   UNL A   1      41.108  27.428  26.795  1.00  0.00     0.198 A 
ATOM     64  C   UNL A   1      39.633  25.906  27.920  1.00  0.00     0.198 A 
ATOM     65  F   UNL A   1      38.889  26.376  30.101  1.00  0.00    -0.203 F 
ATOM     66  F   UNL A   1      41.780  27.795  25.695  1.00  0.00    -0.200 F 
ATOM     67  C   UNL A   1      40.360  26.261  26.793  1.00  0.00     0.200 A 
ATOM     68  F   UNL A   1      38.918  24.772  27.923  1.00  0.00    -0.200 F 
ATOM     69  F   UNL A   1      40.329  25.486  25.701  1.00  0.00    -0.200 F 
ENDBRANCH  45  59
BRANCH  46  70
ATOM     70  C   UNL A   1      39.463  34.027  36.978  1.00  0.00     0.064 A 
ATOM     71  C   UNL A   1      38.720  33.641  38.103  1.00  0.00     0.173 A 
ATOM     72  C   UNL A   1      40.099  35.276  37.014  1.00  0.00     0.173 A 
ATOM     73  F   UNL A   1      38.084  32.461  38.111  1.00  0.00    -0.203 F 
ATOM     74  C   UNL A   1      38.607  34.475  39.213  1.00  0.00     0.198 A 
ATOM     75  C   UNL A   1      40.006  36.099  38.135  1.00  0.00     0.198 A 
ATOM     76  F   UNL A   1      40.832  35.687  35.968  1.00  0.00    -0.203 F 
ATOM     77  F   UNL A   1      37.865  34.094  40.262  1.00  0.00    -0.200 F 
ATOM     78  C   UNL A   1      39.257  35.700  39.231  1.00  0.00     0.200 A 
ATOM     79  F   UNL A   1      40.649  37.274  38.156  1.00  0.00    -0.200 F 
ATOM     80  F   UNL A   1      39.158  36.497  40.304  1.00  0.00    -0.200 F 
ENDBRANCH  46  70
BRANCH  58  81
ATOM     81  C   UNL A   1      43.856  28.871  35.325  1.00  0.00     0.064 A 
ATOM     82  C   UNL A   1      43.712  27.781  36.195  1.00  0.00     0.173 A 
ATOM     83  C   UNL A   1      45.147  29.374  35.103  1.00  0.00     0.173 A 
ATOM     84  F   UNL A   1      42.496  27.277  36.449  1.00  0.00    -0.203 F 
ATOM     85  C   UNL A   1      44.817  27.231  36.837  1.00  0.00     0.198 A 
ATOM     86  C   UNL A   1      46.253  28.801  35.723  1.00  0.00     0.198 A 
ATOM     87  F   UNL A   1      45.336  30.411  34.273  1.00  0.00    -0.203 F 
ATOM     88  F   UNL A   1      44.652  26.220  37.701  1.00  0.00    -0.200 F 
ATOM     89  C   UNL A   1      46.086  27.736  36.594  1.00  0.00     0.200 A 
ATOM     90  F   UNL A   1      47.480  29.279  35.475  1.00  0.00    -0.200 F 
ATOM     91  F   UNL A   1      47.149  27.197  37.206  1.00  0.00    -0.200 F 
ENDBRANCH  58  81
ENDBRANCH  32  33
ENDBRANCH  24  27
ENDBRANCH  22  23
ENDBRANCH  21  22
ENDBRANCH  20  21
ENDBRANCH   3  20
TORSDOF 15
ENDMDL
MODEL 2
REMARK VINA RESULT:     -11.0      5.794     11.354
REMARK SMILES N#CCC1(C[N@@H+]2CCO[C@H](CC(=O)NCCCNC(=O)c3ccc(-c4c5nc(c(-c6c(F)c(F)c(F)c(F)c6F)c6ccc([nH]6)c(-c6c(F)c(F)c(F)c(F)c6F)c6nc(c(-c7c(F)c(F)c(F)c(F)c7F)c7ccc4[nH]7)C=C6)C=C5)cc3)C2)CC1
REMARK SMILES IDX 12 1 13 2 14 3 11 5 10 6 6 7 7 8 84 9 8 11 9 12 5 13 4 14
REMARK SMILES IDX 85 15 86 16 3 17 2 18 1 19 15 20 16 21 17 22 18 23 19 24
REMARK SMILES IDX 20 26 21 27 22 28 83 29 23 30 82 31 24 32 25 33 26 34 76 35
REMARK SMILES IDX 27 36 81 37 75 38 77 39 28 40 80 41 74 42 73 43 29 45 61 46
REMARK SMILES IDX 41 47 60 48 42 49 45 50 59 51 78 52 43 53 44 54 58 56 79 57
REMARK SMILES IDX 46 58 30 59 31 60 39 61 32 62 33 63 37 64 40 65 34 66 35 67
REMARK SMILES IDX 38 68 36 69 62 70 63 71 71 72 64 73 65 74 69 75 72 76 66 77
REMARK SMILES IDX 67 78 70 79 68 80 47 81 48 82 56 83 49 84 50 85 54 86 57 87
REMARK SMILES IDX 51 88 52 89 55 90 53 91
REMARK H PARENT 14 4 6 10 18 25 77 44 45 55
REMARK Flexibility Score: inf
ROOT
ATOM      1  C   UNL A   1      36.220  22.578  23.739  1.00  0.00     0.222 C 
ATOM      2  O   UNL A   1      36.426  23.277  22.752  1.00  0.00    -0.275 OA
ATOM      3  N   UNL A   1      37.170  21.706  24.178  1.00  0.00    -0.356 N 
ATOM      4  H   UNL A   1      38.107  21.895  23.942  1.00  0.00     0.163 HD
ENDROOT
BRANCH   1   5
ATOM      5  C   UNL A   1      34.976  22.689  24.561  1.00  0.00     0.138 C 
BRANCH   5   6
ATOM      6  C   UNL A   1      33.666  22.874  23.811  1.00  0.00     0.182 C 
ATOM      7  N   UNL A   1      32.476  24.613  25.155  1.00  0.00    -0.330 N 
ATOM      8  C   UNL A   1      31.544  23.611  25.644  1.00  0.00     0.291 C 
ATOM      9  C   UNL A   1      33.089  24.298  23.880  1.00  0.00     0.295 C 
ATOM     10  H   UNL A   1      31.802  25.354  24.961  1.00  0.00     0.348 HD
ATOM     11  C   UNL A   1      32.060  22.170  25.503  1.00  0.00     0.222 C 
ATOM     12  O   UNL A   1      32.684  21.897  24.237  1.00  0.00    -0.366 OA
BRANCH   7  13
ATOM     13  C   UNL A   1      33.119  25.560  26.031  1.00  0.00     0.270 C 
BRANCH  13  14
ATOM     14  C   UNL A   1      32.657  27.039  25.898  1.00  0.00     0.032 C 
ATOM     15  C   UNL A   1      31.568  27.486  26.882  1.00  0.00     0.015 C 
ATOM     16  C   UNL A   1      31.198  27.215  25.468  1.00  0.00     0.015 C 
BRANCH  14  17
ATOM     17  C   UNL A   1      33.791  28.139  25.674  1.00  0.00     0.133 C 
BRANCH  17  18
ATOM     18  C   UNL A   1      33.779  27.930  24.169  1.00  0.00     0.063 C 
ATOM     19  N   UNL A   1      33.769  27.757  22.920  1.00  0.00    -0.198 NA
ENDBRANCH  17  18
ENDBRANCH  14  17
ENDBRANCH  13  14
ENDBRANCH   7  13
ENDBRANCH   5   6
ENDBRANCH   1   5
BRANCH   3  20
ATOM     20  C   UNL A   1      36.903  20.518  24.969  1.00  0.00     0.117 C 
BRANCH  20  21
ATOM     21  C   UNL A   1      38.125  19.604  25.011  1.00  0.00     0.042 C 
BRANCH  21  22
ATOM     22  C   UNL A   1      39.254  20.211  25.833  1.00  0.00     0.118 C 
BRANCH  22  23
ATOM     23  N   UNL A   1      40.249  19.186  26.117  1.00  0.00    -0.352 N 
ATOM     24  C   UNL A   1      41.607  19.366  26.080  1.00  0.00     0.251 C 
ATOM     25  H   UNL A   1      39.918  18.290  26.356  1.00  0.00     0.163 HD
ATOM     26  O   UNL A   1      42.368  18.457  25.789  1.00  0.00    -0.269 OA
BRANCH  24  27
ATOM     27  C   UNL A   1      42.097  20.710  26.419  1.00  0.00     0.039 A 
ATOM     28  C   UNL A   1      42.290  21.075  27.748  1.00  0.00     0.014 A 
ATOM     29  C   UNL A   1      42.414  21.579  25.369  1.00  0.00     0.014 A 
ATOM     30  C   UNL A   1      42.819  22.333  28.026  1.00  0.00     0.010 A 
ATOM     31  C   UNL A   1      43.051  22.771  25.642  1.00  0.00     0.010 A 
ATOM     32  C   UNL A   1      43.207  23.181  26.972  1.00  0.00    -0.014 A 
BRANCH  32  33
ATOM     33  C   UNL A   1      43.692  24.552  27.218  1.00  0.00     0.031 A 
ATOM     34  C   UNL A   1      42.733  25.570  27.770  1.00  0.00     0.074 A 
ATOM     35  C   UNL A   1      44.947  24.888  26.876  1.00  0.00     0.049 A 
ATOM     36  N   UNL A   1      42.910  26.847  27.980  1.00  0.00    -0.248 NA
ATOM     37  C   UNL A   1      41.371  25.095  28.079  1.00  0.00     0.031 C 
ATOM     38  C   UNL A   1      45.931  23.988  26.274  1.00  0.00     0.029 A 
ATOM     39  N   UNL A   1      45.605  26.083  26.981  1.00  0.00    -0.354 N 
ATOM     40  C   UNL A   1      41.681  27.326  28.415  1.00  0.00     0.074 A 
ATOM     41  C   UNL A   1      40.747  26.226  28.359  1.00  0.00     0.031 C 
ATOM     42  C   UNL A   1      47.083  24.654  26.101  1.00  0.00     0.029 A 
ATOM     43  C   UNL A   1      46.904  26.032  26.547  1.00  0.00     0.049 A 
ATOM     44  H   UNL A   1      45.185  26.900  27.335  1.00  0.00     0.167 HD
ATOM     45  C   UNL A   1      41.370  28.565  28.860  1.00  0.00     0.037 A 
ATOM     46  C   UNL A   1      47.841  26.998  26.524  1.00  0.00     0.037 A 
ATOM     47  C   UNL A   1      42.326  29.634  28.950  1.00  0.00     0.049 A 
ATOM     48  C   UNL A   1      47.482  28.363  27.041  1.00  0.00     0.074 A 
ATOM     49  C   UNL A   1      42.154  30.909  29.452  1.00  0.00     0.029 A 
ATOM     50  N   UNL A   1      43.645  29.540  28.526  1.00  0.00    -0.354 N 
ATOM     51  N   UNL A   1      46.339  28.790  27.523  1.00  0.00    -0.248 NA
ATOM     52  C   UNL A   1      48.543  29.376  27.018  1.00  0.00     0.031 C 
ATOM     53  C   UNL A   1      43.358  31.604  29.292  1.00  0.00     0.029 A 
ATOM     54  C   UNL A   1      44.295  30.745  28.735  1.00  0.00     0.049 A 
ATOM     55  H   UNL A   1      44.057  28.737  28.133  1.00  0.00     0.167 HD
ATOM     56  C   UNL A   1      46.548  30.115  27.885  1.00  0.00     0.074 A 
ATOM     57  C   UNL A   1      47.934  30.411  27.578  1.00  0.00     0.031 C 
ATOM     58  C   UNL A   1      45.677  31.005  28.421  1.00  0.00     0.037 A 
BRANCH  45  59
ATOM     59  C   UNL A   1      39.949  28.809  29.281  1.00  0.00     0.064 A 
ATOM     60  C   UNL A   1      39.519  28.580  30.599  1.00  0.00     0.173 A 
ATOM     61  C   UNL A   1      38.999  29.259  28.354  1.00  0.00     0.173 A 
ATOM     62  F   UNL A   1      40.383  28.132  31.523  1.00  0.00    -0.203 F 
ATOM     63  C   UNL A   1      38.184  28.745  30.958  1.00  0.00     0.198 A 
ATOM     64  C   UNL A   1      37.671  29.458  28.725  1.00  0.00     0.198 A 
ATOM     65  F   UNL A   1      39.353  29.495  27.081  1.00  0.00    -0.203 F 
ATOM     66  F   UNL A   1      37.785  28.446  32.202  1.00  0.00    -0.200 F 
ATOM     67  C   UNL A   1      37.262  29.188  30.023  1.00  0.00     0.200 A 
ATOM     68  F   UNL A   1      36.782  29.897  27.824  1.00  0.00    -0.200 F 
ATOM     69  F   UNL A   1      35.977  29.343  30.369  1.00  0.00    -0.200 F 
ENDBRANCH  45  59
BRANCH  46  70
ATOM     70  C   UNL A   1      49.212  26.680  26.054  1.00  0.00     0.064 A 
ATOM     71  C   UNL A   1      49.605  26.985  24.743  1.00  0.00     0.173 A 
ATOM     72  C   UNL A   1      50.166  26.101  26.903  1.00  0.00     0.173 A 
ATOM     73  F   UNL A   1      48.724  27.529  23.890  1.00  0.00    -0.203 F 
ATOM     74  C   UNL A   1      50.896  26.713  24.295  1.00  0.00     0.198 A 
ATOM     75  C   UNL A   1      51.465  25.852  26.462  1.00  0.00     0.198 A 
ATOM     76  F   UNL A   1      49.844  25.800  28.170  1.00  0.00    -0.203 F 
ATOM     77  F   UNL A   1      51.235  26.988  23.028  1.00  0.00    -0.200 F 
ATOM     78  C   UNL A   1      51.826  26.154  25.158  1.00  0.00     0.200 A 
ATOM     79  F   UNL A   1      52.367  25.328  27.302  1.00  0.00    -0.200 F 
ATOM     80  F   UNL A   1      53.072  25.902  24.730  1.00  0.00    -0.200 F 
ENDBRANCH  46  70
BRANCH  58  81
ATOM     81  C   UNL A   1      46.208  32.373  28.733  1.00  0.00     0.064 A 
ATOM     82  C   UNL A   1      46.143  33.416  27.799  1.00  0.00     0.173 A 
ATOM     83  C   UNL A   1      46.745  32.651  29.999  1.00  0.00     0.173 A 
ATOM     84  F   UNL A   1      45.651  33.193  26.571  1.00  0.00    -0.203 F 
ATOM     85  C   UNL A   1      46.620  34.684  28.113  1.00  0.00     0.198 A 
ATOM     86  C   UNL A   1      47.192  33.928  30.320  1.00  0.00     0.198 A 
ATOM     87  F   UNL A   1      46.820  31.687  30.929  1.00  0.00    -0.203 F 
ATOM     88  F   UNL A   1      46.593  35.655  27.191  1.00  0.00    -0.200 F 
ATOM     89  C   UNL A   1      47.137  34.941  29.375  1.00  0.00     0.200 A 
ATOM     90  F   UNL A   1      47.676  34.179  31.544  1.00  0.00    -0.200 F 
ATOM     91  F   UNL A   1      47.587  36.166  29.678  1.00  0.00    -0.200 F 
ENDBRANCH  58  81
ENDBRANCH  32  33
ENDBRANCH  24  27
ENDBRANCH  22  23
ENDBRANCH  21  22
ENDBRANCH  20  21
ENDBRANCH   3  20
TORSDOF 15
ENDMDL
MODEL 3
REMARK VINA RESULT:     -11.0      0.804      7.586
REMARK SMILES N#CCC1(C[N@@H+]2CCO[C@H](CC(=O)NCCCNC(=O)c3ccc(-c4c5nc(c(-c6c(F)c(F)c(F)c(F)c6F)c6ccc([nH]6)c(-c6c(F)c(F)c(F)c(F)c6F)c6nc(c(-c7c(F)c(F)c(F)c(F)c7F)c7ccc4[nH]7)C=C6)C=C5)cc3)C2)CC1
REMARK SMILES IDX 12 1 13 2 14 3 11 5 10 6 6 7 7 8 84 9 8 11 9 12 5 13 4 14
REMARK SMILES IDX 85 15 86 16 3 17 2 18 1 19 15 20 16 21 17 22 18 23 19 24
REMARK SMILES IDX 20 26 21 27 22 28 83 29 23 30 82 31 24 32 25 33 26 34 76 35
REMARK SMILES IDX 27 36 81 37 75 38 77 39 28 40 80 41 74 42 73 43 29 45 61 46
REMARK SMILES IDX 41 47 60 48 42 49 45 50 59 51 78 52 43 53 44 54 58 56 79 57
REMARK SMILES IDX 46 58 30 59 31 60 39 61 32 62 33 63 37 64 40 65 34 66 35 67
REMARK SMILES IDX 38 68 36 69 62 70 63 71 71 72 64 73 65 74 69 75 72 76 66 77
REMARK SMILES IDX 67 78 70 79 68 80 47 81 48 82 56 83 49 84 50 85 54 86 57 87
REMARK SMILES IDX 51 88 52 89 55 90 53 91
REMARK H PARENT 14 4 6 10 18 25 77 44 45 55
REMARK Flexibility Score: inf
ROOT
ATOM      1  C   UNL A   1      32.351  28.853  26.708  1.00  0.00     0.222 C 
ATOM      2  O   UNL A   1      32.405  28.010  27.598  1.00  0.00    -0.275 OA
ATOM      3  N   UNL A   1      31.936  30.121  26.982  1.00  0.00    -0.356 N 
ATOM      4  H   UNL A   1      32.031  30.443  27.908  1.00  0.00     0.163 HD
ENDROOT
BRANCH   1   5
ATOM      5  C   UNL A   1      32.806  28.580  25.310  1.00  0.00     0.138 C 
BRANCH   5   6
ATOM      6  C   UNL A   1      31.923  27.682  24.458  1.00  0.00     0.182 C 
ATOM      7  N   UNL A   1      33.346  25.662  24.090  1.00  0.00    -0.330 N 
ATOM      8  C   UNL A   1      33.542  26.041  22.701  1.00  0.00     0.291 C 
ATOM      9  C   UNL A   1      32.134  26.176  24.692  1.00  0.00     0.295 C 
ATOM     10  H   UNL A   1      33.180  24.665  23.944  1.00  0.00     0.348 HD
ATOM     11  C   UNL A   1      33.251  27.524  22.421  1.00  0.00     0.222 C 
ATOM     12  O   UNL A   1      32.054  28.010  23.052  1.00  0.00    -0.366 OA
BRANCH   7  13
ATOM     13  C   UNL A   1      34.438  25.256  24.939  1.00  0.00     0.270 C 
BRANCH  13  14
ATOM     14  C   UNL A   1      34.574  23.729  25.198  1.00  0.00     0.032 C 
ATOM     15  C   UNL A   1      34.121  23.247  26.583  1.00  0.00     0.015 C 
ATOM     16  C   UNL A   1      35.576  23.355  26.294  1.00  0.00     0.015 C 
BRANCH  14  17
ATOM     17  C   UNL A   1      34.137  22.748  24.018  1.00  0.00     0.133 C 
BRANCH  17  18
ATOM     18  C   UNL A   1      35.486  22.882  23.329  1.00  0.00     0.063 C 
ATOM     19  N   UNL A   1      36.604  22.993  22.757  1.00  0.00    -0.198 NA
ENDBRANCH  17  18
ENDBRANCH  14  17
ENDBRANCH  13  14
ENDBRANCH   7  13
ENDBRANCH   5   6
ENDBRANCH   1   5
BRANCH   3  20
ATOM     20  C   UNL A   1      31.363  31.034  26.009  1.00  0.00     0.117 C 
BRANCH  20  21
ATOM     21  C   UNL A   1      31.322  32.459  26.556  1.00  0.00     0.042 C 
BRANCH  21  22
ATOM     22  C   UNL A   1      32.608  32.818  27.289  1.00  0.00     0.118 C 
BRANCH  22  23
ATOM     23  N   UNL A   1      32.579  34.229  27.652  1.00  0.00    -0.352 N 
ATOM     24  C   UNL A   1      33.127  34.767  28.786  1.00  0.00     0.251 C 
ATOM     25  H   UNL A   1      32.127  34.845  27.030  1.00  0.00     0.163 HD
ATOM     26  O   UNL A   1      32.656  35.759  29.320  1.00  0.00    -0.269 OA
BRANCH  24  27
ATOM     27  C   UNL A   1      34.319  34.093  29.319  1.00  0.00     0.039 A 
ATOM     28  C   UNL A   1      35.591  34.479  28.908  1.00  0.00     0.014 A 
ATOM     29  C   UNL A   1      34.135  33.098  30.287  1.00  0.00     0.014 A 
ATOM     30  C   UNL A   1      36.697  33.861  29.486  1.00  0.00     0.010 A 
ATOM     31  C   UNL A   1      35.230  32.578  30.944  1.00  0.00     0.010 A 
ATOM     32  C   UNL A   1      36.518  32.914  30.511  1.00  0.00    -0.014 A 
BRANCH  32  33
ATOM     33  C   UNL A   1      37.655  32.175  31.091  1.00  0.00     0.031 A 
ATOM     34  C   UNL A   1      38.114  32.526  32.478  1.00  0.00     0.074 A 
ATOM     35  C   UNL A   1      38.306  31.262  30.350  1.00  0.00     0.049 A 
ATOM     36  N   UNL A   1      39.139  32.076  33.152  1.00  0.00    -0.248 NA
ATOM     37  C   UNL A   1      37.344  33.566  33.185  1.00  0.00     0.031 C 
ATOM     38  C   UNL A   1      37.976  30.899  28.971  1.00  0.00     0.029 A 
ATOM     39  N   UNL A   1      39.386  30.480  30.655  1.00  0.00    -0.354 N 
ATOM     40  C   UNL A   1      39.148  32.796  34.340  1.00  0.00     0.074 A 
ATOM     41  C   UNL A   1      38.083  33.768  34.262  1.00  0.00     0.031 C 
ATOM     42  C   UNL A   1      38.814  29.932  28.563  1.00  0.00     0.029 A 
ATOM     43  C   UNL A   1      39.756  29.638  29.638  1.00  0.00     0.049 A 
ATOM     44  H   UNL A   1      39.853  30.518  31.520  1.00  0.00     0.167 HD
ATOM     45  C   UNL A   1      39.951  32.632  35.416  1.00  0.00     0.037 A 
ATOM     46  C   UNL A   1      40.744  28.726  29.594  1.00  0.00     0.037 A 
ATOM     47  C   UNL A   1      40.976  31.628  35.490  1.00  0.00     0.049 A 
ATOM     48  C   UNL A   1      41.612  28.545  30.807  1.00  0.00     0.074 A 
ATOM     49  C   UNL A   1      41.804  31.313  36.551  1.00  0.00     0.029 A 
ATOM     50  N   UNL A   1      41.307  30.771  34.450  1.00  0.00    -0.354 N 
ATOM     51  N   UNL A   1      41.568  29.175  31.957  1.00  0.00    -0.248 NA
ATOM     52  C   UNL A   1      42.661  27.522  30.721  1.00  0.00     0.031 C 
ATOM     53  C   UNL A   1      42.667  30.292  36.137  1.00  0.00     0.029 A 
ATOM     54  C   UNL A   1      42.344  29.938  34.835  1.00  0.00     0.049 A 
ATOM     55  H   UNL A   1      40.870  30.757  33.567  1.00  0.00     0.167 HD
ATOM     56  C   UNL A   1      42.565  28.610  32.742  1.00  0.00     0.074 A 
ATOM     57  C   UNL A   1      43.186  27.575  31.937  1.00  0.00     0.031 C 
ATOM     58  C   UNL A   1      42.936  28.916  34.010  1.00  0.00     0.037 A 
BRANCH  45  59
ATOM     59  C   UNL A   1      39.735  33.553  36.583  1.00  0.00     0.064 A 
ATOM     60  C   UNL A   1      38.895  33.206  37.654  1.00  0.00     0.173 A 
ATOM     61  C   UNL A   1      40.359  34.808  36.623  1.00  0.00     0.173 A 
ATOM     62  F   UNL A   1      38.259  32.024  37.657  1.00  0.00    -0.203 F 
ATOM     63  C   UNL A   1      38.651  34.098  38.694  1.00  0.00     0.198 A 
ATOM     64  C   UNL A   1      40.141  35.685  37.684  1.00  0.00     0.198 A 
ATOM     65  F   UNL A   1      41.172  35.194  35.628  1.00  0.00    -0.203 F 
ATOM     66  F   UNL A   1      37.786  33.772  39.664  1.00  0.00    -0.200 F 
ATOM     67  C   UNL A   1      39.277  35.335  38.712  1.00  0.00     0.200 A 
ATOM     68  F   UNL A   1      40.755  36.876  37.706  1.00  0.00    -0.200 F 
ATOM     69  F   UNL A   1      39.038  36.194  39.711  1.00  0.00    -0.200 F 
ENDBRANCH  45  59
BRANCH  46  70
ATOM     70  C   UNL A   1      40.912  27.883  28.384  1.00  0.00     0.064 A 
ATOM     71  C   UNL A   1      40.241  26.657  28.271  1.00  0.00     0.173 A 
ATOM     72  C   UNL A   1      41.711  28.291  27.306  1.00  0.00     0.173 A 
ATOM     73  F   UNL A   1      39.475  26.219  29.281  1.00  0.00    -0.203 F 
ATOM     74  C   UNL A   1      40.372  25.866  27.132  1.00  0.00     0.198 A 
ATOM     75  C   UNL A   1      41.822  27.511  26.157  1.00  0.00     0.198 A 
ATOM     76  F   UNL A   1      42.365  29.461  27.361  1.00  0.00    -0.203 F 
ATOM     77  F   UNL A   1      39.743  24.684  27.063  1.00  0.00    -0.200 F 
ATOM     78  C   UNL A   1      41.157  26.297  26.073  1.00  0.00     0.200 A 
ATOM     79  F   UNL A   1      42.566  27.938  25.129  1.00  0.00    -0.200 F 
ATOM     80  F   UNL A   1      41.273  25.542  24.972  1.00  0.00    -0.200 F 
ENDBRANCH  46  70
BRANCH  58  81
ATOM     81  C   UNL A   1      44.044  28.103  34.610  1.00  0.00     0.064 A 
ATOM     82  C   UNL A   1      45.381  28.520  34.540  1.00  0.00     0.173 A 
ATOM     83  C   UNL A   1      43.757  26.917  35.302  1.00  0.00     0.173 A 
ATOM     84  F   UNL A   1      45.705  29.639  33.876  1.00  0.00    -0.203 F 
ATOM     85  C   UNL A   1      46.394  27.764  35.121  1.00  0.00     0.198 A 
ATOM     86  C   UNL A   1      44.769  26.181  35.908  1.00  0.00     0.198 A 
ATOM     87  F   UNL A   1      42.492  26.482  35.403  1.00  0.00    -0.203 F 
ATOM     88  F   UNL A   1      47.670  28.155  35.001  1.00  0.00    -0.200 F 
ATOM     89  C   UNL A   1      46.087  26.601  35.811  1.00  0.00     0.200 A 
ATOM     90  F   UNL A   1      44.469  25.066  36.588  1.00  0.00    -0.200 F 
ATOM     91  F   UNL A   1      47.064  25.880  36.378  1.00  0.00    -0.200 F 
ENDBRANCH  58  81
ENDBRANCH  32  33
ENDBRANCH  24  27
ENDBRANCH  22  23
ENDBRANCH  21  22
ENDBRANCH  20  21
ENDBRANCH   3  20
TORSDOF 15
ENDMDL
