MODEL 1
REMARK VINA RESULT:     -12.0      0.000      0.000
REMARK SMILES CC1(C)[C@@H](CBr)CC[C@]1(C)C(=O)NCCCNC(=O)c1ccc(-c2c3nc(c(-c4c(F)c(F)c(F)c(F)c4F)c4ccc([nH]4)c(-c4c(F)c(F)c(F)c(F)c4F)c4nc(c(-c5c(F)c(F)c(F)c(F)c5F)c5ccc2[nH]5)C=C4)C=C3)cc1
REMARK SMILES IDX 15 1 14 2 13 3 11 4 12 5 9 7 1 8 2 9 3 10 4 11 7 12 8 13
REMARK SMILES IDX 10 14 5 15 6 16 16 17 17 18 18 19 19 21 20 22 21 23 82 24
REMARK SMILES IDX 22 25 81 26 23 27 24 28 25 29 75 30 26 31 80 32 74 33 76 34
REMARK SMILES IDX 27 35 79 36 73 37 72 38 28 40 60 41 40 42 59 43 41 44 44 45
REMARK SMILES IDX 58 46 77 47 42 48 43 49 57 51 78 52 45 53 29 54 30 55 38 56
REMARK SMILES IDX 31 57 32 58 36 59 39 60 33 61 34 62 37 63 35 64 61 65 62 66
REMARK SMILES IDX 70 67 63 68 64 69 68 70 71 71 65 72 66 73 69 74 67 75 46 76
REMARK SMILES IDX 47 77 55 78 48 79 49 80 53 81 56 82 50 83 51 84 54 85 52 86
REMARK H PARENT 13 6 17 20 76 39 44 50
REMARK Flexibility Score: inf
ROOT
ATOM      1  C   UNL A   1      37.787  19.671  24.995  1.00  0.00     0.042 C 
ENDROOT
BRANCH   1   2
ATOM      2  C   UNL A   1      36.597  20.622  24.988  1.00  0.00     0.117 C 
BRANCH   2   3
ATOM      3  N   UNL A   1      35.337  19.917  25.129  1.00  0.00    -0.356 N 
ATOM      4  C   UNL A   1      34.038  20.311  25.199  1.00  0.00     0.226 C 
ATOM      5  O   UNL A   1      33.234  19.389  25.372  1.00  0.00    -0.274 OA
ATOM      6  H   UNL A   1      35.446  18.940  25.186  1.00  0.00     0.163 HD
BRANCH   4   7
ATOM      7  C   UNL A   1      33.572  21.791  25.066  1.00  0.00     0.052 C 
ATOM      8  C   UNL A   1      35.293  23.438  26.242  1.00  0.00     0.012 C 
ATOM      9  C   UNL A   1      33.942  22.722  26.292  1.00  0.00    -0.018 C 
ATOM     10  C   UNL A   1      33.959  21.889  27.619  1.00  0.00     0.012 C 
ATOM     11  C   UNL A   1      32.741  23.735  26.395  1.00  0.00     0.006 C 
ATOM     12  C   UNL A   1      31.542  22.805  26.168  1.00  0.00     0.006 C 
ATOM     13  C   UNL A   1      31.993  21.833  25.077  1.00  0.00     0.017 C 
ATOM     14  C   UNL A   1      34.002  22.289  23.666  1.00  0.00     0.022 C 
BRANCH  11  15
ATOM     15  C   UNL A   1      32.572  24.915  25.423  1.00  0.00     0.084 C 
ATOM     16  Br  UNL A   1      33.282  26.619  25.999  1.00  0.00    -0.092 Br
ENDBRANCH  11  15
ENDBRANCH   4   7
ENDBRANCH   2   3
ENDBRANCH   1   2
BRANCH   1  17
ATOM     17  C   UNL A   1      39.003  20.225  25.711  1.00  0.00     0.118 C 
BRANCH  17  18
ATOM     18  N   UNL A   1      40.017  19.205  25.932  1.00  0.00    -0.352 N 
ATOM     19  C   UNL A   1      41.370  19.334  26.129  1.00  0.00     0.251 C 
ATOM     20  H   UNL A   1      39.681  18.278  25.944  1.00  0.00     0.163 HD
ATOM     21  O   UNL A   1      42.095  18.349  26.049  1.00  0.00    -0.269 OA
BRANCH  19  22
ATOM     22  C   UNL A   1      41.960  20.661  26.417  1.00  0.00     0.039 A 
ATOM     23  C   UNL A   1      42.284  21.507  25.354  1.00  0.00     0.014 A 
ATOM     24  C   UNL A   1      42.215  21.064  27.730  1.00  0.00     0.014 A 
ATOM     25  C   UNL A   1      42.800  22.780  25.611  1.00  0.00     0.010 A 
ATOM     26  C   UNL A   1      42.623  22.367  27.989  1.00  0.00     0.010 A 
ATOM     27  C   UNL A   1      42.937  23.234  26.933  1.00  0.00    -0.014 A 
BRANCH  27  28
ATOM     28  C   UNL A   1      43.430  24.601  27.243  1.00  0.00     0.031 A 
ATOM     29  C   UNL A   1      42.485  25.628  27.804  1.00  0.00     0.074 A 
ATOM     30  C   UNL A   1      44.700  24.939  26.946  1.00  0.00     0.049 A 
ATOM     31  N   UNL A   1      42.685  26.900  28.039  1.00  0.00    -0.248 NA
ATOM     32  C   UNL A   1      41.119  25.171  28.111  1.00  0.00     0.031 C 
ATOM     33  C   UNL A   1      45.698  24.045  26.358  1.00  0.00     0.029 A 
ATOM     34  N   UNL A   1      45.365  26.132  27.085  1.00  0.00    -0.354 N 
ATOM     35  C   UNL A   1      41.471  27.395  28.498  1.00  0.00     0.074 A 
ATOM     36  C   UNL A   1      40.523  26.304  28.451  1.00  0.00     0.031 C 
ATOM     37  C   UNL A   1      46.853  24.713  26.207  1.00  0.00     0.029 A 
ATOM     38  C   UNL A   1      46.664  26.093  26.643  1.00  0.00     0.049 A 
ATOM     39  H   UNL A   1      44.949  26.939  27.466  1.00  0.00     0.167 HD
ATOM     40  C   UNL A   1      41.180  28.641  28.943  1.00  0.00     0.037 A 
ATOM     41  C   UNL A   1      47.594  27.066  26.582  1.00  0.00     0.037 A 
ATOM     42  C   UNL A   1      42.136  29.714  29.013  1.00  0.00     0.049 A 
ATOM     43  C   UNL A   1      47.241  28.446  27.070  1.00  0.00     0.074 A 
ATOM     44  C   UNL A   1      41.960  30.994  29.505  1.00  0.00     0.029 A 
ATOM     45  N   UNL A   1      43.450  29.629  28.575  1.00  0.00    -0.354 N 
ATOM     46  N   UNL A   1      46.109  28.885  27.564  1.00  0.00    -0.248 NA
ATOM     47  C   UNL A   1      48.297  29.465  26.995  1.00  0.00     0.031 C 
ATOM     48  C   UNL A   1      43.149  31.703  29.312  1.00  0.00     0.029 A 
ATOM     49  C   UNL A   1      44.088  30.845  28.760  1.00  0.00     0.049 A 
ATOM     50  H   UNL A   1      43.866  28.825  28.189  1.00  0.00     0.167 HD
ATOM     51  C   UNL A   1      46.325  30.217  27.891  1.00  0.00     0.074 A 
ATOM     52  C   UNL A   1      47.702  30.512  27.549  1.00  0.00     0.031 C 
ATOM     53  C   UNL A   1      45.463  31.115  28.427  1.00  0.00     0.037 A 
BRANCH  40  54
ATOM     54  C   UNL A   1      39.771  28.910  29.390  1.00  0.00     0.064 A 
ATOM     55  C   UNL A   1      39.360  28.686  30.714  1.00  0.00     0.173 A 
ATOM     56  C   UNL A   1      38.827  29.431  28.492  1.00  0.00     0.173 A 
ATOM     57  F   UNL A   1      40.218  28.178  31.611  1.00  0.00    -0.203 F 
ATOM     58  C   UNL A   1      38.050  28.943  31.112  1.00  0.00     0.198 A 
ATOM     59  C   UNL A   1      37.528  29.719  28.902  1.00  0.00     0.198 A 
ATOM     60  F   UNL A   1      39.165  29.669  27.216  1.00  0.00    -0.203 F 
ATOM     61  F   UNL A   1      37.668  28.668  32.366  1.00  0.00    -0.200 F 
ATOM     62  C   UNL A   1      37.138  29.467  30.209  1.00  0.00     0.200 A 
ATOM     63  F   UNL A   1      36.652  30.240  28.032  1.00  0.00    -0.200 F 
ATOM     64  F   UNL A   1      35.881  29.721  30.596  1.00  0.00    -0.200 F 
ENDBRANCH  40  54
BRANCH  41  65
ATOM     65  C   UNL A   1      48.952  26.765  26.056  1.00  0.00     0.064 A 
ATOM     66  C   UNL A   1      49.945  26.229  26.890  1.00  0.00     0.173 A 
ATOM     67  C   UNL A   1      49.291  27.012  24.718  1.00  0.00     0.173 A 
ATOM     68  F   UNL A   1      49.676  25.994  28.183  1.00  0.00    -0.203 F 
ATOM     69  C   UNL A   1      51.228  25.975  26.411  1.00  0.00     0.198 A 
ATOM     70  C   UNL A   1      50.566  26.727  24.232  1.00  0.00     0.198 A 
ATOM     71  F   UNL A   1      48.377  27.519  23.877  1.00  0.00    -0.203 F 
ATOM     72  F   UNL A   1      52.170  25.511  27.243  1.00  0.00    -0.200 F 
ATOM     73  C   UNL A   1      51.536  26.218  25.082  1.00  0.00     0.200 A 
ATOM     74  F   UNL A   1      50.853  26.948  22.942  1.00  0.00    -0.200 F 
ATOM     75  F   UNL A   1      52.769  25.969  24.620  1.00  0.00    -0.200 F 
ENDBRANCH  41  65
BRANCH  53  76
ATOM     76  C   UNL A   1      45.992  32.489  28.724  1.00  0.00     0.064 A 
ATOM     77  C   UNL A   1      45.898  33.535  27.795  1.00  0.00     0.173 A 
ATOM     78  C   UNL A   1      46.551  32.773  29.981  1.00  0.00     0.173 A 
ATOM     79  F   UNL A   1      45.385  33.312  26.576  1.00  0.00    -0.203 F 
ATOM     80  C   UNL A   1      46.366  34.809  28.103  1.00  0.00     0.198 A 
ATOM     81  C   UNL A   1      46.986  34.056  30.298  1.00  0.00     0.198 A 
ATOM     82  F   UNL A   1      46.657  31.811  30.908  1.00  0.00    -0.203 F 
ATOM     83  F   UNL A   1      46.310  35.783  27.184  1.00  0.00    -0.200 F 
ATOM     84  C   UNL A   1      46.900  35.071  29.357  1.00  0.00     0.200 A 
ATOM     85  F   UNL A   1      47.486  34.311  31.514  1.00  0.00    -0.200 F 
ATOM     86  F   UNL A   1      47.338  36.302  29.656  1.00  0.00    -0.200 F 
ENDBRANCH  53  76
ENDBRANCH  27  28
ENDBRANCH  19  22
ENDBRANCH  17  18
ENDBRANCH   1  17
TORSDOF 11
ENDMDL
MODEL 2
REMARK VINA RESULT:     -12.0      0.093      2.034
REMARK SMILES CC1(C)[C@@H](CBr)CC[C@]1(C)C(=O)NCCCNC(=O)c1ccc(-c2c3nc(c(-c4c(F)c(F)c(F)c(F)c4F)c4ccc([nH]4)c(-c4c(F)c(F)c(F)c(F)c4F)c4nc(c(-c5c(F)c(F)c(F)c(F)c5F)c5ccc2[nH]5)C=C4)C=C3)cc1
REMARK SMILES IDX 15 1 14 2 13 3 11 4 12 5 9 7 1 8 2 9 3 10 4 11 7 12 8 13
REMARK SMILES IDX 10 14 5 15 6 16 16 17 17 18 18 19 19 21 20 22 21 23 82 24
REMARK SMILES IDX 22 25 81 26 23 27 24 28 25 29 75 30 26 31 80 32 74 33 76 34
REMARK SMILES IDX 27 35 79 36 73 37 72 38 28 40 60 41 40 42 59 43 41 44 44 45
REMARK SMILES IDX 58 46 77 47 42 48 43 49 57 51 78 52 45 53 29 54 30 55 38 56
REMARK SMILES IDX 31 57 32 58 36 59 39 60 33 61 34 62 37 63 35 64 61 65 62 66
REMARK SMILES IDX 70 67 63 68 64 69 68 70 71 71 65 72 66 73 69 74 67 75 46 76
REMARK SMILES IDX 47 77 55 78 48 79 49 80 53 81 56 82 50 83 51 84 54 85 52 86
REMARK H PARENT 13 6 17 20 76 39 44 50
REMARK Flexibility Score: inf
ROOT
ATOM      1  C   UNL A   1      37.807  19.687  25.000  1.00  0.00     0.042 C 
ENDROOT
BRANCH   1   2
ATOM      2  C   UNL A   1      36.616  20.638  24.995  1.00  0.00     0.117 C 
BRANCH   2   3
ATOM      3  N   UNL A   1      35.357  19.932  25.134  1.00  0.00    -0.356 N 
ATOM      4  C   UNL A   1      34.058  20.325  25.202  1.00  0.00     0.226 C 
ATOM      5  O   UNL A   1      33.254  19.403  25.375  1.00  0.00    -0.274 OA
ATOM      6  H   UNL A   1      35.466  18.955  25.192  1.00  0.00     0.163 HD
BRANCH   4   7
ATOM      7  C   UNL A   1      33.590  21.805  25.069  1.00  0.00     0.052 C 
ATOM      8  C   UNL A   1      35.340  23.458  26.193  1.00  0.00     0.012 C 
ATOM      9  C   UNL A   1      33.989  22.744  26.278  1.00  0.00    -0.018 C 
ATOM     10  C   UNL A   1      34.035  21.922  27.611  1.00  0.00     0.012 C 
ATOM     11  C   UNL A   1      32.792  23.761  26.401  1.00  0.00     0.006 C 
ATOM     12  C   UNL A   1      31.587  22.830  26.208  1.00  0.00     0.006 C 
ATOM     13  C   UNL A   1      32.012  21.850  25.114  1.00  0.00     0.017 C 
ATOM     14  C   UNL A   1      33.989  22.291  23.656  1.00  0.00     0.022 C 
BRANCH  11  15
ATOM     15  C   UNL A   1      32.603  24.933  25.424  1.00  0.00     0.084 C 
ATOM     16  Br  UNL A   1      33.259  26.657  26.005  1.00  0.00    -0.092 Br
ENDBRANCH  11  15
ENDBRANCH   4   7
ENDBRANCH   2   3
ENDBRANCH   1   2
BRANCH   1  17
ATOM     17  C   UNL A   1      39.009  20.223  25.751  1.00  0.00     0.118 C 
BRANCH  17  18
ATOM     18  N   UNL A   1      40.027  19.203  25.950  1.00  0.00    -0.352 N 
ATOM     19  C   UNL A   1      41.383  19.332  26.126  1.00  0.00     0.251 C 
ATOM     20  H   UNL A   1      39.693  18.276  25.961  1.00  0.00     0.163 HD
ATOM     21  O   UNL A   1      42.108  18.348  26.029  1.00  0.00    -0.269 OA
BRANCH  19  22
ATOM     22  C   UNL A   1      41.976  20.658  26.414  1.00  0.00     0.039 A 
ATOM     23  C   UNL A   1      42.269  21.517  25.352  1.00  0.00     0.014 A 
ATOM     24  C   UNL A   1      42.265  21.046  27.723  1.00  0.00     0.014 A 
ATOM     25  C   UNL A   1      42.788  22.788  25.609  1.00  0.00     0.010 A 
ATOM     26  C   UNL A   1      42.677  22.348  27.986  1.00  0.00     0.010 A 
ATOM     27  C   UNL A   1      42.959  23.228  26.933  1.00  0.00    -0.014 A 
BRANCH  27  28
ATOM     28  C   UNL A   1      43.457  24.593  27.244  1.00  0.00     0.031 A 
ATOM     29  C   UNL A   1      42.512  25.623  27.803  1.00  0.00     0.074 A 
ATOM     30  C   UNL A   1      44.728  24.926  26.952  1.00  0.00     0.049 A 
ATOM     31  N   UNL A   1      42.716  26.894  28.039  1.00  0.00    -0.248 NA
ATOM     32  C   UNL A   1      41.144  25.171  28.105  1.00  0.00     0.031 C 
ATOM     33  C   UNL A   1      45.726  24.029  26.368  1.00  0.00     0.029 A 
ATOM     34  N   UNL A   1      45.397  26.117  27.094  1.00  0.00    -0.354 N 
ATOM     35  C   UNL A   1      41.503  27.393  28.493  1.00  0.00     0.074 A 
ATOM     36  C   UNL A   1      40.551  26.306  28.443  1.00  0.00     0.031 C 
ATOM     37  C   UNL A   1      46.883  24.693  26.221  1.00  0.00     0.029 A 
ATOM     38  C   UNL A   1      46.698  26.073  26.657  1.00  0.00     0.049 A 
ATOM     39  H   UNL A   1      44.983  26.925  27.474  1.00  0.00     0.167 HD
ATOM     40  C   UNL A   1      41.215  28.640  28.938  1.00  0.00     0.037 A 
ATOM     41  C   UNL A   1      47.632  27.042  26.600  1.00  0.00     0.037 A 
ATOM     42  C   UNL A   1      42.174  29.710  29.011  1.00  0.00     0.049 A 
ATOM     43  C   UNL A   1      47.282  28.423  27.087  1.00  0.00     0.074 A 
ATOM     44  C   UNL A   1      42.002  30.991  29.503  1.00  0.00     0.029 A 
ATOM     45  N   UNL A   1      43.489  29.621  28.578  1.00  0.00    -0.354 N 
ATOM     46  N   UNL A   1      46.150  28.867  27.577  1.00  0.00    -0.248 NA
ATOM     47  C   UNL A   1      48.342  29.439  27.017  1.00  0.00     0.031 C 
ATOM     48  C   UNL A   1      43.194  31.695  29.315  1.00  0.00     0.029 A 
ATOM     49  C   UNL A   1      44.131  30.834  28.766  1.00  0.00     0.049 A 
ATOM     50  H   UNL A   1      43.905  28.815  28.193  1.00  0.00     0.167 HD
ATOM     51  C   UNL A   1      46.370  30.197  27.906  1.00  0.00     0.074 A 
ATOM     52  C   UNL A   1      47.749  30.487  27.568  1.00  0.00     0.031 C 
ATOM     53  C   UNL A   1      45.509  31.099  28.438  1.00  0.00     0.037 A 
BRANCH  40  54
ATOM     54  C   UNL A   1      39.805  28.914  29.380  1.00  0.00     0.064 A 
ATOM     55  C   UNL A   1      38.834  29.402  28.491  1.00  0.00     0.173 A 
ATOM     56  C   UNL A   1      39.409  28.653  30.700  1.00  0.00     0.173 A 
ATOM     57  F   UNL A   1      39.160  29.680  27.220  1.00  0.00    -0.203 F 
ATOM     58  C   UNL A   1      37.531  29.650  28.916  1.00  0.00     0.198 A 
ATOM     59  C   UNL A   1      38.097  28.868  31.113  1.00  0.00     0.198 A 
ATOM     60  F   UNL A   1      40.294  28.181  31.592  1.00  0.00    -0.203 F 
ATOM     61  F   UNL A   1      36.638  30.169  28.064  1.00  0.00    -0.200 F 
ATOM     62  C   UNL A   1      37.161  29.375  30.225  1.00  0.00     0.200 A 
ATOM     63  F   UNL A   1      37.738  28.587  32.374  1.00  0.00    -0.200 F 
ATOM     64  F   UNL A   1      35.906  29.605  30.630  1.00  0.00    -0.200 F 
ENDBRANCH  40  54
BRANCH  41  65
ATOM     65  C   UNL A   1      48.991  26.737  26.079  1.00  0.00     0.064 A 
ATOM     66  C   UNL A   1      49.331  27.016  24.747  1.00  0.00     0.173 A 
ATOM     67  C   UNL A   1      49.974  26.156  26.893  1.00  0.00     0.173 A 
ATOM     68  F   UNL A   1      48.420  27.554  23.923  1.00  0.00    -0.203 F 
ATOM     69  C   UNL A   1      50.592  26.703  24.245  1.00  0.00     0.198 A 
ATOM     70  C   UNL A   1      51.245  25.873  26.398  1.00  0.00     0.198 A 
ATOM     71  F   UNL A   1      49.702  25.874  28.176  1.00  0.00    -0.203 F 
ATOM     72  F   UNL A   1      50.872  26.934  22.955  1.00  0.00    -0.200 F 
ATOM     73  C   UNL A   1      51.550  26.138  25.072  1.00  0.00     0.200 A 
ATOM     74  F   UNL A   1      52.173  25.341  27.206  1.00  0.00    -0.200 F 
ATOM     75  F   UNL A   1      52.765  25.841  24.590  1.00  0.00    -0.200 F 
ENDBRANCH  41  65
BRANCH  53  76
ATOM     76  C   UNL A   1      46.042  32.471  28.738  1.00  0.00     0.064 A 
ATOM     77  C   UNL A   1      46.662  32.774  29.958  1.00  0.00     0.173 A 
ATOM     78  C   UNL A   1      45.978  33.480  27.764  1.00  0.00     0.173 A 
ATOM     79  F   UNL A   1      46.735  31.848  30.927  1.00  0.00    -0.203 F 
ATOM     80  C   UNL A   1      47.177  34.044  30.203  1.00  0.00     0.198 A 
ATOM     81  C   UNL A   1      46.525  34.738  27.999  1.00  0.00     0.198 A 
ATOM     82  F   UNL A   1      45.403  33.240  26.576  1.00  0.00    -0.203 F 
ATOM     83  F   UNL A   1      47.723  34.325  31.394  1.00  0.00    -0.200 F 
ATOM     84  C   UNL A   1      47.118  35.021  29.220  1.00  0.00     0.200 A 
ATOM     85  F   UNL A   1      46.482  35.675  27.042  1.00  0.00    -0.200 F 
ATOM     86  F   UNL A   1      47.626  36.239  29.453  1.00  0.00    -0.200 F 
ENDBRANCH  53  76
ENDBRANCH  27  28
ENDBRANCH  19  22
ENDBRANCH  17  18
ENDBRANCH   1  17
TORSDOF 11
ENDMDL
MODEL 3
REMARK VINA RESULT:     -12.0      6.272     11.543
REMARK SMILES CC1(C)[C@@H](CBr)CC[C@]1(C)C(=O)NCCCNC(=O)c1ccc(-c2c3nc(c(-c4c(F)c(F)c(F)c(F)c4F)c4ccc([nH]4)c(-c4c(F)c(F)c(F)c(F)c4F)c4nc(c(-c5c(F)c(F)c(F)c(F)c5F)c5ccc2[nH]5)C=C4)C=C3)cc1
REMARK SMILES IDX 15 1 14 2 13 3 11 4 12 5 9 7 1 8 2 9 3 10 4 11 7 12 8 13
REMARK SMILES IDX 10 14 5 15 6 16 16 17 17 18 18 19 19 21 20 22 21 23 82 24
REMARK SMILES IDX 22 25 81 26 23 27 24 28 25 29 75 30 26 31 80 32 74 33 76 34
REMARK SMILES IDX 27 35 79 36 73 37 72 38 28 40 60 41 40 42 59 43 41 44 44 45
REMARK SMILES IDX 58 46 77 47 42 48 43 49 57 51 78 52 45 53 29 54 30 55 38 56
REMARK SMILES IDX 31 57 32 58 36 59 39 60 33 61 34 62 37 63 35 64 61 65 62 66
REMARK SMILES IDX 70 67 63 68 64 69 68 70 71 71 65 72 66 73 69 74 67 75 46 76
REMARK SMILES IDX 47 77 55 78 48 79 49 80 53 81 56 82 50 83 51 84 54 85 52 86
REMARK H PARENT 13 6 17 20 76 39 44 50
REMARK Flexibility Score: inf
ROOT
ATOM      1  C   UNL A   1      31.406  32.216  26.504  1.00  0.00     0.042 C 
ENDROOT
BRANCH   1   2
ATOM      2  C   UNL A   1      31.524  30.732  26.175  1.00  0.00     0.117 C 
BRANCH   2   3
ATOM      3  N   UNL A   1      30.999  30.425  24.859  1.00  0.00    -0.356 N 
ATOM      4  C   UNL A   1      31.041  29.327  24.059  1.00  0.00     0.226 C 
ATOM      5  O   UNL A   1      30.501  29.476  22.958  1.00  0.00    -0.274 OA
ATOM      6  H   UNL A   1      30.503  31.174  24.456  1.00  0.00     0.163 HD
BRANCH   4   7
ATOM      7  C   UNL A   1      31.700  27.977  24.472  1.00  0.00     0.052 C 
ATOM      8  C   UNL A   1      34.021  28.390  25.698  1.00  0.00     0.012 C 
ATOM      9  C   UNL A   1      33.282  27.964  24.427  1.00  0.00    -0.018 C 
ATOM     10  C   UNL A   1      33.801  28.923  23.302  1.00  0.00     0.012 C 
ATOM     11  C   UNL A   1      33.653  26.496  23.994  1.00  0.00     0.006 C 
ATOM     12  C   UNL A   1      32.617  26.237  22.893  1.00  0.00     0.006 C 
ATOM     13  C   UNL A   1      31.325  26.876  23.403  1.00  0.00     0.017 C 
ATOM     14  C   UNL A   1      31.042  27.526  25.797  1.00  0.00     0.022 C 
BRANCH  11  15
ATOM     15  C   UNL A   1      33.572  25.306  24.963  1.00  0.00     0.084 C 
ATOM     16  Br  UNL A   1      35.124  24.155  25.053  1.00  0.00    -0.092 Br
ENDBRANCH  11  15
ENDBRANCH   4   7
ENDBRANCH   2   3
ENDBRANCH   1   2
BRANCH   1  17
ATOM     17  C   UNL A   1      32.600  32.768  27.257  1.00  0.00     0.118 C 
BRANCH  17  18
ATOM     18  N   UNL A   1      32.418  34.165  27.619  1.00  0.00    -0.352 N 
ATOM     19  C   UNL A   1      32.993  34.897  28.629  1.00  0.00     0.251 C 
ATOM     20  H   UNL A   1      31.784  34.664  27.053  1.00  0.00     0.163 HD
ATOM     21  O   UNL A   1      32.529  35.991  28.930  1.00  0.00    -0.269 OA
BRANCH  19  22
ATOM     22  C   UNL A   1      34.159  34.363  29.368  1.00  0.00     0.039 A 
ATOM     23  C   UNL A   1      33.959  33.764  30.614  1.00  0.00     0.014 A 
ATOM     24  C   UNL A   1      35.451  34.470  28.847  1.00  0.00     0.014 A 
ATOM     25  C   UNL A   1      35.043  33.216  31.304  1.00  0.00     0.010 A 
ATOM     26  C   UNL A   1      36.510  33.830  29.479  1.00  0.00     0.010 A 
ATOM     27  C   UNL A   1      36.322  33.210  30.722  1.00  0.00    -0.014 A 
BRANCH  27  28
ATOM     28  C   UNL A   1      37.487  32.588  31.403  1.00  0.00     0.031 A 
ATOM     29  C   UNL A   1      38.204  31.435  30.753  1.00  0.00     0.074 A 
ATOM     30  C   UNL A   1      37.847  33.004  32.632  1.00  0.00     0.049 A 
ATOM     31  N   UNL A   1      39.168  30.685  31.225  1.00  0.00    -0.248 NA
ATOM     32  C   UNL A   1      37.755  31.053  29.404  1.00  0.00     0.031 C 
ATOM     33  C   UNL A   1      37.202  34.081  33.384  1.00  0.00     0.029 A 
ATOM     34  N   UNL A   1      38.837  32.560  33.474  1.00  0.00    -0.354 N 
ATOM     35  C   UNL A   1      39.421  29.735  30.244  1.00  0.00     0.074 A 
ATOM     36  C   UNL A   1      38.472  29.962  29.177  1.00  0.00     0.031 C 
ATOM     37  C   UNL A   1      37.825  34.228  34.564  1.00  0.00     0.029 A 
ATOM     38  C   UNL A   1      38.881  33.228  34.672  1.00  0.00     0.049 A 
ATOM     39  H   UNL A   1      39.456  31.831  33.240  1.00  0.00     0.167 HD
ATOM     40  C   UNL A   1      40.377  28.776  30.223  1.00  0.00     0.037 A 
ATOM     41  C   UNL A   1      39.676  33.044  35.745  1.00  0.00     0.037 A 
ATOM     42  C   UNL A   1      41.336  28.573  31.276  1.00  0.00     0.049 A 
ATOM     43  C   UNL A   1      40.721  31.961  35.701  1.00  0.00     0.074 A 
ATOM     44  C   UNL A   1      42.383  27.671  31.326  1.00  0.00     0.029 A 
ATOM     45  N   UNL A   1      41.362  29.284  32.467  1.00  0.00    -0.354 N 
ATOM     46  N   UNL A   1      40.996  31.112  34.741  1.00  0.00    -0.248 NA
ATOM     47  C   UNL A   1      41.571  31.813  36.892  1.00  0.00     0.031 C 
ATOM     48  C   UNL A   1      43.008  27.797  32.570  1.00  0.00     0.029 A 
ATOM     49  C   UNL A   1      42.392  28.822  33.270  1.00  0.00     0.049 A 
ATOM     50  H   UNL A   1      40.741  30.010  32.706  1.00  0.00     0.167 HD
ATOM     51  C   UNL A   1      42.068  30.355  35.194  1.00  0.00     0.074 A 
ATOM     52  C   UNL A   1      42.402  30.853  36.513  1.00  0.00     0.031 C 
ATOM     53  C   UNL A   1      42.718  29.340  34.574  1.00  0.00     0.037 A 
BRANCH  40  54
ATOM     54  C   UNL A   1      40.432  27.873  29.023  1.00  0.00     0.064 A 
ATOM     55  C   UNL A   1      41.244  28.165  27.915  1.00  0.00     0.173 A 
ATOM     56  C   UNL A   1      39.692  26.681  28.994  1.00  0.00     0.173 A 
ATOM     57  F   UNL A   1      41.964  29.297  27.885  1.00  0.00    -0.203 F 
ATOM     58  C   UNL A   1      41.285  27.317  26.811  1.00  0.00     0.198 A 
ATOM     59  C   UNL A   1      39.762  25.818  27.904  1.00  0.00     0.198 A 
ATOM     60  F   UNL A   1      38.903  26.349  30.027  1.00  0.00    -0.203 F 
ATOM     61  F   UNL A   1      42.024  27.646  25.743  1.00  0.00    -0.200 F 
ATOM     62  C   UNL A   1      40.551  26.140  26.810  1.00  0.00     0.200 A 
ATOM     63  F   UNL A   1      39.064  24.674  27.911  1.00  0.00    -0.200 F 
ATOM     64  F   UNL A   1      40.599  25.320  25.752  1.00  0.00    -0.200 F 
ENDBRANCH  40  54
BRANCH  41  65
ATOM     65  C   UNL A   1      39.527  33.915  36.940  1.00  0.00     0.064 A 
ATOM     66  C   UNL A   1      38.753  33.506  38.037  1.00  0.00     0.173 A 
ATOM     67  C   UNL A   1      40.143  35.172  37.012  1.00  0.00     0.173 A 
ATOM     68  F   UNL A   1      38.128  32.320  38.009  1.00  0.00    -0.203 F 
ATOM     69  C   UNL A   1      38.584  34.332  39.146  1.00  0.00     0.198 A 
ATOM     70  C   UNL A   1      39.999  35.984  38.136  1.00  0.00     0.198 A 
ATOM     71  F   UNL A   1      40.898  35.609  35.993  1.00  0.00    -0.203 F 
ATOM     72  F   UNL A   1      37.798  33.937  40.157  1.00  0.00    -0.200 F 
ATOM     73  C   UNL A   1      39.211  35.566  39.198  1.00  0.00     0.200 A 
ATOM     74  F   UNL A   1      40.621  37.169  38.188  1.00  0.00    -0.200 F 
ATOM     75  F   UNL A   1      39.052  36.359  40.267  1.00  0.00    -0.200 F 
ENDBRANCH  41  65
BRANCH  53  76
ATOM     76  C   UNL A   1      43.889  28.729  35.290  1.00  0.00     0.064 A 
ATOM     77  C   UNL A   1      43.742  27.625  36.141  1.00  0.00     0.173 A 
ATOM     78  C   UNL A   1      45.185  29.226  35.075  1.00  0.00     0.173 A 
ATOM     79  F   UNL A   1      42.523  27.122  36.391  1.00  0.00    -0.203 F 
ATOM     80  C   UNL A   1      44.845  27.055  36.770  1.00  0.00     0.198 A 
ATOM     81  C   UNL A   1      46.289  28.632  35.678  1.00  0.00     0.198 A 
ATOM     82  F   UNL A   1      45.382  30.276  34.263  1.00  0.00    -0.203 F 
ATOM     83  F   UNL A   1      44.676  26.030  37.616  1.00  0.00    -0.200 F 
ATOM     84  C   UNL A   1      46.118  27.552  36.530  1.00  0.00     0.200 A 
ATOM     85  F   UNL A   1      47.519  29.103  35.432  1.00  0.00    -0.200 F 
ATOM     86  F   UNL A   1      47.180  26.993  37.127  1.00  0.00    -0.200 F 
ENDBRANCH  53  76
ENDBRANCH  27  28
ENDBRANCH  19  22
ENDBRANCH  17  18
ENDBRANCH   1  17
TORSDOF 11
ENDMDL
