MODEL 1
REMARK VINA RESULT:     -12.8      0.000      0.000
REMARK SMILES O=C(NCCCNC(=O)[C@@H]1[C@@H](C(=O)Nc2cccc([N+](=O)[O-])c2)[C@@H]2C=C[C@H]1O2)c1ccc(-c2c3nc(c(-c4c(F)c(F)c(F)c(F)c4F)c4ccc([nH]4)c(-c4c(F)c(F)c(F)c(F)c4F)c4nc(c(-c5c(F)c(F)c(F)c(F)c5F)c5ccc2[nH]5)C=C4)C=C3)cc1
REMARK SMILES IDX 5 1 4 2 3 3 1 4 2 5 29 7 30 8 91 9 31 10 90 11 32 12 33 13
REMARK SMILES IDX 34 14 84 15 35 16 89 17 83 18 85 19 36 20 88 21 82 22 81 23
REMARK SMILES IDX 37 25 69 26 49 27 68 28 50 29 53 30 67 31 86 32 51 33 52 34
REMARK SMILES IDX 66 36 87 37 54 38 38 39 39 40 47 41 40 42 41 43 45 44 48 45
REMARK SMILES IDX 42 46 43 47 46 48 44 49 70 50 71 51 79 52 72 53 73 54 77 55
REMARK SMILES IDX 80 56 74 57 75 58 78 59 76 60 55 61 56 62 64 63 57 64 58 65
REMARK SMILES IDX 62 66 65 67 59 68 60 69 63 70 61 71 6 72 7 73 8 74 9 76
REMARK SMILES IDX 10 77 11 78 27 79 24 80 26 81 28 82 25 83 12 84 13 85 14 86
REMARK SMILES IDX 15 88 16 89 23 90 17 91 19 92 18 93 20 94 21 95 22 96
REMARK H PARENT 3 6 85 24 53 35 7 75 14 87
REMARK Flexibility Score: inf
ROOT
ATOM      1  C   UNL A   1      31.367  31.783  26.337  1.00  0.00     0.042 C 
ENDROOT
BRANCH   1   2
ATOM      2  C   UNL A   1      32.617  32.364  26.981  1.00  0.00     0.118 C 
BRANCH   2   3
ATOM      3  N   UNL A   1      32.435  33.745  27.412  1.00  0.00    -0.352 N 
ATOM      4  O   UNL A   1      32.640  35.541  28.759  1.00  0.00    -0.269 OA
ATOM      5  C   UNL A   1      33.065  34.442  28.413  1.00  0.00     0.251 C 
ATOM      6  H   UNL A   1      31.758  34.254  26.911  1.00  0.00     0.163 HD
BRANCH   5   7
ATOM      7  C   UNL A   1      34.244  33.862  29.084  1.00  0.00     0.039 A 
ATOM      8  C   UNL A   1      35.531  34.282  28.746  1.00  0.00     0.014 A 
ATOM      9  C   UNL A   1      34.060  32.894  30.075  1.00  0.00     0.014 A 
ATOM     10  C   UNL A   1      36.633  33.624  29.274  1.00  0.00     0.010 A 
ATOM     11  C   UNL A   1      35.170  32.305  30.683  1.00  0.00     0.010 A 
ATOM     12  C   UNL A   1      36.467  32.644  30.265  1.00  0.00    -0.014 A 
BRANCH  12  13
ATOM     13  C   UNL A   1      37.667  32.039  30.893  1.00  0.00     0.031 A 
ATOM     14  C   UNL A   1      38.111  32.443  32.269  1.00  0.00     0.074 A 
ATOM     15  C   UNL A   1      38.343  31.097  30.209  1.00  0.00     0.049 A 
ATOM     16  N   UNL A   1      39.138  32.016  32.962  1.00  0.00    -0.248 NA
ATOM     17  C   UNL A   1      37.308  33.465  32.957  1.00  0.00     0.031 C 
ATOM     18  C   UNL A   1      38.004  30.631  28.862  1.00  0.00     0.029 A 
ATOM     19  N   UNL A   1      39.440  30.350  30.551  1.00  0.00    -0.354 N 
ATOM     20  C   UNL A   1      39.115  32.726  34.154  1.00  0.00     0.074 A 
ATOM     21  C   UNL A   1      37.990  33.634  34.082  1.00  0.00     0.031 C 
ATOM     22  C   UNL A   1      38.848  29.653  28.509  1.00  0.00     0.029 A 
ATOM     23  C   UNL A   1      39.827  29.468  29.573  1.00  0.00     0.049 A 
ATOM     24  H   UNL A   1      39.906  30.439  31.414  1.00  0.00     0.167 HD
ATOM     25  C   UNL A   1      39.955  32.621  35.213  1.00  0.00     0.037 A 
ATOM     26  C   UNL A   1      40.870  28.620  29.526  1.00  0.00     0.037 A 
ATOM     27  C   UNL A   1      41.065  31.704  35.279  1.00  0.00     0.049 A 
ATOM     28  C   UNL A   1      41.802  28.551  30.700  1.00  0.00     0.074 A 
ATOM     29  C   UNL A   1      41.953  31.496  36.321  1.00  0.00     0.029 A 
ATOM     30  N   UNL A   1      41.444  30.846  34.256  1.00  0.00    -0.354 N 
ATOM     31  N   UNL A   1      41.751  29.203  31.836  1.00  0.00    -0.248 NA
ATOM     32  C   UNL A   1      42.938  27.629  30.585  1.00  0.00     0.031 C 
ATOM     33  C   UNL A   1      42.898  30.552  35.909  1.00  0.00     0.029 A 
ATOM     34  C   UNL A   1      42.568  30.127  34.632  1.00  0.00     0.049 A 
ATOM     35  H   UNL A   1      40.983  30.760  33.391  1.00  0.00     0.167 HD
ATOM     36  C   UNL A   1      42.834  28.758  32.579  1.00  0.00     0.074 A 
ATOM     37  C   UNL A   1      43.513  27.765  31.772  1.00  0.00     0.031 C 
ATOM     38  C   UNL A   1      43.231  29.140  33.817  1.00  0.00     0.037 A 
BRANCH  25  39
ATOM     39  C   UNL A   1      39.721  33.535  36.383  1.00  0.00     0.064 A 
ATOM     40  C   UNL A   1      40.297  34.812  36.451  1.00  0.00     0.173 A 
ATOM     41  C   UNL A   1      38.871  33.144  37.429  1.00  0.00     0.173 A 
ATOM     42  F   UNL A   1      41.126  35.232  35.483  1.00  0.00    -0.203 F 
ATOM     43  C   UNL A   1      40.050  35.654  37.533  1.00  0.00     0.198 A 
ATOM     44  C   UNL A   1      38.603  33.999  38.495  1.00  0.00     0.198 A 
ATOM     45  F   UNL A   1      38.288  31.936  37.411  1.00  0.00    -0.203 F 
ATOM     46  F   UNL A   1      40.647  36.852  37.598  1.00  0.00    -0.200 F 
ATOM     47  C   UNL A   1      39.198  35.250  38.551  1.00  0.00     0.200 A 
ATOM     48  F   UNL A   1      37.768  33.613  39.470  1.00  0.00    -0.200 F 
ATOM     49  F   UNL A   1      38.955  36.065  39.587  1.00  0.00    -0.200 F 
ENDBRANCH  25  39
BRANCH  26  50
ATOM     50  C   UNL A   1      41.082  27.781  28.319  1.00  0.00     0.064 A 
ATOM     51  C   UNL A   1      41.895  28.222  27.267  1.00  0.00     0.173 A 
ATOM     52  C   UNL A   1      40.490  26.514  28.202  1.00  0.00     0.173 A 
ATOM     53  F   UNL A   1      42.469  29.432  27.325  1.00  0.00    -0.203 F 
ATOM     54  C   UNL A   1      42.095  27.435  26.135  1.00  0.00     0.198 A 
ATOM     55  C   UNL A   1      40.717  25.715  27.084  1.00  0.00     0.198 A 
ATOM     56  F   UNL A   1      39.710  26.043  29.185  1.00  0.00    -0.203 F 
ATOM     57  F   UNL A   1      42.842  27.897  25.124  1.00  0.00    -0.200 F 
ATOM     58  C   UNL A   1      41.512  26.179  26.048  1.00  0.00     0.200 A 
ATOM     59  F   UNL A   1      40.167  24.494  27.014  1.00  0.00    -0.200 F 
ATOM     60  F   UNL A   1      41.712  25.418  24.963  1.00  0.00    -0.200 F 
ENDBRANCH  26  50
BRANCH  38  61
ATOM     61  C   UNL A   1      44.439  28.456  34.387  1.00  0.00     0.064 A 
ATOM     62  C   UNL A   1      45.728  28.988  34.235  1.00  0.00     0.173 A 
ATOM     63  C   UNL A   1      44.301  27.265  35.116  1.00  0.00     0.173 A 
ATOM     64  F   UNL A   1      45.914  30.114  33.530  1.00  0.00    -0.203 F 
ATOM     65  C   UNL A   1      46.837  28.339  34.768  1.00  0.00     0.198 A 
ATOM     66  C   UNL A   1      45.409  26.636  35.676  1.00  0.00     0.198 A 
ATOM     67  F   UNL A   1      43.090  26.717  35.294  1.00  0.00    -0.203 F 
ATOM     68  F   UNL A   1      48.065  28.837  34.566  1.00  0.00    -0.200 F 
ATOM     69  C   UNL A   1      46.676  27.168  35.495  1.00  0.00     0.200 A 
ATOM     70  F   UNL A   1      45.250  25.511  36.388  1.00  0.00    -0.200 F 
ATOM     71  F   UNL A   1      47.745  26.547  36.013  1.00  0.00    -0.200 F 
ENDBRANCH  38  61
ENDBRANCH  12  13
ENDBRANCH   5   7
ENDBRANCH   2   3
ENDBRANCH   1   2
BRANCH   1  72
ATOM     72  C   UNL A   1      31.475  30.295  26.050  1.00  0.00     0.117 C 
BRANCH  72  73
ATOM     73  N   UNL A   1      31.792  30.049  24.655  1.00  0.00    -0.356 N 
ATOM     74  C   UNL A   1      30.990  29.564  23.666  1.00  0.00     0.227 C 
ATOM     75  H   UNL A   1      32.714  30.263  24.386  1.00  0.00     0.163 HD
ATOM     76  O   UNL A   1      31.518  29.231  22.606  1.00  0.00    -0.275 OA
BRANCH  74  77
ATOM     77  C   UNL A   1      29.504  29.469  23.919  1.00  0.00     0.127 C 
ATOM     78  C   UNL A   1      28.776  28.467  22.963  1.00  0.00     0.127 C 
ATOM     79  C   UNL A   1      28.797  30.790  23.566  1.00  0.00     0.155 C 
ATOM     80  C   UNL A   1      27.715  29.385  22.328  1.00  0.00     0.155 C 
ATOM     81  C   UNL A   1      29.055  31.205  22.145  1.00  0.00     0.004 C 
ATOM     82  O   UNL A   1      27.441  30.300  23.422  1.00  0.00    -0.365 OA
ATOM     83  C   UNL A   1      28.389  30.333  21.379  1.00  0.00     0.004 C 
BRANCH  78  84
ATOM     84  C   UNL A   1      28.136  27.293  23.689  1.00  0.00     0.231 C 
ATOM     85  O   UNL A   1      26.922  27.236  23.902  1.00  0.00    -0.274 OA
ATOM     86  N   UNL A   1      28.909  26.235  24.107  1.00  0.00    -0.325 N 
ATOM     87  H   UNL A   1      28.407  25.464  24.459  1.00  0.00     0.169 HD
BRANCH  86  88
ATOM     88  C   UNL A   1      30.304  26.088  24.110  1.00  0.00     0.048 A 
ATOM     89  C   UNL A   1      30.970  26.253  25.328  1.00  0.00     0.026 A 
ATOM     90  C   UNL A   1      31.031  25.737  22.971  1.00  0.00     0.111 A 
ATOM     91  C   UNL A   1      32.329  25.947  25.437  1.00  0.00     0.009 A 
ATOM     92  C   UNL A   1      32.392  25.427  23.084  1.00  0.00     0.271 A 
ATOM     93  C   UNL A   1      33.042  25.513  24.320  1.00  0.00     0.086 A 
BRANCH  92  94
ATOM     94  N   UNL A   1      33.129  24.971  21.900  1.00  0.00     0.062 N 
ATOM     95  O   UNL A   1      33.397  25.811  21.030  1.00  0.00    -0.258 OA
ATOM     96  O   UNL A   1      33.456  23.777  21.851  1.00  0.00    -0.258 OA
ENDBRANCH  92  94
ENDBRANCH  86  88
ENDBRANCH  78  84
ENDBRANCH  74  77
ENDBRANCH  72  73
ENDBRANCH   1  72
TORSDOF 13
ENDMDL
MODEL 2
REMARK VINA RESULT:     -12.8      0.227      1.591
REMARK SMILES O=C(NCCCNC(=O)[C@@H]1[C@@H](C(=O)Nc2cccc([N+](=O)[O-])c2)[C@@H]2C=C[C@H]1O2)c1ccc(-c2c3nc(c(-c4c(F)c(F)c(F)c(F)c4F)c4ccc([nH]4)c(-c4c(F)c(F)c(F)c(F)c4F)c4nc(c(-c5c(F)c(F)c(F)c(F)c5F)c5ccc2[nH]5)C=C4)C=C3)cc1
REMARK SMILES IDX 5 1 4 2 3 3 1 4 2 5 29 7 30 8 91 9 31 10 90 11 32 12 33 13
REMARK SMILES IDX 34 14 84 15 35 16 89 17 83 18 85 19 36 20 88 21 82 22 81 23
REMARK SMILES IDX 37 25 69 26 49 27 68 28 50 29 53 30 67 31 86 32 51 33 52 34
REMARK SMILES IDX 66 36 87 37 54 38 38 39 39 40 47 41 40 42 41 43 45 44 48 45
REMARK SMILES IDX 42 46 43 47 46 48 44 49 70 50 71 51 79 52 72 53 73 54 77 55
REMARK SMILES IDX 80 56 74 57 75 58 78 59 76 60 55 61 56 62 64 63 57 64 58 65
REMARK SMILES IDX 62 66 65 67 59 68 60 69 63 70 61 71 6 72 7 73 8 74 9 76
REMARK SMILES IDX 10 77 11 78 27 79 24 80 26 81 28 82 25 83 12 84 13 85 14 86
REMARK SMILES IDX 15 88 16 89 23 90 17 91 19 92 18 93 20 94 21 95 22 96
REMARK H PARENT 3 6 85 24 53 35 7 75 14 87
REMARK Flexibility Score: inf
ROOT
ATOM      1  C   UNL A   1      31.368  31.763  26.354  1.00  0.00     0.042 C 
ENDROOT
BRANCH   1   2
ATOM      2  C   UNL A   1      32.648  32.362  26.918  1.00  0.00     0.118 C 
BRANCH   2   3
ATOM      3  N   UNL A   1      32.475  33.741  27.357  1.00  0.00    -0.352 N 
ATOM      4  O   UNL A   1      32.674  35.523  28.723  1.00  0.00    -0.269 OA
ATOM      5  C   UNL A   1      33.092  34.422  28.376  1.00  0.00     0.251 C 
ATOM      6  H   UNL A   1      31.816  34.264  26.845  1.00  0.00     0.163 HD
BRANCH   5   7
ATOM      7  C   UNL A   1      34.249  33.820  29.069  1.00  0.00     0.039 A 
ATOM      8  C   UNL A   1      35.550  34.204  28.740  1.00  0.00     0.014 A 
ATOM      9  C   UNL A   1      34.028  32.869  30.069  1.00  0.00     0.014 A 
ATOM     10  C   UNL A   1      36.628  33.525  29.289  1.00  0.00     0.010 A 
ATOM     11  C   UNL A   1      35.117  32.261  30.697  1.00  0.00     0.010 A 
ATOM     12  C   UNL A   1      36.426  32.561  30.290  1.00  0.00    -0.014 A 
BRANCH  12  13
ATOM     13  C   UNL A   1      37.603  31.935  30.939  1.00  0.00     0.031 A 
ATOM     14  C   UNL A   1      38.022  32.320  32.328  1.00  0.00     0.074 A 
ATOM     15  C   UNL A   1      38.281  30.989  30.261  1.00  0.00     0.049 A 
ATOM     16  N   UNL A   1      39.027  31.873  33.040  1.00  0.00    -0.248 NA
ATOM     17  C   UNL A   1      37.217  33.347  33.008  1.00  0.00     0.031 C 
ATOM     18  C   UNL A   1      37.966  30.540  28.903  1.00  0.00     0.029 A 
ATOM     19  N   UNL A   1      39.360  30.224  30.621  1.00  0.00    -0.354 N 
ATOM     20  C   UNL A   1      38.986  32.572  34.238  1.00  0.00     0.074 A 
ATOM     21  C   UNL A   1      37.876  33.496  34.149  1.00  0.00     0.031 C 
ATOM     22  C   UNL A   1      38.805  29.553  28.560  1.00  0.00     0.029 A 
ATOM     23  C   UNL A   1      39.757  29.345  29.644  1.00  0.00     0.049 A 
ATOM     24  H   UNL A   1      39.808  30.299  31.496  1.00  0.00     0.167 HD
ATOM     25  C   UNL A   1      39.800  32.446  35.315  1.00  0.00     0.037 A 
ATOM     26  C   UNL A   1      40.789  28.483  29.612  1.00  0.00     0.037 A 
ATOM     27  C   UNL A   1      40.896  31.513  35.397  1.00  0.00     0.049 A 
ATOM     28  C   UNL A   1      41.693  28.390  30.807  1.00  0.00     0.074 A 
ATOM     29  C   UNL A   1      41.757  31.284  36.456  1.00  0.00     0.029 A 
ATOM     30  N   UNL A   1      41.287  30.659  34.375  1.00  0.00    -0.354 N 
ATOM     31  N   UNL A   1      41.625  29.033  31.947  1.00  0.00    -0.248 NA
ATOM     32  C   UNL A   1      42.819  27.454  30.709  1.00  0.00     0.031 C 
ATOM     33  C   UNL A   1      42.699  30.329  36.057  1.00  0.00     0.029 A 
ATOM     34  C   UNL A   1      42.392  29.921  34.770  1.00  0.00     0.049 A 
ATOM     35  H   UNL A   1      40.844  30.587  33.499  1.00  0.00     0.167 HD
ATOM     36  C   UNL A   1      42.685  28.566  32.710  1.00  0.00     0.074 A 
ATOM     37  C   UNL A   1      43.368  27.571  31.910  1.00  0.00     0.031 C 
ATOM     38  C   UNL A   1      43.059  28.932  33.960  1.00  0.00     0.037 A 
BRANCH  25  39
ATOM     39  C   UNL A   1      39.553  33.352  36.488  1.00  0.00     0.064 A 
ATOM     40  C   UNL A   1      38.727  32.971  37.556  1.00  0.00     0.173 A 
ATOM     41  C   UNL A   1      40.190  34.600  36.566  1.00  0.00     0.173 A 
ATOM     42  F   UNL A   1      38.086  31.793  37.527  1.00  0.00    -0.203 F 
ATOM     43  C   UNL A   1      38.528  33.816  38.646  1.00  0.00     0.198 A 
ATOM     44  C   UNL A   1      40.013  35.430  37.671  1.00  0.00     0.198 A 
ATOM     45  F   UNL A   1      40.997  35.011  35.576  1.00  0.00    -0.203 F 
ATOM     46  F   UNL A   1      37.700  33.450  39.633  1.00  0.00    -0.200 F 
ATOM     47  C   UNL A   1      39.177  35.041  38.706  1.00  0.00     0.200 A 
ATOM     48  F   UNL A   1      40.652  36.606  37.734  1.00  0.00    -0.200 F 
ATOM     49  F   UNL A   1      38.991  35.848  39.759  1.00  0.00    -0.200 F 
ENDBRANCH  25  39
BRANCH  26  50
ATOM     50  C   UNL A   1      41.017  27.652  28.403  1.00  0.00     0.064 A 
ATOM     51  C   UNL A   1      40.377  26.417  28.245  1.00  0.00     0.173 A 
ATOM     52  C   UNL A   1      41.866  28.086  27.373  1.00  0.00     0.173 A 
ATOM     53  F   UNL A   1      39.569  25.952  29.208  1.00  0.00    -0.203 F 
ATOM     54  C   UNL A   1      40.589  25.638  27.110  1.00  0.00     0.198 A 
ATOM     55  C   UNL A   1      42.053  27.321  26.225  1.00  0.00     0.198 A 
ATOM     56  F   UNL A   1      42.497  29.265  27.473  1.00  0.00    -0.203 F 
ATOM     57  F   UNL A   1      39.999  24.440  27.001  1.00  0.00    -0.200 F 
ATOM     58  C   UNL A   1      41.421  26.094  26.097  1.00  0.00     0.200 A 
ATOM     59  F   UNL A   1      42.842  27.775  25.241  1.00  0.00    -0.200 F 
ATOM     60  F   UNL A   1      41.619  25.348  25.002  1.00  0.00    -0.200 F 
ENDBRANCH  26  50
BRANCH  38  61
ATOM     61  C   UNL A   1      44.244  28.225  34.551  1.00  0.00     0.064 A 
ATOM     62  C   UNL A   1      45.545  28.738  34.426  1.00  0.00     0.173 A 
ATOM     63  C   UNL A   1      44.073  27.034  35.272  1.00  0.00     0.173 A 
ATOM     64  F   UNL A   1      45.763  29.864  33.731  1.00  0.00    -0.203 F 
ATOM     65  C   UNL A   1      46.633  28.068  34.979  1.00  0.00     0.198 A 
ATOM     66  C   UNL A   1      45.160  26.385  35.851  1.00  0.00     0.198 A 
ATOM     67  F   UNL A   1      42.850  26.506  35.424  1.00  0.00    -0.203 F 
ATOM     68  F   UNL A   1      47.872  28.547  34.803  1.00  0.00    -0.200 F 
ATOM     69  C   UNL A   1      46.438  26.897  35.698  1.00  0.00     0.200 A 
ATOM     70  F   UNL A   1      44.968  25.260  36.555  1.00  0.00    -0.200 F 
ATOM     71  F   UNL A   1      47.487  26.257  36.233  1.00  0.00    -0.200 F 
ENDBRANCH  38  61
ENDBRANCH  12  13
ENDBRANCH   5   7
ENDBRANCH   2   3
ENDBRANCH   1   2
BRANCH   1  72
ATOM     72  C   UNL A   1      31.490  30.284  26.026  1.00  0.00     0.117 C 
BRANCH  72  73
ATOM     73  N   UNL A   1      31.792  30.078  24.622  1.00  0.00    -0.356 N 
ATOM     74  C   UNL A   1      30.976  29.633  23.626  1.00  0.00     0.227 C 
ATOM     75  H   UNL A   1      32.714  30.289  24.351  1.00  0.00     0.163 HD
ATOM     76  O   UNL A   1      31.490  29.328  22.551  1.00  0.00    -0.275 OA
BRANCH  74  77
ATOM     77  C   UNL A   1      29.491  29.548  23.890  1.00  0.00     0.127 C 
ATOM     78  C   UNL A   1      28.752  28.540  22.948  1.00  0.00     0.127 C 
ATOM     79  C   UNL A   1      28.787  30.869  23.528  1.00  0.00     0.155 C 
ATOM     80  C   UNL A   1      27.691  29.457  22.311  1.00  0.00     0.155 C 
ATOM     81  C   UNL A   1      29.038  31.269  22.101  1.00  0.00     0.004 C 
ATOM     82  O   UNL A   1      27.429  30.384  23.397  1.00  0.00    -0.365 OA
ATOM     83  C   UNL A   1      28.363  30.392  21.348  1.00  0.00     0.004 C 
BRANCH  78  84
ATOM     84  C   UNL A   1      28.111  27.376  23.690  1.00  0.00     0.231 C 
ATOM     85  O   UNL A   1      26.893  27.308  23.876  1.00  0.00    -0.274 OA
ATOM     86  N   UNL A   1      28.888  26.340  24.153  1.00  0.00    -0.325 N 
ATOM     87  H   UNL A   1      28.389  25.571  24.513  1.00  0.00     0.169 HD
BRANCH  86  88
ATOM     88  C   UNL A   1      30.285  26.213  24.191  1.00  0.00     0.048 A 
ATOM     89  C   UNL A   1      30.914  26.353  25.431  1.00  0.00     0.026 A 
ATOM     90  C   UNL A   1      31.048  25.905  23.064  1.00  0.00     0.111 A 
ATOM     91  C   UNL A   1      32.274  26.063  25.571  1.00  0.00     0.009 A 
ATOM     92  C   UNL A   1      32.410  25.611  23.207  1.00  0.00     0.271 A 
ATOM     93  C   UNL A   1      33.024  25.671  24.462  1.00  0.00     0.086 A 
BRANCH  92  94
ATOM     94  N   UNL A   1      33.187  25.199  22.031  1.00  0.00     0.062 N 
ATOM     95  O   UNL A   1      33.651  26.090  21.307  1.00  0.00    -0.258 OA
ATOM     96  O   UNL A   1      33.348  23.985  21.845  1.00  0.00    -0.258 OA
ENDBRANCH  92  94
ENDBRANCH  86  88
ENDBRANCH  78  84
ENDBRANCH  74  77
ENDBRANCH  72  73
ENDBRANCH   1  72
TORSDOF 13
ENDMDL
MODEL 3
REMARK VINA RESULT:     -12.8      5.790     10.908
REMARK SMILES O=C(NCCCNC(=O)[C@@H]1[C@@H](C(=O)Nc2cccc([N+](=O)[O-])c2)[C@@H]2C=C[C@H]1O2)c1ccc(-c2c3nc(c(-c4c(F)c(F)c(F)c(F)c4F)c4ccc([nH]4)c(-c4c(F)c(F)c(F)c(F)c4F)c4nc(c(-c5c(F)c(F)c(F)c(F)c5F)c5ccc2[nH]5)C=C4)C=C3)cc1
REMARK SMILES IDX 5 1 4 2 3 3 1 4 2 5 29 7 30 8 91 9 31 10 90 11 32 12 33 13
REMARK SMILES IDX 34 14 84 15 35 16 89 17 83 18 85 19 36 20 88 21 82 22 81 23
REMARK SMILES IDX 37 25 69 26 49 27 68 28 50 29 53 30 67 31 86 32 51 33 52 34
REMARK SMILES IDX 66 36 87 37 54 38 38 39 39 40 47 41 40 42 41 43 45 44 48 45
REMARK SMILES IDX 42 46 43 47 46 48 44 49 70 50 71 51 79 52 72 53 73 54 77 55
REMARK SMILES IDX 80 56 74 57 75 58 78 59 76 60 55 61 56 62 64 63 57 64 58 65
REMARK SMILES IDX 62 66 65 67 59 68 60 69 63 70 61 71 6 72 7 73 8 74 9 76
REMARK SMILES IDX 10 77 11 78 27 79 24 80 26 81 28 82 25 83 12 84 13 85 14 86
REMARK SMILES IDX 15 88 16 89 23 90 17 91 19 92 18 93 20 94 21 95 22 96
REMARK H PARENT 3 6 85 24 53 35 7 75 14 87
REMARK Flexibility Score: inf
ROOT
ATOM      1  C   UNL A   1      37.962  19.580  25.004  1.00  0.00     0.042 C 
ENDROOT
BRANCH   1   2
ATOM      2  C   UNL A   1      39.132  20.149  25.792  1.00  0.00     0.118 C 
BRANCH   2   3
ATOM      3  N   UNL A   1      40.233  19.203  25.922  1.00  0.00    -0.352 N 
ATOM      4  O   UNL A   1      42.378  18.514  25.995  1.00  0.00    -0.269 OA
ATOM      5  C   UNL A   1      41.573  19.434  26.106  1.00  0.00     0.251 C 
ATOM      6  H   UNL A   1      39.977  18.253  25.870  1.00  0.00     0.163 HD
BRANCH   5   7
ATOM      7  C   UNL A   1      42.048  20.797  26.418  1.00  0.00     0.039 A 
ATOM      8  C   UNL A   1      42.293  21.177  27.738  1.00  0.00     0.014 A 
ATOM      9  C   UNL A   1      42.264  21.702  25.375  1.00  0.00     0.014 A 
ATOM     10  C   UNL A   1      42.593  22.500  28.031  1.00  0.00     0.010 A 
ATOM     11  C   UNL A   1      42.668  23.007  25.664  1.00  0.00     0.010 A 
ATOM     12  C   UNL A   1      42.806  23.425  26.997  1.00  0.00    -0.014 A 
BRANCH  12  13
ATOM     13  C   UNL A   1      43.237  24.803  27.336  1.00  0.00     0.031 A 
ATOM     14  C   UNL A   1      44.640  25.266  27.073  1.00  0.00     0.074 A 
ATOM     15  C   UNL A   1      42.331  25.645  27.870  1.00  0.00     0.049 A 
ATOM     16  N   UNL A   1      45.181  26.435  27.312  1.00  0.00    -0.248 NA
ATOM     17  C   UNL A   1      45.563  24.292  26.470  1.00  0.00     0.031 C 
ATOM     18  C   UNL A   1      40.941  25.300  28.175  1.00  0.00     0.029 A 
ATOM     19  N   UNL A   1      42.434  26.962  28.236  1.00  0.00    -0.354 N 
ATOM     20  C   UNL A   1      46.505  26.332  26.909  1.00  0.00     0.074 A 
ATOM     21  C   UNL A   1      46.697  24.978  26.435  1.00  0.00     0.031 C 
ATOM     22  C   UNL A   1      40.310  26.386  28.642  1.00  0.00     0.029 A 
ATOM     23  C   UNL A   1      41.265  27.483  28.733  1.00  0.00     0.049 A 
ATOM     24  H   UNL A   1      43.265  27.483  28.150  1.00  0.00     0.167 HD
ATOM     25  C   UNL A   1      47.468  27.287  26.927  1.00  0.00     0.037 A 
ATOM     26  C   UNL A   1      40.997  28.703  29.232  1.00  0.00     0.037 A 
ATOM     27  C   UNL A   1      47.262  28.636  27.389  1.00  0.00     0.049 A 
ATOM     28  C   UNL A   1      42.092  29.728  29.269  1.00  0.00     0.074 A 
ATOM     29  C   UNL A   1      48.162  29.687  27.415  1.00  0.00     0.029 A 
ATOM     30  N   UNL A   1      46.071  29.120  27.914  1.00  0.00    -0.354 N 
ATOM     31  N   UNL A   1      43.331  29.630  28.854  1.00  0.00    -0.248 NA
ATOM     32  C   UNL A   1      41.752  31.034  29.848  1.00  0.00     0.031 C 
ATOM     33  C   UNL A   1      47.533  30.789  28.003  1.00  0.00     0.029 A 
ATOM     34  C   UNL A   1      46.223  30.445  28.291  1.00  0.00     0.049 A 
ATOM     35  H   UNL A   1      45.241  28.598  28.005  1.00  0.00     0.167 HD
ATOM     36  C   UNL A   1      43.914  30.863  29.102  1.00  0.00     0.074 A 
ATOM     37  C   UNL A   1      42.886  31.700  29.686  1.00  0.00     0.031 C 
ATOM     38  C   UNL A   1      45.188  31.265  28.870  1.00  0.00     0.037 A 
BRANCH  25  39
ATOM     39  C   UNL A   1      48.841  26.903  26.452  1.00  0.00     0.064 A 
ATOM     40  C   UNL A   1      49.797  26.353  27.319  1.00  0.00     0.173 A 
ATOM     41  C   UNL A   1      49.189  27.045  25.100  1.00  0.00     0.173 A 
ATOM     42  F   UNL A   1      49.520  26.205  28.624  1.00  0.00    -0.203 F 
ATOM     43  C   UNL A   1      51.057  25.982  26.855  1.00  0.00     0.198 A 
ATOM     44  C   UNL A   1      50.439  26.646  24.634  1.00  0.00     0.198 A 
ATOM     45  F   UNL A   1      48.311  27.559  24.226  1.00  0.00    -0.203 F 
ATOM     46  F   UNL A   1      51.969  25.500  27.711  1.00  0.00    -0.200 F 
ATOM     47  C   UNL A   1      51.375  26.122  25.512  1.00  0.00     0.200 A 
ATOM     48  F   UNL A   1      50.739  26.768  23.333  1.00  0.00    -0.200 F 
ATOM     49  F   UNL A   1      52.585  25.757  25.067  1.00  0.00    -0.200 F 
ENDBRANCH  25  39
BRANCH  26  50
ATOM     50  C   UNL A   1      39.634  29.007  29.738  1.00  0.00     0.064 A 
ATOM     51  C   UNL A   1      38.651  29.536  28.893  1.00  0.00     0.173 A 
ATOM     52  C   UNL A   1      39.283  28.758  31.074  1.00  0.00     0.173 A 
ATOM     53  F   UNL A   1      38.943  29.807  27.612  1.00  0.00    -0.203 F 
ATOM     54  C   UNL A   1      37.373  29.821  29.367  1.00  0.00     0.198 A 
ATOM     55  C   UNL A   1      37.996  29.013  31.539  1.00  0.00     0.198 A 
ATOM     56  F   UNL A   1      40.186  28.245  31.922  1.00  0.00    -0.203 F 
ATOM     57  F   UNL A   1      36.463  30.366  28.549  1.00  0.00    -0.200 F 
ATOM     58  C   UNL A   1      37.044  29.552  30.687  1.00  0.00     0.200 A 
ATOM     59  F   UNL A   1      37.678  28.733  32.811  1.00  0.00    -0.200 F 
ATOM     60  F   UNL A   1      35.811  29.817  31.142  1.00  0.00    -0.200 F 
ENDBRANCH  26  50
BRANCH  38  61
ATOM     61  C   UNL A   1      45.529  32.685  29.217  1.00  0.00     0.064 A 
ATOM     62  C   UNL A   1      45.332  33.733  28.305  1.00  0.00     0.173 A 
ATOM     63  C   UNL A   1      46.037  33.003  30.485  1.00  0.00     0.173 A 
ATOM     64  F   UNL A   1      44.867  33.478  27.073  1.00  0.00    -0.203 F 
ATOM     65  C   UNL A   1      45.656  35.044  28.642  1.00  0.00     0.198 A 
ATOM     66  C   UNL A   1      46.330  34.319  30.830  1.00  0.00     0.198 A 
ATOM     67  F   UNL A   1      46.240  32.038  31.394  1.00  0.00    -0.203 F 
ATOM     68  F   UNL A   1      45.510  36.023  27.739  1.00  0.00    -0.200 F 
ATOM     69  C   UNL A   1      46.147  35.337  29.907  1.00  0.00     0.200 A 
ATOM     70  F   UNL A   1      46.792  34.601  32.056  1.00  0.00    -0.200 F 
ATOM     71  F   UNL A   1      46.453  36.601  30.231  1.00  0.00    -0.200 F 
ENDBRANCH  38  61
ENDBRANCH  12  13
ENDBRANCH   5   7
ENDBRANCH   2   3
ENDBRANCH   1   2
BRANCH   1  72
ATOM     72  C   UNL A   1      36.718  20.450  25.063  1.00  0.00     0.117 C 
BRANCH  72  73
ATOM     73  N   UNL A   1      36.776  21.523  24.087  1.00  0.00    -0.356 N 
ATOM     74  C   UNL A   1      36.103  22.706  24.071  1.00  0.00     0.227 C 
ATOM     75  H   UNL A   1      37.389  21.374  23.331  1.00  0.00     0.163 HD
ATOM     76  O   UNL A   1      36.139  23.377  23.041  1.00  0.00    -0.275 OA
BRANCH  74  77
ATOM     77  C   UNL A   1      35.358  23.133  25.315  1.00  0.00     0.127 C 
ATOM     78  C   UNL A   1      33.940  22.485  25.440  1.00  0.00     0.127 C 
ATOM     79  C   UNL A   1      35.002  24.630  25.260  1.00  0.00     0.155 C 
ATOM     80  C   UNL A   1      33.052  23.739  25.547  1.00  0.00     0.155 C 
ATOM     81  C   UNL A   1      34.203  24.974  24.034  1.00  0.00     0.004 C 
ATOM     82  O   UNL A   1      33.939  24.655  26.243  1.00  0.00    -0.365 OA
ATOM     83  C   UNL A   1      32.999  24.419  24.210  1.00  0.00     0.004 C 
BRANCH  78  84
ATOM     84  C   UNL A   1      33.789  21.589  26.661  1.00  0.00     0.231 C 
ATOM     85  O   UNL A   1      34.089  21.969  27.795  1.00  0.00    -0.274 OA
ATOM     86  N   UNL A   1      33.279  20.318  26.526  1.00  0.00    -0.325 N 
ATOM     87  H   UNL A   1      33.100  19.847  27.372  1.00  0.00     0.169 HD
BRANCH  86  88
ATOM     88  C   UNL A   1      32.976  19.592  25.364  1.00  0.00     0.048 A 
ATOM     89  C   UNL A   1      32.295  20.260  24.342  1.00  0.00     0.026 A 
ATOM     90  C   UNL A   1      33.370  18.266  25.176  1.00  0.00     0.111 A 
ATOM     91  C   UNL A   1      32.121  19.653  23.095  1.00  0.00     0.009 A 
ATOM     92  C   UNL A   1      33.197  17.662  23.924  1.00  0.00     0.271 A 
ATOM     93  C   UNL A   1      32.589  18.359  22.874  1.00  0.00     0.086 A 
BRANCH  92  94
ATOM     94  N   UNL A   1      33.696  16.299  23.705  1.00  0.00     0.062 N 
ATOM     95  O   UNL A   1      34.372  16.089  22.689  1.00  0.00    -0.258 OA
ATOM     96  O   UNL A   1      33.427  15.444  24.562  1.00  0.00    -0.258 OA
ENDBRANCH  92  94
ENDBRANCH  86  88
ENDBRANCH  78  84
ENDBRANCH  74  77
ENDBRANCH  72  73
ENDBRANCH   1  72
TORSDOF 13
ENDMDL
