MODEL 1
REMARK VINA RESULT:      -9.7      0.000      0.000
REMARK SMILES O=C(COCCNc1nncs1)NCCCNC(=O)c1ccc(-c2c3nc(c(-c4c(F)c(F)c(F)c(F)c4F)c4ccc([nH]4)c(-c4c(F)c(F)c(F)c(F)c4F)c4nc(c(-c5c(F)c(F)c(F)c(F)c5F)c5ccc2[nH]5)C=C4)C=C3)cc1
REMARK SMILES IDX 1 1 2 2 13 3 3 5 4 6 5 7 6 8 7 9 8 11 9 12 12 13 10 14 11 15
REMARK SMILES IDX 14 16 15 17 16 18 17 19 18 20 19 22 20 23 21 24 82 25 22 26
REMARK SMILES IDX 81 27 23 28 24 29 25 30 75 31 26 32 80 33 74 34 76 35 27 36
REMARK SMILES IDX 79 37 73 38 72 39 28 41 60 42 40 43 59 44 41 45 44 46 58 47
REMARK SMILES IDX 77 48 42 49 43 50 57 52 78 53 45 54 29 55 30 56 38 57 31 58
REMARK SMILES IDX 32 59 36 60 39 61 33 62 34 63 37 64 35 65 61 66 62 67 70 68
REMARK SMILES IDX 63 69 64 70 68 71 71 72 65 73 66 74 69 75 67 76 46 77 47 78
REMARK SMILES IDX 55 79 48 80 49 81 53 82 56 83 50 84 51 85 54 86 52 87
REMARK H PARENT 13 4 7 10 17 21 76 40 44 51
REMARK Flexibility Score: inf
ROOT
ATOM      1  O   UNL A   1      38.580  34.324  30.342  1.00  0.00    -0.272 OA
ATOM      2  C   UNL A   1      37.546  34.267  30.996  1.00  0.00     0.245 C 
ATOM      3  N   UNL A   1      36.281  34.286  30.448  1.00  0.00    -0.354 N 
ATOM      4  H   UNL A   1      35.507  34.123  31.035  1.00  0.00     0.163 HD
ENDROOT
BRANCH   2   5
ATOM      5  C   UNL A   1      37.541  34.132  32.522  1.00  0.00     0.260 C 
BRANCH   5   6
ATOM      6  O   UNL A   1      36.529  34.855  33.211  1.00  0.00    -0.370 OA
BRANCH   6   7
ATOM      7  C   UNL A   1      35.682  34.083  34.074  1.00  0.00     0.182 C 
BRANCH   7   8
ATOM      8  C   UNL A   1      34.484  33.407  33.386  1.00  0.00     0.143 C 
BRANCH   8   9
ATOM      9  N   UNL A   1      33.387  34.335  33.198  1.00  0.00    -0.358 N 
ATOM     10  H   UNL A   1      32.640  34.270  33.837  1.00  0.00     0.163 HD
BRANCH   9  11
ATOM     11  C   UNL A   1      33.280  35.282  32.238  1.00  0.00     0.205 A 
ATOM     12  N   UNL A   1      32.992  34.967  30.991  1.00  0.00    -0.121 NA
ATOM     13  S   UNL A   1      33.519  36.979  32.454  1.00  0.00    -0.083 S 
ATOM     14  N   UNL A   1      32.942  36.055  30.144  1.00  0.00    -0.145 NA
ATOM     15  C   UNL A   1      33.213  37.169  30.782  1.00  0.00     0.204 A 
ENDBRANCH   9  11
ENDBRANCH   8   9
ENDBRANCH   7   8
ENDBRANCH   6   7
ENDBRANCH   5   6
ENDBRANCH   2   5
BRANCH   3  16
ATOM     16  C   UNL A   1      36.047  34.536  29.043  1.00  0.00     0.117 C 
BRANCH  16  17
ATOM     17  C   UNL A   1      35.455  33.344  28.300  1.00  0.00     0.042 C 
BRANCH  17  18
ATOM     18  C   UNL A   1      34.588  32.425  29.153  1.00  0.00     0.118 C 
BRANCH  18  19
ATOM     19  N   UNL A   1      34.018  31.311  28.412  1.00  0.00    -0.352 N 
ATOM     20  C   UNL A   1      34.592  30.151  27.957  1.00  0.00     0.251 C 
ATOM     21  H   UNL A   1      33.061  31.405  28.201  1.00  0.00     0.163 HD
ATOM     22  O   UNL A   1      33.932  29.393  27.253  1.00  0.00    -0.269 OA
BRANCH  20  23
ATOM     23  C   UNL A   1      35.996  29.805  28.282  1.00  0.00     0.039 A 
ATOM     24  C   UNL A   1      36.968  29.987  27.292  1.00  0.00     0.014 A 
ATOM     25  C   UNL A   1      36.361  29.254  29.513  1.00  0.00     0.014 A 
ATOM     26  C   UNL A   1      38.302  29.662  27.548  1.00  0.00     0.010 A 
ATOM     27  C   UNL A   1      37.702  28.997  29.794  1.00  0.00     0.010 A 
ATOM     28  C   UNL A   1      38.686  29.184  28.810  1.00  0.00    -0.014 A 
BRANCH  28  29
ATOM     29  C   UNL A   1      40.103  28.847  29.103  1.00  0.00     0.031 A 
ATOM     30  C   UNL A   1      40.964  29.806  29.881  1.00  0.00     0.074 A 
ATOM     31  C   UNL A   1      40.631  27.700  28.636  1.00  0.00     0.049 A 
ATOM     32  N   UNL A   1      42.231  29.714  30.198  1.00  0.00    -0.248 NA
ATOM     33  C   UNL A   1      40.320  31.045  30.343  1.00  0.00     0.031 C 
ATOM     34  C   UNL A   1      39.917  26.707  27.833  1.00  0.00     0.029 A 
ATOM     35  N   UNL A   1      41.895  27.180  28.762  1.00  0.00    -0.354 N 
ATOM     36  C   UNL A   1      42.538  30.886  30.876  1.00  0.00     0.074 A 
ATOM     37  C   UNL A   1      41.339  31.696  30.885  1.00  0.00     0.031 C 
ATOM     38  C   UNL A   1      40.746  25.686  27.557  1.00  0.00     0.029 A 
ATOM     39  C   UNL A   1      42.056  25.967  28.136  1.00  0.00     0.049 A 
ATOM     40  H   UNL A   1      42.617  27.632  29.255  1.00  0.00     0.167 HD
ATOM     41  C   UNL A   1      43.706  31.245  31.461  1.00  0.00     0.037 A 
ATOM     42  C   UNL A   1      43.141  25.174  28.040  1.00  0.00     0.037 A 
ATOM     43  C   UNL A   1      44.890  30.427  31.483  1.00  0.00     0.049 A 
ATOM     44  C   UNL A   1      44.421  25.589  28.712  1.00  0.00     0.074 A 
ATOM     45  C   UNL A   1      46.105  30.680  32.095  1.00  0.00     0.029 A 
ATOM     46  N   UNL A   1      45.004  29.191  30.863  1.00  0.00    -0.354 N 
ATOM     47  N   UNL A   1      44.680  26.670  29.405  1.00  0.00    -0.248 NA
ATOM     48  C   UNL A   1      45.559  24.664  28.596  1.00  0.00     0.031 C 
ATOM     49  C   UNL A   1      46.966  29.613  31.816  1.00  0.00     0.029 A 
ATOM     50  C   UNL A   1      46.274  28.675  31.069  1.00  0.00     0.049 A 
ATOM     51  H   UNL A   1      44.289  28.746  30.353  1.00  0.00     0.167 HD
ATOM     52  C   UNL A   1      45.995  26.543  29.835  1.00  0.00     0.074 A 
ATOM     53  C   UNL A   1      46.477  25.273  29.333  1.00  0.00     0.031 C 
ATOM     54  C   UNL A   1      46.734  27.401  30.579  1.00  0.00     0.037 A 
BRANCH  41  55
ATOM     55  C   UNL A   1      43.759  32.586  32.135  1.00  0.00     0.064 A 
ATOM     56  C   UNL A   1      43.461  32.735  33.499  1.00  0.00     0.173 A 
ATOM     57  C   UNL A   1      44.142  33.729  31.419  1.00  0.00     0.173 A 
ATOM     58  F   UNL A   1      43.078  31.674  34.226  1.00  0.00    -0.203 F 
ATOM     59  C   UNL A   1      43.515  33.984  34.111  1.00  0.00     0.198 A 
ATOM     60  C   UNL A   1      44.224  34.972  32.042  1.00  0.00     0.198 A 
ATOM     61  F   UNL A   1      44.444  33.642  30.114  1.00  0.00    -0.203 F 
ATOM     62  F   UNL A   1      43.177  34.110  35.402  1.00  0.00    -0.200 F 
ATOM     63  C   UNL A   1      43.903  35.100  33.385  1.00  0.00     0.200 A 
ATOM     64  F   UNL A   1      44.611  36.048  31.342  1.00  0.00    -0.200 F 
ATOM     65  F   UNL A   1      43.958  36.300  33.978  1.00  0.00    -0.200 F 
ENDBRANCH  41  55
BRANCH  42  66
ATOM     66  C   UNL A   1      43.052  23.885  27.307  1.00  0.00     0.064 A 
ATOM     67  C   UNL A   1      42.588  22.726  27.947  1.00  0.00     0.173 A 
ATOM     68  C   UNL A   1      43.434  23.780  25.963  1.00  0.00     0.173 A 
ATOM     69  F   UNL A   1      42.233  22.773  29.239  1.00  0.00    -0.203 F 
ATOM     70  C   UNL A   1      42.530  21.507  27.275  1.00  0.00     0.198 A 
ATOM     71  C   UNL A   1      43.349  22.566  25.284  1.00  0.00     0.198 A 
ATOM     72  F   UNL A   1      43.881  24.860  25.305  1.00  0.00    -0.203 F 
ATOM     73  F   UNL A   1      42.125  20.407  27.924  1.00  0.00    -0.200 F 
ATOM     74  C   UNL A   1      42.904  21.429  25.943  1.00  0.00     0.200 A 
ATOM     75  F   UNL A   1      43.701  22.496  23.993  1.00  0.00    -0.200 F 
ATOM     76  F   UNL A   1      42.846  20.257  25.297  1.00  0.00    -0.200 F 
ENDBRANCH  42  66
BRANCH  54  77
ATOM     77  C   UNL A   1      48.127  26.976  30.938  1.00  0.00     0.064 A 
ATOM     78  C   UNL A   1      48.385  26.144  32.037  1.00  0.00     0.173 A 
ATOM     79  C   UNL A   1      49.215  27.375  30.146  1.00  0.00     0.173 A 
ATOM     80  F   UNL A   1      47.381  25.747  32.834  1.00  0.00    -0.203 F 
ATOM     81  C   UNL A   1      49.684  25.750  32.347  1.00  0.00     0.198 A 
ATOM     82  C   UNL A   1      50.509  26.957  30.442  1.00  0.00     0.198 A 
ATOM     83  F   UNL A   1      49.021  28.165  29.079  1.00  0.00    -0.203 F 
ATOM     84  F   UNL A   1      49.914  24.995  33.430  1.00  0.00    -0.200 F 
ATOM     85  C   UNL A   1      50.743  26.152  31.545  1.00  0.00     0.200 A 
ATOM     86  F   UNL A   1      51.529  27.334  29.659  1.00  0.00    -0.200 F 
ATOM     87  F   UNL A   1      51.992  25.767  31.841  1.00  0.00    -0.200 F 
ENDBRANCH  54  77
ENDBRANCH  28  29
ENDBRANCH  20  23
ENDBRANCH  18  19
ENDBRANCH  17  18
ENDBRANCH  16  17
ENDBRANCH   3  16
TORSDOF 15
ENDMDL
MODEL 2
REMARK VINA RESULT:      -9.5      0.813      7.840
REMARK SMILES O=C(COCCNc1nncs1)NCCCNC(=O)c1ccc(-c2c3nc(c(-c4c(F)c(F)c(F)c(F)c4F)c4ccc([nH]4)c(-c4c(F)c(F)c(F)c(F)c4F)c4nc(c(-c5c(F)c(F)c(F)c(F)c5F)c5ccc2[nH]5)C=C4)C=C3)cc1
REMARK SMILES IDX 1 1 2 2 13 3 3 5 4 6 5 7 6 8 7 9 8 11 9 12 12 13 10 14 11 15
REMARK SMILES IDX 14 16 15 17 16 18 17 19 18 20 19 22 20 23 21 24 82 25 22 26
REMARK SMILES IDX 81 27 23 28 24 29 25 30 75 31 26 32 80 33 74 34 76 35 27 36
REMARK SMILES IDX 79 37 73 38 72 39 28 41 60 42 40 43 59 44 41 45 44 46 58 47
REMARK SMILES IDX 77 48 42 49 43 50 57 52 78 53 45 54 29 55 30 56 38 57 31 58
REMARK SMILES IDX 32 59 36 60 39 61 33 62 34 63 37 64 35 65 61 66 62 67 70 68
REMARK SMILES IDX 63 69 64 70 68 71 71 72 65 73 66 74 69 75 67 76 46 77 47 78
REMARK SMILES IDX 55 79 48 80 49 81 53 82 56 83 50 84 51 85 54 86 52 87
REMARK H PARENT 13 4 7 10 17 21 76 40 44 51
REMARK Flexibility Score: inf
ROOT
ATOM      1  O   UNL A   1      38.118  33.791  29.190  1.00  0.00    -0.272 OA
ATOM      2  C   UNL A   1      37.383  34.096  30.122  1.00  0.00     0.245 C 
ATOM      3  N   UNL A   1      36.054  34.434  29.982  1.00  0.00    -0.354 N 
ATOM      4  H   UNL A   1      35.508  34.556  30.793  1.00  0.00     0.163 HD
ENDROOT
BRANCH   2   5
ATOM      5  C   UNL A   1      37.858  34.104  31.579  1.00  0.00     0.260 C 
BRANCH   5   6
ATOM      6  O   UNL A   1      36.976  33.519  32.527  1.00  0.00    -0.370 OA
BRANCH   6   7
ATOM      7  C   UNL A   1      36.709  34.299  33.701  1.00  0.00     0.182 C 
BRANCH   7   8
ATOM      8  C   UNL A   1      35.292  34.149  34.282  1.00  0.00     0.143 C 
BRANCH   8   9
ATOM      9  N   UNL A   1      34.472  35.307  33.989  1.00  0.00    -0.358 N 
ATOM     10  H   UNL A   1      34.334  35.946  34.725  1.00  0.00     0.163 HD
BRANCH   9  11
ATOM     11  C   UNL A   1      33.876  35.602  32.811  1.00  0.00     0.205 A 
ATOM     12  N   UNL A   1      33.467  34.655  31.991  1.00  0.00    -0.121 NA
ATOM     13  S   UNL A   1      33.588  37.187  32.188  1.00  0.00    -0.083 S 
ATOM     14  N   UNL A   1      32.901  35.136  30.830  1.00  0.00    -0.145 NA
ATOM     15  C   UNL A   1      32.914  36.448  30.800  1.00  0.00     0.204 A 
ENDBRANCH   9  11
ENDBRANCH   8   9
ENDBRANCH   7   8
ENDBRANCH   6   7
ENDBRANCH   5   6
ENDBRANCH   2   5
BRANCH   3  16
ATOM     16  C   UNL A   1      35.431  34.615  28.690  1.00  0.00     0.117 C 
BRANCH  16  17
ATOM     17  C   UNL A   1      35.062  33.308  27.999  1.00  0.00     0.042 C 
BRANCH  17  18
ATOM     18  C   UNL A   1      34.284  32.324  28.867  1.00  0.00     0.118 C 
BRANCH  18  19
ATOM     19  N   UNL A   1      33.813  31.155  28.140  1.00  0.00    -0.352 N 
ATOM     20  C   UNL A   1      34.476  30.023  27.739  1.00  0.00     0.251 C 
ATOM     21  H   UNL A   1      32.860  31.181  27.894  1.00  0.00     0.163 HD
ATOM     22  O   UNL A   1      33.891  29.205  27.035  1.00  0.00    -0.269 OA
BRANCH  20  23
ATOM     23  C   UNL A   1      35.887  29.778  28.120  1.00  0.00     0.039 A 
ATOM     24  C   UNL A   1      36.153  29.328  29.418  1.00  0.00     0.014 A 
ATOM     25  C   UNL A   1      36.949  30.038  27.249  1.00  0.00     0.014 A 
ATOM     26  C   UNL A   1      37.469  29.097  29.826  1.00  0.00     0.010 A 
ATOM     27  C   UNL A   1      38.256  29.739  27.631  1.00  0.00     0.010 A 
ATOM     28  C   UNL A   1      38.532  29.279  28.928  1.00  0.00    -0.014 A 
BRANCH  28  29
ATOM     29  C   UNL A   1      39.936  29.024  29.343  1.00  0.00     0.031 A 
ATOM     30  C   UNL A   1      40.657  27.795  28.857  1.00  0.00     0.074 A 
ATOM     31  C   UNL A   1      40.551  29.871  30.189  1.00  0.00     0.049 A 
ATOM     32  N   UNL A   1      41.865  27.374  29.141  1.00  0.00    -0.248 NA
ATOM     33  C   UNL A   1      39.913  26.910  27.949  1.00  0.00     0.031 C 
ATOM     34  C   UNL A   1      39.950  31.073  30.766  1.00  0.00     0.029 A 
ATOM     35  N   UNL A   1      41.819  29.846  30.717  1.00  0.00    -0.354 N 
ATOM     36  C   UNL A   1      42.015  26.171  28.465  1.00  0.00     0.074 A 
ATOM     37  C   UNL A   1      40.761  25.903  27.794  1.00  0.00     0.031 C 
ATOM     38  C   UNL A   1      40.853  31.684  31.551  1.00  0.00     0.029 A 
ATOM     39  C   UNL A   1      42.086  30.901  31.556  1.00  0.00     0.049 A 
ATOM     40  H   UNL A   1      42.473  29.141  30.513  1.00  0.00     0.167 HD
ATOM     41  C   UNL A   1      43.107  25.373  28.389  1.00  0.00     0.037 A 
ATOM     42  C   UNL A   1      43.200  31.200  32.252  1.00  0.00     0.037 A 
ATOM     43  C   UNL A   1      44.366  25.655  29.028  1.00  0.00     0.049 A 
ATOM     44  C   UNL A   1      44.404  30.305  32.138  1.00  0.00     0.074 A 
ATOM     45  C   UNL A   1      45.546  24.935  28.967  1.00  0.00     0.029 A 
ATOM     46  N   UNL A   1      44.606  26.749  29.846  1.00  0.00    -0.354 N 
ATOM     47  N   UNL A   1      44.554  29.204  31.444  1.00  0.00    -0.248 NA
ATOM     48  C   UNL A   1      45.598  30.704  32.897  1.00  0.00     0.031 C 
ATOM     49  C   UNL A   1      46.491  25.575  29.777  1.00  0.00     0.029 A 
ATOM     50  C   UNL A   1      45.913  26.717  30.305  1.00  0.00     0.049 A 
ATOM     51  H   UNL A   1      43.946  27.446  30.067  1.00  0.00     0.167 HD
ATOM     52  C   UNL A   1      45.865  28.796  31.656  1.00  0.00     0.074 A 
ATOM     53  C   UNL A   1      46.471  29.775  32.534  1.00  0.00     0.031 C 
ATOM     54  C   UNL A   1      46.508  27.708  31.164  1.00  0.00     0.037 A 
BRANCH  41  55
ATOM     55  C   UNL A   1      42.990  24.115  27.577  1.00  0.00     0.064 A 
ATOM     56  C   UNL A   1      43.318  24.088  26.213  1.00  0.00     0.173 A 
ATOM     57  C   UNL A   1      42.577  22.916  28.176  1.00  0.00     0.173 A 
ATOM     58  F   UNL A   1      43.709  25.211  25.591  1.00  0.00    -0.203 F 
ATOM     59  C   UNL A   1      43.207  22.916  25.472  1.00  0.00     0.198 A 
ATOM     60  C   UNL A   1      42.494  21.738  27.438  1.00  0.00     0.198 A 
ATOM     61  F   UNL A   1      42.257  22.884  29.478  1.00  0.00    -0.203 F 
ATOM     62  F   UNL A   1      43.477  22.926  24.159  1.00  0.00    -0.200 F 
ATOM     63  C   UNL A   1      42.801  21.740  26.085  1.00  0.00     0.200 A 
ATOM     64  F   UNL A   1      42.114  20.600  28.035  1.00  0.00    -0.200 F 
ATOM     65  F   UNL A   1      42.698  20.611  25.371  1.00  0.00    -0.200 F 
ENDBRANCH  41  55
BRANCH  42  66
ATOM     66  C   UNL A   1      43.242  32.425  33.091  1.00  0.00     0.064 A 
ATOM     67  C   UNL A   1      43.591  33.664  32.535  1.00  0.00     0.173 A 
ATOM     68  C   UNL A   1      42.944  32.385  34.460  1.00  0.00     0.173 A 
ATOM     69  F   UNL A   1      43.907  33.748  31.234  1.00  0.00    -0.203 F 
ATOM     70  C   UNL A   1      43.662  34.812  33.321  1.00  0.00     0.198 A 
ATOM     71  C   UNL A   1      42.988  33.538  35.240  1.00  0.00     0.198 A 
ATOM     72  F   UNL A   1      42.600  31.224  35.038  1.00  0.00    -0.203 F 
ATOM     73  F   UNL A   1      44.043  35.974  32.773  1.00  0.00    -0.200 F 
ATOM     74  C   UNL A   1      43.354  34.750  34.672  1.00  0.00     0.200 A 
ATOM     75  F   UNL A   1      42.679  33.477  36.542  1.00  0.00    -0.200 F 
ATOM     76  F   UNL A   1      43.420  35.854  35.427  1.00  0.00    -0.200 F 
ENDBRANCH  42  66
BRANCH  54  77
ATOM     77  C   UNL A   1      47.955  27.543  31.526  1.00  0.00     0.064 A 
ATOM     78  C   UNL A   1      48.978  28.120  30.759  1.00  0.00     0.173 A 
ATOM     79  C   UNL A   1      48.319  26.830  32.679  1.00  0.00     0.173 A 
ATOM     80  F   UNL A   1      48.682  28.798  29.641  1.00  0.00    -0.203 F 
ATOM     81  C   UNL A   1      50.314  27.965  31.118  1.00  0.00     0.198 A 
ATOM     82  C   UNL A   1      49.654  26.702  33.049  1.00  0.00     0.198 A 
ATOM     83  F   UNL A   1      47.378  26.265  33.450  1.00  0.00    -0.203 F 
ATOM     84  F   UNL A   1      51.278  28.484  30.344  1.00  0.00    -0.200 F 
ATOM     85  C   UNL A   1      50.650  27.262  32.266  1.00  0.00     0.200 A 
ATOM     86  F   UNL A   1      49.976  26.033  34.165  1.00  0.00    -0.200 F 
ATOM     87  F   UNL A   1      51.937  27.119  32.613  1.00  0.00    -0.200 F 
ENDBRANCH  54  77
ENDBRANCH  28  29
ENDBRANCH  20  23
ENDBRANCH  18  19
ENDBRANCH  17  18
ENDBRANCH  16  17
ENDBRANCH   3  16
TORSDOF 15
ENDMDL
MODEL 3
REMARK VINA RESULT:      -9.4      4.699     11.314
REMARK SMILES O=C(COCCNc1nncs1)NCCCNC(=O)c1ccc(-c2c3nc(c(-c4c(F)c(F)c(F)c(F)c4F)c4ccc([nH]4)c(-c4c(F)c(F)c(F)c(F)c4F)c4nc(c(-c5c(F)c(F)c(F)c(F)c5F)c5ccc2[nH]5)C=C4)C=C3)cc1
REMARK SMILES IDX 1 1 2 2 13 3 3 5 4 6 5 7 6 8 7 9 8 11 9 12 12 13 10 14 11 15
REMARK SMILES IDX 14 16 15 17 16 18 17 19 18 20 19 22 20 23 21 24 82 25 22 26
REMARK SMILES IDX 81 27 23 28 24 29 25 30 75 31 26 32 80 33 74 34 76 35 27 36
REMARK SMILES IDX 79 37 73 38 72 39 28 41 60 42 40 43 59 44 41 45 44 46 58 47
REMARK SMILES IDX 77 48 42 49 43 50 57 52 78 53 45 54 29 55 30 56 38 57 31 58
REMARK SMILES IDX 32 59 36 60 39 61 33 62 34 63 37 64 35 65 61 66 62 67 70 68
REMARK SMILES IDX 63 69 64 70 68 71 71 72 65 73 66 74 69 75 67 76 46 77 47 78
REMARK SMILES IDX 55 79 48 80 49 81 53 82 56 83 50 84 51 85 54 86 52 87
REMARK H PARENT 13 4 7 10 17 21 76 40 44 51
REMARK Flexibility Score: inf
ROOT
ATOM      1  O   UNL A   1      44.963  23.293  28.873  1.00  0.00    -0.272 OA
ATOM      2  C   UNL A   1      44.874  23.580  27.686  1.00  0.00     0.245 C 
ATOM      3  N   UNL A   1      43.694  23.571  26.972  1.00  0.00    -0.354 N 
ATOM      4  H   UNL A   1      43.693  23.922  26.053  1.00  0.00     0.163 HD
ENDROOT
BRANCH   2   5
ATOM      5  C   UNL A   1      46.081  24.022  26.851  1.00  0.00     0.260 C 
BRANCH   5   6
ATOM      6  O   UNL A   1      45.809  24.389  25.505  1.00  0.00    -0.370 OA
BRANCH   6   7
ATOM      7  C   UNL A   1      46.042  23.373  24.518  1.00  0.00     0.182 C 
BRANCH   7   8
ATOM      8  C   UNL A   1      44.776  22.745  23.910  1.00  0.00     0.143 C 
BRANCH   8   9
ATOM      9  N   UNL A   1      45.008  21.375  23.498  1.00  0.00    -0.358 N 
ATOM     10  H   UNL A   1      44.905  21.180  22.539  1.00  0.00     0.163 HD
BRANCH   9  11
ATOM     11  C   UNL A   1      45.353  20.336  24.293  1.00  0.00     0.205 A 
ATOM     12  N   UNL A   1      46.614  20.080  24.580  1.00  0.00    -0.121 NA
ATOM     13  S   UNL A   1      44.267  19.203  25.011  1.00  0.00    -0.083 S 
ATOM     14  N   UNL A   1      46.782  18.974  25.387  1.00  0.00    -0.145 NA
ATOM     15  C   UNL A   1      45.632  18.413  25.675  1.00  0.00     0.204 A 
ENDBRANCH   9  11
ENDBRANCH   8   9
ENDBRANCH   7   8
ENDBRANCH   6   7
ENDBRANCH   5   6
ENDBRANCH   2   5
BRANCH   3  16
ATOM     16  C   UNL A   1      42.457  23.064  27.525  1.00  0.00     0.117 C 
BRANCH  16  17
ATOM     17  C   UNL A   1      41.852  21.920  26.721  1.00  0.00     0.042 C 
BRANCH  17  18
ATOM     18  C   UNL A   1      40.516  21.405  27.248  1.00  0.00     0.118 C 
BRANCH  18  19
ATOM     19  N   UNL A   1      39.394  21.700  26.371  1.00  0.00    -0.352 N 
ATOM     20  C   UNL A   1      38.740  22.879  26.117  1.00  0.00     0.251 C 
ATOM     21  H   UNL A   1      39.044  20.923  25.877  1.00  0.00     0.163 HD
ATOM     22  O   UNL A   1      37.738  22.868  25.409  1.00  0.00    -0.269 OA
BRANCH  20  23
ATOM     23  C   UNL A   1      39.208  24.161  26.696  1.00  0.00     0.039 A 
ATOM     24  C   UNL A   1      38.871  24.449  28.023  1.00  0.00     0.014 A 
ATOM     25  C   UNL A   1      39.915  25.103  25.944  1.00  0.00     0.014 A 
ATOM     26  C   UNL A   1      39.279  25.651  28.606  1.00  0.00     0.010 A 
ATOM     27  C   UNL A   1      40.384  26.270  26.546  1.00  0.00     0.010 A 
ATOM     28  C   UNL A   1      40.058  26.564  27.880  1.00  0.00    -0.014 A 
BRANCH  28  29
ATOM     29  C   UNL A   1      40.511  27.840  28.491  1.00  0.00     0.031 A 
ATOM     30  C   UNL A   1      41.955  28.027  28.872  1.00  0.00     0.074 A 
ATOM     31  C   UNL A   1      39.620  28.818  28.742  1.00  0.00     0.049 A 
ATOM     32  N   UNL A   1      42.535  29.046  29.456  1.00  0.00    -0.248 NA
ATOM     33  C   UNL A   1      42.864  26.907  28.581  1.00  0.00     0.031 C 
ATOM     34  C   UNL A   1      38.186  28.747  28.461  1.00  0.00     0.029 A 
ATOM     35  N   UNL A   1      39.789  30.061  29.300  1.00  0.00    -0.354 N 
ATOM     36  C   UNL A   1      43.866  28.683  29.617  1.00  0.00     0.074 A 
ATOM     37  C   UNL A   1      44.000  27.333  29.115  1.00  0.00     0.031 C 
ATOM     38  C   UNL A   1      37.609  29.903  28.826  1.00  0.00     0.029 A 
ATOM     39  C   UNL A   1      38.624  30.785  29.394  1.00  0.00     0.049 A 
ATOM     40  H   UNL A   1      40.661  30.402  29.602  1.00  0.00     0.167 HD
ATOM     41  C   UNL A   1      44.889  29.418  30.116  1.00  0.00     0.037 A 
ATOM     42  C   UNL A   1      38.403  32.018  29.887  1.00  0.00     0.037 A 
ATOM     43  C   UNL A   1      44.764  30.773  30.585  1.00  0.00     0.049 A 
ATOM     44  C   UNL A   1      39.560  32.819  30.421  1.00  0.00     0.074 A 
ATOM     45  C   UNL A   1      45.752  31.617  31.059  1.00  0.00     0.029 A 
ATOM     46  N   UNL A   1      43.573  31.481  30.637  1.00  0.00    -0.354 N 
ATOM     47  N   UNL A   1      40.825  32.489  30.509  1.00  0.00    -0.248 NA
ATOM     48  C   UNL A   1      39.257  34.171  30.914  1.00  0.00     0.031 C 
ATOM     49  C   UNL A   1      45.153  32.826  31.431  1.00  0.00     0.029 A 
ATOM     50  C   UNL A   1      43.800  32.750  31.146  1.00  0.00     0.049 A 
ATOM     51  H   UNL A   1      42.696  31.135  30.354  1.00  0.00     0.167 HD
ATOM     52  C   UNL A   1      41.473  33.599  31.035  1.00  0.00     0.074 A 
ATOM     53  C   UNL A   1      40.463  34.616  31.236  1.00  0.00     0.031 C 
ATOM     54  C   UNL A   1      42.788  33.759  31.324  1.00  0.00     0.037 A 
BRANCH  41  55
ATOM     55  C   UNL A   1      46.242  28.769  30.174  1.00  0.00     0.064 A 
ATOM     56  C   UNL A   1      46.668  28.059  31.308  1.00  0.00     0.173 A 
ATOM     57  C   UNL A   1      47.110  28.830  29.075  1.00  0.00     0.173 A 
ATOM     58  F   UNL A   1      45.880  27.981  32.391  1.00  0.00    -0.203 F 
ATOM     59  C   UNL A   1      47.924  27.462  31.349  1.00  0.00     0.198 A 
ATOM     60  C   UNL A   1      48.355  28.207  29.108  1.00  0.00     0.198 A 
ATOM     61  F   UNL A   1      46.750  29.491  27.964  1.00  0.00    -0.203 F 
ATOM     62  F   UNL A   1      48.330  26.833  32.461  1.00  0.00    -0.200 F 
ATOM     63  C   UNL A   1      48.765  27.530  30.247  1.00  0.00     0.200 A 
ATOM     64  F   UNL A   1      49.160  28.262  28.038  1.00  0.00    -0.200 F 
ATOM     65  F   UNL A   1      49.972  26.951  30.287  1.00  0.00    -0.200 F 
ENDBRANCH  41  55
BRANCH  42  66
ATOM     66  C   UNL A   1      37.032  32.590  29.862  1.00  0.00     0.064 A 
ATOM     67  C   UNL A   1      36.166  32.427  30.952  1.00  0.00     0.173 A 
ATOM     68  C   UNL A   1      36.557  33.301  28.752  1.00  0.00     0.173 A 
ATOM     69  F   UNL A   1      36.569  31.734  32.028  1.00  0.00    -0.203 F 
ATOM     70  C   UNL A   1      34.869  32.935  30.925  1.00  0.00     0.198 A 
ATOM     71  C   UNL A   1      35.269  33.833  28.736  1.00  0.00     0.198 A 
ATOM     72  F   UNL A   1      37.348  33.488  27.685  1.00  0.00    -0.203 F 
ATOM     73  F   UNL A   1      34.048  32.725  31.962  1.00  0.00    -0.200 F 
ATOM     74  C   UNL A   1      34.423  33.642  29.819  1.00  0.00     0.200 A 
ATOM     75  F   UNL A   1      34.845  34.525  27.670  1.00  0.00    -0.200 F 
ATOM     76  F   UNL A   1      33.177  34.132  29.793  1.00  0.00    -0.200 F 
ENDBRANCH  42  66
BRANCH  54  77
ATOM     77  C   UNL A   1      43.219  35.099  31.843  1.00  0.00     0.064 A 
ATOM     78  C   UNL A   1      43.191  35.404  33.212  1.00  0.00     0.173 A 
ATOM     79  C   UNL A   1      43.704  36.077  30.961  1.00  0.00     0.173 A 
ATOM     80  F   UNL A   1      42.723  34.508  34.093  1.00  0.00    -0.203 F 
ATOM     81  C   UNL A   1      43.607  36.649  33.676  1.00  0.00     0.198 A 
ATOM     82  C   UNL A   1      44.145  37.310  31.432  1.00  0.00     0.198 A 
ATOM     83  F   UNL A   1      43.757  35.832  29.644  1.00  0.00    -0.203 F 
ATOM     84  F   UNL A   1      43.527  36.936  34.983  1.00  0.00    -0.200 F 
ATOM     85  C   UNL A   1      44.089  37.598  32.786  1.00  0.00     0.200 A 
ATOM     86  F   UNL A   1      44.622  38.221  30.573  1.00  0.00    -0.200 F 
ATOM     87  F   UNL A   1      44.494  38.794  33.235  1.00  0.00    -0.200 F 
ENDBRANCH  54  77
ENDBRANCH  28  29
ENDBRANCH  20  23
ENDBRANCH  18  19
ENDBRANCH  17  18
ENDBRANCH  16  17
ENDBRANCH   3  16
TORSDOF 15
ENDMDL
