MODEL 1
REMARK VINA RESULT:     -13.1      0.000      0.000
REMARK SMILES Cc1cc(Cl)cc2c1O[C@H](C(F)(F)F)C(C(=O)NCCCNC(=O)c1ccc(-c3c4nc(c(-c5c(F)c(F)c(F)c(F)c5F)c5ccc([nH]5)c(-c5c(F)c(F)c(F)c(F)c5F)c5nc(c(-c6c(F)c(F)c(F)c(F)c6F)c6ccc3[nH]6)C=C5)C=C4)cc1)=C2
REMARK SMILES IDX 20 1 19 2 18 3 16 4 17 5 15 7 1 8 2 9 3 10 8 11 4 12 7 13
REMARK SMILES IDX 9 14 5 15 6 16 88 17 10 18 11 19 12 20 13 21 14 22 21 23
REMARK SMILES IDX 22 24 23 25 24 27 25 28 26 29 87 30 27 31 86 32 28 33 29 34
REMARK SMILES IDX 30 35 80 36 31 37 85 38 79 39 81 40 32 41 84 42 78 43 77 44
REMARK SMILES IDX 33 46 65 47 45 48 64 49 46 50 49 51 63 52 82 53 47 54 48 55
REMARK SMILES IDX 62 57 83 58 50 59 34 60 35 61 43 62 36 63 37 64 41 65 44 66
REMARK SMILES IDX 38 67 39 68 42 69 40 70 66 71 67 72 75 73 68 74 69 75 73 76
REMARK SMILES IDX 76 77 70 78 71 79 74 80 72 81 51 82 52 83 60 84 53 85 54 86
REMARK SMILES IDX 58 87 61 88 55 89 56 90 59 91 57 92
REMARK H PARENT 18 6 22 26 81 45 49 56
REMARK Flexibility Score: inf
ROOT
ATOM      1  C   UNL A   1      31.380  32.354  26.512  1.00  0.00     0.042 C 
ENDROOT
BRANCH   1   2
ATOM      2  C   UNL A   1      31.379  30.839  26.371  1.00  0.00     0.118 C 
BRANCH   2   3
ATOM      3  N   UNL A   1      31.196  30.426  24.989  1.00  0.00    -0.352 N 
ATOM      4  C   UNL A   1      31.323  29.287  24.269  1.00  0.00     0.251 C 
ATOM      5  O   UNL A   1      31.057  29.393  23.067  1.00  0.00    -0.270 OA
ATOM      6  H   UNL A   1      30.901  31.177  24.425  1.00  0.00     0.163 HD
BRANCH   4   7
ATOM      7  C   UNL A   1      31.750  27.971  24.821  1.00  0.00     0.067 C 
ATOM      8  C   UNL A   1      34.297  23.729  26.179  1.00  0.00     0.048 C 
ATOM      9  C   UNL A   1      32.859  24.162  26.200  1.00  0.00    -0.007 A 
ATOM     10  C   UNL A   1      31.873  23.308  26.706  1.00  0.00     0.027 A 
ATOM     11  C   UNL A   1      32.467  25.402  25.678  1.00  0.00     0.131 A 
ATOM     12  C   UNL A   1      30.533  23.701  26.702  1.00  0.00     0.042 A 
ATOM     13  C   UNL A   1      31.126  25.802  25.677  1.00  0.00     0.019 A 
ATOM     14  O   UNL A   1      33.446  26.179  25.123  1.00  0.00    -0.475 OA
ATOM     15  Cl  UNL A   1      29.334  22.635  27.325  1.00  0.00    -0.084 Cl
ATOM     16  C   UNL A   1      30.154  24.944  26.194  1.00  0.00     0.032 A 
ATOM     17  C   UNL A   1      30.767  27.097  25.108  1.00  0.00     0.025 C 
ATOM     18  C   UNL A   1      33.180  27.603  25.087  1.00  0.00     0.314 C 
BRANCH  18  19
ATOM     19  C   UNL A   1      33.742  28.263  26.361  1.00  0.00     0.429 C 
ATOM     20  F   UNL A   1      34.852  27.604  26.781  1.00  0.00    -0.167 F 
ATOM     21  F   UNL A   1      34.116  29.550  26.160  1.00  0.00    -0.167 F 
ATOM     22  F   UNL A   1      32.860  28.269  27.384  1.00  0.00    -0.167 F 
ENDBRANCH  18  19
ENDBRANCH   4   7
ENDBRANCH   2   3
ENDBRANCH   1   2
BRANCH   1  23
ATOM     23  C   UNL A   1      32.619  32.855  27.239  1.00  0.00     0.118 C 
BRANCH  23  24
ATOM     24  N   UNL A   1      32.488  34.258  27.625  1.00  0.00    -0.352 N 
ATOM     25  C   UNL A   1      33.039  34.943  28.677  1.00  0.00     0.251 C 
ATOM     26  H   UNL A   1      31.913  34.798  27.036  1.00  0.00     0.163 HD
ATOM     27  O   UNL A   1      32.586  36.039  29.002  1.00  0.00    -0.269 OA
BRANCH  25  28
ATOM     28  C   UNL A   1      34.174  34.364  29.418  1.00  0.00     0.039 A 
ATOM     29  C   UNL A   1      33.934  33.649  30.594  1.00  0.00     0.014 A 
ATOM     30  C   UNL A   1      35.480  34.549  28.960  1.00  0.00     0.014 A 
ATOM     31  C   UNL A   1      35.005  33.069  31.274  1.00  0.00     0.010 A 
ATOM     32  C   UNL A   1      36.527  33.883  29.574  1.00  0.00     0.010 A 
ATOM     33  C   UNL A   1      36.304  33.153  30.748  1.00  0.00    -0.014 A 
BRANCH  33  34
ATOM     34  C   UNL A   1      37.455  32.519  31.431  1.00  0.00     0.031 A 
ATOM     35  C   UNL A   1      38.193  31.395  30.760  1.00  0.00     0.074 A 
ATOM     36  C   UNL A   1      37.795  32.921  32.671  1.00  0.00     0.049 A 
ATOM     37  N   UNL A   1      39.185  30.672  31.212  1.00  0.00    -0.248 NA
ATOM     38  C   UNL A   1      37.737  31.008  29.414  1.00  0.00     0.031 C 
ATOM     39  C   UNL A   1      37.118  33.970  33.435  1.00  0.00     0.029 A 
ATOM     40  N   UNL A   1      38.795  32.494  33.508  1.00  0.00    -0.354 N 
ATOM     41  C   UNL A   1      39.462  29.749  30.214  1.00  0.00     0.074 A 
ATOM     42  C   UNL A   1      38.490  29.949  29.163  1.00  0.00     0.031 C 
ATOM     43  C   UNL A   1      37.745  34.133  34.610  1.00  0.00     0.029 A 
ATOM     44  C   UNL A   1      38.841  33.172  34.701  1.00  0.00     0.049 A 
ATOM     45  H   UNL A   1      39.420  31.769  33.275  1.00  0.00     0.167 HD
ATOM     46  C   UNL A   1      40.462  28.841  30.162  1.00  0.00     0.037 A 
ATOM     47  C   UNL A   1      39.677  33.032  35.747  1.00  0.00     0.037 A 
ATOM     48  C   UNL A   1      41.445  28.672  31.197  1.00  0.00     0.049 A 
ATOM     49  C   UNL A   1      40.769  32.000  35.674  1.00  0.00     0.074 A 
ATOM     50  C   UNL A   1      42.533  27.820  31.221  1.00  0.00     0.029 A 
ATOM     51  N   UNL A   1      41.457  29.376  32.393  1.00  0.00    -0.354 N 
ATOM     52  N   UNL A   1      41.063  31.177  34.696  1.00  0.00    -0.248 NA
ATOM     53  C   UNL A   1      41.647  31.876  36.846  1.00  0.00     0.031 C 
ATOM     54  C   UNL A   1      43.175  27.971  32.452  1.00  0.00     0.029 A 
ATOM     55  C   UNL A   1      42.520  28.956  33.174  1.00  0.00     0.049 A 
ATOM     56  H   UNL A   1      40.808  30.070  32.649  1.00  0.00     0.167 HD
ATOM     57  C   UNL A   1      42.169  30.455  35.124  1.00  0.00     0.074 A 
ATOM     58  C   UNL A   1      42.504  30.948  36.443  1.00  0.00     0.031 C 
ATOM     59  C   UNL A   1      42.841  29.468  34.483  1.00  0.00     0.037 A 
BRANCH  46  60
ATOM     60  C   UNL A   1      40.564  27.978  28.939  1.00  0.00     0.064 A 
ATOM     61  C   UNL A   1      39.828  26.788  28.820  1.00  0.00     0.173 A 
ATOM     62  C   UNL A   1      41.356  28.371  27.851  1.00  0.00     0.173 A 
ATOM     63  F   UNL A   1      39.067  26.360  29.837  1.00  0.00    -0.203 F 
ATOM     64  C   UNL A   1      39.896  26.017  27.663  1.00  0.00     0.198 A 
ATOM     65  C   UNL A   1      41.396  27.613  26.683  1.00  0.00     0.198 A 
ATOM     66  F   UNL A   1      42.078  29.500  27.911  1.00  0.00    -0.203 F 
ATOM     67  F   UNL A   1      39.215  24.864  27.588  1.00  0.00    -0.200 F 
ATOM     68  C   UNL A   1      40.670  26.435  26.592  1.00  0.00     0.200 A 
ATOM     69  F   UNL A   1      42.135  28.025  25.643  1.00  0.00    -0.200 F 
ATOM     70  F   UNL A   1      40.719  25.700  25.472  1.00  0.00    -0.200 F 
ENDBRANCH  46  60
BRANCH  47  71
ATOM     71  C   UNL A   1      39.534  33.922  36.930  1.00  0.00     0.064 A 
ATOM     72  C   UNL A   1      38.798  33.513  38.050  1.00  0.00     0.173 A 
ATOM     73  C   UNL A   1      40.147  35.183  36.979  1.00  0.00     0.173 A 
ATOM     74  F   UNL A   1      38.179  32.323  38.045  1.00  0.00    -0.203 F 
ATOM     75  C   UNL A   1      38.672  34.333  39.170  1.00  0.00     0.198 A 
ATOM     76  C   UNL A   1      40.045  35.991  38.110  1.00  0.00     0.198 A 
ATOM     77  F   UNL A   1      40.869  35.620  35.936  1.00  0.00    -0.203 F 
ATOM     78  F   UNL A   1      37.934  33.930  40.213  1.00  0.00    -0.200 F 
ATOM     79  C   UNL A   1      39.303  35.567  39.202  1.00  0.00     0.200 A 
ATOM     80  F   UNL A   1      40.671  37.175  38.144  1.00  0.00    -0.200 F 
ATOM     81  F   UNL A   1      39.193  36.350  40.284  1.00  0.00    -0.200 F 
ENDBRANCH  47  71
BRANCH  59  82
ATOM     82  C   UNL A   1      44.018  28.857  35.184  1.00  0.00     0.064 A 
ATOM     83  C   UNL A   1      43.872  27.734  36.012  1.00  0.00     0.173 A 
ATOM     84  C   UNL A   1      45.315  29.335  34.945  1.00  0.00     0.173 A 
ATOM     85  F   UNL A   1      42.650  27.248  36.279  1.00  0.00    -0.203 F 
ATOM     86  C   UNL A   1      44.982  27.118  36.581  1.00  0.00     0.198 A 
ATOM     87  C   UNL A   1      46.425  28.697  35.490  1.00  0.00     0.198 A 
ATOM     88  F   UNL A   1      45.508  30.400  34.151  1.00  0.00    -0.203 F 
ATOM     89  F   UNL A   1      44.818  26.063  37.391  1.00  0.00    -0.200 F 
ATOM     90  C   UNL A   1      46.257  27.591  36.309  1.00  0.00     0.200 A 
ATOM     91  F   UNL A   1      47.658  29.144  35.210  1.00  0.00    -0.200 F 
ATOM     92  F   UNL A   1      47.327  26.979  36.837  1.00  0.00    -0.200 F 
ENDBRANCH  59  82
ENDBRANCH  33  34
ENDBRANCH  25  28
ENDBRANCH  23  24
ENDBRANCH   1  23
TORSDOF 11
ENDMDL
MODEL 2
REMARK VINA RESULT:     -13.0      0.207      2.012
REMARK SMILES Cc1cc(Cl)cc2c1O[C@H](C(F)(F)F)C(C(=O)NCCCNC(=O)c1ccc(-c3c4nc(c(-c5c(F)c(F)c(F)c(F)c5F)c5ccc([nH]5)c(-c5c(F)c(F)c(F)c(F)c5F)c5nc(c(-c6c(F)c(F)c(F)c(F)c6F)c6ccc3[nH]6)C=C5)C=C4)cc1)=C2
REMARK SMILES IDX 20 1 19 2 18 3 16 4 17 5 15 7 1 8 2 9 3 10 8 11 4 12 7 13
REMARK SMILES IDX 9 14 5 15 6 16 88 17 10 18 11 19 12 20 13 21 14 22 21 23
REMARK SMILES IDX 22 24 23 25 24 27 25 28 26 29 87 30 27 31 86 32 28 33 29 34
REMARK SMILES IDX 30 35 80 36 31 37 85 38 79 39 81 40 32 41 84 42 78 43 77 44
REMARK SMILES IDX 33 46 65 47 45 48 64 49 46 50 49 51 63 52 82 53 47 54 48 55
REMARK SMILES IDX 62 57 83 58 50 59 34 60 35 61 43 62 36 63 37 64 41 65 44 66
REMARK SMILES IDX 38 67 39 68 42 69 40 70 66 71 67 72 75 73 68 74 69 75 73 76
REMARK SMILES IDX 76 77 70 78 71 79 74 80 72 81 51 82 52 83 60 84 53 85 54 86
REMARK SMILES IDX 58 87 61 88 55 89 56 90 59 91 57 92
REMARK H PARENT 18 6 22 26 81 45 49 56
REMARK Flexibility Score: inf
ROOT
ATOM      1  C   UNL A   1      31.308  32.396  26.485  1.00  0.00     0.042 C 
ENDROOT
BRANCH   1   2
ATOM      2  C   UNL A   1      31.295  30.882  26.343  1.00  0.00     0.118 C 
BRANCH   2   3
ATOM      3  N   UNL A   1      31.120  30.471  24.959  1.00  0.00    -0.352 N 
ATOM      4  C   UNL A   1      31.266  29.338  24.235  1.00  0.00     0.251 C 
ATOM      5  O   UNL A   1      31.001  29.444  23.033  1.00  0.00    -0.270 OA
ATOM      6  H   UNL A   1      30.814  31.220  24.398  1.00  0.00     0.163 HD
BRANCH   4   7
ATOM      7  C   UNL A   1      31.714  28.026  24.782  1.00  0.00     0.067 C 
ATOM      8  C   UNL A   1      34.322  23.814  26.118  1.00  0.00     0.048 C 
ATOM      9  C   UNL A   1      32.879  24.230  26.149  1.00  0.00    -0.007 A 
ATOM     10  C   UNL A   1      31.906  23.363  26.660  1.00  0.00     0.027 A 
ATOM     11  C   UNL A   1      32.468  25.465  25.631  1.00  0.00     0.131 A 
ATOM     12  C   UNL A   1      30.562  23.740  26.666  1.00  0.00     0.042 A 
ATOM     13  C   UNL A   1      31.122  25.849  25.640  1.00  0.00     0.019 A 
ATOM     14  O   UNL A   1      33.433  26.255  25.071  1.00  0.00    -0.475 OA
ATOM     15  Cl  UNL A   1      29.380  22.658  27.295  1.00  0.00    -0.084 Cl
ATOM     16  C   UNL A   1      30.164  24.978  26.161  1.00  0.00     0.032 A 
ATOM     17  C   UNL A   1      30.743  27.140  25.075  1.00  0.00     0.025 C 
ATOM     18  C   UNL A   1      33.149  27.676  25.039  1.00  0.00     0.314 C 
BRANCH  18  19
ATOM     19  C   UNL A   1      33.711  28.342  26.310  1.00  0.00     0.429 C 
ATOM     20  F   UNL A   1      32.783  28.318  27.301  1.00  0.00    -0.167 F 
ATOM     21  F   UNL A   1      34.802  27.702  26.795  1.00  0.00    -0.167 F 
ATOM     22  F   UNL A   1      34.068  29.629  26.117  1.00  0.00    -0.167 F 
ENDBRANCH  18  19
ENDBRANCH   4   7
ENDBRANCH   2   3
ENDBRANCH   1   2
BRANCH   1  23
ATOM     23  C   UNL A   1      32.564  32.889  27.188  1.00  0.00     0.118 C 
BRANCH  23  24
ATOM     24  N   UNL A   1      32.442  34.287  27.596  1.00  0.00    -0.352 N 
ATOM     25  C   UNL A   1      33.012  34.956  28.648  1.00  0.00     0.251 C 
ATOM     26  H   UNL A   1      31.858  34.836  27.025  1.00  0.00     0.163 HD
ATOM     27  O   UNL A   1      32.567  36.047  28.997  1.00  0.00    -0.269 OA
BRANCH  25  28
ATOM     28  C   UNL A   1      34.160  34.365  29.361  1.00  0.00     0.039 A 
ATOM     29  C   UNL A   1      33.938  33.618  30.520  1.00  0.00     0.014 A 
ATOM     30  C   UNL A   1      35.459  34.571  28.892  1.00  0.00     0.014 A 
ATOM     31  C   UNL A   1      35.021  33.028  31.172  1.00  0.00     0.010 A 
ATOM     32  C   UNL A   1      36.518  33.895  29.476  1.00  0.00     0.010 A 
ATOM     33  C   UNL A   1      36.313  33.134  30.633  1.00  0.00    -0.014 A 
BRANCH  33  34
ATOM     34  C   UNL A   1      37.476  32.490  31.286  1.00  0.00     0.031 A 
ATOM     35  C   UNL A   1      38.197  31.372  30.588  1.00  0.00     0.074 A 
ATOM     36  C   UNL A   1      37.842  32.877  32.523  1.00  0.00     0.049 A 
ATOM     37  N   UNL A   1      39.197  30.642  31.012  1.00  0.00    -0.248 NA
ATOM     38  C   UNL A   1      37.714  31.001  29.247  1.00  0.00     0.031 C 
ATOM     39  C   UNL A   1      37.183  33.919  33.312  1.00  0.00     0.029 A 
ATOM     40  N   UNL A   1      38.857  32.438  33.335  1.00  0.00    -0.354 N 
ATOM     41  C   UNL A   1      39.451  29.729  29.998  1.00  0.00     0.074 A 
ATOM     42  C   UNL A   1      38.460  29.943  28.969  1.00  0.00     0.031 C 
ATOM     43  C   UNL A   1      37.834  34.067  34.476  1.00  0.00     0.029 A 
ATOM     44  C   UNL A   1      38.929  33.104  34.534  1.00  0.00     0.049 A 
ATOM     45  H   UNL A   1      39.475  31.715  33.081  1.00  0.00     0.167 HD
ATOM     46  C   UNL A   1      40.449  28.819  29.916  1.00  0.00     0.037 A 
ATOM     47  C   UNL A   1      39.786  32.950  35.562  1.00  0.00     0.037 A 
ATOM     48  C   UNL A   1      41.452  28.637  30.929  1.00  0.00     0.049 A 
ATOM     49  C   UNL A   1      40.874  31.916  35.456  1.00  0.00     0.074 A 
ATOM     50  C   UNL A   1      42.538  27.783  30.921  1.00  0.00     0.029 A 
ATOM     51  N   UNL A   1      41.489  29.327  32.133  1.00  0.00    -0.354 N 
ATOM     52  N   UNL A   1      41.145  31.104  34.463  1.00  0.00    -0.248 NA
ATOM     53  C   UNL A   1      41.774  31.777  36.608  1.00  0.00     0.031 C 
ATOM     54  C   UNL A   1      43.205  27.918  32.141  1.00  0.00     0.029 A 
ATOM     55  C   UNL A   1      42.567  28.896  32.887  1.00  0.00     0.049 A 
ATOM     56  H   UNL A   1      40.847  30.020  32.409  1.00  0.00     0.167 HD
ATOM     57  C   UNL A   1      42.258  30.374  34.860  1.00  0.00     0.074 A 
ATOM     58  C   UNL A   1      42.621  30.852  36.177  1.00  0.00     0.031 C 
ATOM     59  C   UNL A   1      42.915  29.393  34.195  1.00  0.00     0.037 A 
BRANCH  46  60
ATOM     60  C   UNL A   1      40.524  27.970  28.682  1.00  0.00     0.064 A 
ATOM     61  C   UNL A   1      41.286  28.361  27.569  1.00  0.00     0.173 A 
ATOM     62  C   UNL A   1      39.881  26.725  28.631  1.00  0.00     0.173 A 
ATOM     63  F   UNL A   1      41.909  29.549  27.561  1.00  0.00    -0.203 F 
ATOM     64  C   UNL A   1      41.385  27.545  26.446  1.00  0.00     0.198 A 
ATOM     65  C   UNL A   1      40.009  25.898  27.517  1.00  0.00     0.198 A 
ATOM     66  F   UNL A   1      39.142  26.301  29.667  1.00  0.00    -0.203 F 
ATOM     67  F   UNL A   1      42.086  27.959  25.380  1.00  0.00    -0.200 F 
ATOM     68  C   UNL A   1      40.757  26.310  26.425  1.00  0.00     0.200 A 
ATOM     69  F   UNL A   1      39.411  24.697  27.504  1.00  0.00    -0.200 F 
ATOM     70  F   UNL A   1      40.869  25.518  25.349  1.00  0.00    -0.200 F 
ENDBRANCH  46  60
BRANCH  47  71
ATOM     71  C   UNL A   1      39.668  33.827  36.757  1.00  0.00     0.064 A 
ATOM     72  C   UNL A   1      40.323  35.066  36.804  1.00  0.00     0.173 A 
ATOM     73  C   UNL A   1      38.881  33.464  37.860  1.00  0.00     0.173 A 
ATOM     74  F   UNL A   1      41.101  35.450  35.780  1.00  0.00    -0.203 F 
ATOM     75  C   UNL A   1      40.205  35.903  37.911  1.00  0.00     0.198 A 
ATOM     76  C   UNL A   1      38.741  34.315  38.956  1.00  0.00     0.198 A 
ATOM     77  F   UNL A   1      38.227  32.294  37.863  1.00  0.00    -0.203 F 
ATOM     78  F   UNL A   1      40.870  37.065  37.943  1.00  0.00    -0.200 F 
ATOM     79  C   UNL A   1      39.407  35.531  38.983  1.00  0.00     0.200 A 
ATOM     80  F   UNL A   1      37.954  33.959  39.980  1.00  0.00    -0.200 F 
ATOM     81  F   UNL A   1      39.282  36.341  40.042  1.00  0.00    -0.200 F 
ENDBRANCH  47  71
BRANCH  59  82
ATOM     82  C   UNL A   1      44.104  28.772  34.865  1.00  0.00     0.064 A 
ATOM     83  C   UNL A   1      45.390  29.313  34.720  1.00  0.00     0.173 A 
ATOM     84  C   UNL A   1      43.940  27.688  35.741  1.00  0.00     0.173 A 
ATOM     85  F   UNL A   1      45.598  30.343  33.885  1.00  0.00    -0.203 F 
ATOM     86  C   UNL A   1      46.470  28.787  35.422  1.00  0.00     0.198 A 
ATOM     87  C   UNL A   1      45.017  27.183  36.465  1.00  0.00     0.198 A 
ATOM     88  F   UNL A   1      42.728  27.142  35.922  1.00  0.00    -0.203 F 
ATOM     89  F   UNL A   1      47.695  29.302  35.247  1.00  0.00    -0.200 F 
ATOM     90  C   UNL A   1      46.280  27.732  36.303  1.00  0.00     0.200 A 
ATOM     91  F   UNL A   1      44.828  26.178  37.331  1.00  0.00    -0.200 F 
ATOM     92  F   UNL A   1      47.318  27.244  36.998  1.00  0.00    -0.200 F 
ENDBRANCH  59  82
ENDBRANCH  33  34
ENDBRANCH  25  28
ENDBRANCH  23  24
ENDBRANCH   1  23
TORSDOF 11
ENDMDL
MODEL 3
REMARK VINA RESULT:     -13.0      1.410      1.777
REMARK SMILES Cc1cc(Cl)cc2c1O[C@H](C(F)(F)F)C(C(=O)NCCCNC(=O)c1ccc(-c3c4nc(c(-c5c(F)c(F)c(F)c(F)c5F)c5ccc([nH]5)c(-c5c(F)c(F)c(F)c(F)c5F)c5nc(c(-c6c(F)c(F)c(F)c(F)c6F)c6ccc3[nH]6)C=C5)C=C4)cc1)=C2
REMARK SMILES IDX 20 1 19 2 18 3 16 4 17 5 15 7 1 8 2 9 3 10 8 11 4 12 7 13
REMARK SMILES IDX 9 14 5 15 6 16 88 17 10 18 11 19 12 20 13 21 14 22 21 23
REMARK SMILES IDX 22 24 23 25 24 27 25 28 26 29 87 30 27 31 86 32 28 33 29 34
REMARK SMILES IDX 30 35 80 36 31 37 85 38 79 39 81 40 32 41 84 42 78 43 77 44
REMARK SMILES IDX 33 46 65 47 45 48 64 49 46 50 49 51 63 52 82 53 47 54 48 55
REMARK SMILES IDX 62 57 83 58 50 59 34 60 35 61 43 62 36 63 37 64 41 65 44 66
REMARK SMILES IDX 38 67 39 68 42 69 40 70 66 71 67 72 75 73 68 74 69 75 73 76
REMARK SMILES IDX 76 77 70 78 71 79 74 80 72 81 51 82 52 83 60 84 53 85 54 86
REMARK SMILES IDX 58 87 61 88 55 89 56 90 59 91 57 92
REMARK H PARENT 18 6 22 26 81 45 49 56
REMARK Flexibility Score: inf
ROOT
ATOM      1  C   UNL A   1      31.403  32.224  26.685  1.00  0.00     0.042 C 
ENDROOT
BRANCH   1   2
ATOM      2  C   UNL A   1      31.534  30.732  26.421  1.00  0.00     0.118 C 
BRANCH   2   3
ATOM      3  N   UNL A   1      31.237  30.401  25.036  1.00  0.00    -0.352 N 
ATOM      4  C   UNL A   1      31.183  29.285  24.272  1.00  0.00     0.251 C 
ATOM      5  O   UNL A   1      30.879  29.472  23.090  1.00  0.00    -0.270 OA
ATOM      6  H   UNL A   1      31.016  31.205  24.514  1.00  0.00     0.163 HD
BRANCH   4   7
ATOM      7  C   UNL A   1      31.462  27.904  24.757  1.00  0.00     0.067 C 
ATOM      8  C   UNL A   1      31.272  23.235  26.877  1.00  0.00     0.048 C 
ATOM      9  C   UNL A   1      32.355  24.101  26.299  1.00  0.00    -0.007 A 
ATOM     10  C   UNL A   1      33.674  23.637  26.245  1.00  0.00     0.027 A 
ATOM     11  C   UNL A   1      32.083  25.398  25.846  1.00  0.00     0.131 A 
ATOM     12  C   UNL A   1      34.685  24.452  25.730  1.00  0.00     0.042 A 
ATOM     13  C   UNL A   1      33.092  26.217  25.325  1.00  0.00     0.019 A 
ATOM     14  O   UNL A   1      30.799  25.847  25.985  1.00  0.00    -0.475 OA
ATOM     15  Cl  UNL A   1      36.303  23.866  25.675  1.00  0.00    -0.084 Cl
ATOM     16  C   UNL A   1      34.401  25.738  25.268  1.00  0.00     0.032 A 
ATOM     17  C   UNL A   1      32.759  27.566  24.881  1.00  0.00     0.025 C 
ATOM     18  C   UNL A   1      30.394  26.900  25.074  1.00  0.00     0.314 C 
BRANCH  18  19
ATOM     19  C   UNL A   1      29.764  26.276  23.814  1.00  0.00     0.429 C 
ATOM     20  F   UNL A   1      30.584  26.448  22.745  1.00  0.00    -0.167 F 
ATOM     21  F   UNL A   1      29.569  24.941  23.934  1.00  0.00    -0.167 F 
ATOM     22  F   UNL A   1      28.567  26.818  23.500  1.00  0.00    -0.167 F 
ENDBRANCH  18  19
ENDBRANCH   4   7
ENDBRANCH   2   3
ENDBRANCH   1   2
BRANCH   1  23
ATOM     23  C   UNL A   1      32.705  32.826  27.193  1.00  0.00     0.118 C 
BRANCH  23  24
ATOM     24  N   UNL A   1      32.527  34.211  27.625  1.00  0.00    -0.352 N 
ATOM     25  C   UNL A   1      33.024  34.868  28.720  1.00  0.00     0.251 C 
ATOM     26  H   UNL A   1      31.959  34.759  27.037  1.00  0.00     0.163 HD
ATOM     27  O   UNL A   1      32.534  35.940  29.070  1.00  0.00    -0.269 OA
BRANCH  25  28
ATOM     28  C   UNL A   1      34.147  34.288  29.480  1.00  0.00     0.039 A 
ATOM     29  C   UNL A   1      33.886  33.554  30.639  1.00  0.00     0.014 A 
ATOM     30  C   UNL A   1      35.461  34.491  29.054  1.00  0.00     0.014 A 
ATOM     31  C   UNL A   1      34.947  32.973  31.335  1.00  0.00     0.010 A 
ATOM     32  C   UNL A   1      36.501  33.824  29.682  1.00  0.00     0.010 A 
ATOM     33  C   UNL A   1      36.257  33.076  30.840  1.00  0.00    -0.014 A 
BRANCH  33  34
ATOM     34  C   UNL A   1      37.398  32.442  31.540  1.00  0.00     0.031 A 
ATOM     35  C   UNL A   1      38.120  31.292  30.898  1.00  0.00     0.074 A 
ATOM     36  C   UNL A   1      37.742  32.868  32.771  1.00  0.00     0.049 A 
ATOM     37  N   UNL A   1      39.101  30.565  31.369  1.00  0.00    -0.248 NA
ATOM     38  C   UNL A   1      37.661  30.880  29.561  1.00  0.00     0.031 C 
ATOM     39  C   UNL A   1      37.079  33.945  33.508  1.00  0.00     0.029 A 
ATOM     40  N   UNL A   1      38.734  32.447  33.619  1.00  0.00    -0.354 N 
ATOM     41  C   UNL A   1      39.366  29.615  30.393  1.00  0.00     0.074 A 
ATOM     42  C   UNL A   1      38.399  29.804  29.336  1.00  0.00     0.031 C 
ATOM     43  C   UNL A   1      37.707  34.126  34.681  1.00  0.00     0.029 A 
ATOM     44  C   UNL A   1      38.788  33.153  34.796  1.00  0.00     0.049 A 
ATOM     45  H   UNL A   1      39.348  31.708  33.405  1.00  0.00     0.167 HD
ATOM     46  C   UNL A   1      40.353  28.691  30.365  1.00  0.00     0.037 A 
ATOM     47  C   UNL A   1      39.621  33.026  35.847  1.00  0.00     0.037 A 
ATOM     48  C   UNL A   1      41.332  28.533  31.406  1.00  0.00     0.049 A 
ATOM     49  C   UNL A   1      40.698  31.976  35.801  1.00  0.00     0.074 A 
ATOM     50  C   UNL A   1      42.408  27.666  31.452  1.00  0.00     0.029 A 
ATOM     51  N   UNL A   1      41.352  29.265  32.585  1.00  0.00    -0.354 N 
ATOM     52  N   UNL A   1      40.981  31.126  34.843  1.00  0.00    -0.248 NA
ATOM     53  C   UNL A   1      41.571  31.868  36.977  1.00  0.00     0.031 C 
ATOM     54  C   UNL A   1      43.050  27.837  32.680  1.00  0.00     0.029 A 
ATOM     55  C   UNL A   1      42.408  28.848  33.377  1.00  0.00     0.049 A 
ATOM     56  H   UNL A   1      40.713  29.974  32.823  1.00  0.00     0.167 HD
ATOM     57  C   UNL A   1      42.075  30.398  35.290  1.00  0.00     0.074 A 
ATOM     58  C   UNL A   1      42.416  30.919  36.597  1.00  0.00     0.031 C 
ATOM     59  C   UNL A   1      42.735  29.387  34.674  1.00  0.00     0.037 A 
BRANCH  46  60
ATOM     60  C   UNL A   1      40.445  27.798  29.163  1.00  0.00     0.064 A 
ATOM     61  C   UNL A   1      39.682  26.623  29.065  1.00  0.00     0.173 A 
ATOM     62  C   UNL A   1      41.254  28.147  28.073  1.00  0.00     0.173 A 
ATOM     63  F   UNL A   1      38.903  26.236  30.086  1.00  0.00    -0.203 F 
ATOM     64  C   UNL A   1      39.740  25.824  27.927  1.00  0.00     0.198 A 
ATOM     65  C   UNL A   1      41.285  27.361  26.923  1.00  0.00     0.198 A 
ATOM     66  F   UNL A   1      42.001  29.261  28.113  1.00  0.00    -0.203 F 
ATOM     67  F   UNL A   1      39.033  24.686  27.873  1.00  0.00    -0.200 F 
ATOM     68  C   UNL A   1      40.532  26.199  26.853  1.00  0.00     0.200 A 
ATOM     69  F   UNL A   1      42.042  27.732  25.880  1.00  0.00    -0.200 F 
ATOM     70  F   UNL A   1      40.573  25.437  25.751  1.00  0.00    -0.200 F 
ENDBRANCH  46  60
BRANCH  47  71
ATOM     71  C   UNL A   1      39.488  33.946  37.007  1.00  0.00     0.064 A 
ATOM     72  C   UNL A   1      38.738  33.577  38.133  1.00  0.00     0.173 A 
ATOM     73  C   UNL A   1      40.126  35.195  37.031  1.00  0.00     0.173 A 
ATOM     74  F   UNL A   1      38.096  32.400  38.152  1.00  0.00    -0.203 F 
ATOM     75  C   UNL A   1      38.623  34.425  39.233  1.00  0.00     0.198 A 
ATOM     76  C   UNL A   1      40.033  36.031  38.143  1.00  0.00     0.198 A 
ATOM     77  F   UNL A   1      40.862  35.594  35.983  1.00  0.00    -0.203 F 
ATOM     78  F   UNL A   1      37.872  34.061  40.280  1.00  0.00    -0.200 F 
ATOM     79  C   UNL A   1      39.277  35.648  39.240  1.00  0.00     0.200 A 
ATOM     80  F   UNL A   1      40.682  37.203  38.153  1.00  0.00    -0.200 F 
ATOM     81  F   UNL A   1      39.177  36.457  40.303  1.00  0.00    -0.200 F 
ENDBRANCH  47  71
BRANCH  59  82
ATOM     82  C   UNL A   1      43.901  28.776  35.392  1.00  0.00     0.064 A 
ATOM     83  C   UNL A   1      43.737  27.678  36.249  1.00  0.00     0.173 A 
ATOM     84  C   UNL A   1      45.206  29.227  35.140  1.00  0.00     0.173 A 
ATOM     85  F   UNL A   1      42.508  27.218  36.529  1.00  0.00    -0.203 F 
ATOM     86  C   UNL A   1      44.837  27.059  36.834  1.00  0.00     0.198 A 
ATOM     87  C   UNL A   1      46.306  28.586  35.703  1.00  0.00     0.198 A 
ATOM     88  F   UNL A   1      45.416  30.267  34.319  1.00  0.00    -0.203 F 
ATOM     89  F   UNL A   1      44.656  26.029  37.672  1.00  0.00    -0.200 F 
ATOM     90  C   UNL A   1      46.120  27.505  36.551  1.00  0.00     0.200 A 
ATOM     91  F   UNL A   1      47.545  29.005  35.412  1.00  0.00    -0.200 F 
ATOM     92  F   UNL A   1      47.179  26.890  37.096  1.00  0.00    -0.200 F 
ENDBRANCH  59  82
ENDBRANCH  33  34
ENDBRANCH  25  28
ENDBRANCH  23  24
ENDBRANCH   1  23
TORSDOF 11
ENDMDL
