MODEL 1
REMARK VINA RESULT:     -10.6      0.000      0.000
REMARK SMILES CC(=O)Oc1ccccc1SCCCCCC(=O)NCCCNC(=O)c1ccc(-c2c3nc(c(-c4c(F)c(F)c(F)c(F)c4F)c4ccc([nH]4)c(-c4c(F)c(F)c(F)c(F)c4F)c4nc(c(-c5c(F)c(F)c(F)c(F)c5F)c5ccc2[nH]5)C=C4)C=C3)cc1
REMARK SMILES IDX 16 1 15 2 14 3 13 4 12 5 11 6 10 7 5 8 6 9 7 10 9 11 8 12
REMARK SMILES IDX 4 13 2 14 1 15 3 16 17 17 18 18 19 19 20 21 21 22 22 23
REMARK SMILES IDX 23 24 24 25 25 27 26 28 27 29 88 30 28 31 87 32 29 33 30 34
REMARK SMILES IDX 31 35 81 36 32 37 86 38 80 39 82 40 33 41 85 42 79 43 78 44
REMARK SMILES IDX 34 46 66 47 46 48 65 49 47 50 50 51 64 52 83 53 48 54 49 55
REMARK SMILES IDX 63 57 84 58 51 59 35 60 36 61 44 62 37 63 38 64 42 65 45 66
REMARK SMILES IDX 39 67 40 68 43 69 41 70 67 71 68 72 76 73 69 74 70 75 74 76
REMARK SMILES IDX 77 77 71 78 72 79 75 80 73 81 52 82 53 83 61 84 54 85 55 86
REMARK SMILES IDX 59 87 62 88 56 89 57 90 60 91 58 92
REMARK H PARENT 19 20 23 26 82 45 50 56
REMARK Flexibility Score: inf
ROOT
ATOM      1  C   UNL A   1      36.619  23.170  23.673  1.00  0.00     0.100 C 
ENDROOT
BRANCH   1   2
ATOM      2  C   UNL A   1      35.094  23.106  23.755  1.00  0.00     0.010 C 
BRANCH   2   3
ATOM      3  C   UNL A   1      34.348  23.903  24.846  1.00  0.00     0.001 C 
BRANCH   3   4
ATOM      4  C   UNL A   1      33.788  23.165  26.064  1.00  0.00     0.011 C 
BRANCH   4   5
ATOM      5  C   UNL A   1      34.097  21.693  26.382  1.00  0.00     0.075 C 
BRANCH   5   6
ATOM      6  S   UNL A   1      32.921  20.304  26.454  1.00  0.00    -0.122 SA
BRANCH   6   7
ATOM      7  C   UNL A   1      32.906  19.504  24.865  1.00  0.00     0.050 A 
ATOM      8  C   UNL A   1      32.990  18.145  24.539  1.00  0.00     0.144 A 
ATOM      9  C   UNL A   1      32.649  17.697  23.250  1.00  0.00     0.048 A 
ATOM     10  C   UNL A   1      32.277  18.602  22.258  1.00  0.00     0.004 A 
ATOM     11  C   UNL A   1      32.619  20.404  23.816  1.00  0.00     0.019 A 
ATOM     12  C   UNL A   1      32.290  19.962  22.533  1.00  0.00     0.001 A 
BRANCH   8  13
ATOM     13  O   UNL A   1      33.091  17.082  25.475  1.00  0.00    -0.426 OA
BRANCH  13  14
ATOM     14  C   UNL A   1      33.703  15.841  25.339  1.00  0.00     0.308 C 
ATOM     15  C   UNL A   1      35.179  16.078  25.165  1.00  0.00     0.139 C 
ATOM     16  O   UNL A   1      33.150  14.747  25.342  1.00  0.00    -0.252 OA
ENDBRANCH  13  14
ENDBRANCH   8  13
ENDBRANCH   6   7
ENDBRANCH   5   6
ENDBRANCH   4   5
ENDBRANCH   3   4
ENDBRANCH   2   3
ENDBRANCH   1   2
BRANCH   1  17
ATOM     17  C   UNL A   1      37.325  22.932  24.990  1.00  0.00     0.219 C 
ATOM     18  O   UNL A   1      37.789  23.864  25.648  1.00  0.00    -0.275 OA
ATOM     19  N   UNL A   1      37.435  21.668  25.481  1.00  0.00    -0.356 N 
ATOM     20  H   UNL A   1      37.743  21.594  26.414  1.00  0.00     0.163 HD
BRANCH  19  21
ATOM     21  C   UNL A   1      37.160  20.415  24.809  1.00  0.00     0.117 C 
BRANCH  21  22
ATOM     22  C   UNL A   1      38.364  19.496  24.916  1.00  0.00     0.042 C 
BRANCH  22  23
ATOM     23  C   UNL A   1      39.397  19.946  25.921  1.00  0.00     0.118 C 
BRANCH  23  24
ATOM     24  N   UNL A   1      40.515  19.028  26.000  1.00  0.00    -0.352 N 
ATOM     25  C   UNL A   1      41.862  19.278  26.091  1.00  0.00     0.251 C 
ATOM     26  H   UNL A   1      40.271  18.074  25.985  1.00  0.00     0.163 HD
ATOM     27  O   UNL A   1      42.651  18.353  25.917  1.00  0.00    -0.269 OA
BRANCH  25  28
ATOM     28  C   UNL A   1      42.377  20.639  26.381  1.00  0.00     0.039 A 
ATOM     29  C   UNL A   1      42.442  21.063  27.711  1.00  0.00     0.014 A 
ATOM     30  C   UNL A   1      42.745  21.523  25.364  1.00  0.00     0.014 A 
ATOM     31  C   UNL A   1      42.893  22.351  28.013  1.00  0.00     0.010 A 
ATOM     32  C   UNL A   1      43.329  22.746  25.671  1.00  0.00     0.010 A 
ATOM     33  C   UNL A   1      43.360  23.197  26.996  1.00  0.00    -0.014 A 
BRANCH  33  34
ATOM     34  C   UNL A   1      43.795  24.590  27.276  1.00  0.00     0.031 A 
ATOM     35  C   UNL A   1      42.785  25.605  27.748  1.00  0.00     0.074 A 
ATOM     36  C   UNL A   1      45.075  24.952  27.064  1.00  0.00     0.049 A 
ATOM     37  N   UNL A   1      42.939  26.885  27.980  1.00  0.00    -0.248 NA
ATOM     38  C   UNL A   1      41.405  25.130  27.947  1.00  0.00     0.031 C 
ATOM     39  C   UNL A   1      46.131  24.075  26.558  1.00  0.00     0.029 A 
ATOM     40  N   UNL A   1      45.703  26.157  27.247  1.00  0.00    -0.354 N 
ATOM     41  C   UNL A   1      41.678  27.361  28.320  1.00  0.00     0.074 A 
ATOM     42  C   UNL A   1      40.758  26.257  28.195  1.00  0.00     0.031 C 
ATOM     43  C   UNL A   1      47.284  24.761  26.504  1.00  0.00     0.029 A 
ATOM     44  C   UNL A   1      47.040  26.135  26.933  1.00  0.00     0.049 A 
ATOM     45  H   UNL A   1      45.240  26.963  27.572  1.00  0.00     0.167 HD
ATOM     46  C   UNL A   1      41.325  28.600  28.736  1.00  0.00     0.037 A 
ATOM     47  C   UNL A   1      47.963  27.114  26.985  1.00  0.00     0.037 A 
ATOM     48  C   UNL A   1      42.256  29.683  28.909  1.00  0.00     0.049 A 
ATOM     49  C   UNL A   1      47.550  28.478  27.472  1.00  0.00     0.074 A 
ATOM     50  C   UNL A   1      42.019  30.957  29.390  1.00  0.00     0.029 A 
ATOM     51  N   UNL A   1      43.609  29.609  28.612  1.00  0.00    -0.354 N 
ATOM     52  N   UNL A   1      46.368  28.898  27.856  1.00  0.00    -0.248 NA
ATOM     53  C   UNL A   1      48.601  29.500  27.542  1.00  0.00     0.031 C 
ATOM     54  C   UNL A   1      43.220  31.670  29.340  1.00  0.00     0.029 A 
ATOM     55  C   UNL A   1      44.218  30.823  28.882  1.00  0.00     0.049 A 
ATOM     56  H   UNL A   1      44.069  28.812  28.261  1.00  0.00     0.167 HD
ATOM     57  C   UNL A   1      46.539  30.220  28.243  1.00  0.00     0.074 A 
ATOM     58  C   UNL A   1      47.943  30.528  28.061  1.00  0.00     0.031 C 
ATOM     59  C   UNL A   1      45.620  31.101  28.707  1.00  0.00     0.037 A 
BRANCH  46  60
ATOM     60  C   UNL A   1      39.875  28.847  29.043  1.00  0.00     0.064 A 
ATOM     61  C   UNL A   1      38.967  29.254  28.053  1.00  0.00     0.173 A 
ATOM     62  C   UNL A   1      39.379  28.648  30.341  1.00  0.00     0.173 A 
ATOM     63  F   UNL A   1      39.390  29.474  26.799  1.00  0.00    -0.203 F 
ATOM     64  C   UNL A   1      37.628  29.485  28.357  1.00  0.00     0.198 A 
ATOM     65  C   UNL A   1      38.032  28.845  30.634  1.00  0.00     0.198 A 
ATOM     66  F   UNL A   1      40.201  28.255  31.327  1.00  0.00    -0.203 F 
ATOM     67  F   UNL A   1      36.794  29.929  27.406  1.00  0.00    -0.200 F 
ATOM     68  C   UNL A   1      37.159  29.272  29.645  1.00  0.00     0.200 A 
ATOM     69  F   UNL A   1      37.578  28.626  31.876  1.00  0.00    -0.200 F 
ATOM     70  F   UNL A   1      35.868  29.487  29.933  1.00  0.00    -0.200 F 
ENDBRANCH  46  60
BRANCH  47  71
ATOM     71  C   UNL A   1      49.371  26.831  26.602  1.00  0.00     0.064 A 
ATOM     72  C   UNL A   1      49.797  26.973  25.274  1.00  0.00     0.173 A 
ATOM     73  C   UNL A   1      50.317  26.413  27.549  1.00  0.00     0.173 A 
ATOM     74  F   UNL A   1      48.925  27.352  24.327  1.00  0.00    -0.203 F 
ATOM     75  C   UNL A   1      51.110  26.685  24.903  1.00  0.00     0.198 A 
ATOM     76  C   UNL A   1      51.637  26.156  27.183  1.00  0.00     0.198 A 
ATOM     77  F   UNL A   1      49.963  26.269  28.834  1.00  0.00    -0.203 F 
ATOM     78  F   UNL A   1      51.477  26.783  23.618  1.00  0.00    -0.200 F 
ATOM     79  C   UNL A   1      52.030  26.282  25.859  1.00  0.00     0.200 A 
ATOM     80  F   UNL A   1      52.526  25.783  28.113  1.00  0.00    -0.200 F 
ATOM     81  F   UNL A   1      53.292  26.010  25.504  1.00  0.00    -0.200 F 
ENDBRANCH  47  71
BRANCH  59  82
ATOM     82  C   UNL A   1      46.108  32.467  29.093  1.00  0.00     0.064 A 
ATOM     83  C   UNL A   1      46.107  33.534  28.185  1.00  0.00     0.173 A 
ATOM     84  C   UNL A   1      46.538  32.718  30.405  1.00  0.00     0.173 A 
ATOM     85  F   UNL A   1      45.716  33.342  26.916  1.00  0.00    -0.203 F 
ATOM     86  C   UNL A   1      46.545  34.799  28.569  1.00  0.00     0.198 A 
ATOM     87  C   UNL A   1      46.944  33.991  30.794  1.00  0.00     0.198 A 
ATOM     88  F   UNL A   1      46.549  31.731  31.314  1.00  0.00    -0.203 F 
ATOM     89  F   UNL A   1      46.582  35.794  27.672  1.00  0.00    -0.200 F 
ATOM     90  C   UNL A   1      46.955  35.028  29.875  1.00  0.00     0.200 A 
ATOM     91  F   UNL A   1      47.324  34.213  32.061  1.00  0.00    -0.200 F 
ATOM     92  F   UNL A   1      47.367  36.248  30.244  1.00  0.00    -0.200 F 
ENDBRANCH  59  82
ENDBRANCH  33  34
ENDBRANCH  25  28
ENDBRANCH  23  24
ENDBRANCH  22  23
ENDBRANCH  21  22
ENDBRANCH  19  21
ENDBRANCH   1  17
TORSDOF 18
ENDMDL
MODEL 2
REMARK VINA RESULT:     -10.5      6.972     11.607
REMARK SMILES CC(=O)Oc1ccccc1SCCCCCC(=O)NCCCNC(=O)c1ccc(-c2c3nc(c(-c4c(F)c(F)c(F)c(F)c4F)c4ccc([nH]4)c(-c4c(F)c(F)c(F)c(F)c4F)c4nc(c(-c5c(F)c(F)c(F)c(F)c5F)c5ccc2[nH]5)C=C4)C=C3)cc1
REMARK SMILES IDX 16 1 15 2 14 3 13 4 12 5 11 6 10 7 5 8 6 9 7 10 9 11 8 12
REMARK SMILES IDX 4 13 2 14 1 15 3 16 17 17 18 18 19 19 20 21 21 22 22 23
REMARK SMILES IDX 23 24 24 25 25 27 26 28 27 29 88 30 28 31 87 32 29 33 30 34
REMARK SMILES IDX 31 35 81 36 32 37 86 38 80 39 82 40 33 41 85 42 79 43 78 44
REMARK SMILES IDX 34 46 66 47 46 48 65 49 47 50 50 51 64 52 83 53 48 54 49 55
REMARK SMILES IDX 63 57 84 58 51 59 35 60 36 61 44 62 37 63 38 64 42 65 45 66
REMARK SMILES IDX 39 67 40 68 43 69 41 70 67 71 68 72 76 73 69 74 70 75 74 76
REMARK SMILES IDX 77 77 71 78 72 79 75 80 73 81 52 82 53 83 61 84 54 85 55 86
REMARK SMILES IDX 59 87 62 88 56 89 57 90 60 91 58 92
REMARK H PARENT 19 20 23 26 82 45 50 56
REMARK Flexibility Score: inf
ROOT
ATOM      1  C   UNL A   1      36.428  32.704  27.986  1.00  0.00     0.100 C 
ENDROOT
BRANCH   1   2
ATOM      2  C   UNL A   1      35.334  31.716  28.394  1.00  0.00     0.010 C 
BRANCH   2   3
ATOM      3  C   UNL A   1      35.543  30.202  28.173  1.00  0.00     0.001 C 
BRANCH   3   4
ATOM      4  C   UNL A   1      34.618  29.450  27.213  1.00  0.00     0.011 C 
BRANCH   4   5
ATOM      5  C   UNL A   1      33.084  29.556  27.252  1.00  0.00     0.075 C 
BRANCH   5   6
ATOM      6  S   UNL A   1      31.883  28.194  27.390  1.00  0.00    -0.122 SA
BRANCH   6   7
ATOM      7  C   UNL A   1      31.271  27.825  25.761  1.00  0.00     0.050 A 
ATOM      8  C   UNL A   1      30.663  26.664  25.268  1.00  0.00     0.144 A 
ATOM      9  C   UNL A   1      29.973  26.684  24.042  1.00  0.00     0.048 A 
ATOM     10  C   UNL A   1      29.931  27.842  23.269  1.00  0.00     0.004 A 
ATOM     11  C   UNL A   1      31.293  28.953  24.913  1.00  0.00     0.019 A 
ATOM     12  C   UNL A   1      30.618  28.972  23.690  1.00  0.00     0.001 A 
BRANCH   8  13
ATOM     13  O   UNL A   1      30.386  25.497  26.028  1.00  0.00    -0.426 OA
BRANCH  13  14
ATOM     14  C   UNL A   1      31.239  24.467  26.407  1.00  0.00     0.308 C 
ATOM     15  C   UNL A   1      32.395  24.454  25.443  1.00  0.00     0.139 C 
ATOM     16  O   UNL A   1      31.081  23.691  27.343  1.00  0.00    -0.252 OA
ENDBRANCH  13  14
ENDBRANCH   8  13
ENDBRANCH   6   7
ENDBRANCH   5   6
ENDBRANCH   4   5
ENDBRANCH   3   4
ENDBRANCH   2   3
ENDBRANCH   1   2
BRANCH   1  17
ATOM     17  C   UNL A   1      36.480  33.958  28.831  1.00  0.00     0.219 C 
ATOM     18  O   UNL A   1      37.384  34.148  29.645  1.00  0.00    -0.275 OA
ATOM     19  N   UNL A   1      35.525  34.917  28.681  1.00  0.00    -0.356 N 
ATOM     20  H   UNL A   1      35.706  35.777  29.124  1.00  0.00     0.163 HD
BRANCH  19  21
ATOM     21  C   UNL A   1      34.274  34.834  27.955  1.00  0.00     0.117 C 
BRANCH  21  22
ATOM     22  C   UNL A   1      33.112  35.086  28.899  1.00  0.00     0.042 C 
BRANCH  22  23
ATOM     23  C   UNL A   1      33.309  36.265  29.821  1.00  0.00     0.118 C 
BRANCH  23  24
ATOM     24  N   UNL A   1      32.405  36.228  30.952  1.00  0.00    -0.352 N 
ATOM     25  C   UNL A   1      32.486  35.526  32.130  1.00  0.00     0.251 C 
ATOM     26  H   UNL A   1      31.605  36.794  30.863  1.00  0.00     0.163 HD
ATOM     27  O   UNL A   1      31.497  35.465  32.855  1.00  0.00    -0.269 OA
BRANCH  25  28
ATOM     28  C   UNL A   1      33.737  34.833  32.530  1.00  0.00     0.039 A 
ATOM     29  C   UNL A   1      34.942  35.539  32.478  1.00  0.00     0.014 A 
ATOM     30  C   UNL A   1      33.750  33.488  32.903  1.00  0.00     0.014 A 
ATOM     31  C   UNL A   1      36.139  34.904  32.820  1.00  0.00     0.010 A 
ATOM     32  C   UNL A   1      34.915  32.901  33.381  1.00  0.00     0.010 A 
ATOM     33  C   UNL A   1      36.134  33.584  33.294  1.00  0.00    -0.014 A 
BRANCH  33  34
ATOM     34  C   UNL A   1      37.393  32.863  33.614  1.00  0.00     0.031 A 
ATOM     35  C   UNL A   1      38.122  33.173  34.897  1.00  0.00     0.074 A 
ATOM     36  C   UNL A   1      37.902  31.974  32.740  1.00  0.00     0.049 A 
ATOM     37  N   UNL A   1      39.267  32.713  35.334  1.00  0.00    -0.248 NA
ATOM     38  C   UNL A   1      37.502  34.164  35.794  1.00  0.00     0.031 C 
ATOM     39  C   UNL A   1      37.318  31.631  31.444  1.00  0.00     0.029 A 
ATOM     40  N   UNL A   1      39.030  31.197  32.813  1.00  0.00    -0.354 N 
ATOM     41  C   UNL A   1      39.511  33.378  36.530  1.00  0.00     0.074 A 
ATOM     42  C   UNL A   1      38.436  34.324  36.717  1.00  0.00     0.031 C 
ATOM     43  C   UNL A   1      38.071  30.687  30.858  1.00  0.00     0.029 A 
ATOM     44  C   UNL A   1      39.212  30.388  31.718  1.00  0.00     0.049 A 
ATOM     45  H   UNL A   1      39.651  31.218  33.576  1.00  0.00     0.167 HD
ATOM     46  C   UNL A   1      40.520  33.192  37.412  1.00  0.00     0.037 A 
ATOM     47  C   UNL A   1      40.192  29.507  31.442  1.00  0.00     0.037 A 
ATOM     48  C   UNL A   1      41.559  32.211  37.246  1.00  0.00     0.049 A 
ATOM     49  C   UNL A   1      41.292  29.302  32.449  1.00  0.00     0.074 A 
ATOM     50  C   UNL A   1      42.589  31.890  38.109  1.00  0.00     0.029 A 
ATOM     51  N   UNL A   1      41.689  31.387  36.137  1.00  0.00    -0.354 N 
ATOM     52  N   UNL A   1      41.474  29.888  33.609  1.00  0.00    -0.248 NA
ATOM     53  C   UNL A   1      42.317  28.304  32.115  1.00  0.00     0.031 C 
ATOM     54  C   UNL A   1      43.372  30.903  37.503  1.00  0.00     0.029 A 
ATOM     55  C   UNL A   1      42.797  30.569  36.286  1.00  0.00     0.049 A 
ATOM     56  H   UNL A   1      41.085  31.384  35.360  1.00  0.00     0.167 HD
ATOM     57  C   UNL A   1      42.612  29.310  34.155  1.00  0.00     0.074 A 
ATOM     58  C   UNL A   1      43.070  28.316  33.207  1.00  0.00     0.031 C 
ATOM     59  C   UNL A   1      43.223  29.576  35.335  1.00  0.00     0.037 A 
BRANCH  46  60
ATOM     60  C   UNL A   1      40.542  34.056  38.641  1.00  0.00     0.064 A 
ATOM     61  C   UNL A   1      41.234  35.278  38.675  1.00  0.00     0.173 A 
ATOM     62  C   UNL A   1      39.839  33.672  39.793  1.00  0.00     0.173 A 
ATOM     63  F   UNL A   1      41.934  35.686  37.606  1.00  0.00    -0.203 F 
ATOM     64  C   UNL A   1      41.249  36.063  39.825  1.00  0.00     0.198 A 
ATOM     65  C   UNL A   1      39.827  34.477  40.930  1.00  0.00     0.198 A 
ATOM     66  F   UNL A   1      39.157  32.517  39.817  1.00  0.00    -0.203 F 
ATOM     67  F   UNL A   1      41.965  37.196  39.850  1.00  0.00    -0.200 F 
ATOM     68  C   UNL A   1      40.539  35.667  40.949  1.00  0.00     0.200 A 
ATOM     69  F   UNL A   1      39.130  34.100  42.010  1.00  0.00    -0.200 F 
ATOM     70  F   UNL A   1      40.549  36.428  42.051  1.00  0.00    -0.200 F 
ENDBRANCH  46  60
BRANCH  47  71
ATOM     71  C   UNL A   1      40.156  28.728  30.176  1.00  0.00     0.064 A 
ATOM     72  C   UNL A   1      39.502  27.490  30.112  1.00  0.00     0.173 A 
ATOM     73  C   UNL A   1      40.773  29.202  29.009  1.00  0.00     0.173 A 
ATOM     74  F   UNL A   1      38.913  26.985  31.206  1.00  0.00    -0.203 F 
ATOM     75  C   UNL A   1      39.486  26.743  28.934  1.00  0.00     0.198 A 
ATOM     76  C   UNL A   1      40.730  28.469  27.824  1.00  0.00     0.198 A 
ATOM     77  F   UNL A   1      41.405  30.384  29.015  1.00  0.00    -0.203 F 
ATOM     78  F   UNL A   1      38.895  25.541  28.914  1.00  0.00    -0.200 F 
ATOM     79  C   UNL A   1      40.095  27.236  27.790  1.00  0.00     0.200 A 
ATOM     80  F   UNL A   1      41.305  28.956  26.717  1.00  0.00    -0.200 F 
ATOM     81  F   UNL A   1      40.076  26.521  26.658  1.00  0.00    -0.200 F 
ENDBRANCH  47  71
BRANCH  59  82
ATOM     82  C   UNL A   1      44.427  28.752  35.688  1.00  0.00     0.064 A 
ATOM     83  C   UNL A   1      44.315  27.552  36.405  1.00  0.00     0.173 A 
ATOM     84  C   UNL A   1      45.704  29.147  35.260  1.00  0.00     0.173 A 
ATOM     85  F   UNL A   1      43.117  27.138  36.846  1.00  0.00    -0.203 F 
ATOM     86  C   UNL A   1      45.442  26.791  36.705  1.00  0.00     0.198 A 
ATOM     87  C   UNL A   1      46.823  28.367  35.533  1.00  0.00     0.198 A 
ATOM     88  F   UNL A   1      45.862  30.282  34.563  1.00  0.00    -0.203 F 
ATOM     89  F   UNL A   1      45.318  25.674  37.434  1.00  0.00    -0.200 F 
ATOM     90  C   UNL A   1      46.693  27.195  36.262  1.00  0.00     0.200 A 
ATOM     91  F   UNL A   1      48.029  28.751  35.090  1.00  0.00    -0.200 F 
ATOM     92  F   UNL A   1      47.775  26.456  36.544  1.00  0.00    -0.200 F 
ENDBRANCH  59  82
ENDBRANCH  33  34
ENDBRANCH  25  28
ENDBRANCH  23  24
ENDBRANCH  22  23
ENDBRANCH  21  22
ENDBRANCH  19  21
ENDBRANCH   1  17
TORSDOF 18
ENDMDL
MODEL 3
REMARK VINA RESULT:     -10.2      4.816     11.709
REMARK SMILES CC(=O)Oc1ccccc1SCCCCCC(=O)NCCCNC(=O)c1ccc(-c2c3nc(c(-c4c(F)c(F)c(F)c(F)c4F)c4ccc([nH]4)c(-c4c(F)c(F)c(F)c(F)c4F)c4nc(c(-c5c(F)c(F)c(F)c(F)c5F)c5ccc2[nH]5)C=C4)C=C3)cc1
REMARK SMILES IDX 16 1 15 2 14 3 13 4 12 5 11 6 10 7 5 8 6 9 7 10 9 11 8 12
REMARK SMILES IDX 4 13 2 14 1 15 3 16 17 17 18 18 19 19 20 21 21 22 22 23
REMARK SMILES IDX 23 24 24 25 25 27 26 28 27 29 88 30 28 31 87 32 29 33 30 34
REMARK SMILES IDX 31 35 81 36 32 37 86 38 80 39 82 40 33 41 85 42 79 43 78 44
REMARK SMILES IDX 34 46 66 47 46 48 65 49 47 50 50 51 64 52 83 53 48 54 49 55
REMARK SMILES IDX 63 57 84 58 51 59 35 60 36 61 44 62 37 63 38 64 42 65 45 66
REMARK SMILES IDX 39 67 40 68 43 69 41 70 67 71 68 72 76 73 69 74 70 75 74 76
REMARK SMILES IDX 77 77 71 78 72 79 75 80 73 81 52 82 53 83 61 84 54 85 55 86
REMARK SMILES IDX 59 87 62 88 56 89 57 90 60 91 58 92
REMARK H PARENT 19 20 23 26 82 45 50 56
REMARK Flexibility Score: inf
ROOT
ATOM      1  C   UNL A   1      44.458  26.610  25.942  1.00  0.00     0.100 C 
ENDROOT
BRANCH   1   2
ATOM      2  C   UNL A   1      45.329  27.347  26.961  1.00  0.00     0.010 C 
BRANCH   2   3
ATOM      3  C   UNL A   1      45.110  28.854  27.213  1.00  0.00     0.001 C 
BRANCH   3   4
ATOM      4  C   UNL A   1      43.690  29.422  27.172  1.00  0.00     0.011 C 
BRANCH   4   5
ATOM      5  C   UNL A   1      43.322  30.829  27.669  1.00  0.00     0.075 C 
BRANCH   5   6
ATOM      6  S   UNL A   1      44.311  31.920  28.740  1.00  0.00    -0.122 SA
BRANCH   6   7
ATOM      7  C   UNL A   1      43.642  33.565  28.629  1.00  0.00     0.050 A 
ATOM      8  C   UNL A   1      43.913  34.588  27.712  1.00  0.00     0.144 A 
ATOM      9  C   UNL A   1      43.057  35.699  27.607  1.00  0.00     0.048 A 
ATOM     10  C   UNL A   1      41.955  35.830  28.450  1.00  0.00     0.004 A 
ATOM     11  C   UNL A   1      42.577  33.771  29.531  1.00  0.00     0.019 A 
ATOM     12  C   UNL A   1      41.730  34.879  29.435  1.00  0.00     0.001 A 
BRANCH   8  13
ATOM     13  O   UNL A   1      44.817  34.494  26.621  1.00  0.00    -0.426 OA
BRANCH  13  14
ATOM     14  C   UNL A   1      44.936  33.501  25.656  1.00  0.00     0.308 C 
ATOM     15  C   UNL A   1      43.886  33.755  24.608  1.00  0.00     0.139 C 
ATOM     16  O   UNL A   1      45.734  32.570  25.656  1.00  0.00    -0.252 OA
ENDBRANCH  13  14
ENDBRANCH   8  13
ENDBRANCH   6   7
ENDBRANCH   5   6
ENDBRANCH   4   5
ENDBRANCH   3   4
ENDBRANCH   2   3
ENDBRANCH   1   2
BRANCH   1  17
ATOM     17  C   UNL A   1      45.072  25.336  25.404  1.00  0.00     0.219 C 
ATOM     18  O   UNL A   1      46.014  25.361  24.612  1.00  0.00    -0.275 OA
ATOM     19  N   UNL A   1      44.596  24.128  25.814  1.00  0.00    -0.356 N 
ATOM     20  H   UNL A   1      45.141  23.346  25.571  1.00  0.00     0.163 HD
BRANCH  19  21
ATOM     21  C   UNL A   1      43.388  23.845  26.562  1.00  0.00     0.117 C 
BRANCH  21  22
ATOM     22  C   UNL A   1      42.561  22.802  25.830  1.00  0.00     0.042 C 
BRANCH  22  23
ATOM     23  C   UNL A   1      41.412  22.249  26.638  1.00  0.00     0.118 C 
BRANCH  23  24
ATOM     24  N   UNL A   1      40.135  22.471  25.990  1.00  0.00    -0.352 N 
ATOM     25  C   UNL A   1      39.197  23.453  26.194  1.00  0.00     0.251 C 
ATOM     26  H   UNL A   1      39.902  21.815  25.295  1.00  0.00     0.163 HD
ATOM     27  O   UNL A   1      38.083  23.324  25.695  1.00  0.00    -0.269 OA
BRANCH  25  28
ATOM     28  C   UNL A   1      39.501  24.653  27.013  1.00  0.00     0.039 A 
ATOM     29  C   UNL A   1      40.202  25.709  26.423  1.00  0.00     0.014 A 
ATOM     30  C   UNL A   1      39.156  24.733  28.364  1.00  0.00     0.014 A 
ATOM     31  C   UNL A   1      40.530  26.838  27.179  1.00  0.00     0.010 A 
ATOM     32  C   UNL A   1      39.353  25.913  29.073  1.00  0.00     0.010 A 
ATOM     33  C   UNL A   1      40.090  26.958  28.505  1.00  0.00    -0.014 A 
BRANCH  33  34
ATOM     34  C   UNL A   1      40.466  28.120  29.351  1.00  0.00     0.031 A 
ATOM     35  C   UNL A   1      41.838  28.174  29.975  1.00  0.00     0.074 A 
ATOM     36  C   UNL A   1      39.570  29.095  29.596  1.00  0.00     0.049 A 
ATOM     37  N   UNL A   1      42.343  29.058  30.800  1.00  0.00    -0.248 NA
ATOM     38  C   UNL A   1      42.756  27.065  29.663  1.00  0.00     0.031 C 
ATOM     39  C   UNL A   1      38.196  29.127  29.095  1.00  0.00     0.029 A 
ATOM     40  N   UNL A   1      39.682  30.246  30.333  1.00  0.00    -0.354 N 
ATOM     41  C   UNL A   1      43.612  28.593  31.121  1.00  0.00     0.074 A 
ATOM     42  C   UNL A   1      43.778  27.318  30.465  1.00  0.00     0.031 C 
ATOM     43  C   UNL A   1      37.603  30.259  29.508  1.00  0.00     0.029 A 
ATOM     44  C   UNL A   1      38.541  31.012  30.336  1.00  0.00     0.049 A 
ATOM     45  H   UNL A   1      40.502  30.501  30.814  1.00  0.00     0.167 HD
ATOM     46  C   UNL A   1      44.570  29.192  31.867  1.00  0.00     0.037 A 
ATOM     47  C   UNL A   1      38.284  32.187  30.940  1.00  0.00     0.037 A 
ATOM     48  C   UNL A   1      44.418  30.487  32.475  1.00  0.00     0.049 A 
ATOM     49  C   UNL A   1      39.373  32.844  31.746  1.00  0.00     0.074 A 
ATOM     50  C   UNL A   1      45.346  31.218  33.192  1.00  0.00     0.029 A 
ATOM     51  N   UNL A   1      43.257  31.245  32.426  1.00  0.00    -0.354 N 
ATOM     52  N   UNL A   1      40.593  32.428  31.986  1.00  0.00    -0.248 NA
ATOM     53  C   UNL A   1      39.052  34.141  32.356  1.00  0.00     0.031 C 
ATOM     54  C   UNL A   1      44.732  32.400  33.619  1.00  0.00     0.029 A 
ATOM     55  C   UNL A   1      43.440  32.431  33.118  1.00  0.00     0.049 A 
ATOM     56  H   UNL A   1      42.426  30.980  31.968  1.00  0.00     0.167 HD
ATOM     57  C   UNL A   1      41.194  33.422  32.746  1.00  0.00     0.074 A 
ATOM     58  C   UNL A   1      40.209  34.470  32.914  1.00  0.00     0.031 C 
ATOM     59  C   UNL A   1      42.448  33.465  33.258  1.00  0.00     0.037 A 
BRANCH  46  60
ATOM     60  C   UNL A   1      45.869  28.461  32.055  1.00  0.00     0.064 A 
ATOM     61  C   UNL A   1      46.936  28.605  31.154  1.00  0.00     0.173 A 
ATOM     62  C   UNL A   1      46.061  27.626  33.166  1.00  0.00     0.173 A 
ATOM     63  F   UNL A   1      46.802  29.379  30.067  1.00  0.00    -0.203 F 
ATOM     64  C   UNL A   1      48.131  27.913  31.339  1.00  0.00     0.198 A 
ATOM     65  C   UNL A   1      47.270  26.964  33.368  1.00  0.00     0.198 A 
ATOM     66  F   UNL A   1      45.076  27.454  34.062  1.00  0.00    -0.203 F 
ATOM     67  F   UNL A   1      49.113  28.022  30.433  1.00  0.00    -0.200 F 
ATOM     68  C   UNL A   1      48.300  27.101  32.450  1.00  0.00     0.200 A 
ATOM     69  F   UNL A   1      47.436  26.189  34.449  1.00  0.00    -0.200 F 
ATOM     70  F   UNL A   1      49.454  26.443  32.631  1.00  0.00    -0.200 F 
ENDBRANCH  46  60
BRANCH  47  71
ATOM     71  C   UNL A   1      36.955  32.833  30.776  1.00  0.00     0.064 A 
ATOM     72  C   UNL A   1      35.959  32.686  31.751  1.00  0.00     0.173 A 
ATOM     73  C   UNL A   1      36.653  33.606  29.646  1.00  0.00     0.173 A 
ATOM     74  F   UNL A   1      36.194  31.941  32.842  1.00  0.00    -0.203 F 
ATOM     75  C   UNL A   1      34.703  33.269  31.592  1.00  0.00     0.198 A 
ATOM     76  C   UNL A   1      35.407  34.214  29.502  1.00  0.00     0.198 A 
ATOM     77  F   UNL A   1      37.573  33.784  28.687  1.00  0.00    -0.203 F 
ATOM     78  F   UNL A   1      33.754  33.072  32.517  1.00  0.00    -0.200 F 
ATOM     79  C   UNL A   1      34.430  34.036  30.470  1.00  0.00     0.200 A 
ATOM     80  F   UNL A   1      35.153  34.968  28.425  1.00  0.00    -0.200 F 
ATOM     81  F   UNL A   1      33.224  34.599  30.319  1.00  0.00    -0.200 F 
ENDBRANCH  47  71
BRANCH  59  82
ATOM     82  C   UNL A   1      42.842  34.703  34.011  1.00  0.00     0.064 A 
ATOM     83  C   UNL A   1      42.704  34.795  35.403  1.00  0.00     0.173 A 
ATOM     84  C   UNL A   1      43.408  35.793  33.331  1.00  0.00     0.173 A 
ATOM     85  F   UNL A   1      42.158  33.785  36.096  1.00  0.00    -0.203 F 
ATOM     86  C   UNL A   1      43.094  35.945  36.085  1.00  0.00     0.198 A 
ATOM     87  C   UNL A   1      43.827  36.927  34.020  1.00  0.00     0.198 A 
ATOM     88  F   UNL A   1      43.569  35.750  32.000  1.00  0.00    -0.203 F 
ATOM     89  F   UNL A   1      42.909  36.031  37.409  1.00  0.00    -0.200 F 
ATOM     90  C   UNL A   1      43.663  37.005  35.394  1.00  0.00     0.200 A 
ATOM     91  F   UNL A   1      44.391  37.944  33.352  1.00  0.00    -0.200 F 
ATOM     92  F   UNL A   1      44.046  38.107  36.054  1.00  0.00    -0.200 F 
ENDBRANCH  59  82
ENDBRANCH  33  34
ENDBRANCH  25  28
ENDBRANCH  23  24
ENDBRANCH  22  23
ENDBRANCH  21  22
ENDBRANCH  19  21
ENDBRANCH   1  17
TORSDOF 18
ENDMDL
