MODEL 1
REMARK VINA RESULT:     -12.8      0.000      0.000
REMARK SMILES C[C@H](NC(=O)C1=Cc2cc(Br)ccc2OC1)C(=O)NCCCNC(=O)c1ccc(-c2c3nc(c(-c4c(F)c(F)c(F)c(F)c4F)c4ccc([nH]4)c(-c4c(F)c(F)c(F)c(F)c4F)c4nc(c(-c5c(F)c(F)c(F)c(F)c5F)c5ccc2[nH]5)C=C4)C=C3)cc1
REMARK SMILES IDX 21 1 20 2 19 3 17 4 18 5 2 7 1 8 3 9 4 10 5 12 6 13 7 14
REMARK SMILES IDX 16 15 8 16 15 17 9 18 14 19 10 20 13 21 11 22 12 23 22 24
REMARK SMILES IDX 23 25 24 26 25 28 26 29 27 30 88 31 28 32 87 33 29 34 30 35
REMARK SMILES IDX 31 36 81 37 32 38 86 39 80 40 82 41 33 42 85 43 79 44 78 45
REMARK SMILES IDX 34 47 66 48 46 49 65 50 47 51 50 52 64 53 83 54 48 55 49 56
REMARK SMILES IDX 63 58 84 59 51 60 35 61 36 62 44 63 37 64 38 65 42 66 45 67
REMARK SMILES IDX 39 68 40 69 43 70 41 71 67 72 68 73 76 74 69 75 70 76 74 77
REMARK SMILES IDX 77 78 71 79 72 80 75 81 73 82 52 83 53 84 61 85 54 86 55 87
REMARK SMILES IDX 59 88 62 89 56 90 57 91 60 92 58 93
REMARK H PARENT 19 6 3 11 23 27 82 46 50 57
REMARK Flexibility Score: inf
ROOT
ATOM      1  C   UNL A   1      31.629  32.026  26.793  1.00  0.00     0.042 C 
ENDROOT
BRANCH   1   2
ATOM      2  C   UNL A   1      31.796  30.517  26.897  1.00  0.00     0.117 C 
BRANCH   2   3
ATOM      3  N   UNL A   1      33.132  30.138  27.314  1.00  0.00    -0.354 N 
ATOM      4  C   UNL A   1      34.002  29.221  26.815  1.00  0.00     0.242 C 
ATOM      5  O   UNL A   1      35.104  29.137  27.367  1.00  0.00    -0.273 OA
ATOM      6  H   UNL A   1      33.468  30.631  28.097  1.00  0.00     0.163 HD
BRANCH   4   7
ATOM      7  C   UNL A   1      33.647  28.313  25.629  1.00  0.00     0.168 C 
ATOM      8  C   UNL A   1      33.425  29.060  24.320  1.00  0.00     0.041 C 
BRANCH   7   9
ATOM      9  N   UNL A   1      32.534  27.423  25.974  1.00  0.00    -0.341 N 
ATOM     10  C   UNL A   1      32.494  26.061  25.853  1.00  0.00     0.251 C 
ATOM     11  H   UNL A   1      31.724  27.854  26.333  1.00  0.00     0.164 HD
ATOM     12  O   UNL A   1      31.560  25.404  26.291  1.00  0.00    -0.270 OA
BRANCH  10  13
ATOM     13  C   UNL A   1      33.628  25.428  25.161  1.00  0.00     0.055 C 
ATOM     14  C   UNL A   1      34.606  24.883  25.893  1.00  0.00     0.025 C 
ATOM     15  C   UNL A   1      33.546  25.292  23.676  1.00  0.00     0.271 C 
ATOM     16  C   UNL A   1      35.549  24.033  25.179  1.00  0.00     0.018 A 
ATOM     17  O   UNL A   1      34.179  24.106  23.161  1.00  0.00    -0.488 OA
ATOM     18  C   UNL A   1      36.663  23.495  25.830  1.00  0.00     0.027 A 
ATOM     19  C   UNL A   1      35.268  23.651  23.859  1.00  0.00     0.127 A 
ATOM     20  C   UNL A   1      37.471  22.572  25.166  1.00  0.00     0.018 A 
ATOM     21  C   UNL A   1      36.068  22.713  23.209  1.00  0.00     0.048 A 
ATOM     22  Br  UNL A   1      38.966  21.830  26.054  1.00  0.00    -0.051 Br
ATOM     23  C   UNL A   1      37.176  22.172  23.863  1.00  0.00     0.019 A 
ENDBRANCH  10  13
ENDBRANCH   7   9
ENDBRANCH   4   7
ENDBRANCH   2   3
ENDBRANCH   1   2
BRANCH   1  24
ATOM     24  C   UNL A   1      32.807  32.837  27.317  1.00  0.00     0.118 C 
BRANCH  24  25
ATOM     25  N   UNL A   1      32.454  34.201  27.687  1.00  0.00    -0.352 N 
ATOM     26  C   UNL A   1      32.999  35.024  28.645  1.00  0.00     0.251 C 
ATOM     27  H   UNL A   1      31.711  34.595  27.173  1.00  0.00     0.163 HD
ATOM     28  O   UNL A   1      32.478  36.105  28.899  1.00  0.00    -0.269 OA
BRANCH  26  29
ATOM     29  C   UNL A   1      34.190  34.585  29.402  1.00  0.00     0.039 A 
ATOM     30  C   UNL A   1      35.471  34.746  28.871  1.00  0.00     0.014 A 
ATOM     31  C   UNL A   1      34.017  33.968  30.644  1.00  0.00     0.014 A 
ATOM     32  C   UNL A   1      36.549  34.115  29.479  1.00  0.00     0.010 A 
ATOM     33  C   UNL A   1      35.119  33.414  31.302  1.00  0.00     0.010 A 
ATOM     34  C   UNL A   1      36.384  33.431  30.695  1.00  0.00    -0.014 A 
BRANCH  34  35
ATOM     35  C   UNL A   1      37.542  32.719  31.293  1.00  0.00     0.031 A 
ATOM     36  C   UNL A   1      38.000  33.038  32.692  1.00  0.00     0.074 A 
ATOM     37  C   UNL A   1      38.136  31.728  30.601  1.00  0.00     0.049 A 
ATOM     38  N   UNL A   1      38.985  32.514  33.378  1.00  0.00    -0.248 NA
ATOM     39  C   UNL A   1      37.260  34.083  33.416  1.00  0.00     0.031 C 
ATOM     40  C   UNL A   1      37.767  31.311  29.248  1.00  0.00     0.029 A 
ATOM     41  N   UNL A   1      39.147  30.870  30.951  1.00  0.00    -0.354 N 
ATOM     42  C   UNL A   1      38.998  33.180  34.597  1.00  0.00     0.074 A 
ATOM     43  C   UNL A   1      37.936  34.161  34.554  1.00  0.00     0.031 C 
ATOM     44  C   UNL A   1      38.494  30.237  28.908  1.00  0.00     0.029 A 
ATOM     45  C   UNL A   1      39.422  29.929  29.990  1.00  0.00     0.049 A 
ATOM     46  H   UNL A   1      39.628  30.924  31.808  1.00  0.00     0.167 HD
ATOM     47  C   UNL A   1      39.816  32.982  35.658  1.00  0.00     0.037 A 
ATOM     48  C   UNL A   1      40.329  28.934  29.978  1.00  0.00     0.037 A 
ATOM     49  C   UNL A   1      40.849  31.982  35.715  1.00  0.00     0.049 A 
ATOM     50  C   UNL A   1      41.238  28.755  31.158  1.00  0.00     0.074 A 
ATOM     51  C   UNL A   1      41.722  31.701  36.753  1.00  0.00     0.029 A 
ATOM     52  N   UNL A   1      41.140  31.089  34.695  1.00  0.00    -0.354 N 
ATOM     53  N   UNL A   1      41.260  29.413  32.290  1.00  0.00    -0.248 NA
ATOM     54  C   UNL A   1      42.264  27.708  31.049  1.00  0.00     0.031 C 
ATOM     55  C   UNL A   1      42.559  30.656  36.349  1.00  0.00     0.029 A 
ATOM     56  C   UNL A   1      42.186  30.264  35.073  1.00  0.00     0.049 A 
ATOM     57  H   UNL A   1      40.671  31.048  33.830  1.00  0.00     0.167 HD
ATOM     58  C   UNL A   1      42.297  28.865  33.029  1.00  0.00     0.074 A 
ATOM     59  C   UNL A   1      42.866  27.801  32.227  1.00  0.00     0.031 C 
ATOM     60  C   UNL A   1      42.745  29.218  34.257  1.00  0.00     0.037 A 
BRANCH  47  61
ATOM     61  C   UNL A   1      39.637  33.873  36.853  1.00  0.00     0.064 A 
ATOM     62  C   UNL A   1      40.202  35.154  36.904  1.00  0.00     0.173 A 
ATOM     63  C   UNL A   1      38.836  33.461  37.930  1.00  0.00     0.173 A 
ATOM     64  F   UNL A   1      40.986  35.587  35.905  1.00  0.00    -0.203 F 
ATOM     65  C   UNL A   1      39.982  35.988  37.998  1.00  0.00     0.198 A 
ATOM     66  C   UNL A   1      38.602  34.306  39.011  1.00  0.00     0.198 A 
ATOM     67  F   UNL A   1      38.270  32.245  37.925  1.00  0.00    -0.203 F 
ATOM     68  F   UNL A   1      40.555  37.200  38.039  1.00  0.00    -0.200 F 
ATOM     69  C   UNL A   1      39.177  35.567  39.045  1.00  0.00     0.200 A 
ATOM     70  F   UNL A   1      37.817  33.901  40.019  1.00  0.00    -0.200 F 
ATOM     71  F   UNL A   1      38.958  36.376  40.091  1.00  0.00    -0.200 F 
ENDBRANCH  47  61
BRANCH  48  72
ATOM     72  C   UNL A   1      40.408  28.033  28.802  1.00  0.00     0.064 A 
ATOM     73  C   UNL A   1      39.706  26.820  28.780  1.00  0.00     0.173 A 
ATOM     74  C   UNL A   1      41.152  28.381  27.666  1.00  0.00     0.173 A 
ATOM     75  F   UNL A   1      38.997  26.438  29.852  1.00  0.00    -0.203 F 
ATOM     76  C   UNL A   1      39.746  25.990  27.663  1.00  0.00     0.198 A 
ATOM     77  C   UNL A   1      41.172  27.561  26.541  1.00  0.00     0.198 A 
ATOM     78  F   UNL A   1      41.838  29.533  27.641  1.00  0.00    -0.203 F 
ATOM     79  F   UNL A   1      39.084  24.825  27.673  1.00  0.00    -0.200 F 
ATOM     80  C   UNL A   1      40.471  26.364  26.542  1.00  0.00     0.200 A 
ATOM     81  F   UNL A   1      41.862  27.934  25.455  1.00  0.00    -0.200 F 
ATOM     82  F   UNL A   1      40.496  25.572  25.462  1.00  0.00    -0.200 F 
ENDBRANCH  48  72
BRANCH  60  83
ATOM     83  C   UNL A   1      43.908  28.452  34.808  1.00  0.00     0.064 A 
ATOM     84  C   UNL A   1      45.223  28.902  34.626  1.00  0.00     0.173 A 
ATOM     85  C   UNL A   1      43.705  27.291  35.567  1.00  0.00     0.173 A 
ATOM     86  F   UNL A   1      45.466  30.001  33.896  1.00  0.00    -0.203 F 
ATOM     87  C   UNL A   1      46.297  28.206  35.173  1.00  0.00     0.198 A 
ATOM     88  C   UNL A   1      44.779  26.610  36.130  1.00  0.00     0.198 A 
ATOM     89  F   UNL A   1      42.463  26.826  35.771  1.00  0.00    -0.203 F 
ATOM     90  F   UNL A   1      47.549  28.635  34.962  1.00  0.00    -0.200 F 
ATOM     91  C   UNL A   1      46.074  27.065  35.930  1.00  0.00     0.200 A 
ATOM     92  F   UNL A   1      44.562  25.511  36.868  1.00  0.00    -0.200 F 
ATOM     93  F   UNL A   1      47.109  26.401  36.463  1.00  0.00    -0.200 F 
ENDBRANCH  60  83
ENDBRANCH  34  35
ENDBRANCH  26  29
ENDBRANCH  24  25
ENDBRANCH   1  24
TORSDOF 12
ENDMDL
MODEL 2
REMARK VINA RESULT:     -12.8      5.820     11.411
REMARK SMILES C[C@H](NC(=O)C1=Cc2cc(Br)ccc2OC1)C(=O)NCCCNC(=O)c1ccc(-c2c3nc(c(-c4c(F)c(F)c(F)c(F)c4F)c4ccc([nH]4)c(-c4c(F)c(F)c(F)c(F)c4F)c4nc(c(-c5c(F)c(F)c(F)c(F)c5F)c5ccc2[nH]5)C=C4)C=C3)cc1
REMARK SMILES IDX 21 1 20 2 19 3 17 4 18 5 2 7 1 8 3 9 4 10 5 12 6 13 7 14
REMARK SMILES IDX 16 15 8 16 15 17 9 18 14 19 10 20 13 21 11 22 12 23 22 24
REMARK SMILES IDX 23 25 24 26 25 28 26 29 27 30 88 31 28 32 87 33 29 34 30 35
REMARK SMILES IDX 31 36 81 37 32 38 86 39 80 40 82 41 33 42 85 43 79 44 78 45
REMARK SMILES IDX 34 47 66 48 46 49 65 50 47 51 50 52 64 53 83 54 48 55 49 56
REMARK SMILES IDX 63 58 84 59 51 60 35 61 36 62 44 63 37 64 38 65 42 66 45 67
REMARK SMILES IDX 39 68 40 69 43 70 41 71 67 72 68 73 76 74 69 75 70 76 74 77
REMARK SMILES IDX 77 78 71 79 72 80 75 81 73 82 52 83 53 84 61 85 54 86 55 87
REMARK SMILES IDX 59 88 62 89 56 90 57 91 60 92 58 93
REMARK H PARENT 19 6 3 11 23 27 82 46 50 57
REMARK Flexibility Score: inf
ROOT
ATOM      1  C   UNL A   1      38.280  19.684  25.000  1.00  0.00     0.042 C 
ENDROOT
BRANCH   1   2
ATOM      2  C   UNL A   1      37.434  20.890  24.621  1.00  0.00     0.117 C 
BRANCH   2   3
ATOM      3  N   UNL A   1      37.919  22.116  25.226  1.00  0.00    -0.354 N 
ATOM      4  C   UNL A   1      37.258  23.179  25.755  1.00  0.00     0.242 C 
ATOM      5  O   UNL A   1      37.948  24.083  26.236  1.00  0.00    -0.273 OA
ATOM      6  H   UNL A   1      38.899  22.190  25.258  1.00  0.00     0.163 HD
BRANCH   4   7
ATOM      7  C   UNL A   1      35.726  23.277  25.751  1.00  0.00     0.168 C 
ATOM      8  C   UNL A   1      35.030  22.147  26.498  1.00  0.00     0.041 C 
BRANCH   7   9
ATOM      9  N   UNL A   1      35.222  23.454  24.385  1.00  0.00    -0.341 N 
ATOM     10  C   UNL A   1      34.358  24.416  23.940  1.00  0.00     0.251 C 
ATOM     11  H   UNL A   1      35.541  22.807  23.714  1.00  0.00     0.164 HD
ATOM     12  O   UNL A   1      34.103  24.550  22.751  1.00  0.00    -0.270 OA
BRANCH  10  13
ATOM     13  C   UNL A   1      33.745  25.277  24.964  1.00  0.00     0.055 C 
ATOM     14  C   UNL A   1      34.303  26.465  25.225  1.00  0.00     0.025 C 
ATOM     15  C   UNL A   1      32.441  24.842  25.546  1.00  0.00     0.271 C 
ATOM     16  C   UNL A   1      33.513  27.386  26.030  1.00  0.00     0.018 A 
ATOM     17  O   UNL A   1      31.560  25.928  25.888  1.00  0.00    -0.488 OA
ATOM     18  C   UNL A   1      34.042  28.613  26.442  1.00  0.00     0.027 A 
ATOM     19  C   UNL A   1      32.165  27.092  26.287  1.00  0.00     0.127 A 
ATOM     20  C   UNL A   1      33.221  29.537  27.087  1.00  0.00     0.018 A 
ATOM     21  C   UNL A   1      31.345  28.029  26.914  1.00  0.00     0.048 A 
ATOM     22  Br  UNL A   1      33.932  31.203  27.626  1.00  0.00    -0.051 Br
ATOM     23  C   UNL A   1      31.874  29.256  27.318  1.00  0.00     0.019 A 
ENDBRANCH  10  13
ENDBRANCH   7   9
ENDBRANCH   4   7
ENDBRANCH   2   3
ENDBRANCH   1   2
BRANCH   1  24
ATOM     24  C   UNL A   1      39.517  20.005  25.827  1.00  0.00     0.118 C 
BRANCH  24  25
ATOM     25  N   UNL A   1      40.498  18.928  25.849  1.00  0.00    -0.352 N 
ATOM     26  C   UNL A   1      41.859  18.978  26.040  1.00  0.00     0.251 C 
ATOM     27  H   UNL A   1      40.129  18.025  25.706  1.00  0.00     0.163 HD
ATOM     28  O   UNL A   1      42.540  17.968  25.895  1.00  0.00    -0.269 OA
BRANCH  26  29
ATOM     29  C   UNL A   1      42.509  20.262  26.376  1.00  0.00     0.039 A 
ATOM     30  C   UNL A   1      42.429  20.784  27.669  1.00  0.00     0.014 A 
ATOM     31  C   UNL A   1      43.173  20.972  25.372  1.00  0.00     0.014 A 
ATOM     32  C   UNL A   1      42.832  22.092  27.905  1.00  0.00     0.010 A 
ATOM     33  C   UNL A   1      43.662  22.254  25.637  1.00  0.00     0.010 A 
ATOM     34  C   UNL A   1      43.441  22.848  26.889  1.00  0.00    -0.014 A 
BRANCH  34  35
ATOM     35  C   UNL A   1      43.810  24.262  27.155  1.00  0.00     0.031 A 
ATOM     36  C   UNL A   1      45.192  24.767  26.834  1.00  0.00     0.074 A 
ATOM     37  C   UNL A   1      42.873  25.112  27.616  1.00  0.00     0.049 A 
ATOM     38  N   UNL A   1      45.688  25.969  26.990  1.00  0.00    -0.248 NA
ATOM     39  C   UNL A   1      46.143  23.800  26.266  1.00  0.00     0.031 C 
ATOM     40  C   UNL A   1      41.495  24.746  27.942  1.00  0.00     0.029 A 
ATOM     41  N   UNL A   1      42.926  26.461  27.856  1.00  0.00    -0.354 N 
ATOM     42  C   UNL A   1      47.008  25.895  26.567  1.00  0.00     0.074 A 
ATOM     43  C   UNL A   1      47.247  24.527  26.163  1.00  0.00     0.031 C 
ATOM     44  C   UNL A   1      40.815  25.853  28.275  1.00  0.00     0.029 A 
ATOM     45  C   UNL A   1      41.723  26.994  28.249  1.00  0.00     0.049 A 
ATOM     46  H   UNL A   1      43.747  26.995  27.757  1.00  0.00     0.167 HD
ATOM     47  C   UNL A   1      47.934  26.883  26.511  1.00  0.00     0.037 A 
ATOM     48  C   UNL A   1      41.391  28.260  28.563  1.00  0.00     0.037 A 
ATOM     49  C   UNL A   1      47.687  28.253  26.878  1.00  0.00     0.049 A 
ATOM     50  C   UNL A   1      42.443  29.329  28.516  1.00  0.00     0.074 A 
ATOM     51  C   UNL A   1      48.561  29.326  26.845  1.00  0.00     0.029 A 
ATOM     52  N   UNL A   1      46.471  28.740  27.333  1.00  0.00    -0.354 N 
ATOM     53  N   UNL A   1      43.695  29.237  28.143  1.00  0.00    -0.248 NA
ATOM     54  C   UNL A   1      42.040  30.673  28.952  1.00  0.00     0.031 C 
ATOM     55  C   UNL A   1      47.881  30.457  27.307  1.00  0.00     0.029 A 
ATOM     56  C   UNL A   1      46.575  30.096  27.597  1.00  0.00     0.049 A 
ATOM     57  H   UNL A   1      45.656  28.201  27.451  1.00  0.00     0.167 HD
ATOM     58  C   UNL A   1      44.233  30.506  28.301  1.00  0.00     0.074 A 
ATOM     59  C   UNL A   1      43.163  31.357  28.778  1.00  0.00     0.031 C 
ATOM     60  C   UNL A   1      45.502  30.924  28.080  1.00  0.00     0.037 A 
BRANCH  47  61
ATOM     61  C   UNL A   1      49.312  26.522  26.041  1.00  0.00     0.064 A 
ATOM     62  C   UNL A   1      49.729  26.774  24.727  1.00  0.00     0.173 A 
ATOM     63  C   UNL A   1      50.246  25.976  26.936  1.00  0.00     0.173 A 
ATOM     64  F   UNL A   1      48.869  27.281  23.832  1.00  0.00    -0.203 F 
ATOM     65  C   UNL A   1      51.029  26.480  24.321  1.00  0.00     0.198 A 
ATOM     66  C   UNL A   1      51.550  25.705  26.532  1.00  0.00     0.198 A 
ATOM     67  F   UNL A   1      49.896  25.721  28.206  1.00  0.00    -0.203 F 
ATOM     68  F   UNL A   1      51.399  26.703  23.052  1.00  0.00    -0.200 F 
ATOM     69  C   UNL A   1      51.940  25.954  25.225  1.00  0.00     0.200 A 
ATOM     70  F   UNL A   1      52.432  25.204  27.408  1.00  0.00    -0.200 F 
ATOM     71  F   UNL A   1      53.193  25.683  24.835  1.00  0.00    -0.200 F 
ENDBRANCH  47  61
BRANCH  48  72
ATOM     72  C   UNL A   1      39.992  28.574  28.944  1.00  0.00     0.064 A 
ATOM     73  C   UNL A   1      39.087  29.076  27.999  1.00  0.00     0.173 A 
ATOM     74  C   UNL A   1      39.522  28.345  30.244  1.00  0.00     0.173 A 
ATOM     75  F   UNL A   1      39.498  29.330  26.748  1.00  0.00    -0.203 F 
ATOM     76  C   UNL A   1      37.763  29.336  28.343  1.00  0.00     0.198 A 
ATOM     77  C   UNL A   1      38.192  28.582  30.581  1.00  0.00     0.198 A 
ATOM     78  F   UNL A   1      40.352  27.862  31.182  1.00  0.00    -0.203 F 
ATOM     79  F   UNL A   1      36.922  29.837  27.427  1.00  0.00    -0.200 F 
ATOM     80  C   UNL A   1      37.314  29.081  29.630  1.00  0.00     0.200 A 
ATOM     81  F   UNL A   1      37.759  28.320  31.822  1.00  0.00    -0.200 F 
ATOM     82  F   UNL A   1      36.036  29.316  29.955  1.00  0.00    -0.200 F 
ENDBRANCH  48  72
BRANCH  60  83
ATOM     83  C   UNL A   1      45.805  32.365  28.356  1.00  0.00     0.064 A 
ATOM     84  C   UNL A   1      46.294  32.776  29.603  1.00  0.00     0.173 A 
ATOM     85  C   UNL A   1      45.655  33.332  27.351  1.00  0.00     0.173 A 
ATOM     86  F   UNL A   1      46.440  31.888  30.597  1.00  0.00    -0.203 F 
ATOM     87  C   UNL A   1      46.609  34.111  29.841  1.00  0.00     0.198 A 
ATOM     88  C   UNL A   1      45.991  34.661  27.586  1.00  0.00     0.198 A 
ATOM     89  F   UNL A   1      45.195  32.983  26.140  1.00  0.00    -0.203 F 
ATOM     90  F   UNL A   1      47.047  34.490  31.049  1.00  0.00    -0.200 F 
ATOM     91  C   UNL A   1      46.464  35.050  28.830  1.00  0.00     0.200 A 
ATOM     92  F   UNL A   1      45.859  35.567  26.606  1.00  0.00    -0.200 F 
ATOM     93  F   UNL A   1      46.777  36.334  29.058  1.00  0.00    -0.200 F 
ENDBRANCH  60  83
ENDBRANCH  34  35
ENDBRANCH  26  29
ENDBRANCH  24  25
ENDBRANCH   1  24
TORSDOF 12
ENDMDL
MODEL 3
REMARK VINA RESULT:     -12.8      5.785     11.322
REMARK SMILES C[C@H](NC(=O)C1=Cc2cc(Br)ccc2OC1)C(=O)NCCCNC(=O)c1ccc(-c2c3nc(c(-c4c(F)c(F)c(F)c(F)c4F)c4ccc([nH]4)c(-c4c(F)c(F)c(F)c(F)c4F)c4nc(c(-c5c(F)c(F)c(F)c(F)c5F)c5ccc2[nH]5)C=C4)C=C3)cc1
REMARK SMILES IDX 21 1 20 2 19 3 17 4 18 5 2 7 1 8 3 9 4 10 5 12 6 13 7 14
REMARK SMILES IDX 16 15 8 16 15 17 9 18 14 19 10 20 13 21 11 22 12 23 22 24
REMARK SMILES IDX 23 25 24 26 25 28 26 29 27 30 88 31 28 32 87 33 29 34 30 35
REMARK SMILES IDX 31 36 81 37 32 38 86 39 80 40 82 41 33 42 85 43 79 44 78 45
REMARK SMILES IDX 34 47 66 48 46 49 65 50 47 51 50 52 64 53 83 54 48 55 49 56
REMARK SMILES IDX 63 58 84 59 51 60 35 61 36 62 44 63 37 64 38 65 42 66 45 67
REMARK SMILES IDX 39 68 40 69 43 70 41 71 67 72 68 73 76 74 69 75 70 76 74 77
REMARK SMILES IDX 77 78 71 79 72 80 75 81 73 82 52 83 53 84 61 85 54 86 55 87
REMARK SMILES IDX 59 88 62 89 56 90 57 91 60 92 58 93
REMARK H PARENT 19 6 3 11 23 27 82 46 50 57
REMARK Flexibility Score: inf
ROOT
ATOM      1  C   UNL A   1      38.176  19.675  25.005  1.00  0.00     0.042 C 
ENDROOT
BRANCH   1   2
ATOM      2  C   UNL A   1      37.403  20.899  24.536  1.00  0.00     0.117 C 
BRANCH   2   3
ATOM      3  N   UNL A   1      37.887  22.124  25.143  1.00  0.00    -0.354 N 
ATOM      4  C   UNL A   1      37.226  23.170  25.704  1.00  0.00     0.242 C 
ATOM      5  O   UNL A   1      37.916  24.078  26.178  1.00  0.00    -0.273 OA
ATOM      6  H   UNL A   1      38.867  22.212  25.150  1.00  0.00     0.163 HD
BRANCH   4   7
ATOM      7  C   UNL A   1      35.693  23.247  25.743  1.00  0.00     0.168 C 
ATOM      8  C   UNL A   1      35.034  22.098  26.496  1.00  0.00     0.041 C 
BRANCH   7   9
ATOM      9  N   UNL A   1      35.149  23.432  24.394  1.00  0.00    -0.341 N 
ATOM     10  C   UNL A   1      34.276  24.399  23.979  1.00  0.00     0.251 C 
ATOM     11  H   UNL A   1      35.445  22.787  23.711  1.00  0.00     0.164 HD
ATOM     12  O   UNL A   1      33.986  24.539  22.799  1.00  0.00    -0.270 OA
BRANCH  10  13
ATOM     13  C   UNL A   1      33.697  25.257  25.024  1.00  0.00     0.055 C 
ATOM     14  C   UNL A   1      34.244  26.457  25.248  1.00  0.00     0.025 C 
ATOM     15  C   UNL A   1      32.431  24.803  25.673  1.00  0.00     0.271 C 
ATOM     16  C   UNL A   1      33.476  27.371  26.083  1.00  0.00     0.018 A 
ATOM     17  O   UNL A   1      31.547  25.875  26.048  1.00  0.00    -0.488 OA
ATOM     18  C   UNL A   1      34.001  28.611  26.459  1.00  0.00     0.027 A 
ATOM     19  C   UNL A   1      32.148  27.054  26.408  1.00  0.00     0.127 A 
ATOM     20  C   UNL A   1      33.194  29.525  27.136  1.00  0.00     0.018 A 
ATOM     21  C   UNL A   1      31.342  27.981  27.067  1.00  0.00     0.048 A 
ATOM     22  Br  UNL A   1      33.898  31.210  27.626  1.00  0.00    -0.051 Br
ATOM     23  C   UNL A   1      31.866  29.221  27.435  1.00  0.00     0.019 A 
ENDBRANCH  10  13
ENDBRANCH   7   9
ENDBRANCH   4   7
ENDBRANCH   2   3
ENDBRANCH   1   2
BRANCH   1  24
ATOM     24  C   UNL A   1      39.409  19.982  25.845  1.00  0.00     0.118 C 
BRANCH  24  25
ATOM     25  N   UNL A   1      40.396  18.910  25.841  1.00  0.00    -0.352 N 
ATOM     26  C   UNL A   1      41.760  18.966  26.010  1.00  0.00     0.251 C 
ATOM     27  H   UNL A   1      40.030  18.006  25.695  1.00  0.00     0.163 HD
ATOM     28  O   UNL A   1      42.444  17.961  25.845  1.00  0.00    -0.269 OA
BRANCH  26  29
ATOM     29  C   UNL A   1      42.408  20.251  26.347  1.00  0.00     0.039 A 
ATOM     30  C   UNL A   1      42.346  20.761  27.645  1.00  0.00     0.014 A 
ATOM     31  C   UNL A   1      43.052  20.973  25.339  1.00  0.00     0.014 A 
ATOM     32  C   UNL A   1      42.745  22.069  27.887  1.00  0.00     0.010 A 
ATOM     33  C   UNL A   1      43.539  22.256  25.608  1.00  0.00     0.010 A 
ATOM     34  C   UNL A   1      43.335  22.837  26.868  1.00  0.00    -0.014 A 
BRANCH  34  35
ATOM     35  C   UNL A   1      43.700  24.251  27.140  1.00  0.00     0.031 A 
ATOM     36  C   UNL A   1      45.083  24.759  26.830  1.00  0.00     0.074 A 
ATOM     37  C   UNL A   1      42.759  25.098  27.599  1.00  0.00     0.049 A 
ATOM     38  N   UNL A   1      45.576  25.961  26.993  1.00  0.00    -0.248 NA
ATOM     39  C   UNL A   1      46.039  23.795  26.265  1.00  0.00     0.031 C 
ATOM     40  C   UNL A   1      41.379  24.730  27.914  1.00  0.00     0.029 A 
ATOM     41  N   UNL A   1      42.808  26.447  27.844  1.00  0.00    -0.354 N 
ATOM     42  C   UNL A   1      46.899  25.890  26.577  1.00  0.00     0.074 A 
ATOM     43  C   UNL A   1      47.142  24.524  26.171  1.00  0.00     0.031 C 
ATOM     44  C   UNL A   1      40.695  25.835  28.247  1.00  0.00     0.029 A 
ATOM     45  C   UNL A   1      41.603  26.976  28.230  1.00  0.00     0.049 A 
ATOM     46  H   UNL A   1      43.629  26.982  27.751  1.00  0.00     0.167 HD
ATOM     47  C   UNL A   1      47.824  26.880  26.531  1.00  0.00     0.037 A 
ATOM     48  C   UNL A   1      41.266  28.241  28.546  1.00  0.00     0.037 A 
ATOM     49  C   UNL A   1      47.573  28.248  26.900  1.00  0.00     0.049 A 
ATOM     50  C   UNL A   1      42.318  29.311  28.509  1.00  0.00     0.074 A 
ATOM     51  C   UNL A   1      48.446  29.322  26.876  1.00  0.00     0.029 A 
ATOM     52  N   UNL A   1      46.354  28.732  27.349  1.00  0.00    -0.354 N 
ATOM     53  N   UNL A   1      43.572  29.223  28.144  1.00  0.00    -0.248 NA
ATOM     54  C   UNL A   1      41.910  30.654  28.947  1.00  0.00     0.031 C 
ATOM     55  C   UNL A   1      47.761  30.451  27.337  1.00  0.00     0.029 A 
ATOM     56  C   UNL A   1      46.454  30.087  27.618  1.00  0.00     0.049 A 
ATOM     57  H   UNL A   1      45.538  28.192  27.461  1.00  0.00     0.167 HD
ATOM     58  C   UNL A   1      44.107  30.492  28.309  1.00  0.00     0.074 A 
ATOM     59  C   UNL A   1      43.033  31.340  28.782  1.00  0.00     0.031 C 
ATOM     60  C   UNL A   1      45.377  30.912  28.097  1.00  0.00     0.037 A 
BRANCH  47  61
ATOM     61  C   UNL A   1      49.206  26.522  26.068  1.00  0.00     0.064 A 
ATOM     62  C   UNL A   1      49.628  26.772  24.755  1.00  0.00     0.173 A 
ATOM     63  C   UNL A   1      50.137  25.981  26.968  1.00  0.00     0.173 A 
ATOM     64  F   UNL A   1      48.771  27.275  23.855  1.00  0.00    -0.203 F 
ATOM     65  C   UNL A   1      50.931  26.482  24.357  1.00  0.00     0.198 A 
ATOM     66  C   UNL A   1      51.443  25.712  26.571  1.00  0.00     0.198 A 
ATOM     67  F   UNL A   1      49.782  25.726  28.237  1.00  0.00    -0.203 F 
ATOM     68  F   UNL A   1      51.306  26.703  23.089  1.00  0.00    -0.200 F 
ATOM     69  C   UNL A   1      51.839  25.961  25.266  1.00  0.00     0.200 A 
ATOM     70  F   UNL A   1      52.322  25.216  27.453  1.00  0.00    -0.200 F 
ATOM     71  F   UNL A   1      53.095  25.693  24.882  1.00  0.00    -0.200 F 
ENDBRANCH  47  61
BRANCH  48  72
ATOM     72  C   UNL A   1      39.865  28.553  28.919  1.00  0.00     0.064 A 
ATOM     73  C   UNL A   1      39.410  28.351  30.229  1.00  0.00     0.173 A 
ATOM     74  C   UNL A   1      38.966  29.092  27.989  1.00  0.00     0.173 A 
ATOM     75  F   UNL A   1      40.230  27.819  31.148  1.00  0.00    -0.203 F 
ATOM     76  C   UNL A   1      38.107  28.678  30.594  1.00  0.00     0.198 A 
ATOM     77  C   UNL A   1      37.670  29.441  28.361  1.00  0.00     0.198 A 
ATOM     78  F   UNL A   1      39.357  29.305  26.724  1.00  0.00    -0.203 F 
ATOM     79  F   UNL A   1      37.689  28.456  31.848  1.00  0.00    -0.200 F 
ATOM     80  C   UNL A   1      37.241  29.231  29.663  1.00  0.00     0.200 A 
ATOM     81  F   UNL A   1      36.841  29.989  27.461  1.00  0.00    -0.200 F 
ATOM     82  F   UNL A   1      35.992  29.560  30.018  1.00  0.00    -0.200 F 
ENDBRANCH  48  72
BRANCH  60  83
ATOM     83  C   UNL A   1      45.676  32.353  28.379  1.00  0.00     0.064 A 
ATOM     84  C   UNL A   1      45.500  33.335  27.395  1.00  0.00     0.173 A 
ATOM     85  C   UNL A   1      46.091  32.760  29.655  1.00  0.00     0.173 A 
ATOM     86  F   UNL A   1      45.118  32.990  26.157  1.00  0.00    -0.203 F 
ATOM     87  C   UNL A   1      45.743  34.677  27.675  1.00  0.00     0.198 A 
ATOM     88  C   UNL A   1      46.312  34.104  29.937  1.00  0.00     0.198 A 
ATOM     89  F   UNL A   1      46.268  31.855  30.630  1.00  0.00    -0.203 F 
ATOM     90  F   UNL A   1      45.598  35.598  26.713  1.00  0.00    -0.200 F 
ATOM     91  C   UNL A   1      46.142  35.060  28.948  1.00  0.00     0.200 A 
ATOM     92  F   UNL A   1      46.690  34.476  31.169  1.00  0.00    -0.200 F 
ATOM     93  F   UNL A   1      46.368  36.354  29.218  1.00  0.00    -0.200 F 
ENDBRANCH  60  83
ENDBRANCH  34  35
ENDBRANCH  26  29
ENDBRANCH  24  25
ENDBRANCH   1  24
TORSDOF 12
ENDMDL
