MODEL 1
REMARK VINA RESULT:     -12.0      0.000      0.000
REMARK SMILES O=C(CCC1CC[NH+]([C@H]2CCO[C@]3(CCSC3)C2)CC1)NCCCNC(=O)c1ccc(-c2c3nc(c(-c4c(F)c(F)c(F)c(F)c4F)c4ccc([nH]4)c(-c4c(F)c(F)c(F)c(F)c4F)c4nc(c(-c5c(F)c(F)c(F)c(F)c5F)c5ccc2[nH]5)C=C4)C=C3)cc1
REMARK SMILES IDX 22 1 21 2 1 3 2 4 3 6 4 7 5 8 6 9 20 10 7 11 19 12 8 13 9 15
REMARK SMILES IDX 10 16 18 17 11 18 13 19 12 20 14 21 17 22 15 23 16 24 23 25
REMARK SMILES IDX 24 26 25 27 26 28 27 30 28 31 29 32 90 33 30 34 89 35 31 36
REMARK SMILES IDX 32 37 33 38 83 39 34 40 88 41 82 42 84 43 35 44 87 45 81 46
REMARK SMILES IDX 80 47 36 49 68 50 48 51 67 52 49 53 52 54 66 55 85 56 50 57
REMARK SMILES IDX 51 58 65 60 86 61 53 62 37 63 38 64 46 65 39 66 40 67 44 68
REMARK SMILES IDX 47 69 41 70 42 71 45 72 43 73 69 74 70 75 78 76 71 77 72 78
REMARK SMILES IDX 76 79 79 80 73 81 74 82 77 83 75 84 54 85 55 86 63 87 56 88
REMARK SMILES IDX 57 89 61 90 64 91 58 92 59 93 62 94 60 95
REMARK H PARENT 21 5 8 14 25 29 84 48 52 59
REMARK Flexibility Score: inf
ROOT
ATOM      1  C   UNL A   1      34.626  34.595  28.555  1.00  0.00     0.117 C 
ENDROOT
BRANCH   1   2
ATOM      2  N   UNL A   1      34.496  33.220  28.123  1.00  0.00    -0.356 N 
ATOM      3  O   UNL A   1      36.745  32.750  28.067  1.00  0.00    -0.275 OA
ATOM      4  C   UNL A   1      35.577  32.382  28.001  1.00  0.00     0.220 C 
ATOM      5  H   UNL A   1      33.600  32.871  27.909  1.00  0.00     0.163 HD
BRANCH   4   6
ATOM      6  C   UNL A   1      35.192  30.932  27.836  1.00  0.00     0.100 C 
BRANCH   6   7
ATOM      7  C   UNL A   1      33.696  30.777  27.517  1.00  0.00     0.014 C 
BRANCH   7   8
ATOM      8  C   UNL A   1      33.261  29.313  27.249  1.00  0.00     0.000 C 
ATOM      9  C   UNL A   1      34.181  28.577  26.244  1.00  0.00     0.065 C 
ATOM     10  C   UNL A   1      31.778  29.263  26.836  1.00  0.00     0.065 C 
ATOM     11  C   UNL A   1      33.742  28.584  24.774  1.00  0.00     0.262 C 
ATOM     12  C   UNL A   1      31.578  29.422  25.336  1.00  0.00     0.262 C 
ATOM     13  N   UNL A   1      32.308  28.424  24.554  1.00  0.00    -0.332 N 
ATOM     14  H   UNL A   1      32.097  28.644  23.581  1.00  0.00     0.348 HD
BRANCH  13  15
ATOM     15  C   UNL A   1      31.801  27.029  24.506  1.00  0.00     0.189 C 
ATOM     16  C   UNL A   1      30.340  26.830  24.061  1.00  0.00     0.093 C 
ATOM     17  C   UNL A   1      32.752  26.093  23.732  1.00  0.00     0.101 C 
ATOM     18  C   UNL A   1      29.970  25.368  23.880  1.00  0.00     0.167 C 
ATOM     19  C   UNL A   1      32.240  24.650  23.584  1.00  0.00     0.084 C 
ATOM     20  O   UNL A   1      30.905  24.695  23.047  1.00  0.00    -0.374 OA
ATOM     21  C   UNL A   1      32.258  23.802  24.869  1.00  0.00     0.047 C 
ATOM     22  C   UNL A   1      33.102  23.878  22.571  1.00  0.00     0.105 C 
ATOM     23  C   UNL A   1      33.610  23.135  25.074  1.00  0.00     0.072 C 
ATOM     24  S   UNL A   1      34.490  23.191  23.501  1.00  0.00    -0.159 SA
ENDBRANCH  13  15
ENDBRANCH   7   8
ENDBRANCH   6   7
ENDBRANCH   4   6
ENDBRANCH   1   2
BRANCH   1  25
ATOM     25  C   UNL A   1      33.277  35.234  28.842  1.00  0.00     0.042 C 
BRANCH  25  26
ATOM     26  C   UNL A   1      33.332  36.402  29.820  1.00  0.00     0.118 C 
BRANCH  26  27
ATOM     27  N   UNL A   1      32.350  36.306  30.891  1.00  0.00    -0.352 N 
ATOM     28  C   UNL A   1      32.424  35.629  32.084  1.00  0.00     0.251 C 
ATOM     29  H   UNL A   1      31.512  36.799  30.739  1.00  0.00     0.163 HD
ATOM     30  O   UNL A   1      31.431  35.556  32.806  1.00  0.00    -0.269 OA
BRANCH  28  31
ATOM     31  C   UNL A   1      33.680  34.963  32.496  1.00  0.00     0.039 A 
ATOM     32  C   UNL A   1      33.629  33.634  32.919  1.00  0.00     0.014 A 
ATOM     33  C   UNL A   1      34.901  35.642  32.477  1.00  0.00     0.014 A 
ATOM     34  C   UNL A   1      34.807  32.969  33.268  1.00  0.00     0.010 A 
ATOM     35  C   UNL A   1      36.084  34.953  32.736  1.00  0.00     0.010 A 
ATOM     36  C   UNL A   1      36.050  33.613  33.148  1.00  0.00    -0.014 A 
BRANCH  36  37
ATOM     37  C   UNL A   1      37.314  32.898  33.470  1.00  0.00     0.031 A 
ATOM     38  C   UNL A   1      38.050  33.192  34.751  1.00  0.00     0.074 A 
ATOM     39  C   UNL A   1      37.822  32.008  32.595  1.00  0.00     0.049 A 
ATOM     40  N   UNL A   1      39.168  32.679  35.201  1.00  0.00    -0.248 NA
ATOM     41  C   UNL A   1      37.467  34.217  35.631  1.00  0.00     0.031 C 
ATOM     42  C   UNL A   1      37.238  31.673  31.296  1.00  0.00     0.029 A 
ATOM     43  N   UNL A   1      38.945  31.222  32.666  1.00  0.00    -0.354 N 
ATOM     44  C   UNL A   1      39.422  33.323  36.405  1.00  0.00     0.074 A 
ATOM     45  C   UNL A   1      38.381  34.310  36.584  1.00  0.00     0.031 C 
ATOM     46  C   UNL A   1      37.986  30.727  30.707  1.00  0.00     0.029 A 
ATOM     47  C   UNL A   1      39.122  30.413  31.569  1.00  0.00     0.049 A 
ATOM     48  H   UNL A   1      39.566  31.236  33.430  1.00  0.00     0.167 HD
ATOM     49  C   UNL A   1      40.417  33.093  37.297  1.00  0.00     0.037 A 
ATOM     50  C   UNL A   1      40.090  29.519  31.291  1.00  0.00     0.037 A 
ATOM     51  C   UNL A   1      41.444  32.100  37.126  1.00  0.00     0.049 A 
ATOM     52  C   UNL A   1      41.185  29.286  32.297  1.00  0.00     0.074 A 
ATOM     53  C   UNL A   1      42.467  31.756  37.994  1.00  0.00     0.029 A 
ATOM     54  N   UNL A   1      41.582  31.290  36.008  1.00  0.00    -0.354 N 
ATOM     55  N   UNL A   1      41.373  29.849  33.466  1.00  0.00    -0.248 NA
ATOM     56  C   UNL A   1      42.195  28.277  31.949  1.00  0.00     0.031 C 
ATOM     57  C   UNL A   1      43.255  30.778  37.378  1.00  0.00     0.029 A 
ATOM     58  C   UNL A   1      42.686  30.463  36.155  1.00  0.00     0.049 A 
ATOM     59  H   UNL A   1      40.985  31.300  35.226  1.00  0.00     0.167 HD
ATOM     60  C   UNL A   1      42.498  29.239  34.007  1.00  0.00     0.074 A 
ATOM     61  C   UNL A   1      42.937  28.250  33.046  1.00  0.00     0.031 C 
ATOM     62  C   UNL A   1      43.110  29.477  35.194  1.00  0.00     0.037 A 
BRANCH  49  63
ATOM     63  C   UNL A   1      40.439  33.935  38.544  1.00  0.00     0.064 A 
ATOM     64  C   UNL A   1      39.717  33.572  39.692  1.00  0.00     0.173 A 
ATOM     65  C   UNL A   1      41.218  35.100  38.603  1.00  0.00     0.173 A 
ATOM     66  F   UNL A   1      38.946  32.474  39.687  1.00  0.00    -0.203 F 
ATOM     67  C   UNL A   1      39.748  34.363  40.838  1.00  0.00     0.198 A 
ATOM     68  C   UNL A   1      41.274  35.870  39.762  1.00  0.00     0.198 A 
ATOM     69  F   UNL A   1      41.933  35.492  37.536  1.00  0.00    -0.203 F 
ATOM     70  F   UNL A   1      39.003  34.027  41.901  1.00  0.00    -0.200 F 
ATOM     71  C   UNL A   1      40.531  35.506  40.875  1.00  0.00     0.200 A 
ATOM     72  F   UNL A   1      42.044  36.965  39.802  1.00  0.00    -0.200 F 
ATOM     73  F   UNL A   1      40.565  36.262  41.981  1.00  0.00    -0.200 F 
ENDBRANCH  49  63
BRANCH  50  74
ATOM     74  C   UNL A   1      40.052  28.752  30.017  1.00  0.00     0.064 A 
ATOM     75  C   UNL A   1      39.441  27.491  29.952  1.00  0.00     0.173 A 
ATOM     76  C   UNL A   1      40.640  29.251  28.845  1.00  0.00     0.173 A 
ATOM     77  F   UNL A   1      38.883  26.961  31.050  1.00  0.00    -0.203 F 
ATOM     78  C   UNL A   1      39.444  26.748  28.773  1.00  0.00     0.198 A 
ATOM     79  C   UNL A   1      40.613  28.522  27.659  1.00  0.00     0.198 A 
ATOM     80  F   UNL A   1      41.232  30.455  28.851  1.00  0.00    -0.203 F 
ATOM     81  F   UNL A   1      38.904  25.522  28.756  1.00  0.00    -0.200 F 
ATOM     82  C   UNL A   1      40.026  27.266  27.626  1.00  0.00     0.200 A 
ATOM     83  F   UNL A   1      41.161  29.033  26.549  1.00  0.00    -0.200 F 
ATOM     84  F   UNL A   1      40.028  26.552  26.492  1.00  0.00    -0.200 F 
ENDBRANCH  50  74
BRANCH  62  85
ATOM     85  C   UNL A   1      44.292  28.614  35.541  1.00  0.00     0.064 A 
ATOM     86  C   UNL A   1      45.604  28.977  35.201  1.00  0.00     0.173 A 
ATOM     87  C   UNL A   1      44.107  27.408  36.235  1.00  0.00     0.173 A 
ATOM     88  F   UNL A   1      45.837  30.114  34.527  1.00  0.00    -0.203 F 
ATOM     89  C   UNL A   1      46.679  28.145  35.502  1.00  0.00     0.198 A 
ATOM     90  C   UNL A   1      45.187  26.597  36.568  1.00  0.00     0.198 A 
ATOM     91  F   UNL A   1      42.875  27.016  36.596  1.00  0.00    -0.203 F 
ATOM     92  F   UNL A   1      47.914  28.480  35.103  1.00  0.00    -0.200 F 
ATOM     93  C   UNL A   1      46.471  26.958  36.190  1.00  0.00     0.200 A 
ATOM     94  F   UNL A   1      44.986  25.460  37.249  1.00  0.00    -0.200 F 
ATOM     95  F   UNL A   1      47.507  26.159  36.476  1.00  0.00    -0.200 F 
ENDBRANCH  62  85
ENDBRANCH  36  37
ENDBRANCH  28  31
ENDBRANCH  26  27
ENDBRANCH  25  26
ENDBRANCH   1  25
TORSDOF 13
ENDMDL
MODEL 2
REMARK VINA RESULT:     -11.9      2.046      3.698
REMARK SMILES O=C(CCC1CC[NH+]([C@H]2CCO[C@]3(CCSC3)C2)CC1)NCCCNC(=O)c1ccc(-c2c3nc(c(-c4c(F)c(F)c(F)c(F)c4F)c4ccc([nH]4)c(-c4c(F)c(F)c(F)c(F)c4F)c4nc(c(-c5c(F)c(F)c(F)c(F)c5F)c5ccc2[nH]5)C=C4)C=C3)cc1
REMARK SMILES IDX 22 1 21 2 1 3 2 4 3 6 4 7 5 8 6 9 20 10 7 11 19 12 8 13 9 15
REMARK SMILES IDX 10 16 18 17 11 18 13 19 12 20 14 21 17 22 15 23 16 24 23 25
REMARK SMILES IDX 24 26 25 27 26 28 27 30 28 31 29 32 90 33 30 34 89 35 31 36
REMARK SMILES IDX 32 37 33 38 83 39 34 40 88 41 82 42 84 43 35 44 87 45 81 46
REMARK SMILES IDX 80 47 36 49 68 50 48 51 67 52 49 53 52 54 66 55 85 56 50 57
REMARK SMILES IDX 51 58 65 60 86 61 53 62 37 63 38 64 46 65 39 66 40 67 44 68
REMARK SMILES IDX 47 69 41 70 42 71 45 72 43 73 69 74 70 75 78 76 71 77 72 78
REMARK SMILES IDX 76 79 79 80 73 81 74 82 77 83 75 84 54 85 55 86 63 87 56 88
REMARK SMILES IDX 57 89 61 90 64 91 58 92 59 93 62 94 60 95
REMARK H PARENT 21 5 8 14 25 29 84 48 52 59
REMARK Flexibility Score: inf
ROOT
ATOM      1  C   UNL A   1      30.706  31.710  25.429  1.00  0.00     0.117 C 
ENDROOT
BRANCH   1   2
ATOM      2  N   UNL A   1      30.772  30.440  24.738  1.00  0.00    -0.356 N 
ATOM      3  O   UNL A   1      28.932  30.774  23.403  1.00  0.00    -0.275 OA
ATOM      4  C   UNL A   1      29.920  30.117  23.711  1.00  0.00     0.220 C 
ATOM      5  H   UNL A   1      31.452  29.783  25.014  1.00  0.00     0.163 HD
BRANCH   4   6
ATOM      6  C   UNL A   1      30.351  28.892  22.941  1.00  0.00     0.100 C 
BRANCH   6   7
ATOM      7  C   UNL A   1      30.037  27.600  23.714  1.00  0.00     0.014 C 
BRANCH   7   8
ATOM      8  C   UNL A   1      31.278  26.953  24.382  1.00  0.00     0.000 C 
ATOM      9  C   UNL A   1      31.965  25.889  23.491  1.00  0.00     0.065 C 
ATOM     10  C   UNL A   1      30.911  26.407  25.775  1.00  0.00     0.065 C 
ATOM     11  C   UNL A   1      31.548  24.429  23.711  1.00  0.00     0.262 C 
ATOM     12  C   UNL A   1      30.396  24.976  25.730  1.00  0.00     0.262 C 
ATOM     13  N   UNL A   1      31.339  24.049  25.105  1.00  0.00    -0.332 N 
ATOM     14  H   UNL A   1      30.875  23.140  25.133  1.00  0.00     0.348 HD
BRANCH  13  15
ATOM     15  C   UNL A   1      32.545  23.624  25.861  1.00  0.00     0.189 C 
ATOM     16  C   UNL A   1      32.314  22.879  27.188  1.00  0.00     0.093 C 
ATOM     17  C   UNL A   1      33.553  22.872  24.967  1.00  0.00     0.101 C 
ATOM     18  C   UNL A   1      33.597  22.339  27.795  1.00  0.00     0.167 C 
ATOM     19  C   UNL A   1      34.789  22.340  25.714  1.00  0.00     0.084 C 
ATOM     20  O   UNL A   1      34.339  21.580  26.850  1.00  0.00    -0.374 OA
ATOM     21  C   UNL A   1      35.803  23.407  26.165  1.00  0.00     0.047 C 
ATOM     22  C   UNL A   1      35.580  21.374  24.817  1.00  0.00     0.105 C 
ATOM     23  C   UNL A   1      36.801  23.725  25.062  1.00  0.00     0.072 C 
ATOM     24  S   UNL A   1      36.718  22.392  23.850  1.00  0.00    -0.159 SA
ENDBRANCH  13  15
ENDBRANCH   7   8
ENDBRANCH   6   7
ENDBRANCH   4   6
ENDBRANCH   1   2
BRANCH   1  25
ATOM     25  C   UNL A   1      31.367  31.651  26.797  1.00  0.00     0.042 C 
BRANCH  25  26
ATOM     26  C   UNL A   1      32.634  32.489  26.918  1.00  0.00     0.118 C 
BRANCH  26  27
ATOM     27  N   UNL A   1      32.391  33.837  27.410  1.00  0.00    -0.352 N 
ATOM     28  C   UNL A   1      33.019  34.523  28.422  1.00  0.00     0.251 C 
ATOM     29  H   UNL A   1      31.673  34.330  26.952  1.00  0.00     0.163 HD
ATOM     30  O   UNL A   1      32.580  35.614  28.783  1.00  0.00    -0.269 OA
BRANCH  28  31
ATOM     31  C   UNL A   1      34.205  33.950  29.097  1.00  0.00     0.039 A 
ATOM     32  C   UNL A   1      34.014  32.958  30.061  1.00  0.00     0.014 A 
ATOM     33  C   UNL A   1      35.496  34.390  28.796  1.00  0.00     0.014 A 
ATOM     34  C   UNL A   1      35.120  32.368  30.679  1.00  0.00     0.010 A 
ATOM     35  C   UNL A   1      36.599  33.738  29.344  1.00  0.00     0.010 A 
ATOM     36  C   UNL A   1      36.424  32.729  30.302  1.00  0.00    -0.014 A 
BRANCH  36  37
ATOM     37  C   UNL A   1      37.607  32.072  30.919  1.00  0.00     0.031 A 
ATOM     38  C   UNL A   1      38.059  32.461  32.301  1.00  0.00     0.074 A 
ATOM     39  C   UNL A   1      38.298  31.148  30.223  1.00  0.00     0.049 A 
ATOM     40  N   UNL A   1      39.070  32.009  33.002  1.00  0.00    -0.248 NA
ATOM     41  C   UNL A   1      37.292  33.518  32.978  1.00  0.00     0.031 C 
ATOM     42  C   UNL A   1      37.999  30.721  28.856  1.00  0.00     0.029 A 
ATOM     43  N   UNL A   1      39.396  30.401  30.571  1.00  0.00    -0.354 N 
ATOM     44  C   UNL A   1      39.061  32.729  34.189  1.00  0.00     0.074 A 
ATOM     45  C   UNL A   1      37.989  33.693  34.090  1.00  0.00     0.031 C 
ATOM     46  C   UNL A   1      38.867  29.764  28.493  1.00  0.00     0.029 A 
ATOM     47  C   UNL A   1      39.808  29.535  29.586  1.00  0.00     0.049 A 
ATOM     48  H   UNL A   1      39.847  30.478  31.443  1.00  0.00     0.167 HD
ATOM     49  C   UNL A   1      39.856  32.580  35.278  1.00  0.00     0.037 A 
ATOM     50  C   UNL A   1      40.828  28.655  29.568  1.00  0.00     0.037 A 
ATOM     51  C   UNL A   1      40.913  31.609  35.382  1.00  0.00     0.049 A 
ATOM     52  C   UNL A   1      41.697  28.513  30.788  1.00  0.00     0.074 A 
ATOM     53  C   UNL A   1      41.742  31.347  36.459  1.00  0.00     0.029 A 
ATOM     54  N   UNL A   1      41.291  30.740  34.369  1.00  0.00    -0.354 N 
ATOM     55  N   UNL A   1      41.631  29.148  31.933  1.00  0.00    -0.248 NA
ATOM     56  C   UNL A   1      42.774  27.516  30.717  1.00  0.00     0.031 C 
ATOM     57  C   UNL A   1      42.656  30.358  36.079  1.00  0.00     0.029 A 
ATOM     58  C   UNL A   1      42.354  29.956  34.789  1.00  0.00     0.049 A 
ATOM     59  H   UNL A   1      40.866  30.687  33.482  1.00  0.00     0.167 HD
ATOM     60  C   UNL A   1      42.631  28.604  32.729  1.00  0.00     0.074 A 
ATOM     61  C   UNL A   1      43.275  27.574  31.942  1.00  0.00     0.031 C 
ATOM     62  C   UNL A   1      42.983  28.928  33.998  1.00  0.00     0.037 A 
BRANCH  49  63
ATOM     63  C   UNL A   1      39.608  33.493  36.447  1.00  0.00     0.064 A 
ATOM     64  C   UNL A   1      38.777  33.116  37.514  1.00  0.00     0.173 A 
ATOM     65  C   UNL A   1      40.234  34.746  36.518  1.00  0.00     0.173 A 
ATOM     66  F   UNL A   1      38.143  31.934  37.492  1.00  0.00    -0.203 F 
ATOM     67  C   UNL A   1      38.557  33.974  38.590  1.00  0.00     0.198 A 
ATOM     68  C   UNL A   1      40.040  35.586  37.612  1.00  0.00     0.198 A 
ATOM     69  F   UNL A   1      41.044  35.156  35.529  1.00  0.00    -0.203 F 
ATOM     70  F   UNL A   1      37.713  33.615  39.567  1.00  0.00    -0.200 F 
ATOM     71  C   UNL A   1      39.194  35.204  38.641  1.00  0.00     0.200 A 
ATOM     72  F   UNL A   1      40.668  36.768  37.668  1.00  0.00    -0.200 F 
ATOM     73  F   UNL A   1      38.987  36.024  39.680  1.00  0.00    -0.200 F 
ENDBRANCH  49  63
BRANCH  50  74
ATOM     74  C   UNL A   1      41.064  27.814  28.363  1.00  0.00     0.064 A 
ATOM     75  C   UNL A   1      41.924  28.243  27.342  1.00  0.00     0.173 A 
ATOM     76  C   UNL A   1      40.423  26.578  28.198  1.00  0.00     0.173 A 
ATOM     77  F   UNL A   1      42.544  29.428  27.442  1.00  0.00    -0.203 F 
ATOM     78  C   UNL A   1      42.112  27.481  26.190  1.00  0.00     0.198 A 
ATOM     79  C   UNL A   1      40.638  25.801  27.062  1.00  0.00     0.198 A 
ATOM     80  F   UNL A   1      39.596  26.118  29.148  1.00  0.00    -0.203 F 
ATOM     81  F   UNL A   1      42.895  27.942  25.205  1.00  0.00    -0.200 F 
ATOM     82  C   UNL A   1      41.473  26.258  26.053  1.00  0.00     0.200 A 
ATOM     83  F   UNL A   1      40.032  24.613  26.941  1.00  0.00    -0.200 F 
ATOM     84  F   UNL A   1      41.654  25.525  24.946  1.00  0.00    -0.200 F 
ENDBRANCH  50  74
BRANCH  62  85
ATOM     85  C   UNL A   1      44.083  28.123  34.632  1.00  0.00     0.064 A 
ATOM     86  C   UNL A   1      43.831  26.913  35.298  1.00  0.00     0.173 A 
ATOM     87  C   UNL A   1      45.414  28.565  34.563  1.00  0.00     0.173 A 
ATOM     88  F   UNL A   1      42.577  26.449  35.403  1.00  0.00    -0.203 F 
ATOM     89  C   UNL A   1      44.862  26.203  35.908  1.00  0.00     0.198 A 
ATOM     90  C   UNL A   1      46.446  27.833  35.141  1.00  0.00     0.198 A 
ATOM     91  F   UNL A   1      45.715  29.710  33.930  1.00  0.00    -0.203 F 
ATOM     92  F   UNL A   1      44.586  25.087  36.598  1.00  0.00    -0.200 F 
ATOM     93  C   UNL A   1      46.169  26.660  35.825  1.00  0.00     0.200 A 
ATOM     94  F   UNL A   1      47.711  28.268  35.044  1.00  0.00    -0.200 F 
ATOM     95  F   UNL A   1      47.158  25.975  36.415  1.00  0.00    -0.200 F 
ENDBRANCH  62  85
ENDBRANCH  36  37
ENDBRANCH  28  31
ENDBRANCH  26  27
ENDBRANCH  25  26
ENDBRANCH   1  25
TORSDOF 13
ENDMDL
MODEL 3
REMARK VINA RESULT:     -11.8      2.063      3.535
REMARK SMILES O=C(CCC1CC[NH+]([C@H]2CCO[C@]3(CCSC3)C2)CC1)NCCCNC(=O)c1ccc(-c2c3nc(c(-c4c(F)c(F)c(F)c(F)c4F)c4ccc([nH]4)c(-c4c(F)c(F)c(F)c(F)c4F)c4nc(c(-c5c(F)c(F)c(F)c(F)c5F)c5ccc2[nH]5)C=C4)C=C3)cc1
REMARK SMILES IDX 22 1 21 2 1 3 2 4 3 6 4 7 5 8 6 9 20 10 7 11 19 12 8 13 9 15
REMARK SMILES IDX 10 16 18 17 11 18 13 19 12 20 14 21 17 22 15 23 16 24 23 25
REMARK SMILES IDX 24 26 25 27 26 28 27 30 28 31 29 32 90 33 30 34 89 35 31 36
REMARK SMILES IDX 32 37 33 38 83 39 34 40 88 41 82 42 84 43 35 44 87 45 81 46
REMARK SMILES IDX 80 47 36 49 68 50 48 51 67 52 49 53 52 54 66 55 85 56 50 57
REMARK SMILES IDX 51 58 65 60 86 61 53 62 37 63 38 64 46 65 39 66 40 67 44 68
REMARK SMILES IDX 47 69 41 70 42 71 45 72 43 73 69 74 70 75 78 76 71 77 72 78
REMARK SMILES IDX 76 79 79 80 73 81 74 82 77 83 75 84 54 85 55 86 63 87 56 88
REMARK SMILES IDX 57 89 61 90 64 91 58 92 59 93 62 94 60 95
REMARK H PARENT 21 5 8 14 25 29 84 48 52 59
REMARK Flexibility Score: inf
ROOT
ATOM      1  C   UNL A   1      30.602  32.016  25.393  1.00  0.00     0.117 C 
ENDROOT
BRANCH   1   2
ATOM      2  N   UNL A   1      30.381  30.840  24.578  1.00  0.00    -0.356 N 
ATOM      3  O   UNL A   1      28.500  31.614  23.508  1.00  0.00    -0.275 OA
ATOM      4  C   UNL A   1      29.389  30.778  23.632  1.00  0.00     0.220 C 
ATOM      5  H   UNL A   1      30.964  30.058  24.706  1.00  0.00     0.163 HD
BRANCH   4   6
ATOM      6  C   UNL A   1      29.526  29.597  22.701  1.00  0.00     0.100 C 
BRANCH   6   7
ATOM      7  C   UNL A   1      29.204  28.274  23.414  1.00  0.00     0.014 C 
BRANCH   7   8
ATOM      8  C   UNL A   1      30.281  27.177  23.215  1.00  0.00     0.000 C 
ATOM      9  C   UNL A   1      29.888  25.815  23.841  1.00  0.00     0.065 C 
ATOM     10  C   UNL A   1      31.652  27.677  23.707  1.00  0.00     0.065 C 
ATOM     11  C   UNL A   1      30.398  25.535  25.260  1.00  0.00     0.262 C 
ATOM     12  C   UNL A   1      31.884  27.402  25.186  1.00  0.00     0.262 C 
ATOM     13  N   UNL A   1      31.760  25.986  25.529  1.00  0.00    -0.332 N 
ATOM     14  H   UNL A   1      31.929  25.941  26.535  1.00  0.00     0.348 HD
BRANCH  13  15
ATOM     15  C   UNL A   1      32.850  25.051  25.152  1.00  0.00     0.189 C 
ATOM     16  C   UNL A   1      34.295  25.533  25.375  1.00  0.00     0.093 C 
ATOM     17  C   UNL A   1      32.635  23.642  25.744  1.00  0.00     0.101 C 
ATOM     18  C   UNL A   1      35.328  24.449  25.123  1.00  0.00     0.167 C 
ATOM     19  C   UNL A   1      33.775  22.650  25.449  1.00  0.00     0.084 C 
ATOM     20  O   UNL A   1      35.018  23.260  25.838  1.00  0.00    -0.374 OA
ATOM     21  C   UNL A   1      33.867  22.156  23.994  1.00  0.00     0.047 C 
ATOM     22  C   UNL A   1      33.614  21.382  26.304  1.00  0.00     0.105 C 
ATOM     23  C   UNL A   1      32.968  20.951  23.759  1.00  0.00     0.072 C 
ATOM     24  S   UNL A   1      32.533  20.273  25.373  1.00  0.00    -0.159 SA
ENDBRANCH  13  15
ENDBRANCH   7   8
ENDBRANCH   6   7
ENDBRANCH   4   6
ENDBRANCH   1   2
BRANCH   1  25
ATOM     25  C   UNL A   1      31.345  31.690  26.678  1.00  0.00     0.042 C 
BRANCH  25  26
ATOM     26  C   UNL A   1      32.632  32.483  26.877  1.00  0.00     0.118 C 
BRANCH  26  27
ATOM     27  N   UNL A   1      32.408  33.833  27.374  1.00  0.00    -0.352 N 
ATOM     28  C   UNL A   1      33.049  34.507  28.385  1.00  0.00     0.251 C 
ATOM     29  H   UNL A   1      31.695  34.336  26.920  1.00  0.00     0.163 HD
ATOM     30  O   UNL A   1      32.626  35.602  28.751  1.00  0.00    -0.269 OA
BRANCH  28  31
ATOM     31  C   UNL A   1      34.230  33.917  29.054  1.00  0.00     0.039 A 
ATOM     32  C   UNL A   1      34.031  32.915  30.006  1.00  0.00     0.014 A 
ATOM     33  C   UNL A   1      35.525  34.350  28.759  1.00  0.00     0.014 A 
ATOM     34  C   UNL A   1      35.132  32.309  30.618  1.00  0.00     0.010 A 
ATOM     35  C   UNL A   1      36.622  33.683  29.300  1.00  0.00     0.010 A 
ATOM     36  C   UNL A   1      36.439  32.665  30.246  1.00  0.00    -0.014 A 
BRANCH  36  37
ATOM     37  C   UNL A   1      37.616  31.991  30.856  1.00  0.00     0.031 A 
ATOM     38  C   UNL A   1      38.075  32.365  32.240  1.00  0.00     0.074 A 
ATOM     39  C   UNL A   1      38.296  31.064  30.152  1.00  0.00     0.049 A 
ATOM     40  N   UNL A   1      39.083  31.897  32.935  1.00  0.00    -0.248 NA
ATOM     41  C   UNL A   1      37.320  33.426  32.926  1.00  0.00     0.031 C 
ATOM     42  C   UNL A   1      37.989  30.650  28.783  1.00  0.00     0.029 A 
ATOM     43  N   UNL A   1      39.387  30.303  30.492  1.00  0.00    -0.354 N 
ATOM     44  C   UNL A   1      39.084  32.609  34.127  1.00  0.00     0.074 A 
ATOM     45  C   UNL A   1      38.021  33.586  34.037  1.00  0.00     0.031 C 
ATOM     46  C   UNL A   1      38.847  29.687  28.411  1.00  0.00     0.029 A 
ATOM     47  C   UNL A   1      39.787  29.440  29.500  1.00  0.00     0.049 A 
ATOM     48  H   UNL A   1      39.840  30.369  31.364  1.00  0.00     0.167 HD
ATOM     49  C   UNL A   1      39.879  32.445  35.213  1.00  0.00     0.037 A 
ATOM     50  C   UNL A   1      40.798  28.550  29.474  1.00  0.00     0.037 A 
ATOM     51  C   UNL A   1      40.926  31.462  35.308  1.00  0.00     0.049 A 
ATOM     52  C   UNL A   1      41.668  28.390  30.691  1.00  0.00     0.074 A 
ATOM     53  C   UNL A   1      41.754  31.184  36.382  1.00  0.00     0.029 A 
ATOM     54  N   UNL A   1      41.293  30.596  34.288  1.00  0.00    -0.354 N 
ATOM     55  N   UNL A   1      41.612  29.018  31.840  1.00  0.00    -0.248 NA
ATOM     56  C   UNL A   1      42.734  27.382  30.611  1.00  0.00     0.031 C 
ATOM     57  C   UNL A   1      42.658  30.188  35.993  1.00  0.00     0.029 A 
ATOM     58  C   UNL A   1      42.349  29.798  34.701  1.00  0.00     0.049 A 
ATOM     59  H   UNL A   1      40.866  30.554  33.402  1.00  0.00     0.167 HD
ATOM     60  C   UNL A   1      42.607  28.458  32.630  1.00  0.00     0.074 A 
ATOM     61  C   UNL A   1      43.239  27.427  31.835  1.00  0.00     0.031 C 
ATOM     62  C   UNL A   1      42.965  28.770  33.901  1.00  0.00     0.037 A 
BRANCH  49  63
ATOM     63  C   UNL A   1      39.643  33.353  36.389  1.00  0.00     0.064 A 
ATOM     64  C   UNL A   1      40.271  34.604  36.493  1.00  0.00     0.173 A 
ATOM     65  C   UNL A   1      38.753  32.982  37.408  1.00  0.00     0.173 A 
ATOM     66  F   UNL A   1      41.141  35.004  35.553  1.00  0.00    -0.203 F 
ATOM     67  C   UNL A   1      40.042  35.433  37.589  1.00  0.00     0.198 A 
ATOM     68  C   UNL A   1      38.500  33.828  38.485  1.00  0.00     0.198 A 
ATOM     69  F   UNL A   1      38.121  31.799  37.358  1.00  0.00    -0.203 F 
ATOM     70  F   UNL A   1      40.699  36.597  37.694  1.00  0.00    -0.200 F 
ATOM     71  C   UNL A   1      39.152  35.048  38.579  1.00  0.00     0.200 A 
ATOM     72  F   UNL A   1      37.628  33.461  39.433  1.00  0.00    -0.200 F 
ATOM     73  F   UNL A   1      38.928  35.850  39.629  1.00  0.00    -0.200 F 
ENDBRANCH  49  63
BRANCH  50  74
ATOM     74  C   UNL A   1      41.023  27.715  28.263  1.00  0.00     0.064 A 
ATOM     75  C   UNL A   1      40.451  26.440  28.150  1.00  0.00     0.173 A 
ATOM     76  C   UNL A   1      41.828  28.163  27.206  1.00  0.00     0.173 A 
ATOM     77  F   UNL A   1      39.689  25.957  29.142  1.00  0.00    -0.203 F 
ATOM     78  C   UNL A   1      40.696  25.635  27.039  1.00  0.00     0.198 A 
ATOM     79  C   UNL A   1      42.047  27.371  26.081  1.00  0.00     0.198 A 
ATOM     80  F   UNL A   1      42.395  29.378  27.261  1.00  0.00    -0.203 F 
ATOM     81  F   UNL A   1      40.183  24.398  26.983  1.00  0.00    -0.200 F 
ATOM     82  C   UNL A   1      41.491  26.103  26.003  1.00  0.00     0.200 A 
ATOM     83  F   UNL A   1      42.800  27.834  25.075  1.00  0.00    -0.200 F 
ATOM     84  F   UNL A   1      41.727  25.330  24.934  1.00  0.00    -0.200 F 
ENDBRANCH  50  74
BRANCH  62  85
ATOM     85  C   UNL A   1      44.058  27.948  34.527  1.00  0.00     0.064 A 
ATOM     86  C   UNL A   1      45.403  28.349  34.494  1.00  0.00     0.173 A 
ATOM     87  C   UNL A   1      43.752  26.743  35.180  1.00  0.00     0.173 A 
ATOM     88  F   UNL A   1      45.753  29.486  33.875  1.00  0.00    -0.203 F 
ATOM     89  C   UNL A   1      46.401  27.553  35.051  1.00  0.00     0.198 A 
ATOM     90  C   UNL A   1      44.748  25.970  35.767  1.00  0.00     0.198 A 
ATOM     91  F   UNL A   1      42.481  26.316  35.252  1.00  0.00    -0.203 F 
ATOM     92  F   UNL A   1      47.685  27.924  34.944  1.00  0.00    -0.200 F 
ATOM     93  C   UNL A   1      46.073  26.367  35.691  1.00  0.00     0.200 A 
ATOM     94  F   UNL A   1      44.426  24.834  36.402  1.00  0.00    -0.200 F 
ATOM     95  F   UNL A   1      47.036  25.603  36.223  1.00  0.00    -0.200 F 
ENDBRANCH  62  85
ENDBRANCH  36  37
ENDBRANCH  28  31
ENDBRANCH  26  27
ENDBRANCH  25  26
ENDBRANCH   1  25
TORSDOF 13
ENDMDL
