MODEL 1
REMARK VINA RESULT:     -13.1      0.000      0.000
REMARK SMILES Cn1cc(Cl)c(C(=O)N2CCC[C@H](c3ccc(C(=O)NCCCNC(=O)c4ccc(-c5c6nc(c(-c7c(F)c(F)c(F)c(F)c7F)c7ccc([nH]7)c(-c7c(F)c(F)c(F)c(F)c7F)c7nc(c(-c8c(F)c(F)c(F)c(F)c8F)c8ccc5[nH]8)C=C7)C=C6)cc4)cc3)C2)n1
REMARK SMILES IDX 21 1 20 2 18 3 19 4 17 6 14 7 15 8 91 9 16 10 90 11 13 12
REMARK SMILES IDX 9 13 10 14 92 15 11 16 12 17 7 18 8 19 6 20 1 21 2 22 3 23
REMARK SMILES IDX 93 24 4 25 5 26 22 27 23 28 24 29 25 30 26 32 27 33 28 34
REMARK SMILES IDX 89 35 29 36 88 37 30 38 31 39 32 40 82 41 33 42 87 43 81 44
REMARK SMILES IDX 83 45 34 46 86 47 80 48 79 49 35 51 67 52 47 53 66 54 48 55
REMARK SMILES IDX 51 56 65 57 84 58 49 59 50 60 64 62 85 63 52 64 36 65 37 66
REMARK SMILES IDX 45 67 38 68 39 69 43 70 46 71 40 72 41 73 44 74 42 75 68 76
REMARK SMILES IDX 69 77 77 78 70 79 71 80 75 81 78 82 72 83 73 84 76 85 74 86
REMARK SMILES IDX 53 87 54 88 62 89 55 90 56 91 60 92 63 93 57 94 58 95 61 96
REMARK SMILES IDX 59 97
REMARK H PARENT 20 5 24 31 83 50 51 61
REMARK Flexibility Score: inf
ROOT
ATOM      1  C   UNL A   1      37.344  20.630  24.772  1.00  0.00     0.118 C 
ENDROOT
BRANCH   1   2
ATOM      2  N   UNL A   1      37.812  21.945  25.174  1.00  0.00    -0.352 N 
ATOM      3  C   UNL A   1      37.141  23.125  25.367  1.00  0.00     0.251 C 
ATOM      4  O   UNL A   1      37.756  24.081  25.839  1.00  0.00    -0.269 OA
ATOM      5  H   UNL A   1      38.783  21.999  25.335  1.00  0.00     0.163 HD
BRANCH   3   6
ATOM      6  C   UNL A   1      35.697  23.273  25.064  1.00  0.00     0.039 A 
ATOM      7  C   UNL A   1      32.916  23.557  24.627  1.00  0.00    -0.043 A 
ATOM      8  C   UNL A   1      33.412  23.203  25.889  1.00  0.00     0.005 A 
ATOM      9  C   UNL A   1      33.846  23.809  23.601  1.00  0.00     0.005 A 
ATOM     10  C   UNL A   1      34.788  23.067  26.105  1.00  0.00     0.014 A 
ATOM     11  C   UNL A   1      35.221  23.679  23.818  1.00  0.00     0.014 A 
BRANCH   7  12
ATOM     12  C   UNL A   1      31.428  23.675  24.306  1.00  0.00     0.039 C 
ATOM     13  N   UNL A   1      30.969  26.112  23.798  1.00  0.00    -0.337 N 
ATOM     14  C   UNL A   1      30.279  26.293  25.071  1.00  0.00     0.120 C 
ATOM     15  C   UNL A   1      31.024  24.746  23.262  1.00  0.00     0.128 C 
ATOM     16  C   UNL A   1      30.723  25.289  26.126  1.00  0.00     0.022 C 
ATOM     17  C   UNL A   1      30.603  23.864  25.595  1.00  0.00     0.012 C 
BRANCH  13  18
ATOM     18  C   UNL A   1      31.377  27.267  23.111  1.00  0.00     0.275 C 
ATOM     19  O   UNL A   1      32.483  27.330  22.573  1.00  0.00    -0.267 OA
BRANCH  18  20
ATOM     20  C   UNL A   1      30.478  28.428  23.077  1.00  0.00     0.168 A 
ATOM     21  C   UNL A   1      28.282  30.454  21.251  1.00  0.00     0.173 C 
ATOM     22  N   UNL A   1      29.117  29.847  22.262  1.00  0.00    -0.273 N 
ATOM     23  C   UNL A   1      29.550  30.425  23.416  1.00  0.00     0.129 A 
ATOM     24  N   UNL A   1      29.609  28.613  22.059  1.00  0.00    -0.166 NA
ATOM     25  C   UNL A   1      30.459  29.547  23.954  1.00  0.00     0.092 A 
ATOM     26  Cl  UNL A   1      31.418  29.808  25.327  1.00  0.00    -0.080 Cl
ENDBRANCH  18  20
ENDBRANCH  13  18
ENDBRANCH   7  12
ENDBRANCH   3   6
ENDBRANCH   1   2
BRANCH   1  27
ATOM     27  C   UNL A   1      38.428  19.563  24.930  1.00  0.00     0.042 C 
BRANCH  27  28
ATOM     28  C   UNL A   1      39.385  19.808  26.095  1.00  0.00     0.118 C 
BRANCH  28  29
ATOM     29  N   UNL A   1      40.516  18.896  26.092  1.00  0.00    -0.352 N 
ATOM     30  C   UNL A   1      41.861  19.171  26.129  1.00  0.00     0.251 C 
ATOM     31  H   UNL A   1      40.283  17.940  26.058  1.00  0.00     0.163 HD
ATOM     32  O   UNL A   1      42.669  18.263  25.958  1.00  0.00    -0.269 OA
BRANCH  30  33
ATOM     33  C   UNL A   1      42.355  20.551  26.353  1.00  0.00     0.039 A 
ATOM     34  C   UNL A   1      42.454  21.016  27.669  1.00  0.00     0.014 A 
ATOM     35  C   UNL A   1      42.655  21.408  25.289  1.00  0.00     0.014 A 
ATOM     36  C   UNL A   1      42.886  22.321  27.922  1.00  0.00     0.010 A 
ATOM     37  C   UNL A   1      43.128  22.698  25.544  1.00  0.00     0.010 A 
ATOM     38  C   UNL A   1      43.237  23.168  26.861  1.00  0.00    -0.014 A 
BRANCH  38  39
ATOM     39  C   UNL A   1      43.689  24.559  27.115  1.00  0.00     0.031 A 
ATOM     40  C   UNL A   1      42.721  25.585  27.632  1.00  0.00     0.074 A 
ATOM     41  C   UNL A   1      44.958  24.912  26.838  1.00  0.00     0.049 A 
ATOM     42  N   UNL A   1      42.911  26.860  27.862  1.00  0.00    -0.248 NA
ATOM     43  C   UNL A   1      41.355  25.121  27.910  1.00  0.00     0.031 C 
ATOM     44  C   UNL A   1      45.984  24.022  26.296  1.00  0.00     0.029 A 
ATOM     45  N   UNL A   1      45.596  26.122  26.964  1.00  0.00    -0.354 N 
ATOM     46  C   UNL A   1      41.684  27.355  28.282  1.00  0.00     0.074 A 
ATOM     47  C   UNL A   1      40.751  26.249  28.259  1.00  0.00     0.031 C 
ATOM     48  C   UNL A   1      47.126  24.713  26.144  1.00  0.00     0.029 A 
ATOM     49  C   UNL A   1      46.906  26.097  26.559  1.00  0.00     0.049 A 
ATOM     50  H   UNL A   1      45.155  26.930  27.312  1.00  0.00     0.167 HD
ATOM     51  C   UNL A   1      41.366  28.615  28.665  1.00  0.00     0.037 A 
ATOM     52  C   UNL A   1      47.827  27.078  26.524  1.00  0.00     0.037 A 
ATOM     53  C   UNL A   1      42.299  29.708  28.733  1.00  0.00     0.049 A 
ATOM     54  C   UNL A   1      47.463  28.456  27.002  1.00  0.00     0.074 A 
ATOM     55  C   UNL A   1      42.082  31.003  29.172  1.00  0.00     0.029 A 
ATOM     56  N   UNL A   1      43.631  29.631  28.356  1.00  0.00    -0.354 N 
ATOM     57  N   UNL A   1      46.311  28.899  27.445  1.00  0.00    -0.248 NA
ATOM     58  C   UNL A   1      48.529  29.468  26.982  1.00  0.00     0.031 C 
ATOM     59  C   UNL A   1      43.280  31.716  29.043  1.00  0.00     0.029 A 
ATOM     60  C   UNL A   1      44.247  30.857  28.545  1.00  0.00     0.049 A 
ATOM     61  H   UNL A   1      44.073  28.824  28.006  1.00  0.00     0.167 HD
ATOM     62  C   UNL A   1      46.516  30.232  27.770  1.00  0.00     0.074 A 
ATOM     63  C   UNL A   1      47.905  30.526  27.484  1.00  0.00     0.031 C 
ATOM     64  C   UNL A   1      45.630  31.130  28.261  1.00  0.00     0.037 A 
BRANCH  51  65
ATOM     65  C   UNL A   1      39.941  28.879  29.041  1.00  0.00     0.064 A 
ATOM     66  C   UNL A   1      38.997  29.287  28.088  1.00  0.00     0.173 A 
ATOM     67  C   UNL A   1      39.510  28.694  30.362  1.00  0.00     0.173 A 
ATOM     68  F   UNL A   1      39.368  29.489  26.815  1.00  0.00    -0.203 F 
ATOM     69  C   UNL A   1      37.673  29.520  28.450  1.00  0.00     0.198 A 
ATOM     70  C   UNL A   1      38.181  28.909  30.717  1.00  0.00     0.198 A 
ATOM     71  F   UNL A   1      40.377  28.302  31.308  1.00  0.00    -0.203 F 
ATOM     72  F   UNL A   1      36.793  29.943  27.532  1.00  0.00    -0.200 F 
ATOM     73  C   UNL A   1      37.266  29.327  29.762  1.00  0.00     0.200 A 
ATOM     74  F   UNL A   1      37.787  28.716  31.983  1.00  0.00    -0.200 F 
ATOM     75  F   UNL A   1      35.990  29.550  30.108  1.00  0.00    -0.200 F 
ENDBRANCH  51  65
BRANCH  52  76
ATOM     76  C   UNL A   1      49.197  26.781  26.044  1.00  0.00     0.064 A 
ATOM     77  C   UNL A   1      49.550  27.001  24.706  1.00  0.00     0.173 A 
ATOM     78  C   UNL A   1      50.180  26.288  26.912  1.00  0.00     0.173 A 
ATOM     79  F   UNL A   1      48.633  27.452  23.837  1.00  0.00    -0.203 F 
ATOM     80  C   UNL A   1      50.837  26.728  24.251  1.00  0.00     0.198 A 
ATOM     81  C   UNL A   1      51.472  26.033  26.459  1.00  0.00     0.198 A 
ATOM     82  F   UNL A   1      49.887  26.065  28.201  1.00  0.00    -0.203 F 
ATOM     83  F   UNL A   1      51.144  26.922  22.961  1.00  0.00    -0.200 F 
ATOM     84  C   UNL A   1      51.799  26.251  25.129  1.00  0.00     0.200 A 
ATOM     85  F   UNL A   1      52.402  25.578  27.310  1.00  0.00    -0.200 F 
ATOM     86  F   UNL A   1      53.039  25.994  24.691  1.00  0.00    -0.200 F 
ENDBRANCH  52  76
BRANCH  64  87
ATOM     87  C   UNL A   1      46.140  32.511  28.539  1.00  0.00     0.064 A 
ATOM     88  C   UNL A   1      46.076  33.520  27.567  1.00  0.00     0.173 A 
ATOM     89  C   UNL A   1      46.661  32.837  29.799  1.00  0.00     0.173 A 
ATOM     90  F   UNL A   1      45.599  33.247  26.343  1.00  0.00    -0.203 F 
ATOM     91  C   UNL A   1      46.530  34.806  27.845  1.00  0.00     0.198 A 
ATOM     92  C   UNL A   1      47.099  34.128  30.078  1.00  0.00     0.198 A 
ATOM     93  F   UNL A   1      46.741  31.903  30.760  1.00  0.00    -0.203 F 
ATOM     94  F   UNL A   1      46.487  35.749  26.894  1.00  0.00    -0.200 F 
ATOM     95  C   UNL A   1      47.036  35.110  29.101  1.00  0.00     0.200 A 
ATOM     96  F   UNL A   1      47.584  34.422  31.292  1.00  0.00    -0.200 F 
ATOM     97  F   UNL A   1      47.470  36.349  29.366  1.00  0.00    -0.200 F 
ENDBRANCH  64  87
ENDBRANCH  38  39
ENDBRANCH  30  33
ENDBRANCH  28  29
ENDBRANCH  27  28
ENDBRANCH   1  27
TORSDOF 13
ENDMDL
MODEL 2
REMARK VINA RESULT:     -13.1      0.123      1.912
REMARK SMILES Cn1cc(Cl)c(C(=O)N2CCC[C@H](c3ccc(C(=O)NCCCNC(=O)c4ccc(-c5c6nc(c(-c7c(F)c(F)c(F)c(F)c7F)c7ccc([nH]7)c(-c7c(F)c(F)c(F)c(F)c7F)c7nc(c(-c8c(F)c(F)c(F)c(F)c8F)c8ccc5[nH]8)C=C7)C=C6)cc4)cc3)C2)n1
REMARK SMILES IDX 21 1 20 2 18 3 19 4 17 6 14 7 15 8 91 9 16 10 90 11 13 12
REMARK SMILES IDX 9 13 10 14 92 15 11 16 12 17 7 18 8 19 6 20 1 21 2 22 3 23
REMARK SMILES IDX 93 24 4 25 5 26 22 27 23 28 24 29 25 30 26 32 27 33 28 34
REMARK SMILES IDX 89 35 29 36 88 37 30 38 31 39 32 40 82 41 33 42 87 43 81 44
REMARK SMILES IDX 83 45 34 46 86 47 80 48 79 49 35 51 67 52 47 53 66 54 48 55
REMARK SMILES IDX 51 56 65 57 84 58 49 59 50 60 64 62 85 63 52 64 36 65 37 66
REMARK SMILES IDX 45 67 38 68 39 69 43 70 46 71 40 72 41 73 44 74 42 75 68 76
REMARK SMILES IDX 69 77 77 78 70 79 71 80 75 81 78 82 72 83 73 84 76 85 74 86
REMARK SMILES IDX 53 87 54 88 62 89 55 90 56 91 60 92 63 93 57 94 58 95 61 96
REMARK SMILES IDX 59 97
REMARK H PARENT 20 5 24 31 83 50 51 61
REMARK Flexibility Score: inf
ROOT
ATOM      1  C   UNL A   1      37.298  20.550  24.657  1.00  0.00     0.118 C 
ENDROOT
BRANCH   1   2
ATOM      2  N   UNL A   1      37.778  21.858  25.072  1.00  0.00    -0.352 N 
ATOM      3  C   UNL A   1      37.114  23.037  25.292  1.00  0.00     0.251 C 
ATOM      4  O   UNL A   1      37.739  23.983  25.770  1.00  0.00    -0.269 OA
ATOM      5  H   UNL A   1      38.750  21.905  25.219  1.00  0.00     0.163 HD
BRANCH   3   6
ATOM      6  C   UNL A   1      35.666  23.195  25.012  1.00  0.00     0.039 A 
ATOM      7  C   UNL A   1      32.880  23.488  24.621  1.00  0.00    -0.043 A 
ATOM      8  C   UNL A   1      33.389  23.051  25.850  1.00  0.00     0.005 A 
ATOM      9  C   UNL A   1      33.798  23.817  23.607  1.00  0.00     0.005 A 
ATOM     10  C   UNL A   1      34.768  22.911  26.045  1.00  0.00     0.014 A 
ATOM     11  C   UNL A   1      35.176  23.683  23.803  1.00  0.00     0.014 A 
BRANCH   7  12
ATOM     12  C   UNL A   1      31.388  23.617  24.322  1.00  0.00     0.039 C 
ATOM     13  N   UNL A   1      30.947  26.049  23.776  1.00  0.00    -0.337 N 
ATOM     14  C   UNL A   1      30.280  26.261  25.057  1.00  0.00     0.120 C 
ATOM     15  C   UNL A   1      30.978  24.672  23.264  1.00  0.00     0.128 C 
ATOM     16  C   UNL A   1      30.730  25.272  26.122  1.00  0.00     0.022 C 
ATOM     17  C   UNL A   1      30.586  23.839  25.621  1.00  0.00     0.012 C 
BRANCH  13  18
ATOM     18  C   UNL A   1      31.357  27.186  23.061  1.00  0.00     0.275 C 
ATOM     19  O   UNL A   1      32.445  27.218  22.484  1.00  0.00    -0.267 OA
BRANCH  18  20
ATOM     20  C   UNL A   1      30.482  28.367  23.043  1.00  0.00     0.168 A 
ATOM     21  C   UNL A   1      28.318  30.455  21.251  1.00  0.00     0.173 C 
ATOM     22  N   UNL A   1      29.147  29.821  22.250  1.00  0.00    -0.273 N 
ATOM     23  C   UNL A   1      29.601  30.381  23.405  1.00  0.00     0.129 A 
ATOM     24  N   UNL A   1      29.610  28.579  22.033  1.00  0.00    -0.166 NA
ATOM     25  C   UNL A   1      30.495  29.479  23.929  1.00  0.00     0.092 A 
ATOM     26  Cl  UNL A   1      31.470  29.707  25.296  1.00  0.00    -0.080 Cl
ENDBRANCH  18  20
ENDBRANCH  13  18
ENDBRANCH   7  12
ENDBRANCH   3   6
ENDBRANCH   1   2
BRANCH   1  27
ATOM     27  C   UNL A   1      38.293  19.441  25.001  1.00  0.00     0.042 C 
BRANCH  27  28
ATOM     28  C   UNL A   1      39.343  19.837  26.036  1.00  0.00     0.118 C 
BRANCH  28  29
ATOM     29  N   UNL A   1      40.478  18.929  26.059  1.00  0.00    -0.352 N 
ATOM     30  C   UNL A   1      41.820  19.210  26.123  1.00  0.00     0.251 C 
ATOM     31  H   UNL A   1      40.250  17.972  26.022  1.00  0.00     0.163 HD
ATOM     32  O   UNL A   1      42.636  18.305  25.970  1.00  0.00    -0.269 OA
BRANCH  30  33
ATOM     33  C   UNL A   1      42.304  20.592  26.354  1.00  0.00     0.039 A 
ATOM     34  C   UNL A   1      42.405  21.050  27.673  1.00  0.00     0.014 A 
ATOM     35  C   UNL A   1      42.593  21.459  25.295  1.00  0.00     0.014 A 
ATOM     36  C   UNL A   1      42.827  22.357  27.932  1.00  0.00     0.010 A 
ATOM     37  C   UNL A   1      43.056  22.751  25.556  1.00  0.00     0.010 A 
ATOM     38  C   UNL A   1      43.167  23.213  26.876  1.00  0.00    -0.014 A 
BRANCH  38  39
ATOM     39  C   UNL A   1      43.609  24.606  27.137  1.00  0.00     0.031 A 
ATOM     40  C   UNL A   1      42.637  25.618  27.675  1.00  0.00     0.074 A 
ATOM     41  C   UNL A   1      44.871  24.974  26.849  1.00  0.00     0.049 A 
ATOM     42  N   UNL A   1      42.817  26.893  27.914  1.00  0.00    -0.248 NA
ATOM     43  C   UNL A   1      41.278  25.139  27.964  1.00  0.00     0.031 C 
ATOM     44  C   UNL A   1      45.899  24.099  26.288  1.00  0.00     0.029 A 
ATOM     45  N   UNL A   1      45.499  26.188  26.978  1.00  0.00    -0.354 N 
ATOM     46  C   UNL A   1      41.591  27.373  28.353  1.00  0.00     0.074 A 
ATOM     47  C   UNL A   1      40.668  26.257  28.329  1.00  0.00     0.031 C 
ATOM     48  C   UNL A   1      47.032  24.802  26.128  1.00  0.00     0.029 A 
ATOM     49  C   UNL A   1      46.804  26.180  26.558  1.00  0.00     0.049 A 
ATOM     50  H   UNL A   1      45.054  26.989  27.338  1.00  0.00     0.167 HD
ATOM     51  C   UNL A   1      41.266  28.626  28.750  1.00  0.00     0.037 A 
ATOM     52  C   UNL A   1      47.715  27.170  26.522  1.00  0.00     0.037 A 
ATOM     53  C   UNL A   1      42.189  29.727  28.817  1.00  0.00     0.049 A 
ATOM     54  C   UNL A   1      47.344  28.540  27.016  1.00  0.00     0.074 A 
ATOM     55  C   UNL A   1      41.964  31.016  29.270  1.00  0.00     0.029 A 
ATOM     56  N   UNL A   1      43.516  29.666  28.424  1.00  0.00    -0.354 N 
ATOM     57  N   UNL A   1      46.193  28.968  27.476  1.00  0.00    -0.248 NA
ATOM     58  C   UNL A   1      48.400  29.562  26.993  1.00  0.00     0.031 C 
ATOM     59  C   UNL A   1      43.154  31.742  29.134  1.00  0.00     0.029 A 
ATOM     60  C   UNL A   1      44.123  30.897  28.618  1.00  0.00     0.049 A 
ATOM     61  H   UNL A   1      43.962  28.867  28.062  1.00  0.00     0.167 HD
ATOM     62  C   UNL A   1      46.389  30.300  27.811  1.00  0.00     0.074 A 
ATOM     63  C   UNL A   1      47.772  30.610  27.512  1.00  0.00     0.031 C 
ATOM     64  C   UNL A   1      45.500  31.185  28.320  1.00  0.00     0.037 A 
BRANCH  51  65
ATOM     65  C   UNL A   1      39.843  28.873  29.145  1.00  0.00     0.064 A 
ATOM     66  C   UNL A   1      39.413  28.715  30.470  1.00  0.00     0.173 A 
ATOM     67  C   UNL A   1      38.907  29.302  28.193  1.00  0.00     0.173 A 
ATOM     68  F   UNL A   1      40.271  28.294  31.411  1.00  0.00    -0.203 F 
ATOM     69  C   UNL A   1      38.089  28.959  30.825  1.00  0.00     0.198 A 
ATOM     70  C   UNL A   1      37.588  29.563  28.555  1.00  0.00     0.198 A 
ATOM     71  F   UNL A   1      39.272  29.470  26.913  1.00  0.00    -0.203 F 
ATOM     72  F   UNL A   1      37.690  28.768  32.090  1.00  0.00    -0.200 F 
ATOM     73  C   UNL A   1      37.179  29.385  29.869  1.00  0.00     0.200 A 
ATOM     74  F   UNL A   1      36.711  29.982  27.632  1.00  0.00    -0.200 F 
ATOM     75  F   UNL A   1      35.905  29.621  30.213  1.00  0.00    -0.200 F 
ENDBRANCH  51  65
BRANCH  52  76
ATOM     76  C   UNL A   1      49.083  26.890  26.023  1.00  0.00     0.064 A 
ATOM     77  C   UNL A   1      50.067  26.381  26.881  1.00  0.00     0.173 A 
ATOM     78  C   UNL A   1      49.427  27.110  24.684  1.00  0.00     0.173 A 
ATOM     79  F   UNL A   1      49.785  26.176  28.177  1.00  0.00    -0.203 F 
ATOM     80  C   UNL A   1      51.351  26.110  26.417  1.00  0.00     0.198 A 
ATOM     81  C   UNL A   1      50.707  26.822  24.217  1.00  0.00     0.198 A 
ATOM     82  F   UNL A   1      48.516  27.594  23.827  1.00  0.00    -0.203 F 
ATOM     83  F   UNL A   1      52.283  25.648  27.262  1.00  0.00    -0.200 F 
ATOM     84  C   UNL A   1      51.669  26.325  25.084  1.00  0.00     0.200 A 
ATOM     85  F   UNL A   1      51.010  27.024  22.927  1.00  0.00    -0.200 F 
ATOM     86  F   UNL A   1      52.904  26.060  24.637  1.00  0.00    -0.200 F 
ENDBRANCH  52  76
BRANCH  64  87
ATOM     87  C   UNL A   1      46.001  32.568  28.604  1.00  0.00     0.064 A 
ATOM     88  C   UNL A   1      46.557  32.900  29.848  1.00  0.00     0.173 A 
ATOM     89  C   UNL A   1      45.958  33.558  27.612  1.00  0.00     0.173 A 
ATOM     90  F   UNL A   1      46.602  31.988  30.831  1.00  0.00    -0.203 F 
ATOM     91  C   UNL A   1      47.041  34.181  30.092  1.00  0.00     0.198 A 
ATOM     92  C   UNL A   1      46.458  34.834  27.854  1.00  0.00     0.198 A 
ATOM     93  F   UNL A   1      45.435  33.285  26.407  1.00  0.00    -0.203 F 
ATOM     94  F   UNL A   1      47.542  34.488  31.297  1.00  0.00    -0.200 F 
ATOM     95  C   UNL A   1      46.996  35.146  29.094  1.00  0.00     0.200 A 
ATOM     96  F   UNL A   1      46.417  35.763  26.890  1.00  0.00    -0.200 F 
ATOM     97  F   UNL A   1      47.465  36.378  29.332  1.00  0.00    -0.200 F 
ENDBRANCH  64  87
ENDBRANCH  38  39
ENDBRANCH  30  33
ENDBRANCH  28  29
ENDBRANCH  27  28
ENDBRANCH   1  27
TORSDOF 13
ENDMDL
MODEL 3
REMARK VINA RESULT:     -13.1      5.760     11.276
REMARK SMILES Cn1cc(Cl)c(C(=O)N2CCC[C@H](c3ccc(C(=O)NCCCNC(=O)c4ccc(-c5c6nc(c(-c7c(F)c(F)c(F)c(F)c7F)c7ccc([nH]7)c(-c7c(F)c(F)c(F)c(F)c7F)c7nc(c(-c8c(F)c(F)c(F)c(F)c8F)c8ccc5[nH]8)C=C7)C=C6)cc4)cc3)C2)n1
REMARK SMILES IDX 21 1 20 2 18 3 19 4 17 6 14 7 15 8 91 9 16 10 90 11 13 12
REMARK SMILES IDX 9 13 10 14 92 15 11 16 12 17 7 18 8 19 6 20 1 21 2 22 3 23
REMARK SMILES IDX 93 24 4 25 5 26 22 27 23 28 24 29 25 30 26 32 27 33 28 34
REMARK SMILES IDX 89 35 29 36 88 37 30 38 31 39 32 40 82 41 33 42 87 43 81 44
REMARK SMILES IDX 83 45 34 46 86 47 80 48 79 49 35 51 67 52 47 53 66 54 48 55
REMARK SMILES IDX 51 56 65 57 84 58 49 59 50 60 64 62 85 63 52 64 36 65 37 66
REMARK SMILES IDX 45 67 38 68 39 69 43 70 46 71 40 72 41 73 44 74 42 75 68 76
REMARK SMILES IDX 69 77 77 78 70 79 71 80 75 81 78 82 72 83 73 84 76 85 74 86
REMARK SMILES IDX 53 87 54 88 62 89 55 90 56 91 60 92 63 93 57 94 58 95 61 96
REMARK SMILES IDX 59 97
REMARK H PARENT 20 5 24 31 83 50 51 61
REMARK Flexibility Score: inf
ROOT
ATOM      1  C   UNL A   1      31.605  30.876  26.470  1.00  0.00     0.118 C 
ENDROOT
BRANCH   1   2
ATOM      2  N   UNL A   1      32.814  30.318  27.053  1.00  0.00    -0.352 N 
ATOM      3  C   UNL A   1      33.462  29.130  26.829  1.00  0.00     0.251 C 
ATOM      4  O   UNL A   1      34.554  28.947  27.364  1.00  0.00    -0.269 OA
ATOM      5  H   UNL A   1      33.242  30.894  27.728  1.00  0.00     0.163 HD
BRANCH   3   6
ATOM      6  C   UNL A   1      32.910  28.084  25.935  1.00  0.00     0.039 A 
ATOM      7  C   UNL A   1      31.773  26.044  24.339  1.00  0.00    -0.043 A 
ATOM      8  C   UNL A   1      31.626  26.030  25.732  1.00  0.00     0.005 A 
ATOM      9  C   UNL A   1      32.463  27.125  23.760  1.00  0.00     0.005 A 
ATOM     10  C   UNL A   1      32.185  27.042  26.521  1.00  0.00     0.014 A 
ATOM     11  C   UNL A   1      33.016  28.140  24.547  1.00  0.00     0.014 A 
BRANCH   7  12
ATOM     12  C   UNL A   1      31.233  24.949  23.422  1.00  0.00     0.039 C 
ATOM     13  N   UNL A   1      32.254  22.764  24.192  1.00  0.00    -0.337 N 
ATOM     14  C   UNL A   1      33.138  22.717  23.031  1.00  0.00     0.120 C 
ATOM     15  C   UNL A   1      31.021  23.551  24.055  1.00  0.00     0.128 C 
ATOM     16  C   UNL A   1      33.409  24.096  22.446  1.00  0.00     0.022 C 
ATOM     17  C   UNL A   1      32.100  24.822  22.152  1.00  0.00     0.012 C 
BRANCH  13  18
ATOM     18  C   UNL A   1      32.564  21.929  25.278  1.00  0.00     0.275 C 
ATOM     19  O   UNL A   1      32.479  22.336  26.438  1.00  0.00    -0.267 OA
BRANCH  18  20
ATOM     20  C   UNL A   1      33.035  20.564  25.012  1.00  0.00     0.168 A 
ATOM     21  C   UNL A   1      32.451  17.116  25.175  1.00  0.00     0.173 C 
ATOM     22  N   UNL A   1      33.000  18.436  24.971  1.00  0.00    -0.273 N 
ATOM     23  C   UNL A   1      34.307  18.752  24.761  1.00  0.00     0.129 A 
ATOM     24  N   UNL A   1      32.194  19.508  25.063  1.00  0.00    -0.166 NA
ATOM     25  C   UNL A   1      34.373  20.123  24.815  1.00  0.00     0.092 A 
ATOM     26  Cl  UNL A   1      35.780  21.066  24.753  1.00  0.00    -0.080 Cl
ENDBRANCH  18  20
ENDBRANCH  13  18
ENDBRANCH   7  12
ENDBRANCH   3   6
ENDBRANCH   1   2
BRANCH   1  27
ATOM     27  C   UNL A   1      31.429  32.353  26.824  1.00  0.00     0.042 C 
BRANCH  27  28
ATOM     28  C   UNL A   1      32.730  33.081  27.151  1.00  0.00     0.118 C 
BRANCH  28  29
ATOM     29  N   UNL A   1      32.508  34.415  27.682  1.00  0.00    -0.352 N 
ATOM     30  C   UNL A   1      33.084  35.032  28.765  1.00  0.00     0.251 C 
ATOM     31  H   UNL A   1      31.847  34.956  27.193  1.00  0.00     0.163 HD
ATOM     32  O   UNL A   1      32.646  36.112  29.150  1.00  0.00    -0.269 OA
BRANCH  30  33
ATOM     33  C   UNL A   1      34.216  34.407  29.491  1.00  0.00     0.039 A 
ATOM     34  C   UNL A   1      35.508  34.571  28.976  1.00  0.00     0.014 A 
ATOM     35  C   UNL A   1      34.016  33.611  30.624  1.00  0.00     0.014 A 
ATOM     36  C   UNL A   1      36.598  33.971  29.614  1.00  0.00     0.010 A 
ATOM     37  C   UNL A   1      35.110  33.048  31.284  1.00  0.00     0.010 A 
ATOM     38  C   UNL A   1      36.409  33.215  30.779  1.00  0.00    -0.014 A 
BRANCH  38  39
ATOM     39  C   UNL A   1      37.556  32.566  31.460  1.00  0.00     0.031 A 
ATOM     40  C   UNL A   1      38.284  31.430  30.799  1.00  0.00     0.074 A 
ATOM     41  C   UNL A   1      37.918  32.968  32.693  1.00  0.00     0.049 A 
ATOM     42  N   UNL A   1      39.270  30.700  31.256  1.00  0.00    -0.248 NA
ATOM     43  C   UNL A   1      37.829  31.051  29.454  1.00  0.00     0.031 C 
ATOM     44  C   UNL A   1      37.271  34.032  33.460  1.00  0.00     0.029 A 
ATOM     45  N   UNL A   1      38.914  32.516  33.523  1.00  0.00    -0.354 N 
ATOM     46  C   UNL A   1      39.534  29.760  30.269  1.00  0.00     0.074 A 
ATOM     47  C   UNL A   1      38.593  29.999  29.196  1.00  0.00     0.031 C 
ATOM     48  C   UNL A   1      37.891  34.157  34.644  1.00  0.00     0.029 A 
ATOM     49  C   UNL A   1      38.966  33.171  34.727  1.00  0.00     0.049 A 
ATOM     50  H   UNL A   1      39.533  31.791  33.277  1.00  0.00     0.167 HD
ATOM     51  C   UNL A   1      40.483  28.794  30.254  1.00  0.00     0.037 A 
ATOM     52  C   UNL A   1      39.785  32.995  35.781  1.00  0.00     0.037 A 
ATOM     53  C   UNL A   1      41.450  28.582  31.298  1.00  0.00     0.049 A 
ATOM     54  C   UNL A   1      40.863  31.950  35.718  1.00  0.00     0.074 A 
ATOM     55  C   UNL A   1      42.491  27.669  31.339  1.00  0.00     0.029 A 
ATOM     56  N   UNL A   1      41.497  29.296  32.484  1.00  0.00    -0.354 N 
ATOM     57  N   UNL A   1      41.134  31.100  34.758  1.00  0.00    -0.248 NA
ATOM     58  C   UNL A   1      41.753  31.844  36.884  1.00  0.00     0.031 C 
ATOM     59  C   UNL A   1      43.158  27.820  32.560  1.00  0.00     0.029 A 
ATOM     60  C   UNL A   1      42.545  28.841  33.268  1.00  0.00     0.049 A 
ATOM     61  H   UNL A   1      40.878  30.020  32.732  1.00  0.00     0.167 HD
ATOM     62  C   UNL A   1      42.231  30.371  35.193  1.00  0.00     0.074 A 
ATOM     63  C   UNL A   1      42.584  30.884  36.501  1.00  0.00     0.031 C 
ATOM     64  C   UNL A   1      42.886  29.367  34.563  1.00  0.00     0.037 A 
BRANCH  51  65
ATOM     65  C   UNL A   1      40.521  27.888  29.063  1.00  0.00     0.064 A 
ATOM     66  C   UNL A   1      39.727  26.734  28.997  1.00  0.00     0.173 A 
ATOM     67  C   UNL A   1      41.336  28.193  27.964  1.00  0.00     0.173 A 
ATOM     68  F   UNL A   1      38.941  26.396  30.030  1.00  0.00    -0.203 F 
ATOM     69  C   UNL A   1      39.764  25.905  27.878  1.00  0.00     0.198 A 
ATOM     70  C   UNL A   1      41.357  27.373  26.840  1.00  0.00     0.198 A 
ATOM     71  F   UNL A   1      42.111  29.288  27.980  1.00  0.00    -0.203 F 
ATOM     72  F   UNL A   1      39.024  24.788  27.849  1.00  0.00    -0.200 F 
ATOM     73  C   UNL A   1      40.576  26.227  26.800  1.00  0.00     0.200 A 
ATOM     74  F   UNL A   1      42.136  27.687  25.796  1.00  0.00    -0.200 F 
ATOM     75  F   UNL A   1      40.609  25.429  25.724  1.00  0.00    -0.200 F 
ENDBRANCH  51  65
BRANCH  52  76
ATOM     76  C   UNL A   1      39.635  33.857  36.977  1.00  0.00     0.064 A 
ATOM     77  C   UNL A   1      40.271  35.103  37.047  1.00  0.00     0.173 A 
ATOM     78  C   UNL A   1      38.843  33.461  38.063  1.00  0.00     0.173 A 
ATOM     79  F   UNL A   1      41.055  35.511  36.038  1.00  0.00    -0.203 F 
ATOM     80  C   UNL A   1      40.129  35.919  38.166  1.00  0.00     0.198 A 
ATOM     81  C   UNL A   1      38.687  34.286  39.174  1.00  0.00     0.198 A 
ATOM     82  F   UNL A   1      38.214  32.277  38.038  1.00  0.00    -0.203 F 
ATOM     83  F   UNL A   1      40.768  37.096  38.221  1.00  0.00    -0.200 F 
ATOM     84  C   UNL A   1      39.332  35.512  39.226  1.00  0.00     0.200 A 
ATOM     85  F   UNL A   1      37.911  33.894  40.194  1.00  0.00    -0.200 F 
ATOM     86  F   UNL A   1      39.190  36.301  40.301  1.00  0.00    -0.200 F 
ENDBRANCH  52  76
BRANCH  64  87
ATOM     87  C   UNL A   1      44.062  28.768  35.272  1.00  0.00     0.064 A 
ATOM     88  C   UNL A   1      45.356  29.276  35.091  1.00  0.00     0.173 A 
ATOM     89  C   UNL A   1      43.887  27.703  36.167  1.00  0.00     0.173 A 
ATOM     90  F   UNL A   1      45.571  30.284  34.231  1.00  0.00    -0.203 F 
ATOM     91  C   UNL A   1      46.438  28.728  35.774  1.00  0.00     0.198 A 
ATOM     92  C   UNL A   1      44.968  27.168  36.861  1.00  0.00     0.198 A 
ATOM     93  F   UNL A   1      42.665  27.186  36.372  1.00  0.00    -0.203 F 
ATOM     94  F   UNL A   1      47.671  29.208  35.566  1.00  0.00    -0.200 F 
ATOM     95  C   UNL A   1      46.242  27.678  36.661  1.00  0.00     0.200 A 
ATOM     96  F   UNL A   1      44.779  26.158  37.719  1.00  0.00    -0.200 F 
ATOM     97  F   UNL A   1      47.285  27.154  37.319  1.00  0.00    -0.200 F 
ENDBRANCH  64  87
ENDBRANCH  38  39
ENDBRANCH  30  33
ENDBRANCH  28  29
ENDBRANCH  27  28
ENDBRANCH   1  27
TORSDOF 13
ENDMDL
