MODEL 1
REMARK VINA RESULT:     -11.5      0.000      0.000
REMARK SMILES CC[NH2+][C@]1(C(=O)NCCCNC(=O)c2ccc(-c3c4nc(c(-c5c(F)c(F)c(F)c(F)c5F)c5ccc([nH]5)c(-c5c(F)c(F)c(F)c(F)c5F)c5nc(c(-c6c(F)c(F)c(F)c(F)c6F)c6ccc3[nH]6)C=C5)C=C4)cc2)CC[C@@H]([N@@H+]2CCO[C@@H](CC)C2)C1
REMARK SMILES IDX 9 1 8 2 7 3 5 4 6 5 4 7 77 8 88 9 78 10 79 11 3 12 2 15 1 16
REMARK SMILES IDX 80 17 81 18 87 19 82 21 84 22 83 23 85 24 86 25 10 26 11 27
REMARK SMILES IDX 12 28 13 30 14 31 15 32 76 33 16 34 75 35 17 36 18 37 19 38
REMARK SMILES IDX 69 39 20 40 74 41 68 42 70 43 21 44 73 45 67 46 66 47 22 49
REMARK SMILES IDX 54 50 34 51 53 52 35 53 38 54 52 55 71 56 36 57 37 58 51 60
REMARK SMILES IDX 72 61 39 62 23 63 24 64 32 65 25 66 26 67 30 68 33 69 27 70
REMARK SMILES IDX 28 71 31 72 29 73 55 74 56 75 64 76 57 77 58 78 62 79 65 80
REMARK SMILES IDX 59 81 60 82 63 83 61 84 40 85 41 86 49 87 42 88 43 89 47 90
REMARK SMILES IDX 50 91 44 92 45 93 48 94 46 95
REMARK H PARENT 7 6 3 13 3 14 80 20 11 29 70 48 38 59
REMARK Flexibility Score: inf
ROOT
ATOM      1  C   UNL A   1      31.267  32.302  26.488  1.00  0.00     0.042 C 
ENDROOT
BRANCH   1   2
ATOM      2  C   UNL A   1      31.258  30.778  26.354  1.00  0.00     0.118 C 
BRANCH   2   3
ATOM      3  N   UNL A   1      31.953  30.343  25.156  1.00  0.00    -0.351 N 
ATOM      4  C   UNL A   1      32.717  29.247  24.883  1.00  0.00     0.281 C 
ATOM      5  O   UNL A   1      33.260  29.239  23.772  1.00  0.00    -0.268 OA
ATOM      6  H   UNL A   1      31.854  30.958  24.393  1.00  0.00     0.163 HD
BRANCH   4   7
ATOM      7  C   UNL A   1      32.823  28.018  25.843  1.00  0.00     0.181 C 
ATOM      8  C   UNL A   1      31.438  27.335  25.927  1.00  0.00     0.085 C 
ATOM      9  C   UNL A   1      33.686  26.855  25.319  1.00  0.00     0.144 C 
ATOM     10  C   UNL A   1      31.730  25.946  26.466  1.00  0.00     0.072 C 
ATOM     11  C   UNL A   1      33.028  25.530  25.756  1.00  0.00     0.191 C 
BRANCH   7  12
ATOM     12  N   UNL A   1      33.392  28.453  27.147  1.00  0.00    -0.334 N 
ATOM     13  H   UNL A   1      32.800  29.194  27.521  1.00  0.00     0.347 HD
ATOM     14  H   UNL A   1      33.419  27.625  27.741  1.00  0.00     0.347 HD
BRANCH  12  15
ATOM     15  C   UNL A   1      34.764  28.958  27.075  1.00  0.00     0.257 C 
ATOM     16  C   UNL A   1      34.853  30.314  27.760  1.00  0.00     0.071 C 
ENDBRANCH  12  15
ENDBRANCH   7  12
BRANCH  11  17
ATOM     17  N   UNL A   1      32.875  24.488  24.729  1.00  0.00    -0.328 N 
ATOM     18  C   UNL A   1      31.888  23.438  25.034  1.00  0.00     0.291 C 
ATOM     19  C   UNL A   1      34.083  23.881  24.151  1.00  0.00     0.294 C 
ATOM     20  H   UNL A   1      32.506  25.089  23.991  1.00  0.00     0.348 HD
ATOM     21  C   UNL A   1      32.448  22.172  25.713  1.00  0.00     0.222 C 
ATOM     22  C   UNL A   1      34.650  22.696  24.959  1.00  0.00     0.173 C 
ATOM     23  O   UNL A   1      33.645  21.676  25.102  1.00  0.00    -0.367 OA
BRANCH  22  24
ATOM     24  C   UNL A   1      35.867  22.048  24.288  1.00  0.00     0.034 C 
ATOM     25  C   UNL A   1      36.588  22.963  23.308  1.00  0.00     0.007 C 
ENDBRANCH  22  24
ENDBRANCH  11  17
ENDBRANCH   4   7
ENDBRANCH   2   3
ENDBRANCH   1   2
BRANCH   1  26
ATOM     26  C   UNL A   1      32.565  32.877  27.053  1.00  0.00     0.118 C 
BRANCH  26  27
ATOM     27  N   UNL A   1      32.392  34.224  27.578  1.00  0.00    -0.352 N 
ATOM     28  C   UNL A   1      33.013  34.864  28.617  1.00  0.00     0.251 C 
ATOM     29  H   UNL A   1      31.716  34.764  27.107  1.00  0.00     0.163 HD
ATOM     30  O   UNL A   1      32.560  35.942  29.011  1.00  0.00    -0.269 OA
BRANCH  28  31
ATOM     31  C   UNL A   1      34.204  34.292  29.283  1.00  0.00     0.039 A 
ATOM     32  C   UNL A   1      34.017  33.493  30.418  1.00  0.00     0.014 A 
ATOM     33  C   UNL A   1      35.501  34.583  28.851  1.00  0.00     0.014 A 
ATOM     34  C   UNL A   1      35.119  32.948  31.083  1.00  0.00     0.010 A 
ATOM     35  C   UNL A   1      36.597  33.983  29.474  1.00  0.00     0.010 A 
ATOM     36  C   UNL A   1      36.417  33.164  30.599  1.00  0.00    -0.014 A 
BRANCH  36  37
ATOM     37  C   UNL A   1      37.597  32.546  31.258  1.00  0.00     0.031 A 
ATOM     38  C   UNL A   1      38.346  31.428  30.585  1.00  0.00     0.074 A 
ATOM     39  C   UNL A   1      37.957  32.949  32.493  1.00  0.00     0.049 A 
ATOM     40  N   UNL A   1      39.347  30.711  31.034  1.00  0.00    -0.248 NA
ATOM     41  C   UNL A   1      37.895  31.049  29.237  1.00  0.00     0.031 C 
ATOM     42  C   UNL A   1      37.288  33.994  33.267  1.00  0.00     0.029 A 
ATOM     43  N   UNL A   1      38.966  32.518  33.317  1.00  0.00    -0.354 N 
ATOM     44  C   UNL A   1      39.631  29.789  30.035  1.00  0.00     0.074 A 
ATOM     45  C   UNL A   1      38.668  30.005  28.976  1.00  0.00     0.031 C 
ATOM     46  C   UNL A   1      37.913  34.134  34.447  1.00  0.00     0.029 A 
ATOM     47  C   UNL A   1      39.002  33.166  34.528  1.00  0.00     0.049 A 
ATOM     48  H   UNL A   1      39.604  31.811  33.065  1.00  0.00     0.167 HD
ATOM     49  C   UNL A   1      40.616  28.860  29.997  1.00  0.00     0.037 A 
ATOM     50  C   UNL A   1      39.813  32.991  35.588  1.00  0.00     0.037 A 
ATOM     51  C   UNL A   1      41.589  28.665  31.041  1.00  0.00     0.049 A 
ATOM     52  C   UNL A   1      40.898  31.950  35.521  1.00  0.00     0.074 A 
ATOM     53  C   UNL A   1      42.662  27.791  31.069  1.00  0.00     0.029 A 
ATOM     54  N   UNL A   1      41.604  29.356  32.244  1.00  0.00    -0.354 N 
ATOM     55  N   UNL A   1      41.196  31.127  34.546  1.00  0.00    -0.248 NA
ATOM     56  C   UNL A   1      41.762  31.818  36.702  1.00  0.00     0.031 C 
ATOM     57  C   UNL A   1      43.301  27.922  32.307  1.00  0.00     0.029 A 
ATOM     58  C   UNL A   1      42.656  28.912  33.030  1.00  0.00     0.049 A 
ATOM     59  H   UNL A   1      40.963  30.057  32.502  1.00  0.00     0.167 HD
ATOM     60  C   UNL A   1      42.296  30.401  34.982  1.00  0.00     0.074 A 
ATOM     61  C   UNL A   1      42.622  30.890  36.304  1.00  0.00     0.031 C 
ATOM     62  C   UNL A   1      42.973  29.416  34.342  1.00  0.00     0.037 A 
BRANCH  49  63
ATOM     63  C   UNL A   1      40.696  27.981  28.782  1.00  0.00     0.064 A 
ATOM     64  C   UNL A   1      39.958  26.791  28.685  1.00  0.00     0.173 A 
ATOM     65  C   UNL A   1      41.486  28.352  27.684  1.00  0.00     0.173 A 
ATOM     66  F   UNL A   1      39.194  26.386  29.710  1.00  0.00    -0.203 F 
ATOM     67  C   UNL A   1      40.034  25.990  27.548  1.00  0.00     0.198 A 
ATOM     68  C   UNL A   1      41.536  27.565  26.536  1.00  0.00     0.198 A 
ATOM     69  F   UNL A   1      42.205  29.484  27.719  1.00  0.00    -0.203 F 
ATOM     70  F   UNL A   1      39.359  24.834  27.499  1.00  0.00    -0.200 F 
ATOM     71  C   UNL A   1      40.817  26.381  26.473  1.00  0.00     0.200 A 
ATOM     72  F   UNL A   1      42.283  27.951  25.492  1.00  0.00    -0.200 F 
ATOM     73  F   UNL A   1      40.884  25.613  25.377  1.00  0.00    -0.200 F 
ENDBRANCH  49  63
BRANCH  50  74
ATOM     74  C   UNL A   1      39.647  33.839  36.796  1.00  0.00     0.064 A 
ATOM     75  C   UNL A   1      38.875  33.401  37.882  1.00  0.00     0.173 A 
ATOM     76  C   UNL A   1      40.253  35.100  36.892  1.00  0.00     0.173 A 
ATOM     77  F   UNL A   1      38.260  32.211  37.827  1.00  0.00    -0.203 F 
ATOM     78  C   UNL A   1      38.700  34.201  39.008  1.00  0.00     0.198 A 
ATOM     79  C   UNL A   1      40.099  35.887  38.032  1.00  0.00     0.198 A 
ATOM     80  F   UNL A   1      41.005  35.564  35.883  1.00  0.00    -0.203 F 
ATOM     81  F   UNL A   1      37.920  33.776  40.013  1.00  0.00    -0.200 F 
ATOM     82  C   UNL A   1      39.316  35.441  39.086  1.00  0.00     0.200 A 
ATOM     83  F   UNL A   1      40.707  37.078  38.109  1.00  0.00    -0.200 F 
ATOM     84  F   UNL A   1      39.150  36.207  40.172  1.00  0.00    -0.200 F 
ENDBRANCH  50  74
BRANCH  62  85
ATOM     85  C   UNL A   1      44.160  28.828  35.049  1.00  0.00     0.064 A 
ATOM     86  C   UNL A   1      44.042  27.696  35.869  1.00  0.00     0.173 A 
ATOM     87  C   UNL A   1      45.437  29.382  34.873  1.00  0.00     0.173 A 
ATOM     88  F   UNL A   1      42.840  27.138  36.082  1.00  0.00    -0.203 F 
ATOM     89  C   UNL A   1      45.156  27.155  36.505  1.00  0.00     0.198 A 
ATOM     90  C   UNL A   1      46.552  28.821  35.487  1.00  0.00     0.198 A 
ATOM     91  F   UNL A   1      45.604  30.462  34.094  1.00  0.00    -0.203 F 
ATOM     92  F   UNL A   1      45.014  26.101  37.321  1.00  0.00    -0.200 F 
ATOM     93  C   UNL A   1      46.411  27.712  36.308  1.00  0.00     0.200 A 
ATOM     94  F   UNL A   1      47.766  29.354  35.285  1.00  0.00    -0.200 F 
ATOM     95  F   UNL A   1      47.482  27.186  36.915  1.00  0.00    -0.200 F 
ENDBRANCH  62  85
ENDBRANCH  36  37
ENDBRANCH  28  31
ENDBRANCH  26  27
ENDBRANCH   1  26
TORSDOF 14
ENDMDL
MODEL 2
REMARK VINA RESULT:     -11.4      5.367     11.134
REMARK SMILES CC[NH2+][C@]1(C(=O)NCCCNC(=O)c2ccc(-c3c4nc(c(-c5c(F)c(F)c(F)c(F)c5F)c5ccc([nH]5)c(-c5c(F)c(F)c(F)c(F)c5F)c5nc(c(-c6c(F)c(F)c(F)c(F)c6F)c6ccc3[nH]6)C=C5)C=C4)cc2)CC[C@@H]([N@@H+]2CCO[C@@H](CC)C2)C1
REMARK SMILES IDX 9 1 8 2 7 3 5 4 6 5 4 7 77 8 88 9 78 10 79 11 3 12 2 15 1 16
REMARK SMILES IDX 80 17 81 18 87 19 82 21 84 22 83 23 85 24 86 25 10 26 11 27
REMARK SMILES IDX 12 28 13 30 14 31 15 32 76 33 16 34 75 35 17 36 18 37 19 38
REMARK SMILES IDX 69 39 20 40 74 41 68 42 70 43 21 44 73 45 67 46 66 47 22 49
REMARK SMILES IDX 54 50 34 51 53 52 35 53 38 54 52 55 71 56 36 57 37 58 51 60
REMARK SMILES IDX 72 61 39 62 23 63 24 64 32 65 25 66 26 67 30 68 33 69 27 70
REMARK SMILES IDX 28 71 31 72 29 73 55 74 56 75 64 76 57 77 58 78 62 79 65 80
REMARK SMILES IDX 59 81 60 82 63 83 61 84 40 85 41 86 49 87 42 88 43 89 47 90
REMARK SMILES IDX 50 91 44 92 45 93 48 94 46 95
REMARK H PARENT 7 6 3 13 3 14 80 20 11 29 70 48 38 59
REMARK Flexibility Score: inf
ROOT
ATOM      1  C   UNL A   1      37.976  19.319  25.001  1.00  0.00     0.042 C 
ENDROOT
BRANCH   1   2
ATOM      2  C   UNL A   1      36.972  20.370  24.525  1.00  0.00     0.118 C 
BRANCH   2   3
ATOM      3  N   UNL A   1      36.009  20.700  25.561  1.00  0.00    -0.351 N 
ATOM      4  C   UNL A   1      35.395  21.867  25.909  1.00  0.00     0.281 C 
ATOM      5  O   UNL A   1      34.701  21.820  26.931  1.00  0.00    -0.268 OA
ATOM      6  H   UNL A   1      35.752  19.932  26.122  1.00  0.00     0.163 HD
BRANCH   4   7
ATOM      7  C   UNL A   1      35.454  23.158  25.030  1.00  0.00     0.181 C 
ATOM      8  C   UNL A   1      34.702  22.889  23.706  1.00  0.00     0.085 C 
ATOM      9  C   UNL A   1      34.653  24.354  25.577  1.00  0.00     0.144 C 
ATOM     10  C   UNL A   1      34.406  24.270  23.149  1.00  0.00     0.072 C 
ATOM     11  C   UNL A   1      34.024  25.101  24.383  1.00  0.00     0.191 C 
BRANCH   7  12
ATOM     12  N   UNL A   1      36.868  23.592  24.877  1.00  0.00    -0.334 N 
ATOM     13  H   UNL A   1      37.403  22.808  24.502  1.00  0.00     0.347 HD
ATOM     14  H   UNL A   1      36.857  24.401  24.256  1.00  0.00     0.347 HD
BRANCH  12  15
ATOM     15  C   UNL A   1      37.509  24.029  26.118  1.00  0.00     0.257 C 
ATOM     16  C   UNL A   1      38.825  23.287  26.309  1.00  0.00     0.071 C 
ENDBRANCH  12  15
ENDBRANCH   7  12
BRANCH  11  17
ATOM     17  N   UNL A   1      32.600  25.452  24.488  1.00  0.00    -0.328 N 
ATOM     18  C   UNL A   1      31.937  25.793  23.217  1.00  0.00     0.291 C 
ATOM     19  C   UNL A   1      32.178  26.393  25.536  1.00  0.00     0.294 C 
ATOM     20  H   UNL A   1      32.266  24.541  24.804  1.00  0.00     0.348 HD
ATOM     21  C   UNL A   1      31.903  27.293  22.863  1.00  0.00     0.222 C 
ATOM     22  C   UNL A   1      32.291  27.879  25.142  1.00  0.00     0.173 C 
ATOM     23  O   UNL A   1      31.516  28.133  23.956  1.00  0.00    -0.367 OA
BRANCH  22  24
ATOM     24  C   UNL A   1      31.778  28.824  26.235  1.00  0.00     0.034 C 
ATOM     25  C   UNL A   1      31.767  28.207  27.626  1.00  0.00     0.007 C 
ENDBRANCH  22  24
ENDBRANCH  11  17
ENDBRANCH   4   7
ENDBRANCH   2   3
ENDBRANCH   1   2
BRANCH   1  26
ATOM     26  C   UNL A   1      39.087  19.870  25.895  1.00  0.00     0.118 C 
BRANCH  26  27
ATOM     27  N   UNL A   1      40.227  18.968  25.979  1.00  0.00    -0.352 N 
ATOM     28  C   UNL A   1      41.565  19.230  26.116  1.00  0.00     0.251 C 
ATOM     29  H   UNL A   1      39.999  18.011  25.931  1.00  0.00     0.163 HD
ATOM     30  O   UNL A   1      42.372  18.310  25.962  1.00  0.00    -0.269 OA
BRANCH  28  31
ATOM     31  C   UNL A   1      42.064  20.587  26.432  1.00  0.00     0.039 A 
ATOM     32  C   UNL A   1      42.422  21.431  25.375  1.00  0.00     0.014 A 
ATOM     33  C   UNL A   1      42.248  21.015  27.750  1.00  0.00     0.014 A 
ATOM     34  C   UNL A   1      42.912  22.714  25.635  1.00  0.00     0.010 A 
ATOM     35  C   UNL A   1      42.673  22.320  28.008  1.00  0.00     0.010 A 
ATOM     36  C   UNL A   1      43.014  23.180  26.954  1.00  0.00    -0.014 A 
BRANCH  36  37
ATOM     37  C   UNL A   1      43.478  24.561  27.249  1.00  0.00     0.031 A 
ATOM     38  C   UNL A   1      42.523  25.583  27.804  1.00  0.00     0.074 A 
ATOM     39  C   UNL A   1      44.745  24.914  26.957  1.00  0.00     0.049 A 
ATOM     40  N   UNL A   1      42.719  26.854  28.051  1.00  0.00    -0.248 NA
ATOM     41  C   UNL A   1      41.159  25.118  28.101  1.00  0.00     0.031 C 
ATOM     42  C   UNL A   1      45.755  24.028  26.378  1.00  0.00     0.029 A 
ATOM     43  N   UNL A   1      45.395  26.115  27.095  1.00  0.00    -0.354 N 
ATOM     44  C   UNL A   1      41.504  27.343  28.511  1.00  0.00     0.074 A 
ATOM     45  C   UNL A   1      40.563  26.244  28.467  1.00  0.00     0.031 C 
ATOM     46  C   UNL A   1      46.901  24.711  26.225  1.00  0.00     0.029 A 
ATOM     47  C   UNL A   1      46.697  26.089  26.658  1.00  0.00     0.049 A 
ATOM     48  H   UNL A   1      44.968  26.919  27.471  1.00  0.00     0.167 HD
ATOM     49  C   UNL A   1      41.204  28.590  28.949  1.00  0.00     0.037 A 
ATOM     50  C   UNL A   1      47.619  27.069  26.604  1.00  0.00     0.037 A 
ATOM     51  C   UNL A   1      42.149  29.675  29.017  1.00  0.00     0.049 A 
ATOM     52  C   UNL A   1      47.260  28.446  27.093  1.00  0.00     0.074 A 
ATOM     53  C   UNL A   1      41.958  30.958  29.501  1.00  0.00     0.029 A 
ATOM     54  N   UNL A   1      43.465  29.603  28.584  1.00  0.00    -0.354 N 
ATOM     55  N   UNL A   1      46.126  28.879  27.585  1.00  0.00    -0.248 NA
ATOM     56  C   UNL A   1      48.313  29.468  27.024  1.00  0.00     0.031 C 
ATOM     57  C   UNL A   1      43.146  31.675  29.322  1.00  0.00     0.029 A 
ATOM     58  C   UNL A   1      44.091  30.825  28.771  1.00  0.00     0.049 A 
ATOM     59  H   UNL A   1      43.892  28.803  28.200  1.00  0.00     0.167 HD
ATOM     60  C   UNL A   1      46.335  30.213  27.909  1.00  0.00     0.074 A 
ATOM     61  C   UNL A   1      47.711  30.514  27.572  1.00  0.00     0.031 C 
ATOM     62  C   UNL A   1      45.465  31.107  28.438  1.00  0.00     0.037 A 
BRANCH  49  63
ATOM     63  C   UNL A   1      39.794  28.851  29.394  1.00  0.00     0.064 A 
ATOM     64  C   UNL A   1      39.392  28.647  30.723  1.00  0.00     0.173 A 
ATOM     65  C   UNL A   1      38.842  29.349  28.491  1.00  0.00     0.173 A 
ATOM     66  F   UNL A   1      40.260  28.164  31.624  1.00  0.00    -0.203 F 
ATOM     67  C   UNL A   1      38.082  28.902  31.123  1.00  0.00     0.198 A 
ATOM     68  C   UNL A   1      37.542  29.632  28.902  1.00  0.00     0.198 A 
ATOM     69  F   UNL A   1      39.175  29.570  27.210  1.00  0.00    -0.203 F 
ATOM     70  F   UNL A   1      37.710  28.653  32.386  1.00  0.00    -0.200 F 
ATOM     71  C   UNL A   1      37.161  29.401  30.215  1.00  0.00     0.200 A 
ATOM     72  F   UNL A   1      36.656  30.127  28.026  1.00  0.00    -0.200 F 
ATOM     73  F   UNL A   1      35.904  29.652  30.604  1.00  0.00    -0.200 F 
ENDBRANCH  49  63
BRANCH  50  74
ATOM     74  C   UNL A   1      48.981  26.776  26.087  1.00  0.00     0.064 A 
ATOM     75  C   UNL A   1      49.303  27.001  24.741  1.00  0.00     0.173 A 
ATOM     76  C   UNL A   1      49.986  26.267  26.922  1.00  0.00     0.173 A 
ATOM     77  F   UNL A   1      48.369  27.468  23.899  1.00  0.00    -0.203 F 
ATOM     78  C   UNL A   1      50.573  26.710  24.247  1.00  0.00     0.198 A 
ATOM     79  C   UNL A   1      51.263  26.003  26.432  1.00  0.00     0.198 A 
ATOM     80  F   UNL A   1      49.730  26.038  28.219  1.00  0.00    -0.203 F 
ATOM     81  F   UNL A   1      50.840  26.894  22.946  1.00  0.00    -0.200 F 
ATOM     82  C   UNL A   1      51.554  26.217  25.093  1.00  0.00     0.200 A 
ATOM     83  F   UNL A   1      52.212  25.539  27.257  1.00  0.00    -0.200 F 
ATOM     84  F   UNL A   1      52.775  25.941  24.618  1.00  0.00    -0.200 F 
ENDBRANCH  50  74
BRANCH  62  85
ATOM     85  C   UNL A   1      45.984  32.487  28.722  1.00  0.00     0.064 A 
ATOM     86  C   UNL A   1      45.883  33.520  27.778  1.00  0.00     0.173 A 
ATOM     87  C   UNL A   1      46.556  32.787  29.967  1.00  0.00     0.173 A 
ATOM     88  F   UNL A   1      45.359  33.279  26.567  1.00  0.00    -0.203 F 
ATOM     89  C   UNL A   1      46.357  34.797  28.063  1.00  0.00     0.198 A 
ATOM     90  C   UNL A   1      47.002  34.073  30.259  1.00  0.00     0.198 A 
ATOM     91  F   UNL A   1      46.671  31.836  30.906  1.00  0.00    -0.203 F 
ATOM     92  F   UNL A   1      46.293  35.757  27.131  1.00  0.00    -0.200 F 
ATOM     93  C   UNL A   1      46.909  35.075  29.305  1.00  0.00     0.200 A 
ATOM     94  F   UNL A   1      47.523  34.342  31.465  1.00  0.00    -0.200 F 
ATOM     95  F   UNL A   1      47.358  36.307  29.580  1.00  0.00    -0.200 F 
ENDBRANCH  62  85
ENDBRANCH  36  37
ENDBRANCH  28  31
ENDBRANCH  26  27
ENDBRANCH   1  26
TORSDOF 14
ENDMDL
MODEL 3
REMARK VINA RESULT:     -11.4      1.097      1.736
REMARK SMILES CC[NH2+][C@]1(C(=O)NCCCNC(=O)c2ccc(-c3c4nc(c(-c5c(F)c(F)c(F)c(F)c5F)c5ccc([nH]5)c(-c5c(F)c(F)c(F)c(F)c5F)c5nc(c(-c6c(F)c(F)c(F)c(F)c6F)c6ccc3[nH]6)C=C5)C=C4)cc2)CC[C@@H]([N@@H+]2CCO[C@@H](CC)C2)C1
REMARK SMILES IDX 9 1 8 2 7 3 5 4 6 5 4 7 77 8 88 9 78 10 79 11 3 12 2 15 1 16
REMARK SMILES IDX 80 17 81 18 87 19 82 21 84 22 83 23 85 24 86 25 10 26 11 27
REMARK SMILES IDX 12 28 13 30 14 31 15 32 76 33 16 34 75 35 17 36 18 37 19 38
REMARK SMILES IDX 69 39 20 40 74 41 68 42 70 43 21 44 73 45 67 46 66 47 22 49
REMARK SMILES IDX 54 50 34 51 53 52 35 53 38 54 52 55 71 56 36 57 37 58 51 60
REMARK SMILES IDX 72 61 39 62 23 63 24 64 32 65 25 66 26 67 30 68 33 69 27 70
REMARK SMILES IDX 28 71 31 72 29 73 55 74 56 75 64 76 57 77 58 78 62 79 65 80
REMARK SMILES IDX 59 81 60 82 63 83 61 84 40 85 41 86 49 87 42 88 43 89 47 90
REMARK SMILES IDX 50 91 44 92 45 93 48 94 46 95
REMARK H PARENT 7 6 3 13 3 14 80 20 11 29 70 48 38 59
REMARK Flexibility Score: inf
ROOT
ATOM      1  C   UNL A   1      31.293  32.291  26.501  1.00  0.00     0.042 C 
ENDROOT
BRANCH   1   2
ATOM      2  C   UNL A   1      31.441  30.931  25.816  1.00  0.00     0.118 C 
BRANCH   2   3
ATOM      3  N   UNL A   1      31.402  29.841  26.774  1.00  0.00    -0.351 N 
ATOM      4  C   UNL A   1      31.973  28.602  26.782  1.00  0.00     0.281 C 
ATOM      5  O   UNL A   1      31.640  27.868  27.719  1.00  0.00    -0.268 OA
ATOM      6  H   UNL A   1      30.858  30.032  27.572  1.00  0.00     0.163 HD
BRANCH   4   7
ATOM      7  C   UNL A   1      33.064  28.158  25.755  1.00  0.00     0.181 C 
ATOM      8  C   UNL A   1      33.349  26.651  25.956  1.00  0.00     0.085 C 
ATOM      9  C   UNL A   1      32.615  28.172  24.282  1.00  0.00     0.144 C 
ATOM     10  C   UNL A   1      34.028  26.217  24.668  1.00  0.00     0.072 C 
ATOM     11  C   UNL A   1      33.265  26.970  23.567  1.00  0.00     0.191 C 
BRANCH   7  12
ATOM     12  N   UNL A   1      34.252  29.046  25.874  1.00  0.00    -0.334 N 
ATOM     13  H   UNL A   1      34.940  28.753  25.180  1.00  0.00     0.347 HD
ATOM     14  H   UNL A   1      33.917  29.998  25.729  1.00  0.00     0.347 HD
BRANCH  12  15
ATOM     15  C   UNL A   1      34.895  29.029  27.189  1.00  0.00     0.257 C 
ATOM     16  C   UNL A   1      34.968  30.443  27.748  1.00  0.00     0.071 C 
ENDBRANCH  12  15
ENDBRANCH   7  12
BRANCH  11  17
ATOM     17  N   UNL A   1      32.390  26.136  22.728  1.00  0.00    -0.328 N 
ATOM     18  C   UNL A   1      30.969  26.120  23.116  1.00  0.00     0.291 C 
ATOM     19  C   UNL A   1      32.827  24.775  22.384  1.00  0.00     0.294 C 
ATOM     20  H   UNL A   1      32.494  26.671  21.865  1.00  0.00     0.348 HD
ATOM     21  C   UNL A   1      30.547  24.973  24.055  1.00  0.00     0.222 C 
ATOM     22  C   UNL A   1      32.471  23.706  23.436  1.00  0.00     0.173 C 
ATOM     23  O   UNL A   1      31.049  23.691  23.659  1.00  0.00    -0.367 OA
BRANCH  22  24
ATOM     24  C   UNL A   1      32.882  22.292  23.009  1.00  0.00     0.034 C 
ATOM     25  C   UNL A   1      32.858  21.276  24.142  1.00  0.00     0.007 C 
ENDBRANCH  22  24
ENDBRANCH  11  17
ENDBRANCH   4   7
ENDBRANCH   2   3
ENDBRANCH   1   2
BRANCH   1  26
ATOM     26  C   UNL A   1      32.565  32.795  27.180  1.00  0.00     0.118 C 
BRANCH  26  27
ATOM     27  N   UNL A   1      32.445  34.176  27.626  1.00  0.00    -0.352 N 
ATOM     28  C   UNL A   1      33.087  34.849  28.632  1.00  0.00     0.251 C 
ATOM     29  H   UNL A   1      31.794  34.715  27.121  1.00  0.00     0.163 HD
ATOM     30  O   UNL A   1      32.677  35.965  28.960  1.00  0.00    -0.269 OA
BRANCH  28  31
ATOM     31  C   UNL A   1      34.251  34.268  29.338  1.00  0.00     0.039 A 
ATOM     32  C   UNL A   1      34.027  33.554  30.520  1.00  0.00     0.014 A 
ATOM     33  C   UNL A   1      35.560  34.473  28.892  1.00  0.00     0.014 A 
ATOM     34  C   UNL A   1      35.103  33.004  31.223  1.00  0.00     0.010 A 
ATOM     35  C   UNL A   1      36.627  33.867  29.556  1.00  0.00     0.010 A 
ATOM     36  C   UNL A   1      36.411  33.131  30.731  1.00  0.00    -0.014 A 
BRANCH  36  37
ATOM     37  C   UNL A   1      37.561  32.504  31.432  1.00  0.00     0.031 A 
ATOM     38  C   UNL A   1      38.293  31.346  30.811  1.00  0.00     0.074 A 
ATOM     39  C   UNL A   1      37.909  32.937  32.660  1.00  0.00     0.049 A 
ATOM     40  N   UNL A   1      39.266  30.619  31.302  1.00  0.00    -0.248 NA
ATOM     41  C   UNL A   1      37.858  30.935  29.466  1.00  0.00     0.031 C 
ATOM     42  C   UNL A   1      37.252  34.024  33.387  1.00  0.00     0.029 A 
ATOM     43  N   UNL A   1      38.890  32.508  33.517  1.00  0.00    -0.354 N 
ATOM     44  C   UNL A   1      39.545  29.658  30.339  1.00  0.00     0.074 A 
ATOM     45  C   UNL A   1      38.609  29.864  29.254  1.00  0.00     0.031 C 
ATOM     46  C   UNL A   1      37.859  34.187  34.574  1.00  0.00     0.029 A 
ATOM     47  C   UNL A   1      38.920  33.194  34.707  1.00  0.00     0.049 A 
ATOM     48  H   UNL A   1      39.514  31.778  33.300  1.00  0.00     0.167 HD
ATOM     49  C   UNL A   1      40.506  28.704  30.349  1.00  0.00     0.037 A 
ATOM     50  C   UNL A   1      39.707  33.033  35.788  1.00  0.00     0.037 A 
ATOM     51  C   UNL A   1      41.454  28.518  31.418  1.00  0.00     0.049 A 
ATOM     52  C   UNL A   1      40.764  31.963  35.776  1.00  0.00     0.074 A 
ATOM     53  C   UNL A   1      42.503  27.618  31.496  1.00  0.00     0.029 A 
ATOM     54  N   UNL A   1      41.464  29.247  32.598  1.00  0.00    -0.354 N 
ATOM     55  N   UNL A   1      41.059  31.101  34.834  1.00  0.00    -0.248 NA
ATOM     56  C   UNL A   1      41.603  31.847  36.977  1.00  0.00     0.031 C 
ATOM     57  C   UNL A   1      43.122  27.773  32.741  1.00  0.00     0.029 A 
ATOM     58  C   UNL A   1      42.489  28.802  33.419  1.00  0.00     0.049 A 
ATOM     59  H   UNL A   1      40.837  29.972  32.821  1.00  0.00     0.167 HD
ATOM     60  C   UNL A   1      42.131  30.362  35.314  1.00  0.00     0.074 A 
ATOM     61  C   UNL A   1      42.445  30.886  36.627  1.00  0.00     0.031 C 
ATOM     62  C   UNL A   1      42.795  29.340  34.720  1.00  0.00     0.037 A 
BRANCH  49  63
ATOM     63  C   UNL A   1      40.586  27.783  29.165  1.00  0.00     0.064 A 
ATOM     64  C   UNL A   1      39.759  26.655  29.053  1.00  0.00     0.173 A 
ATOM     65  C   UNL A   1      41.470  28.055  28.109  1.00  0.00     0.173 A 
ATOM     66  F   UNL A   1      38.902  26.346  30.038  1.00  0.00    -0.203 F 
ATOM     67  C   UNL A   1      39.837  25.816  27.944  1.00  0.00     0.198 A 
ATOM     68  C   UNL A   1      41.523  27.230  26.988  1.00  0.00     0.198 A 
ATOM     69  F   UNL A   1      42.277  29.125  28.161  1.00  0.00    -0.203 F 
ATOM     70  F   UNL A   1      39.071  24.718  27.883  1.00  0.00    -0.200 F 
ATOM     71  C   UNL A   1      40.713  26.108  26.910  1.00  0.00     0.200 A 
ATOM     72  F   UNL A   1      42.361  27.521  25.983  1.00  0.00    -0.200 F 
ATOM     73  F   UNL A   1      40.782  25.303  25.841  1.00  0.00    -0.200 F 
ENDBRANCH  49  63
BRANCH  50  74
ATOM     74  C   UNL A   1      39.540  33.924  36.965  1.00  0.00     0.064 A 
ATOM     75  C   UNL A   1      38.761  33.529  38.062  1.00  0.00     0.173 A 
ATOM     76  C   UNL A   1      40.152  35.185  37.020  1.00  0.00     0.173 A 
ATOM     77  F   UNL A   1      38.140  32.341  38.046  1.00  0.00    -0.203 F 
ATOM     78  C   UNL A   1      38.585  34.369  39.159  1.00  0.00     0.198 A 
ATOM     79  C   UNL A   1      39.997  36.012  38.130  1.00  0.00     0.198 A 
ATOM     80  F   UNL A   1      40.911  35.608  35.998  1.00  0.00    -0.203 F 
ATOM     81  F   UNL A   1      37.799  33.983  40.174  1.00  0.00    -0.200 F 
ATOM     82  C   UNL A   1      39.208  35.607  39.196  1.00  0.00     0.200 A 
ATOM     83  F   UNL A   1      40.612  37.202  38.168  1.00  0.00    -0.200 F 
ATOM     84  F   UNL A   1      39.041  36.412  40.254  1.00  0.00    -0.200 F 
ENDBRANCH  50  74
BRANCH  62  85
ATOM     85  C   UNL A   1      43.953  28.745  35.469  1.00  0.00     0.064 A 
ATOM     86  C   UNL A   1      45.261  29.222  35.301  1.00  0.00     0.173 A 
ATOM     87  C   UNL A   1      43.743  27.710  36.392  1.00  0.00     0.173 A 
ATOM     88  F   UNL A   1      45.516  30.199  34.417  1.00  0.00    -0.203 F 
ATOM     89  C   UNL A   1      46.320  28.667  36.014  1.00  0.00     0.198 A 
ATOM     90  C   UNL A   1      44.800  27.179  37.125  1.00  0.00     0.198 A 
ATOM     91  F   UNL A   1      42.509  27.223  36.594  1.00  0.00    -0.203 F 
ATOM     92  F   UNL A   1      47.569  29.106  35.805  1.00  0.00    -0.200 F 
ATOM     93  C   UNL A   1      46.089  27.652  36.931  1.00  0.00     0.200 A 
ATOM     94  F   UNL A   1      44.572  26.207  38.020  1.00  0.00    -0.200 F 
ATOM     95  F   UNL A   1      47.108  27.126  37.622  1.00  0.00    -0.200 F 
ENDBRANCH  62  85
ENDBRANCH  36  37
ENDBRANCH  28  31
ENDBRANCH  26  27
ENDBRANCH   1  26
TORSDOF 14
ENDMDL
