MODEL 1
REMARK VINA RESULT:     -11.5      0.000      0.000
REMARK SMILES CC(C)[C@@H](NC(=O)[C@@](C)([NH3+])C(F)(F)F)C(=O)NCCCNC(=O)c1ccc(-c2c3nc(c(-c4c(F)c(F)c(F)c(F)c4F)c4ccc([nH]4)c(-c4c(F)c(F)c(F)c(F)c4F)c4nc(c(-c5c(F)c(F)c(F)c(F)c5F)c5ccc2[nH]5)C=C4)C=C3)cc1
REMARK SMILES IDX 18 1 17 2 15 3 16 4 4 6 2 7 1 8 3 9 5 10 6 11 7 13 8 14 9 15
REMARK SMILES IDX 10 16 11 20 12 21 13 22 14 23 19 24 20 25 21 26 22 27 23 29
REMARK SMILES IDX 24 30 25 31 86 32 26 33 85 34 27 35 28 36 29 37 79 38 30 39
REMARK SMILES IDX 84 40 78 41 80 42 31 43 83 44 77 45 76 46 32 48 64 49 44 50
REMARK SMILES IDX 63 51 45 52 48 53 62 54 81 55 46 56 47 57 61 59 82 60 49 61
REMARK SMILES IDX 33 62 34 63 42 64 35 65 36 66 40 67 43 68 37 69 38 70 41 71
REMARK SMILES IDX 39 72 65 73 66 74 74 75 67 76 68 77 72 78 75 79 69 80 70 81
REMARK SMILES IDX 73 82 71 83 50 84 51 85 59 86 52 87 53 88 57 89 60 90 54 91
REMARK SMILES IDX 55 92 58 93 56 94
REMARK H PARENT 17 5 5 12 10 17 10 18 10 19 21 28 80 47 48 58
REMARK Flexibility Score: inf
ROOT
ATOM      1  C   UNL A   1      37.102  21.993  25.473  1.00  0.00     0.117 C 
ENDROOT
BRANCH   1   2
ATOM      2  N   UNL A   1      36.341  22.394  24.299  1.00  0.00    -0.354 N 
ATOM      3  C   UNL A   1      35.004  22.253  24.073  1.00  0.00     0.242 C 
ATOM      4  O   UNL A   1      34.498  22.912  23.162  1.00  0.00    -0.273 OA
ATOM      5  H   UNL A   1      36.857  22.818  23.577  1.00  0.00     0.163 HD
BRANCH   3   6
ATOM      6  C   UNL A   1      34.181  21.233  24.867  1.00  0.00     0.174 C 
BRANCH   6   7
ATOM      7  C   UNL A   1      33.411  22.013  25.989  1.00  0.00     0.015 C 
ATOM      8  C   UNL A   1      31.900  22.069  25.754  1.00  0.00     0.010 C 
ATOM      9  C   UNL A   1      33.671  21.454  27.397  1.00  0.00     0.010 C 
ENDBRANCH   6   7
BRANCH   6  10
ATOM     10  N   UNL A   1      33.267  20.494  23.979  1.00  0.00    -0.338 N 
ATOM     11  C   UNL A   1      32.978  19.168  23.815  1.00  0.00     0.291 C 
ATOM     12  H   UNL A   1      32.755  21.080  23.376  1.00  0.00     0.164 HD
ATOM     13  O   UNL A   1      31.944  18.975  23.161  1.00  0.00    -0.267 OA
BRANCH  11  14
ATOM     14  C   UNL A   1      33.889  17.984  24.244  1.00  0.00     0.267 C 
ATOM     15  C   UNL A   1      34.027  16.928  23.133  1.00  0.00     0.100 C 
BRANCH  14  16
ATOM     16  N   UNL A   1      35.255  18.472  24.626  1.00  0.00    -0.337 N 
ATOM     17  H   UNL A   1      35.342  19.461  24.389  1.00  0.00     0.345 HD
ATOM     18  H   UNL A   1      35.961  17.937  24.119  1.00  0.00     0.345 HD
ATOM     19  H   UNL A   1      35.392  18.350  25.629  1.00  0.00     0.345 HD
ENDBRANCH  14  16
BRANCH  14  20
ATOM     20  C   UNL A   1      33.137  17.258  25.409  1.00  0.00     0.453 C 
ATOM     21  F   UNL A   1      33.928  16.433  26.126  1.00  0.00    -0.164 F 
ATOM     22  F   UNL A   1      32.526  18.118  26.257  1.00  0.00    -0.164 F 
ATOM     23  F   UNL A   1      32.144  16.480  24.886  1.00  0.00    -0.164 F 
ENDBRANCH  14  20
ENDBRANCH  11  14
ENDBRANCH   6  10
ENDBRANCH   3   6
ENDBRANCH   1   2
BRANCH   1  24
ATOM     24  C   UNL A   1      38.068  20.870  25.166  1.00  0.00     0.042 C 
BRANCH  24  25
ATOM     25  C   UNL A   1      39.248  20.830  26.122  1.00  0.00     0.118 C 
BRANCH  25  26
ATOM     26  N   UNL A   1      40.031  19.605  26.038  1.00  0.00    -0.352 N 
ATOM     27  C   UNL A   1      41.398  19.452  26.125  1.00  0.00     0.251 C 
ATOM     28  H   UNL A   1      39.516  18.777  25.901  1.00  0.00     0.163 HD
ATOM     29  O   UNL A   1      41.926  18.366  25.952  1.00  0.00    -0.269 OA
BRANCH  27  30
ATOM     30  C   UNL A   1      42.217  20.655  26.376  1.00  0.00     0.039 A 
ATOM     31  C   UNL A   1      42.591  21.453  25.294  1.00  0.00     0.014 A 
ATOM     32  C   UNL A   1      42.481  21.058  27.686  1.00  0.00     0.014 A 
ATOM     33  C   UNL A   1      43.138  22.713  25.535  1.00  0.00     0.010 A 
ATOM     34  C   UNL A   1      42.909  22.356  27.921  1.00  0.00     0.010 A 
ATOM     35  C   UNL A   1      43.242  23.199  26.848  1.00  0.00    -0.014 A 
BRANCH  35  36
ATOM     36  C   UNL A   1      43.704  24.581  27.132  1.00  0.00     0.031 A 
ATOM     37  C   UNL A   1      42.723  25.602  27.637  1.00  0.00     0.074 A 
ATOM     38  C   UNL A   1      44.976  24.939  26.858  1.00  0.00     0.049 A 
ATOM     39  N   UNL A   1      42.892  26.884  27.844  1.00  0.00    -0.248 NA
ATOM     40  C   UNL A   1      41.355  25.130  27.901  1.00  0.00     0.031 C 
ATOM     41  C   UNL A   1      46.006  24.060  26.301  1.00  0.00     0.029 A 
ATOM     42  N   UNL A   1      45.617  26.144  27.006  1.00  0.00    -0.354 N 
ATOM     43  C   UNL A   1      41.650  27.367  28.229  1.00  0.00     0.074 A 
ATOM     44  C   UNL A   1      40.721  26.261  28.163  1.00  0.00     0.031 C 
ATOM     45  C   UNL A   1      47.157  24.743  26.189  1.00  0.00     0.029 A 
ATOM     46  C   UNL A   1      46.938  26.117  26.629  1.00  0.00     0.049 A 
ATOM     47  H   UNL A   1      45.171  26.951  27.349  1.00  0.00     0.167 HD
ATOM     48  C   UNL A   1      41.317  28.614  28.638  1.00  0.00     0.037 A 
ATOM     49  C   UNL A   1      47.866  27.093  26.642  1.00  0.00     0.037 A 
ATOM     50  C   UNL A   1      42.255  29.697  28.758  1.00  0.00     0.049 A 
ATOM     51  C   UNL A   1      47.481  28.461  27.135  1.00  0.00     0.074 A 
ATOM     52  C   UNL A   1      42.038  30.978  29.232  1.00  0.00     0.029 A 
ATOM     53  N   UNL A   1      43.595  29.617  28.410  1.00  0.00    -0.354 N 
ATOM     54  N   UNL A   1      46.318  28.890  27.560  1.00  0.00    -0.248 NA
ATOM     55  C   UNL A   1      48.539  29.481  27.154  1.00  0.00     0.031 C 
ATOM     56  C   UNL A   1      43.241  31.685  29.141  1.00  0.00     0.029 A 
ATOM     57  C   UNL A   1      44.216  30.832  28.649  1.00  0.00     0.049 A 
ATOM     58  H   UNL A   1      44.039  28.817  28.048  1.00  0.00     0.167 HD
ATOM     59  C   UNL A   1      46.509  30.216  27.925  1.00  0.00     0.074 A 
ATOM     60  C   UNL A   1      47.905  30.518  27.683  1.00  0.00     0.031 C 
ATOM     61  C   UNL A   1      45.611  31.104  28.415  1.00  0.00     0.037 A 
BRANCH  48  62
ATOM     62  C   UNL A   1      39.883  28.862  29.002  1.00  0.00     0.064 A 
ATOM     63  C   UNL A   1      39.414  28.670  30.311  1.00  0.00     0.173 A 
ATOM     64  C   UNL A   1      38.969  29.307  28.036  1.00  0.00     0.173 A 
ATOM     65  F   UNL A   1      40.244  28.228  31.267  1.00  0.00    -0.203 F 
ATOM     66  C   UNL A   1      38.075  28.882  30.631  1.00  0.00     0.198 A 
ATOM     67  C   UNL A   1      37.638  29.550  28.367  1.00  0.00     0.198 A 
ATOM     68  F   UNL A   1      39.366  29.508  26.770  1.00  0.00    -0.203 F 
ATOM     69  F   UNL A   1      37.640  28.635  31.874  1.00  0.00    -0.200 F 
ATOM     70  C   UNL A   1      37.191  29.328  29.662  1.00  0.00     0.200 A 
ATOM     71  F   UNL A   1      36.786  29.990  27.431  1.00  0.00    -0.200 F 
ATOM     72  F   UNL A   1      35.904  29.534  29.972  1.00  0.00    -0.200 F 
ENDBRANCH  48  62
BRANCH  49  73
ATOM     73  C   UNL A   1      49.259  26.804  26.212  1.00  0.00     0.064 A 
ATOM     74  C   UNL A   1      49.655  27.006  24.882  1.00  0.00     0.173 A 
ATOM     75  C   UNL A   1      50.219  26.316  27.110  1.00  0.00     0.173 A 
ATOM     76  F   UNL A   1      48.767  27.453  23.981  1.00  0.00    -0.203 F 
ATOM     77  C   UNL A   1      50.950  26.709  24.460  1.00  0.00     0.198 A 
ATOM     78  C   UNL A   1      51.522  26.044  26.693  1.00  0.00     0.198 A 
ATOM     79  F   UNL A   1      49.895  26.111  28.394  1.00  0.00    -0.203 F 
ATOM     80  F   UNL A   1      51.286  26.868  23.173  1.00  0.00    -0.200 F 
ATOM     81  C   UNL A   1      51.883  26.233  25.368  1.00  0.00     0.200 A 
ATOM     82  F   UNL A   1      52.425  25.596  27.576  1.00  0.00    -0.200 F 
ATOM     83  F   UNL A   1      53.129  25.949  24.963  1.00  0.00    -0.200 F 
ENDBRANCH  49  73
BRANCH  61  84
ATOM     84  C   UNL A   1      46.116  32.474  28.758  1.00  0.00     0.064 A 
ATOM     85  C   UNL A   1      46.645  32.767  30.022  1.00  0.00     0.173 A 
ATOM     86  C   UNL A   1      46.115  33.490  27.791  1.00  0.00     0.173 A 
ATOM     87  F   UNL A   1      46.653  31.831  30.983  1.00  0.00    -0.203 F 
ATOM     88  C   UNL A   1      47.135  34.037  30.313  1.00  0.00     0.198 A 
ATOM     89  C   UNL A   1      46.631  34.750  28.076  1.00  0.00     0.198 A 
ATOM     90  F   UNL A   1      45.626  33.256  26.563  1.00  0.00    -0.203 F 
ATOM     91  F   UNL A   1      47.597  34.309  31.542  1.00  0.00    -0.200 F 
ATOM     92  C   UNL A   1      47.135  35.024  29.339  1.00  0.00     0.200 A 
ATOM     93  F   UNL A   1      46.643  35.699  27.130  1.00  0.00    -0.200 F 
ATOM     94  F   UNL A   1      47.616  36.243  29.619  1.00  0.00    -0.200 F 
ENDBRANCH  61  84
ENDBRANCH  35  36
ENDBRANCH  27  30
ENDBRANCH  25  26
ENDBRANCH  24  25
ENDBRANCH   1  24
TORSDOF 15
ENDMDL
MODEL 2
REMARK VINA RESULT:     -11.5      6.948     11.999
REMARK SMILES CC(C)[C@@H](NC(=O)[C@@](C)([NH3+])C(F)(F)F)C(=O)NCCCNC(=O)c1ccc(-c2c3nc(c(-c4c(F)c(F)c(F)c(F)c4F)c4ccc([nH]4)c(-c4c(F)c(F)c(F)c(F)c4F)c4nc(c(-c5c(F)c(F)c(F)c(F)c5F)c5ccc2[nH]5)C=C4)C=C3)cc1
REMARK SMILES IDX 18 1 17 2 15 3 16 4 4 6 2 7 1 8 3 9 5 10 6 11 7 13 8 14 9 15
REMARK SMILES IDX 10 16 11 20 12 21 13 22 14 23 19 24 20 25 21 26 22 27 23 29
REMARK SMILES IDX 24 30 25 31 86 32 26 33 85 34 27 35 28 36 29 37 79 38 30 39
REMARK SMILES IDX 84 40 78 41 80 42 31 43 83 44 77 45 76 46 32 48 64 49 44 50
REMARK SMILES IDX 63 51 45 52 48 53 62 54 81 55 46 56 47 57 61 59 82 60 49 61
REMARK SMILES IDX 33 62 34 63 42 64 35 65 36 66 40 67 43 68 37 69 38 70 41 71
REMARK SMILES IDX 39 72 65 73 66 74 74 75 67 76 68 77 72 78 75 79 69 80 70 81
REMARK SMILES IDX 73 82 71 83 50 84 51 85 59 86 52 87 53 88 57 89 60 90 54 91
REMARK SMILES IDX 55 92 58 93 56 94
REMARK H PARENT 17 5 5 12 10 17 10 18 10 19 21 28 80 47 48 58
REMARK Flexibility Score: inf
ROOT
ATOM      1  C   UNL A   1      32.825  30.206  26.360  1.00  0.00     0.117 C 
ENDROOT
BRANCH   1   2
ATOM      2  N   UNL A   1      32.017  29.026  26.633  1.00  0.00    -0.354 N 
ATOM      3  C   UNL A   1      31.457  28.163  25.738  1.00  0.00     0.242 C 
ATOM      4  O   UNL A   1      31.066  27.071  26.155  1.00  0.00    -0.273 OA
ATOM      5  H   UNL A   1      31.854  28.827  27.582  1.00  0.00     0.163 HD
BRANCH   3   6
ATOM      6  C   UNL A   1      31.236  28.584  24.281  1.00  0.00     0.174 C 
BRANCH   6   7
ATOM      7  C   UNL A   1      32.300  27.835  23.404  1.00  0.00     0.015 C 
ATOM      8  C   UNL A   1      31.675  26.963  22.314  1.00  0.00     0.010 C 
ATOM      9  C   UNL A   1      33.317  28.787  22.753  1.00  0.00     0.010 C 
ENDBRANCH   6   7
BRANCH   6  10
ATOM     10  N   UNL A   1      29.859  28.285  23.854  1.00  0.00    -0.338 N 
ATOM     11  C   UNL A   1      28.877  29.021  23.250  1.00  0.00     0.291 C 
ATOM     12  H   UNL A   1      29.586  27.358  24.045  1.00  0.00     0.164 HD
ATOM     13  O   UNL A   1      27.957  28.325  22.802  1.00  0.00    -0.267 OA
BRANCH  11  14
ATOM     14  C   UNL A   1      28.794  30.573  23.231  1.00  0.00     0.267 C 
ATOM     15  C   UNL A   1      27.415  31.083  23.686  1.00  0.00     0.100 C 
BRANCH  14  16
ATOM     16  N   UNL A   1      29.851  31.176  24.109  1.00  0.00    -0.337 N 
ATOM     17  H   UNL A   1      30.268  30.448  24.689  1.00  0.00     0.345 HD
ATOM     18  H   UNL A   1      29.429  31.888  24.706  1.00  0.00     0.345 HD
ATOM     19  H   UNL A   1      30.572  31.603  23.528  1.00  0.00     0.345 HD
ENDBRANCH  14  16
BRANCH  14  20
ATOM     20  C   UNL A   1      28.914  30.996  21.729  1.00  0.00     0.453 C 
ATOM     21  F   UNL A   1      27.801  30.743  21.010  1.00  0.00    -0.164 F 
ATOM     22  F   UNL A   1      29.243  32.299  21.575  1.00  0.00    -0.164 F 
ATOM     23  F   UNL A   1      29.921  30.284  21.142  1.00  0.00    -0.164 F 
ENDBRANCH  14  20
ENDBRANCH  11  14
ENDBRANCH   6  10
ENDBRANCH   3   6
ENDBRANCH   1   2
BRANCH   1  24
ATOM     24  C   UNL A   1      32.176  31.469  26.881  1.00  0.00     0.042 C 
BRANCH  24  25
ATOM     25  C   UNL A   1      33.179  32.451  27.460  1.00  0.00     0.118 C 
BRANCH  25  26
ATOM     26  N   UNL A   1      32.648  33.795  27.644  1.00  0.00    -0.352 N 
ATOM     27  C   UNL A   1      33.065  34.770  28.524  1.00  0.00     0.251 C 
ATOM     28  H   UNL A   1      31.892  34.039  27.062  1.00  0.00     0.163 HD
ATOM     29  O   UNL A   1      32.467  35.829  28.625  1.00  0.00    -0.269 OA
BRANCH  27  30
ATOM     30  C   UNL A   1      34.225  34.476  29.389  1.00  0.00     0.039 A 
ATOM     31  C   UNL A   1      34.001  33.936  30.656  1.00  0.00     0.014 A 
ATOM     32  C   UNL A   1      35.520  34.600  28.883  1.00  0.00     0.014 A 
ATOM     33  C   UNL A   1      35.077  33.419  31.375  1.00  0.00     0.010 A 
ATOM     34  C   UNL A   1      36.566  33.975  29.546  1.00  0.00     0.010 A 
ATOM     35  C   UNL A   1      36.358  33.378  30.800  1.00  0.00    -0.014 A 
BRANCH  35  36
ATOM     36  C   UNL A   1      37.500  32.725  31.488  1.00  0.00     0.031 A 
ATOM     37  C   UNL A   1      38.216  31.585  30.818  1.00  0.00     0.074 A 
ATOM     38  C   UNL A   1      37.837  33.095  32.740  1.00  0.00     0.049 A 
ATOM     39  N   UNL A   1      39.161  30.810  31.285  1.00  0.00    -0.248 NA
ATOM     40  C   UNL A   1      37.778  31.239  29.456  1.00  0.00     0.031 C 
ATOM     41  C   UNL A   1      37.176  34.140  33.526  1.00  0.00     0.029 A 
ATOM     42  N   UNL A   1      38.820  32.627  33.577  1.00  0.00    -0.354 N 
ATOM     43  C   UNL A   1      39.404  29.874  30.290  1.00  0.00     0.074 A 
ATOM     44  C   UNL A   1      38.464  30.132  29.222  1.00  0.00     0.031 C 
ATOM     45  C   UNL A   1      37.794  34.258  34.712  1.00  0.00     0.029 A 
ATOM     46  C   UNL A   1      38.869  33.275  34.788  1.00  0.00     0.049 A 
ATOM     47  H   UNL A   1      39.431  31.896  33.332  1.00  0.00     0.167 HD
ATOM     48  C   UNL A   1      40.351  28.907  30.250  1.00  0.00     0.037 A 
ATOM     49  C   UNL A   1      39.692  33.093  35.839  1.00  0.00     0.037 A 
ATOM     50  C   UNL A   1      41.321  28.690  31.288  1.00  0.00     0.049 A 
ATOM     51  C   UNL A   1      40.760  32.036  35.756  1.00  0.00     0.074 A 
ATOM     52  C   UNL A   1      42.369  27.788  31.315  1.00  0.00     0.029 A 
ATOM     53  N   UNL A   1      41.367  29.397  32.480  1.00  0.00    -0.354 N 
ATOM     54  N   UNL A   1      41.023  31.201  34.781  1.00  0.00    -0.248 NA
ATOM     55  C   UNL A   1      41.648  31.899  36.919  1.00  0.00     0.031 C 
ATOM     56  C   UNL A   1      43.030  27.926  32.539  1.00  0.00     0.029 A 
ATOM     57  C   UNL A   1      42.420  28.943  33.256  1.00  0.00     0.049 A 
ATOM     58  H   UNL A   1      40.744  30.115  32.737  1.00  0.00     0.167 HD
ATOM     59  C   UNL A   1      42.122  30.462  35.197  1.00  0.00     0.074 A 
ATOM     60  C   UNL A   1      42.485  30.957  36.510  1.00  0.00     0.031 C 
ATOM     61  C   UNL A   1      42.772  29.462  34.553  1.00  0.00     0.037 A 
BRANCH  48  62
ATOM     62  C   UNL A   1      40.389  28.027  29.035  1.00  0.00     0.064 A 
ATOM     63  C   UNL A   1      39.668  26.824  28.978  1.00  0.00     0.173 A 
ATOM     64  C   UNL A   1      41.142  28.396  27.912  1.00  0.00     0.173 A 
ATOM     65  F   UNL A   1      38.946  26.419  30.033  1.00  0.00    -0.203 F 
ATOM     66  C   UNL A   1      39.729  26.005  27.853  1.00  0.00     0.198 A 
ATOM     67  C   UNL A   1      41.174  27.590  26.775  1.00  0.00     0.198 A 
ATOM     68  F   UNL A   1      41.848  29.537  27.913  1.00  0.00    -0.203 F 
ATOM     69  F   UNL A   1      39.079  24.833  27.845  1.00  0.00    -0.200 F 
ATOM     70  C   UNL A   1      40.476  26.392  26.751  1.00  0.00     0.200 A 
ATOM     71  F   UNL A   1      41.889  27.970  25.708  1.00  0.00    -0.200 F 
ATOM     72  F   UNL A   1      40.531  25.605  25.669  1.00  0.00    -0.200 F 
ENDBRANCH  48  62
BRANCH  49  73
ATOM     73  C   UNL A   1      39.568  33.956  37.042  1.00  0.00     0.064 A 
ATOM     74  C   UNL A   1      38.825  33.533  38.154  1.00  0.00     0.173 A 
ATOM     75  C   UNL A   1      40.178  35.217  37.109  1.00  0.00     0.173 A 
ATOM     76  F   UNL A   1      38.207  32.342  38.130  1.00  0.00    -0.203 F 
ATOM     77  C   UNL A   1      38.675  34.346  39.275  1.00  0.00     0.198 A 
ATOM     78  C   UNL A   1      40.050  36.019  38.242  1.00  0.00     0.198 A 
ATOM     79  F   UNL A   1      40.904  35.666  36.076  1.00  0.00    -0.203 F 
ATOM     80  F   UNL A   1      37.921  33.935  40.303  1.00  0.00    -0.200 F 
ATOM     81  C   UNL A   1      39.292  35.587  39.320  1.00  0.00     0.200 A 
ATOM     82  F   UNL A   1      40.658  37.213  38.287  1.00  0.00    -0.200 F 
ATOM     83  F   UNL A   1      39.151  36.369  40.399  1.00  0.00    -0.200 F 
ENDBRANCH  49  73
BRANCH  61  84
ATOM     84  C   UNL A   1      43.963  28.863  35.239  1.00  0.00     0.064 A 
ATOM     85  C   UNL A   1      43.838  27.772  36.110  1.00  0.00     0.173 A 
ATOM     86  C   UNL A   1      45.250  29.358  34.982  1.00  0.00     0.173 A 
ATOM     87  F   UNL A   1      42.626  27.275  36.397  1.00  0.00    -0.203 F 
ATOM     88  C   UNL A   1      44.958  27.212  36.716  1.00  0.00     0.198 A 
ATOM     89  C   UNL A   1      46.371  28.777  35.568  1.00  0.00     0.198 A 
ATOM     90  F   UNL A   1      45.422  30.397  34.150  1.00  0.00    -0.203 F 
ATOM     91  F   UNL A   1      44.812  26.196  37.579  1.00  0.00    -0.200 F 
ATOM     92  C   UNL A   1      46.223  27.708  36.439  1.00  0.00     0.200 A 
ATOM     93  F   UNL A   1      47.593  29.250  35.290  1.00  0.00    -0.200 F 
ATOM     94  F   UNL A   1      47.300  27.161  37.018  1.00  0.00    -0.200 F 
ENDBRANCH  61  84
ENDBRANCH  35  36
ENDBRANCH  27  30
ENDBRANCH  25  26
ENDBRANCH  24  25
ENDBRANCH   1  24
TORSDOF 15
ENDMDL
MODEL 3
REMARK VINA RESULT:     -11.4      6.662     10.662
REMARK SMILES CC(C)[C@@H](NC(=O)[C@@](C)([NH3+])C(F)(F)F)C(=O)NCCCNC(=O)c1ccc(-c2c3nc(c(-c4c(F)c(F)c(F)c(F)c4F)c4ccc([nH]4)c(-c4c(F)c(F)c(F)c(F)c4F)c4nc(c(-c5c(F)c(F)c(F)c(F)c5F)c5ccc2[nH]5)C=C4)C=C3)cc1
REMARK SMILES IDX 18 1 17 2 15 3 16 4 4 6 2 7 1 8 3 9 5 10 6 11 7 13 8 14 9 15
REMARK SMILES IDX 10 16 11 20 12 21 13 22 14 23 19 24 20 25 21 26 22 27 23 29
REMARK SMILES IDX 24 30 25 31 86 32 26 33 85 34 27 35 28 36 29 37 79 38 30 39
REMARK SMILES IDX 84 40 78 41 80 42 31 43 83 44 77 45 76 46 32 48 64 49 44 50
REMARK SMILES IDX 63 51 45 52 48 53 62 54 81 55 46 56 47 57 61 59 82 60 49 61
REMARK SMILES IDX 33 62 34 63 42 64 35 65 36 66 40 67 43 68 37 69 38 70 41 71
REMARK SMILES IDX 39 72 65 73 66 74 74 75 67 76 68 77 72 78 75 79 69 80 70 81
REMARK SMILES IDX 73 82 71 83 50 84 51 85 59 86 52 87 53 88 57 89 60 90 54 91
REMARK SMILES IDX 55 92 58 93 56 94
REMARK H PARENT 17 5 5 12 10 17 10 18 10 19 21 28 80 47 48 58
REMARK Flexibility Score: inf
ROOT
ATOM      1  C   UNL A   1      32.534  30.203  26.184  1.00  0.00     0.117 C 
ENDROOT
BRANCH   1   2
ATOM      2  N   UNL A   1      31.786  29.055  26.675  1.00  0.00    -0.354 N 
ATOM      3  C   UNL A   1      31.394  27.946  25.986  1.00  0.00     0.242 C 
ATOM      4  O   UNL A   1      31.036  26.959  26.632  1.00  0.00    -0.273 OA
ATOM      5  H   UNL A   1      31.529  29.084  27.625  1.00  0.00     0.163 HD
BRANCH   3   6
ATOM      6  C   UNL A   1      31.312  27.967  24.455  1.00  0.00     0.174 C 
BRANCH   6   7
ATOM      7  C   UNL A   1      32.205  26.795  23.916  1.00  0.00     0.015 C 
ATOM      8  C   UNL A   1      32.172  26.666  22.392  1.00  0.00     0.010 C 
ATOM      9  C   UNL A   1      33.670  26.898  24.371  1.00  0.00     0.010 C 
ENDBRANCH   6   7
BRANCH   6  10
ATOM     10  N   UNL A   1      29.915  27.850  24.005  1.00  0.00    -0.338 N 
ATOM     11  C   UNL A   1      29.143  28.563  23.130  1.00  0.00     0.291 C 
ATOM     12  H   UNL A   1      29.434  27.100  24.424  1.00  0.00     0.164 HD
ATOM     13  O   UNL A   1      28.101  27.975  22.814  1.00  0.00    -0.267 OA
BRANCH  11  14
ATOM     14  C   UNL A   1      29.414  30.022  22.666  1.00  0.00     0.267 C 
ATOM     15  C   UNL A   1      29.742  30.952  23.847  1.00  0.00     0.100 C 
BRANCH  14  16
ATOM     16  N   UNL A   1      30.545  30.068  21.680  1.00  0.00    -0.337 N 
ATOM     17  H   UNL A   1      31.353  29.579  22.067  1.00  0.00     0.345 HD
ATOM     18  H   UNL A   1      30.792  31.040  21.492  1.00  0.00     0.345 HD
ATOM     19  H   UNL A   1      30.258  29.616  20.812  1.00  0.00     0.345 HD
ENDBRANCH  14  16
BRANCH  14  20
ATOM     20  C   UNL A   1      28.060  30.552  22.088  1.00  0.00     0.453 C 
ATOM     21  F   UNL A   1      27.785  30.086  20.853  1.00  0.00    -0.164 F 
ATOM     22  F   UNL A   1      27.006  30.292  22.896  1.00  0.00    -0.164 F 
ATOM     23  F   UNL A   1      28.122  31.912  21.980  1.00  0.00    -0.164 F 
ENDBRANCH  14  20
ENDBRANCH  11  14
ENDBRANCH   6  10
ENDBRANCH   3   6
ENDBRANCH   1   2
BRANCH   1  24
ATOM     24  C   UNL A   1      31.994  31.506  26.730  1.00  0.00     0.042 C 
BRANCH  24  25
ATOM     25  C   UNL A   1      33.081  32.402  27.298  1.00  0.00     0.118 C 
BRANCH  25  26
ATOM     26  N   UNL A   1      32.629  33.752  27.606  1.00  0.00    -0.352 N 
ATOM     27  C   UNL A   1      33.110  34.621  28.561  1.00  0.00     0.251 C 
ATOM     28  H   UNL A   1      31.882  34.088  27.059  1.00  0.00     0.163 HD
ATOM     29  O   UNL A   1      32.574  35.699  28.763  1.00  0.00    -0.269 OA
BRANCH  27  30
ATOM     30  C   UNL A   1      34.260  34.188  29.380  1.00  0.00     0.039 A 
ATOM     31  C   UNL A   1      34.025  33.396  30.504  1.00  0.00     0.014 A 
ATOM     32  C   UNL A   1      35.561  34.446  28.945  1.00  0.00     0.014 A 
ATOM     33  C   UNL A   1      35.102  32.773  31.134  1.00  0.00     0.010 A 
ATOM     34  C   UNL A   1      36.612  33.728  29.496  1.00  0.00     0.010 A 
ATOM     35  C   UNL A   1      36.396  32.882  30.597  1.00  0.00    -0.014 A 
BRANCH  35  36
ATOM     36  C   UNL A   1      37.542  32.133  31.169  1.00  0.00     0.031 A 
ATOM     37  C   UNL A   1      38.028  32.464  32.553  1.00  0.00     0.074 A 
ATOM     38  C   UNL A   1      38.197  31.222  30.420  1.00  0.00     0.049 A 
ATOM     39  N   UNL A   1      39.073  32.010  33.196  1.00  0.00    -0.248 NA
ATOM     40  C   UNL A   1      37.262  33.477  33.297  1.00  0.00     0.031 C 
ATOM     41  C   UNL A   1      37.868  30.860  29.040  1.00  0.00     0.029 A 
ATOM     42  N   UNL A   1      39.283  30.437  30.716  1.00  0.00    -0.354 N 
ATOM     43  C   UNL A   1      39.102  32.702  34.399  1.00  0.00     0.074 A 
ATOM     44  C   UNL A   1      38.015  33.654  34.370  1.00  0.00     0.031 C 
ATOM     45  C   UNL A   1      38.709  29.900  28.622  1.00  0.00     0.029 A 
ATOM     46  C   UNL A   1      39.660  29.605  29.689  1.00  0.00     0.049 A 
ATOM     47  H   UNL A   1      39.749  30.467  31.582  1.00  0.00     0.167 HD
ATOM     48  C   UNL A   1      39.938  32.536  35.450  1.00  0.00     0.037 A 
ATOM     49  C   UNL A   1      40.659  28.705  29.620  1.00  0.00     0.037 A 
ATOM     50  C   UNL A   1      40.982  31.549  35.499  1.00  0.00     0.049 A 
ATOM     51  C   UNL A   1      41.553  28.513  30.816  1.00  0.00     0.074 A 
ATOM     52  C   UNL A   1      41.837  31.248  36.543  1.00  0.00     0.029 A 
ATOM     53  N   UNL A   1      41.303  30.694  34.455  1.00  0.00    -0.354 N 
ATOM     54  N   UNL A   1      41.529  29.127  31.973  1.00  0.00    -0.248 NA
ATOM     55  C   UNL A   1      42.610  27.498  30.697  1.00  0.00     0.031 C 
ATOM     56  C   UNL A   1      42.698  30.230  36.120  1.00  0.00     0.029 A 
ATOM     57  C   UNL A   1      42.352  29.870  34.827  1.00  0.00     0.049 A 
ATOM     58  H   UNL A   1      40.852  30.674  33.580  1.00  0.00     0.167 HD
ATOM     59  C   UNL A   1      42.543  28.556  32.730  1.00  0.00     0.074 A 
ATOM     60  C   UNL A   1      43.156  27.535  31.904  1.00  0.00     0.031 C 
ATOM     61  C   UNL A   1      42.934  28.850  33.994  1.00  0.00     0.037 A 
BRANCH  48  62
ATOM     62  C   UNL A   1      39.740  33.432  36.638  1.00  0.00     0.064 A 
ATOM     63  C   UNL A   1      40.440  34.642  36.770  1.00  0.00     0.173 A 
ATOM     64  C   UNL A   1      38.833  33.084  37.649  1.00  0.00     0.173 A 
ATOM     65  F   UNL A   1      41.332  35.010  35.838  1.00  0.00    -0.203 F 
ATOM     66  C   UNL A   1      40.264  35.453  37.887  1.00  0.00     0.198 A 
ATOM     67  C   UNL A   1      38.635  33.915  38.750  1.00  0.00     0.198 A 
ATOM     68  F   UNL A   1      38.137  31.940  37.571  1.00  0.00    -0.203 F 
ATOM     69  F   UNL A   1      40.986  36.574  38.018  1.00  0.00    -0.200 F 
ATOM     70  C   UNL A   1      39.357  35.093  38.872  1.00  0.00     0.200 A 
ATOM     71  F   UNL A   1      37.751  33.570  39.696  1.00  0.00    -0.200 F 
ATOM     72  F   UNL A   1      39.187  35.876  39.945  1.00  0.00    -0.200 F 
ENDBRANCH  48  62
BRANCH  49  73
ATOM     73  C   UNL A   1      40.845  27.887  28.393  1.00  0.00     0.064 A 
ATOM     74  C   UNL A   1      40.221  26.638  28.263  1.00  0.00     0.173 A 
ATOM     75  C   UNL A   1      41.652  28.326  27.333  1.00  0.00     0.173 A 
ATOM     76  F   UNL A   1      39.455  26.167  29.259  1.00  0.00    -0.203 F 
ATOM     77  C   UNL A   1      40.413  25.849  27.131  1.00  0.00     0.198 A 
ATOM     78  C   UNL A   1      41.822  27.547  26.189  1.00  0.00     0.198 A 
ATOM     79  F   UNL A   1      42.266  29.514  27.405  1.00  0.00    -0.203 F 
ATOM     80  F   UNL A   1      39.840  24.641  27.053  1.00  0.00    -0.200 F 
ATOM     81  C   UNL A   1      41.210  26.307  26.093  1.00  0.00     0.200 A 
ATOM     82  F   UNL A   1      42.583  27.998  25.182  1.00  0.00    -0.200 F 
ATOM     83  F   UNL A   1      41.394  25.549  25.002  1.00  0.00    -0.200 F 
ENDBRANCH  49  73
BRANCH  61  84
ATOM     84  C   UNL A   1      44.051  28.034  34.575  1.00  0.00     0.064 A 
ATOM     85  C   UNL A   1      43.808  26.820  35.231  1.00  0.00     0.173 A 
ATOM     86  C   UNL A   1      45.381  28.452  34.429  1.00  0.00     0.173 A 
ATOM     87  F   UNL A   1      42.551  26.388  35.408  1.00  0.00    -0.203 F 
ATOM     88  C   UNL A   1      44.859  26.062  35.740  1.00  0.00     0.198 A 
ATOM     89  C   UNL A   1      46.431  27.678  34.914  1.00  0.00     0.198 A 
ATOM     90  F   UNL A   1      45.664  29.604  33.802  1.00  0.00    -0.203 F 
ATOM     91  F   UNL A   1      44.603  24.925  36.402  1.00  0.00    -0.200 F 
ATOM     92  C   UNL A   1      46.169  26.487  35.574  1.00  0.00     0.200 A 
ATOM     93  F   UNL A   1      47.697  28.084  34.742  1.00  0.00    -0.200 F 
ATOM     94  F   UNL A   1      47.179  25.752  36.057  1.00  0.00    -0.200 F 
ENDBRANCH  61  84
ENDBRANCH  35  36
ENDBRANCH  27  30
ENDBRANCH  25  26
ENDBRANCH  24  25
ENDBRANCH   1  24
TORSDOF 15
ENDMDL
