MODEL 1
REMARK VINA RESULT:     -12.5      0.000      0.000
REMARK SMILES C=C(C(=O)NCCCNC(=O)c1ccc(-c2c3nc(c(-c4c(F)c(F)c(F)c(F)c4F)c4ccc([nH]4)c(-c4c(F)c(F)c(F)c(F)c4F)c4nc(c(-c5c(F)c(F)c(F)c(F)c5F)c5ccc2[nH]5)C=C4)C=C3)cc1)[C@@H]1CC[C@]2(C)CCCC(=C)[C@H]2[C@H]1O
REMARK SMILES IDX 7 1 6 2 5 3 3 4 4 5 2 7 1 8 75 9 76 10 86 11 77 12 85 13
REMARK SMILES IDX 78 14 83 15 79 16 80 17 82 18 84 19 81 20 87 21 8 23 9 24
REMARK SMILES IDX 10 25 11 27 12 28 13 29 74 30 14 31 73 32 15 33 16 34 17 35
REMARK SMILES IDX 67 36 18 37 72 38 66 39 68 40 19 41 71 42 65 43 64 44 20 46
REMARK SMILES IDX 52 47 32 48 51 49 33 50 36 51 50 52 69 53 34 54 35 55 49 57
REMARK SMILES IDX 70 58 37 59 21 60 22 61 30 62 23 63 24 64 28 65 31 66 25 67
REMARK SMILES IDX 26 68 29 69 27 70 53 71 54 72 62 73 55 74 56 75 60 76 63 77
REMARK SMILES IDX 57 78 58 79 61 80 59 81 38 82 39 83 47 84 40 85 41 86 45 87
REMARK SMILES IDX 48 88 42 89 43 90 46 91 44 92
REMARK H PARENT 5 6 87 22 9 26 68 45 36 56
REMARK Flexibility Score: inf
ROOT
ATOM      1  C   UNL A   1      37.932  19.419  25.021  1.00  0.00     0.042 C 
ENDROOT
BRANCH   1   2
ATOM      2  C   UNL A   1      36.743  20.380  24.927  1.00  0.00     0.118 C 
BRANCH   2   3
ATOM      3  N   UNL A   1      36.922  21.381  23.883  1.00  0.00    -0.352 N 
ATOM      4  C   UNL A   1      36.648  22.716  23.831  1.00  0.00     0.246 C 
ATOM      5  O   UNL A   1      36.916  23.328  22.798  1.00  0.00    -0.270 OA
ATOM      6  H   UNL A   1      37.316  21.025  23.055  1.00  0.00     0.163 HD
BRANCH   4   7
ATOM      7  C   UNL A   1      36.072  23.447  25.001  1.00  0.00     0.015 C 
ATOM      8  C   UNL A   1      36.917  23.890  25.952  1.00  0.00     0.019 C 
BRANCH   7   9
ATOM      9  C   UNL A   1      34.542  23.425  25.168  1.00  0.00     0.053 C 
ATOM     10  C   UNL A   1      33.710  23.014  23.923  1.00  0.00     0.012 C 
ATOM     11  C   UNL A   1      33.956  24.751  25.733  1.00  0.00     0.129 C 
ATOM     12  C   UNL A   1      33.570  24.102  22.855  1.00  0.00     0.008 C 
ATOM     13  C   UNL A   1      33.989  25.848  24.626  1.00  0.00     0.050 C 
ATOM     14  C   UNL A   1      33.096  25.478  23.397  1.00  0.00    -0.024 C 
ATOM     15  C   UNL A   1      33.805  27.299  25.058  1.00  0.00    -0.071 C 
ATOM     16  C   UNL A   1      31.585  25.423  23.733  1.00  0.00     0.012 C 
ATOM     17  C   UNL A   1      33.292  26.535  22.271  1.00  0.00     0.008 C 
ATOM     18  C   UNL A   1      34.020  28.290  23.936  1.00  0.00     0.031 C 
ATOM     19  C   UNL A   1      33.525  27.720  26.302  1.00  0.00     0.008 C 
ATOM     20  C   UNL A   1      33.105  27.976  22.755  1.00  0.00     0.005 C 
BRANCH  11  21
ATOM     21  O   UNL A   1      32.637  24.531  26.239  1.00  0.00    -0.392 OA
ATOM     22  H   UNL A   1      32.049  24.277  25.511  1.00  0.00     0.211 HD
ENDBRANCH  11  21
ENDBRANCH   7   9
ENDBRANCH   4   7
ENDBRANCH   2   3
ENDBRANCH   1   2
BRANCH   1  23
ATOM     23  C   UNL A   1      39.148  19.991  25.740  1.00  0.00     0.118 C 
BRANCH  23  24
ATOM     24  N   UNL A   1      40.258  19.055  25.785  1.00  0.00    -0.352 N 
ATOM     25  C   UNL A   1      41.600  19.278  25.969  1.00  0.00     0.251 C 
ATOM     26  H   UNL A   1      40.009  18.111  25.663  1.00  0.00     0.163 HD
ATOM     27  O   UNL A   1      42.396  18.362  25.755  1.00  0.00    -0.269 OA
BRANCH  25  28
ATOM     28  C   UNL A   1      42.116  20.600  26.398  1.00  0.00     0.039 A 
ATOM     29  C   UNL A   1      42.533  21.508  25.417  1.00  0.00     0.014 A 
ATOM     30  C   UNL A   1      42.251  20.935  27.747  1.00  0.00     0.014 A 
ATOM     31  C   UNL A   1      43.018  22.767  25.785  1.00  0.00     0.010 A 
ATOM     32  C   UNL A   1      42.662  22.218  28.112  1.00  0.00     0.010 A 
ATOM     33  C   UNL A   1      43.054  23.147  27.136  1.00  0.00    -0.014 A 
BRANCH  33  34
ATOM     34  C   UNL A   1      43.500  24.504  27.549  1.00  0.00     0.031 A 
ATOM     35  C   UNL A   1      42.490  25.555  27.917  1.00  0.00     0.074 A 
ATOM     36  C   UNL A   1      44.811  24.814  27.521  1.00  0.00     0.049 A 
ATOM     37  N   UNL A   1      42.675  26.821  28.202  1.00  0.00    -0.248 NA
ATOM     38  C   UNL A   1      41.080  25.136  27.947  1.00  0.00     0.031 C 
ATOM     39  C   UNL A   1      45.888  23.897  27.146  1.00  0.00     0.029 A 
ATOM     40  N   UNL A   1      45.459  25.992  27.799  1.00  0.00    -0.354 N 
ATOM     41  C   UNL A   1      41.410  27.349  28.423  1.00  0.00     0.074 A 
ATOM     42  C   UNL A   1      40.461  26.279  28.199  1.00  0.00     0.031 C 
ATOM     43  C   UNL A   1      47.063  24.541  27.228  1.00  0.00     0.029 A 
ATOM     44  C   UNL A   1      46.820  25.926  27.623  1.00  0.00     0.049 A 
ATOM     45  H   UNL A   1      44.994  26.807  28.094  1.00  0.00     0.167 HD
ATOM     46  C   UNL A   1      41.072  28.607  28.797  1.00  0.00     0.037 A 
ATOM     47  C   UNL A   1      47.766  26.877  27.751  1.00  0.00     0.037 A 
ATOM     48  C   UNL A   1      42.018  29.663  29.050  1.00  0.00     0.049 A 
ATOM     49  C   UNL A   1      47.362  28.267  28.158  1.00  0.00     0.074 A 
ATOM     50  C   UNL A   1      41.776  30.948  29.501  1.00  0.00     0.029 A 
ATOM     51  N   UNL A   1      43.389  29.551  28.872  1.00  0.00    -0.354 N 
ATOM     52  N   UNL A   1      46.168  28.739  28.421  1.00  0.00    -0.248 NA
ATOM     53  C   UNL A   1      48.440  29.259  28.287  1.00  0.00     0.031 C 
ATOM     54  C   UNL A   1      42.997  31.629  29.557  1.00  0.00     0.029 A 
ATOM     55  C   UNL A   1      44.003  30.755  29.182  1.00  0.00     0.049 A 
ATOM     56  H   UNL A   1      43.856  28.740  28.572  1.00  0.00     0.167 HD
ATOM     57  C   UNL A   1      46.350  30.070  28.764  1.00  0.00     0.074 A 
ATOM     58  C   UNL A   1      47.773  30.330  28.693  1.00  0.00     0.031 C 
ATOM     59  C   UNL A   1      45.421  30.997  29.104  1.00  0.00     0.037 A 
BRANCH  46  60
ATOM     60  C   UNL A   1      39.612  28.913  28.959  1.00  0.00     0.064 A 
ATOM     61  C   UNL A   1      38.975  28.828  30.207  1.00  0.00     0.173 A 
ATOM     62  C   UNL A   1      38.846  29.335  27.860  1.00  0.00     0.173 A 
ATOM     63  F   UNL A   1      39.660  28.421  31.286  1.00  0.00    -0.203 F 
ATOM     64  C   UNL A   1      37.623  29.127  30.344  1.00  0.00     0.198 A 
ATOM     65  C   UNL A   1      37.500  29.659  28.007  1.00  0.00     0.198 A 
ATOM     66  F   UNL A   1      39.406  29.439  26.647  1.00  0.00    -0.203 F 
ATOM     67  F   UNL A   1      37.027  28.994  31.537  1.00  0.00    -0.200 F 
ATOM     68  C   UNL A   1      36.888  29.548  29.246  1.00  0.00     0.200 A 
ATOM     69  F   UNL A   1      36.793  30.078  26.947  1.00  0.00    -0.200 F 
ATOM     70  F   UNL A   1      35.587  29.841  29.381  1.00  0.00    -0.200 F 
ENDBRANCH  46  60
BRANCH  47  71
ATOM     71  C   UNL A   1      49.191  26.543  27.500  1.00  0.00     0.064 A 
ATOM     72  C   UNL A   1      49.682  26.425  26.192  1.00  0.00     0.173 A 
ATOM     73  C   UNL A   1      50.089  26.335  28.556  1.00  0.00     0.173 A 
ATOM     74  F   UNL A   1      48.854  26.593  25.150  1.00  0.00    -0.203 F 
ATOM     75  C   UNL A   1      51.014  26.098  25.950  1.00  0.00     0.198 A 
ATOM     76  C   UNL A   1      51.428  26.033  28.313  1.00  0.00     0.198 A 
ATOM     77  F   UNL A   1      49.670  26.439  29.825  1.00  0.00    -0.203 F 
ATOM     78  F   UNL A   1      51.447  25.953  24.690  1.00  0.00    -0.200 F 
ATOM     79  C   UNL A   1      51.887  25.908  27.010  1.00  0.00     0.200 A 
ATOM     80  F   UNL A   1      52.272  25.863  29.339  1.00  0.00    -0.200 F 
ATOM     81  F   UNL A   1      53.169  25.598  26.776  1.00  0.00    -0.200 F 
ENDBRANCH  47  71
BRANCH  59  82
ATOM     82  C   UNL A   1      45.917  32.372  29.443  1.00  0.00     0.064 A 
ATOM     83  C   UNL A   1      45.993  33.382  28.474  1.00  0.00     0.173 A 
ATOM     84  C   UNL A   1      46.285  32.691  30.759  1.00  0.00     0.173 A 
ATOM     85  F   UNL A   1      45.668  33.120  27.199  1.00  0.00    -0.203 F 
ATOM     86  C   UNL A   1      46.440  34.659  28.806  1.00  0.00     0.198 A 
ATOM     87  C   UNL A   1      46.706  33.976  31.092  1.00  0.00     0.198 A 
ATOM     88  F   UNL A   1      46.226  31.761  31.723  1.00  0.00    -0.203 F 
ATOM     89  F   UNL A   1      46.545  35.597  27.855  1.00  0.00    -0.200 F 
ATOM     90  C   UNL A   1      46.789  34.957  30.115  1.00  0.00     0.200 A 
ATOM     91  F   UNL A   1      47.032  34.265  32.359  1.00  0.00    -0.200 F 
ATOM     92  F   UNL A   1      47.213  36.187  30.433  1.00  0.00    -0.200 F 
ENDBRANCH  59  82
ENDBRANCH  33  34
ENDBRANCH  25  28
ENDBRANCH  23  24
ENDBRANCH   1  23
TORSDOF 12
ENDMDL
MODEL 2
REMARK VINA RESULT:     -12.5      0.059      1.612
REMARK SMILES C=C(C(=O)NCCCNC(=O)c1ccc(-c2c3nc(c(-c4c(F)c(F)c(F)c(F)c4F)c4ccc([nH]4)c(-c4c(F)c(F)c(F)c(F)c4F)c4nc(c(-c5c(F)c(F)c(F)c(F)c5F)c5ccc2[nH]5)C=C4)C=C3)cc1)[C@@H]1CC[C@]2(C)CCCC(=C)[C@H]2[C@H]1O
REMARK SMILES IDX 7 1 6 2 5 3 3 4 4 5 2 7 1 8 75 9 76 10 86 11 77 12 85 13
REMARK SMILES IDX 78 14 83 15 79 16 80 17 82 18 84 19 81 20 87 21 8 23 9 24
REMARK SMILES IDX 10 25 11 27 12 28 13 29 74 30 14 31 73 32 15 33 16 34 17 35
REMARK SMILES IDX 67 36 18 37 72 38 66 39 68 40 19 41 71 42 65 43 64 44 20 46
REMARK SMILES IDX 52 47 32 48 51 49 33 50 36 51 50 52 69 53 34 54 35 55 49 57
REMARK SMILES IDX 70 58 37 59 21 60 22 61 30 62 23 63 24 64 28 65 31 66 25 67
REMARK SMILES IDX 26 68 29 69 27 70 53 71 54 72 62 73 55 74 56 75 60 76 63 77
REMARK SMILES IDX 57 78 58 79 61 80 59 81 38 82 39 83 47 84 40 85 41 86 45 87
REMARK SMILES IDX 48 88 42 89 43 90 46 91 44 92
REMARK H PARENT 5 6 87 22 9 26 68 45 36 56
REMARK Flexibility Score: inf
ROOT
ATOM      1  C   UNL A   1      38.008  19.441  25.001  1.00  0.00     0.042 C 
ENDROOT
BRANCH   1   2
ATOM      2  C   UNL A   1      36.809  20.391  24.928  1.00  0.00     0.118 C 
BRANCH   2   3
ATOM      3  N   UNL A   1      36.956  21.388  23.876  1.00  0.00    -0.352 N 
ATOM      4  C   UNL A   1      36.655  22.718  23.818  1.00  0.00     0.246 C 
ATOM      5  O   UNL A   1      36.900  23.328  22.778  1.00  0.00    -0.270 OA
ATOM      6  H   UNL A   1      37.349  21.035  23.045  1.00  0.00     0.163 HD
BRANCH   4   7
ATOM      7  C   UNL A   1      36.078  23.445  24.989  1.00  0.00     0.015 C 
ATOM      8  C   UNL A   1      36.923  23.892  25.938  1.00  0.00     0.019 C 
BRANCH   7   9
ATOM      9  C   UNL A   1      34.548  23.415  25.159  1.00  0.00     0.053 C 
ATOM     10  C   UNL A   1      33.717  23.000  23.916  1.00  0.00     0.012 C 
ATOM     11  C   UNL A   1      33.957  24.738  25.725  1.00  0.00     0.129 C 
ATOM     12  C   UNL A   1      33.568  24.088  22.849  1.00  0.00     0.008 C 
ATOM     13  C   UNL A   1      33.982  25.835  24.619  1.00  0.00     0.050 C 
ATOM     14  C   UNL A   1      33.088  25.461  23.392  1.00  0.00    -0.024 C 
ATOM     15  C   UNL A   1      33.791  27.285  25.052  1.00  0.00    -0.071 C 
ATOM     16  C   UNL A   1      31.578  25.398  23.731  1.00  0.00     0.012 C 
ATOM     17  C   UNL A   1      33.276  26.519  22.266  1.00  0.00     0.008 C 
ATOM     18  C   UNL A   1      33.998  28.277  23.929  1.00  0.00     0.031 C 
ATOM     19  C   UNL A   1      33.512  27.704  26.297  1.00  0.00     0.008 C 
ATOM     20  C   UNL A   1      33.083  27.958  22.751  1.00  0.00     0.005 C 
BRANCH  11  21
ATOM     21  O   UNL A   1      32.640  24.511  26.234  1.00  0.00    -0.392 OA
ATOM     22  H   UNL A   1      31.996  24.989  25.689  1.00  0.00     0.211 HD
ENDBRANCH  11  21
ENDBRANCH   7   9
ENDBRANCH   4   7
ENDBRANCH   2   3
ENDBRANCH   1   2
BRANCH   1  23
ATOM     23  C   UNL A   1      39.202  19.993  25.771  1.00  0.00     0.118 C 
BRANCH  23  24
ATOM     24  N   UNL A   1      40.320  19.066  25.803  1.00  0.00    -0.352 N 
ATOM     25  C   UNL A   1      41.661  19.298  25.976  1.00  0.00     0.251 C 
ATOM     26  H   UNL A   1      40.077  18.120  25.678  1.00  0.00     0.163 HD
ATOM     27  O   UNL A   1      42.463  18.389  25.751  1.00  0.00    -0.269 OA
BRANCH  25  28
ATOM     28  C   UNL A   1      42.170  20.622  26.406  1.00  0.00     0.039 A 
ATOM     29  C   UNL A   1      42.611  21.522  25.427  1.00  0.00     0.014 A 
ATOM     30  C   UNL A   1      42.277  20.968  27.755  1.00  0.00     0.014 A 
ATOM     31  C   UNL A   1      43.091  22.783  25.797  1.00  0.00     0.010 A 
ATOM     32  C   UNL A   1      42.683  22.253  28.120  1.00  0.00     0.010 A 
ATOM     33  C   UNL A   1      43.098  23.173  27.146  1.00  0.00    -0.014 A 
BRANCH  33  34
ATOM     34  C   UNL A   1      43.537  24.533  27.557  1.00  0.00     0.031 A 
ATOM     35  C   UNL A   1      42.523  25.580  27.923  1.00  0.00     0.074 A 
ATOM     36  C   UNL A   1      44.848  24.847  27.532  1.00  0.00     0.049 A 
ATOM     37  N   UNL A   1      42.702  26.846  28.207  1.00  0.00    -0.248 NA
ATOM     38  C   UNL A   1      41.115  25.154  27.951  1.00  0.00     0.031 C 
ATOM     39  C   UNL A   1      45.929  23.935  27.159  1.00  0.00     0.029 A 
ATOM     40  N   UNL A   1      45.490  26.029  27.809  1.00  0.00    -0.354 N 
ATOM     41  C   UNL A   1      41.435  27.370  28.426  1.00  0.00     0.074 A 
ATOM     42  C   UNL A   1      40.491  26.295  28.202  1.00  0.00     0.031 C 
ATOM     43  C   UNL A   1      47.101  24.584  27.242  1.00  0.00     0.029 A 
ATOM     44  C   UNL A   1      46.852  25.968  27.636  1.00  0.00     0.049 A 
ATOM     45  H   UNL A   1      45.021  26.842  28.103  1.00  0.00     0.167 HD
ATOM     46  C   UNL A   1      41.091  28.627  28.798  1.00  0.00     0.037 A 
ATOM     47  C   UNL A   1      47.793  26.923  27.764  1.00  0.00     0.037 A 
ATOM     48  C   UNL A   1      42.032  29.686  29.052  1.00  0.00     0.049 A 
ATOM     49  C   UNL A   1      47.383  28.312  28.169  1.00  0.00     0.074 A 
ATOM     50  C   UNL A   1      41.784  30.971  29.501  1.00  0.00     0.029 A 
ATOM     51  N   UNL A   1      43.404  29.580  28.876  1.00  0.00    -0.354 N 
ATOM     52  N   UNL A   1      46.187  28.779  28.430  1.00  0.00    -0.248 NA
ATOM     53  C   UNL A   1      48.457  29.308  28.299  1.00  0.00     0.031 C 
ATOM     54  C   UNL A   1      43.003  31.657  29.559  1.00  0.00     0.029 A 
ATOM     55  C   UNL A   1      44.013  30.787  29.186  1.00  0.00     0.049 A 
ATOM     56  H   UNL A   1      43.875  28.770  28.577  1.00  0.00     0.167 HD
ATOM     57  C   UNL A   1      46.363  30.111  28.772  1.00  0.00     0.074 A 
ATOM     58  C   UNL A   1      47.785  30.377  28.703  1.00  0.00     0.031 C 
ATOM     59  C   UNL A   1      45.430  31.035  29.110  1.00  0.00     0.037 A 
BRANCH  46  60
ATOM     60  C   UNL A   1      39.629  28.927  28.958  1.00  0.00     0.064 A 
ATOM     61  C   UNL A   1      38.991  28.840  30.205  1.00  0.00     0.173 A 
ATOM     62  C   UNL A   1      38.863  29.344  27.858  1.00  0.00     0.173 A 
ATOM     63  F   UNL A   1      39.676  28.437  31.285  1.00  0.00    -0.203 F 
ATOM     64  C   UNL A   1      37.637  29.133  30.339  1.00  0.00     0.198 A 
ATOM     65  C   UNL A   1      37.516  29.663  28.002  1.00  0.00     0.198 A 
ATOM     66  F   UNL A   1      39.425  29.450  26.645  1.00  0.00    -0.203 F 
ATOM     67  F   UNL A   1      37.040  28.999  31.532  1.00  0.00    -0.200 F 
ATOM     68  C   UNL A   1      36.902  29.551  29.241  1.00  0.00     0.200 A 
ATOM     69  F   UNL A   1      36.809  30.078  26.941  1.00  0.00    -0.200 F 
ATOM     70  F   UNL A   1      35.600  29.839  29.373  1.00  0.00    -0.200 F 
ENDBRANCH  46  60
BRANCH  47  71
ATOM     71  C   UNL A   1      49.220  26.594  27.515  1.00  0.00     0.064 A 
ATOM     72  C   UNL A   1      50.108  26.394  28.581  1.00  0.00     0.173 A 
ATOM     73  C   UNL A   1      49.726  26.473  26.213  1.00  0.00     0.173 A 
ATOM     74  F   UNL A   1      49.674  26.522  29.844  1.00  0.00    -0.203 F 
ATOM     75  C   UNL A   1      51.450  26.100  28.355  1.00  0.00     0.198 A 
ATOM     76  C   UNL A   1      51.064  26.153  25.987  1.00  0.00     0.198 A 
ATOM     77  F   UNL A   1      48.917  26.652  25.158  1.00  0.00    -0.203 F 
ATOM     78  F   UNL A   1      52.285  25.953  29.392  1.00  0.00    -0.200 F 
ATOM     79  C   UNL A   1      51.926  25.974  27.059  1.00  0.00     0.200 A 
ATOM     80  F   UNL A   1      51.516  26.019  24.734  1.00  0.00    -0.200 F 
ATOM     81  F   UNL A   1      53.216  25.686  26.842  1.00  0.00    -0.200 F 
ENDBRANCH  47  71
BRANCH  59  82
ATOM     82  C   UNL A   1      45.920  32.412  29.448  1.00  0.00     0.064 A 
ATOM     83  C   UNL A   1      46.323  32.746  30.749  1.00  0.00     0.173 A 
ATOM     84  C   UNL A   1      46.020  33.396  28.453  1.00  0.00     0.173 A 
ATOM     85  F   UNL A   1      46.229  31.844  31.737  1.00  0.00    -0.203 F 
ATOM     86  C   UNL A   1      46.789  34.024  31.046  1.00  0.00     0.198 A 
ATOM     87  C   UNL A   1      46.513  34.665  28.749  1.00  0.00     0.198 A 
ATOM     88  F   UNL A   1      45.652  33.125  27.193  1.00  0.00    -0.203 F 
ATOM     89  F   UNL A   1      47.129  34.334  32.305  1.00  0.00    -0.200 F 
ATOM     90  C   UNL A   1      46.892  34.979  30.046  1.00  0.00     0.200 A 
ATOM     91  F   UNL A   1      46.621  35.583  27.779  1.00  0.00    -0.200 F 
ATOM     92  F   UNL A   1      47.346  36.206  30.333  1.00  0.00    -0.200 F 
ENDBRANCH  59  82
ENDBRANCH  33  34
ENDBRANCH  25  28
ENDBRANCH  23  24
ENDBRANCH   1  23
TORSDOF 12
ENDMDL
MODEL 3
REMARK VINA RESULT:     -12.5      5.735     10.860
REMARK SMILES C=C(C(=O)NCCCNC(=O)c1ccc(-c2c3nc(c(-c4c(F)c(F)c(F)c(F)c4F)c4ccc([nH]4)c(-c4c(F)c(F)c(F)c(F)c4F)c4nc(c(-c5c(F)c(F)c(F)c(F)c5F)c5ccc2[nH]5)C=C4)C=C3)cc1)[C@@H]1CC[C@]2(C)CCCC(=C)[C@H]2[C@H]1O
REMARK SMILES IDX 7 1 6 2 5 3 3 4 4 5 2 7 1 8 75 9 76 10 86 11 77 12 85 13
REMARK SMILES IDX 78 14 83 15 79 16 80 17 82 18 84 19 81 20 87 21 8 23 9 24
REMARK SMILES IDX 10 25 11 27 12 28 13 29 74 30 14 31 73 32 15 33 16 34 17 35
REMARK SMILES IDX 67 36 18 37 72 38 66 39 68 40 19 41 71 42 65 43 64 44 20 46
REMARK SMILES IDX 52 47 32 48 51 49 33 50 36 51 50 52 69 53 34 54 35 55 49 57
REMARK SMILES IDX 70 58 37 59 21 60 22 61 30 62 23 63 24 64 28 65 31 66 25 67
REMARK SMILES IDX 26 68 29 69 27 70 53 71 54 72 62 73 55 74 56 75 60 76 63 77
REMARK SMILES IDX 57 78 58 79 61 80 59 81 38 82 39 83 47 84 40 85 41 86 45 87
REMARK SMILES IDX 48 88 42 89 43 90 46 91 44 92
REMARK H PARENT 5 6 87 22 9 26 68 45 36 56
REMARK Flexibility Score: inf
ROOT
ATOM      1  C   UNL A   1      31.390  32.245  26.522  1.00  0.00     0.042 C 
ENDROOT
BRANCH   1   2
ATOM      2  C   UNL A   1      31.563  30.820  25.988  1.00  0.00     0.118 C 
BRANCH   2   3
ATOM      3  N   UNL A   1      31.353  29.813  27.020  1.00  0.00    -0.352 N 
ATOM      4  C   UNL A   1      31.968  28.626  27.287  1.00  0.00     0.246 C 
ATOM      5  O   UNL A   1      31.579  27.969  28.252  1.00  0.00    -0.270 OA
ATOM      6  H   UNL A   1      30.626  30.032  27.647  1.00  0.00     0.163 HD
BRANCH   4   7
ATOM      7  C   UNL A   1      33.116  28.132  26.466  1.00  0.00     0.015 C 
ATOM      8  C   UNL A   1      34.348  28.592  26.756  1.00  0.00     0.019 C 
BRANCH   7   9
ATOM      9  C   UNL A   1      32.784  27.334  25.192  1.00  0.00     0.053 C 
ATOM     10  C   UNL A   1      31.352  26.744  25.092  1.00  0.00     0.012 C 
ATOM     11  C   UNL A   1      33.803  26.199  24.883  1.00  0.00     0.129 C 
ATOM     12  C   UNL A   1      31.113  25.487  25.932  1.00  0.00     0.008 C 
ATOM     13  C   UNL A   1      33.591  25.022  25.881  1.00  0.00     0.050 C 
ATOM     14  C   UNL A   1      32.175  24.372  25.738  1.00  0.00    -0.024 C 
ATOM     15  C   UNL A   1      34.697  23.978  25.995  1.00  0.00    -0.071 C 
ATOM     16  C   UNL A   1      31.960  23.666  24.376  1.00  0.00     0.012 C 
ATOM     17  C   UNL A   1      31.972  23.310  26.858  1.00  0.00     0.008 C 
ATOM     18  C   UNL A   1      34.464  22.977  27.105  1.00  0.00     0.031 C 
ATOM     19  C   UNL A   1      35.810  23.927  25.246  1.00  0.00     0.008 C 
ATOM     20  C   UNL A   1      33.111  22.290  26.938  1.00  0.00     0.005 C 
BRANCH  11  21
ATOM     21  O   UNL A   1      33.681  25.785  23.520  1.00  0.00    -0.392 OA
ATOM     22  H   UNL A   1      33.388  26.534  22.979  1.00  0.00     0.211 HD
ENDBRANCH  11  21
ENDBRANCH   7   9
ENDBRANCH   4   7
ENDBRANCH   2   3
ENDBRANCH   1   2
BRANCH   1  23
ATOM     23  C   UNL A   1      32.644  32.834  27.158  1.00  0.00     0.118 C 
BRANCH  23  24
ATOM     24  N   UNL A   1      32.439  34.192  27.634  1.00  0.00    -0.352 N 
ATOM     25  C   UNL A   1      33.031  34.866  28.673  1.00  0.00     0.251 C 
ATOM     26  H   UNL A   1      31.768  34.710  27.134  1.00  0.00     0.163 HD
ATOM     27  O   UNL A   1      32.554  35.942  29.041  1.00  0.00    -0.269 OA
BRANCH  25  28
ATOM     28  C   UNL A   1      34.218  34.323  29.375  1.00  0.00     0.039 A 
ATOM     29  C   UNL A   1      34.023  33.577  30.544  1.00  0.00     0.014 A 
ATOM     30  C   UNL A   1      35.518  34.586  28.937  1.00  0.00     0.014 A 
ATOM     31  C   UNL A   1      35.119  33.043  31.229  1.00  0.00     0.010 A 
ATOM     32  C   UNL A   1      36.607  33.990  29.576  1.00  0.00     0.010 A 
ATOM     33  C   UNL A   1      36.420  33.215  30.730  1.00  0.00    -0.014 A 
BRANCH  33  34
ATOM     34  C   UNL A   1      37.596  32.599  31.402  1.00  0.00     0.031 A 
ATOM     35  C   UNL A   1      38.318  31.447  30.760  1.00  0.00     0.074 A 
ATOM     36  C   UNL A   1      37.969  33.029  32.623  1.00  0.00     0.049 A 
ATOM     37  N   UNL A   1      39.295  30.713  31.233  1.00  0.00    -0.248 NA
ATOM     38  C   UNL A   1      37.868  31.050  29.417  1.00  0.00     0.031 C 
ATOM     39  C   UNL A   1      37.328  34.111  33.370  1.00  0.00     0.029 A 
ATOM     40  N   UNL A   1      38.968  32.594  33.459  1.00  0.00    -0.354 N 
ATOM     41  C   UNL A   1      39.559  29.759  30.258  1.00  0.00     0.074 A 
ATOM     42  C   UNL A   1      38.614  29.981  29.184  1.00  0.00     0.031 C 
ATOM     43  C   UNL A   1      37.956  34.266  34.546  1.00  0.00     0.029 A 
ATOM     44  C   UNL A   1      39.017  33.269  34.655  1.00  0.00     0.049 A 
ATOM     45  H   UNL A   1      39.589  31.868  33.225  1.00  0.00     0.167 HD
ATOM     46  C   UNL A   1      40.516  28.800  30.251  1.00  0.00     0.037 A 
ATOM     47  C   UNL A   1      39.817  33.094  35.725  1.00  0.00     0.037 A 
ATOM     48  C   UNL A   1      41.476  28.600  31.305  1.00  0.00     0.049 A 
ATOM     49  C   UNL A   1      40.864  32.016  35.694  1.00  0.00     0.074 A 
ATOM     50  C   UNL A   1      42.527  27.701  31.356  1.00  0.00     0.029 A 
ATOM     51  N   UNL A   1      41.500  29.313  32.495  1.00  0.00    -0.354 N 
ATOM     52  N   UNL A   1      41.143  31.159  34.742  1.00  0.00    -0.248 NA
ATOM     53  C   UNL A   1      41.710  31.880  36.889  1.00  0.00     0.031 C 
ATOM     54  C   UNL A   1      43.162  27.841  32.596  1.00  0.00     0.029 A 
ATOM     55  C   UNL A   1      42.534  28.855  33.298  1.00  0.00     0.049 A 
ATOM     56  H   UNL A   1      40.877  30.035  32.733  1.00  0.00     0.167 HD
ATOM     57  C   UNL A   1      42.203  30.398  35.211  1.00  0.00     0.074 A 
ATOM     58  C   UNL A   1      42.532  30.904  36.527  1.00  0.00     0.031 C 
ATOM     59  C   UNL A   1      42.846  29.369  34.607  1.00  0.00     0.037 A 
BRANCH  46  60
ATOM     60  C   UNL A   1      40.575  27.889  29.060  1.00  0.00     0.064 A 
ATOM     61  C   UNL A   1      39.779  26.736  28.974  1.00  0.00     0.173 A 
ATOM     62  C   UNL A   1      41.409  28.192  27.971  1.00  0.00     0.173 A 
ATOM     63  F   UNL A   1      38.973  26.397  29.991  1.00  0.00    -0.203 F 
ATOM     64  C   UNL A   1      39.836  25.907  27.857  1.00  0.00     0.198 A 
ATOM     65  C   UNL A   1      41.442  27.376  26.844  1.00  0.00     0.198 A 
ATOM     66  F   UNL A   1      42.185  29.285  27.999  1.00  0.00    -0.203 F 
ATOM     67  F   UNL A   1      39.100  24.788  27.818  1.00  0.00    -0.200 F 
ATOM     68  C   UNL A   1      40.661  26.231  26.791  1.00  0.00     0.200 A 
ATOM     69  F   UNL A   1      42.231  27.695  25.809  1.00  0.00    -0.200 F 
ATOM     70  F   UNL A   1      40.709  25.434  25.713  1.00  0.00    -0.200 F 
ENDBRANCH  46  60
BRANCH  47  71
ATOM     71  C   UNL A   1      39.664  33.971  36.913  1.00  0.00     0.064 A 
ATOM     72  C   UNL A   1      38.876  33.575  38.002  1.00  0.00     0.173 A 
ATOM     73  C   UNL A   1      40.300  35.219  36.987  1.00  0.00     0.173 A 
ATOM     74  F   UNL A   1      38.230  32.400  37.967  1.00  0.00    -0.203 F 
ATOM     75  C   UNL A   1      38.717  34.399  39.114  1.00  0.00     0.198 A 
ATOM     76  C   UNL A   1      40.162  36.032  38.111  1.00  0.00     0.198 A 
ATOM     77  F   UNL A   1      41.069  35.643  35.973  1.00  0.00    -0.203 F 
ATOM     78  F   UNL A   1      37.926  34.013  40.124  1.00  0.00    -0.200 F 
ATOM     79  C   UNL A   1      39.365  35.624  39.171  1.00  0.00     0.200 A 
ATOM     80  F   UNL A   1      40.800  37.208  38.167  1.00  0.00    -0.200 F 
ATOM     81  F   UNL A   1      39.216  36.413  40.242  1.00  0.00    -0.200 F 
ENDBRANCH  47  71
BRANCH  59  82
ATOM     82  C   UNL A   1      43.980  28.735  35.356  1.00  0.00     0.064 A 
ATOM     83  C   UNL A   1      43.770  27.655  36.226  1.00  0.00     0.173 A 
ATOM     84  C   UNL A   1      45.295  29.188  35.173  1.00  0.00     0.173 A 
ATOM     85  F   UNL A   1      42.529  27.198  36.446  1.00  0.00    -0.203 F 
ATOM     86  C   UNL A   1      44.834  27.066  36.903  1.00  0.00     0.198 A 
ATOM     87  C   UNL A   1      46.360  28.579  35.832  1.00  0.00     0.198 A 
ATOM     88  F   UNL A   1      45.550  30.215  34.349  1.00  0.00    -0.203 F 
ATOM     89  F   UNL A   1      44.605  26.063  37.763  1.00  0.00    -0.200 F 
ATOM     90  C   UNL A   1      46.129  27.522  36.700  1.00  0.00     0.200 A 
ATOM     91  F   UNL A   1      47.611  29.014  35.627  1.00  0.00    -0.200 F 
ATOM     92  F   UNL A   1      47.151  26.950  37.349  1.00  0.00    -0.200 F 
ENDBRANCH  59  82
ENDBRANCH  33  34
ENDBRANCH  25  28
ENDBRANCH  23  24
ENDBRANCH   1  23
TORSDOF 12
ENDMDL
