MODEL 1
REMARK VINA RESULT:     -13.5      0.000      0.000
REMARK SMILES COc1ccccc1OC1CCN(c2cccc(C(=O)NCCCNC(=O)c3ccc(-c4c5nc(c(-c6c(F)c(F)c(F)c(F)c6F)c6ccc([nH]6)c(-c6c(F)c(F)c(F)c(F)c6F)c6nc(c(-c7c(F)c(F)c(F)c(F)c7F)c7ccc4[nH]7)C=C6)C=C5)cc3)n2)CC1
REMARK SMILES IDX 22 1 21 2 19 3 20 4 18 6 14 7 15 8 91 9 16 10 17 11 13 12
REMARK SMILES IDX 10 13 11 14 93 15 12 16 92 17 9 18 8 19 3 20 4 21 5 22 7 23
REMARK SMILES IDX 6 24 2 25 1 26 23 27 24 28 25 29 26 30 27 32 28 33 29 34
REMARK SMILES IDX 90 35 30 36 89 37 31 38 32 39 33 40 83 41 34 42 88 43 82 44
REMARK SMILES IDX 84 45 35 46 87 47 81 48 80 49 36 51 68 52 48 53 67 54 49 55
REMARK SMILES IDX 52 56 66 57 85 58 50 59 51 60 65 62 86 63 53 64 37 65 38 66
REMARK SMILES IDX 46 67 39 68 40 69 44 70 47 71 41 72 42 73 45 74 43 75 69 76
REMARK SMILES IDX 70 77 78 78 71 79 72 80 76 81 79 82 73 83 74 84 77 85 75 86
REMARK SMILES IDX 54 87 55 88 63 89 56 90 57 91 61 92 64 93 58 94 59 95 62 96
REMARK SMILES IDX 60 97
REMARK H PARENT 21 5 25 31 84 50 52 61
REMARK Flexibility Score: inf
ROOT
ATOM      1  C   UNL A   1      31.533  30.850  26.487  1.00  0.00     0.118 C 
ENDROOT
BRANCH   1   2
ATOM      2  N   UNL A   1      32.752  30.314  27.035  1.00  0.00    -0.351 N 
ATOM      3  C   UNL A   1      33.578  29.307  26.606  1.00  0.00     0.269 C 
ATOM      4  O   UNL A   1      34.508  29.028  27.369  1.00  0.00    -0.268 OA
ATOM      5  H   UNL A   1      33.045  30.748  27.868  1.00  0.00     0.163 HD
BRANCH   3   6
ATOM      6  C   UNL A   1      33.446  28.611  25.276  1.00  0.00     0.130 A 
ATOM      7  C   UNL A   1      33.536  26.480  24.337  1.00  0.00     0.129 A 
ATOM      8  C   UNL A   1      33.502  26.997  23.056  1.00  0.00     0.047 A 
ATOM      9  N   UNL A   1      33.517  27.274  25.414  1.00  0.00    -0.226 NA
ATOM     10  C   UNL A   1      33.349  28.369  22.898  1.00  0.00     0.006 A 
ATOM     11  C   UNL A   1      33.299  29.189  24.026  1.00  0.00     0.034 A 
BRANCH   7  12
ATOM     12  N   UNL A   1      33.589  25.137  24.590  1.00  0.00    -0.356 N 
ATOM     13  C   UNL A   1      33.674  21.399  23.989  1.00  0.00     0.177 C 
ATOM     14  C   UNL A   1      35.257  22.487  23.693  1.00  0.00     0.066 C 
ATOM     15  C   UNL A   1      31.993  22.323  24.322  1.00  0.00     0.066 C 
ATOM     16  C   UNL A   1      35.221  24.352  24.222  1.00  0.00     0.122 C 
ATOM     17  C   UNL A   1      32.035  24.195  24.846  1.00  0.00     0.122 C 
BRANCH  13  18
ATOM     18  O   UNL A   1      33.953  20.624  25.193  1.00  0.00    -0.486 OA
BRANCH  18  19
ATOM     19  C   UNL A   1      33.780  19.287  24.898  1.00  0.00     0.161 A 
ATOM     20  C   UNL A   1      34.902  18.477  24.655  1.00  0.00     0.160 A 
ATOM     21  C   UNL A   1      34.724  17.126  24.371  1.00  0.00     0.050 A 
ATOM     22  C   UNL A   1      33.434  16.595  24.318  1.00  0.00     0.004 A 
ATOM     23  C   UNL A   1      32.494  18.767  24.838  1.00  0.00     0.050 A 
ATOM     24  C   UNL A   1      32.322  17.414  24.543  1.00  0.00     0.004 A 
BRANCH  20  25
ATOM     25  O   UNL A   1      36.069  19.210  24.726  1.00  0.00    -0.493 OA
ATOM     26  C   UNL A   1      37.663  20.136  24.921  1.00  0.00     0.278 C 
ENDBRANCH  20  25
ENDBRANCH  18  19
ENDBRANCH  13  18
ENDBRANCH   7  12
ENDBRANCH   3   6
ENDBRANCH   1   2
BRANCH   1  27
ATOM     27  C   UNL A   1      31.420  32.330  26.838  1.00  0.00     0.042 C 
BRANCH  27  28
ATOM     28  C   UNL A   1      32.765  32.920  27.242  1.00  0.00     0.118 C 
BRANCH  28  29
ATOM     29  N   UNL A   1      32.623  34.318  27.624  1.00  0.00    -0.352 N 
ATOM     30  C   UNL A   1      33.086  34.979  28.728  1.00  0.00     0.251 C 
ATOM     31  H   UNL A   1      32.115  34.874  26.989  1.00  0.00     0.163 HD
ATOM     32  O   UNL A   1      32.575  36.046  29.052  1.00  0.00    -0.269 OA
BRANCH  30  33
ATOM     33  C   UNL A   1      34.211  34.428  29.507  1.00  0.00     0.039 A 
ATOM     34  C   UNL A   1      35.507  34.577  29.009  1.00  0.00     0.014 A 
ATOM     35  C   UNL A   1      33.985  33.691  30.673  1.00  0.00     0.014 A 
ATOM     36  C   UNL A   1      36.573  33.982  29.680  1.00  0.00     0.010 A 
ATOM     37  C   UNL A   1      35.058  33.193  31.399  1.00  0.00     0.010 A 
ATOM     38  C   UNL A   1      36.355  33.290  30.882  1.00  0.00    -0.014 A 
BRANCH  38  39
ATOM     39  C   UNL A   1      37.469  32.602  31.571  1.00  0.00     0.031 A 
ATOM     40  C   UNL A   1      38.173  31.454  30.900  1.00  0.00     0.074 A 
ATOM     41  C   UNL A   1      37.819  32.989  32.810  1.00  0.00     0.049 A 
ATOM     42  N   UNL A   1      39.167  30.723  31.334  1.00  0.00    -0.248 NA
ATOM     43  C   UNL A   1      37.668  31.048  29.577  1.00  0.00     0.031 C 
ATOM     44  C   UNL A   1      37.158  34.044  33.580  1.00  0.00     0.029 A 
ATOM     45  N   UNL A   1      38.813  32.540  33.639  1.00  0.00    -0.354 N 
ATOM     46  C   UNL A   1      39.389  29.765  30.353  1.00  0.00     0.074 A 
ATOM     47  C   UNL A   1      38.380  29.959  29.336  1.00  0.00     0.031 C 
ATOM     48  C   UNL A   1      37.789  34.185  34.756  1.00  0.00     0.029 A 
ATOM     49  C   UNL A   1      38.871  33.208  34.835  1.00  0.00     0.049 A 
ATOM     50  H   UNL A   1      39.427  31.809  33.398  1.00  0.00     0.167 HD
ATOM     51  C   UNL A   1      40.364  28.828  30.290  1.00  0.00     0.037 A 
ATOM     52  C   UNL A   1      39.707  33.050  35.877  1.00  0.00     0.037 A 
ATOM     53  C   UNL A   1      41.375  28.663  31.301  1.00  0.00     0.049 A 
ATOM     54  C   UNL A   1      40.802  32.025  35.776  1.00  0.00     0.074 A 
ATOM     55  C   UNL A   1      42.453  27.797  31.314  1.00  0.00     0.029 A 
ATOM     56  N   UNL A   1      41.423  29.380  32.490  1.00  0.00    -0.354 N 
ATOM     57  N   UNL A   1      41.060  31.181  34.805  1.00  0.00    -0.248 NA
ATOM     58  C   UNL A   1      41.735  31.946  36.905  1.00  0.00     0.031 C 
ATOM     59  C   UNL A   1      43.116  27.944  32.538  1.00  0.00     0.029 A 
ATOM     60  C   UNL A   1      42.498  28.957  33.257  1.00  0.00     0.049 A 
ATOM     61  H   UNL A   1      40.788  30.086  32.750  1.00  0.00     0.167 HD
ATOM     62  C   UNL A   1      42.201  30.490  35.191  1.00  0.00     0.074 A 
ATOM     63  C   UNL A   1      42.593  31.029  36.478  1.00  0.00     0.031 C 
ATOM     64  C   UNL A   1      42.868  29.504  34.540  1.00  0.00     0.037 A 
BRANCH  51  65
ATOM     65  C   UNL A   1      40.365  27.907  29.100  1.00  0.00     0.064 A 
ATOM     66  C   UNL A   1      41.098  28.193  27.936  1.00  0.00     0.173 A 
ATOM     67  C   UNL A   1      39.614  26.721  29.119  1.00  0.00     0.173 A 
ATOM     68  F   UNL A   1      41.826  29.318  27.855  1.00  0.00    -0.203 F 
ATOM     69  C   UNL A   1      41.035  27.358  26.823  1.00  0.00     0.198 A 
ATOM     70  C   UNL A   1      39.587  25.868  28.019  1.00  0.00     0.198 A 
ATOM     71  F   UNL A   1      38.899  26.391  30.206  1.00  0.00    -0.203 F 
ATOM     72  F   UNL A   1      41.681  27.695  25.698  1.00  0.00    -0.200 F 
ATOM     73  C   UNL A   1      40.285  26.194  26.867  1.00  0.00     0.200 A 
ATOM     74  F   UNL A   1      38.873  24.735  28.070  1.00  0.00    -0.200 F 
ATOM     75  F   UNL A   1      40.224  25.393  25.795  1.00  0.00    -0.200 F 
ENDBRANCH  51  65
BRANCH  52  76
ATOM     76  C   UNL A   1      39.557  33.916  37.074  1.00  0.00     0.064 A 
ATOM     77  C   UNL A   1      40.118  35.199  37.116  1.00  0.00     0.173 A 
ATOM     78  C   UNL A   1      38.815  33.492  38.186  1.00  0.00     0.173 A 
ATOM     79  F   UNL A   1      40.846  35.645  36.080  1.00  0.00    -0.203 F 
ATOM     80  C   UNL A   1      39.959  36.019  38.230  1.00  0.00     0.198 A 
ATOM     81  C   UNL A   1      38.630  34.325  39.288  1.00  0.00     0.198 A 
ATOM     82  F   UNL A   1      38.244  32.279  38.190  1.00  0.00    -0.203 F 
ATOM     83  F   UNL A   1      40.538  37.227  38.260  1.00  0.00    -0.200 F 
ATOM     84  C   UNL A   1      39.208  35.584  39.312  1.00  0.00     0.200 A 
ATOM     85  F   UNL A   1      37.884  33.909  40.321  1.00  0.00    -0.200 F 
ATOM     86  F   UNL A   1      39.042  36.379  40.378  1.00  0.00    -0.200 F 
ENDBRANCH  52  76
BRANCH  64  87
ATOM     87  C   UNL A   1      44.115  28.977  35.191  1.00  0.00     0.064 A 
ATOM     88  C   UNL A   1      45.379  29.532  34.937  1.00  0.00     0.173 A 
ATOM     89  C   UNL A   1      44.040  27.907  36.096  1.00  0.00     0.173 A 
ATOM     90  F   UNL A   1      45.509  30.550  34.071  1.00  0.00    -0.203 F 
ATOM     91  C   UNL A   1      46.524  29.006  35.530  1.00  0.00     0.198 A 
ATOM     92  C   UNL A   1      45.182  27.411  36.719  1.00  0.00     0.198 A 
ATOM     93  F   UNL A   1      42.856  27.345  36.385  1.00  0.00    -0.203 F 
ATOM     94  F   UNL A   1      47.727  29.507  35.217  1.00  0.00    -0.200 F 
ATOM     95  C   UNL A   1      46.424  27.952  36.424  1.00  0.00     0.200 A 
ATOM     96  F   UNL A   1      45.079  26.404  37.597  1.00  0.00    -0.200 F 
ATOM     97  F   UNL A   1      47.526  27.447  36.995  1.00  0.00    -0.200 F 
ENDBRANCH  64  87
ENDBRANCH  38  39
ENDBRANCH  30  33
ENDBRANCH  28  29
ENDBRANCH  27  28
ENDBRANCH   1  27
TORSDOF 14
ENDMDL
MODEL 2
REMARK VINA RESULT:     -13.5      0.714      7.201
REMARK SMILES COc1ccccc1OC1CCN(c2cccc(C(=O)NCCCNC(=O)c3ccc(-c4c5nc(c(-c6c(F)c(F)c(F)c(F)c6F)c6ccc([nH]6)c(-c6c(F)c(F)c(F)c(F)c6F)c6nc(c(-c7c(F)c(F)c(F)c(F)c7F)c7ccc4[nH]7)C=C6)C=C5)cc3)n2)CC1
REMARK SMILES IDX 22 1 21 2 19 3 20 4 18 6 14 7 15 8 91 9 16 10 17 11 13 12
REMARK SMILES IDX 10 13 11 14 93 15 12 16 92 17 9 18 8 19 3 20 4 21 5 22 7 23
REMARK SMILES IDX 6 24 2 25 1 26 23 27 24 28 25 29 26 30 27 32 28 33 29 34
REMARK SMILES IDX 90 35 30 36 89 37 31 38 32 39 33 40 83 41 34 42 88 43 82 44
REMARK SMILES IDX 84 45 35 46 87 47 81 48 80 49 36 51 68 52 48 53 67 54 49 55
REMARK SMILES IDX 52 56 66 57 85 58 50 59 51 60 65 62 86 63 53 64 37 65 38 66
REMARK SMILES IDX 46 67 39 68 40 69 44 70 47 71 41 72 42 73 45 74 43 75 69 76
REMARK SMILES IDX 70 77 78 78 71 79 72 80 76 81 79 82 73 83 74 84 77 85 75 86
REMARK SMILES IDX 54 87 55 88 63 89 56 90 57 91 61 92 64 93 58 94 59 95 62 96
REMARK SMILES IDX 60 97
REMARK H PARENT 21 5 25 31 84 50 52 61
REMARK Flexibility Score: inf
ROOT
ATOM      1  C   UNL A   1      31.527  30.677  26.873  1.00  0.00     0.118 C 
ENDROOT
BRANCH   1   2
ATOM      2  N   UNL A   1      32.875  30.286  27.192  1.00  0.00    -0.351 N 
ATOM      3  C   UNL A   1      33.731  29.396  26.597  1.00  0.00     0.269 C 
ATOM      4  O   UNL A   1      34.802  29.220  27.185  1.00  0.00    -0.268 OA
ATOM      5  H   UNL A   1      33.252  30.740  27.981  1.00  0.00     0.163 HD
BRANCH   3   6
ATOM      6  C   UNL A   1      33.460  28.709  25.283  1.00  0.00     0.130 A 
ATOM      7  C   UNL A   1      33.422  26.582  24.333  1.00  0.00     0.129 A 
ATOM      8  C   UNL A   1      33.274  27.106  23.063  1.00  0.00     0.047 A 
ATOM      9  N   UNL A   1      33.520  27.370  25.409  1.00  0.00    -0.226 NA
ATOM     10  C   UNL A   1      33.132  28.481  22.925  1.00  0.00     0.006 A 
ATOM     11  C   UNL A   1      33.204  29.296  24.055  1.00  0.00     0.034 A 
BRANCH   7  12
ATOM     12  N   UNL A   1      33.474  25.236  24.575  1.00  0.00    -0.356 N 
ATOM     13  C   UNL A   1      33.421  21.501  23.957  1.00  0.00     0.177 C 
ATOM     14  C   UNL A   1      34.986  22.559  23.499  1.00  0.00     0.066 C 
ATOM     15  C   UNL A   1      31.803  22.456  24.467  1.00  0.00     0.066 C 
ATOM     16  C   UNL A   1      35.042  24.422  24.035  1.00  0.00     0.122 C 
ATOM     17  C   UNL A   1      31.936  24.324  24.990  1.00  0.00     0.122 C 
BRANCH  13  18
ATOM     18  O   UNL A   1      33.809  20.714  25.123  1.00  0.00    -0.486 OA
BRANCH  18  19
ATOM     19  C   UNL A   1      33.730  19.377  24.790  1.00  0.00     0.161 A 
ATOM     20  C   UNL A   1      34.907  18.627  24.635  1.00  0.00     0.160 A 
ATOM     21  C   UNL A   1      34.823  17.276  24.313  1.00  0.00     0.050 A 
ATOM     22  C   UNL A   1      33.570  16.685  24.135  1.00  0.00     0.004 A 
ATOM     23  C   UNL A   1      32.481  18.798  24.606  1.00  0.00     0.050 A 
ATOM     24  C   UNL A   1      32.404  17.445  24.273  1.00  0.00     0.004 A 
BRANCH  20  25
ATOM     25  O   UNL A   1      36.026  19.413  24.824  1.00  0.00    -0.493 OA
ATOM     26  C   UNL A   1      37.536  20.479  24.959  1.00  0.00     0.278 C 
ENDBRANCH  20  25
ENDBRANCH  18  19
ENDBRANCH  13  18
ENDBRANCH   7  12
ENDBRANCH   3   6
ENDBRANCH   1   2
BRANCH   1  27
ATOM     27  C   UNL A   1      31.424  32.199  26.853  1.00  0.00     0.042 C 
BRANCH  27  28
ATOM     28  C   UNL A   1      32.779  32.860  27.072  1.00  0.00     0.118 C 
BRANCH  28  29
ATOM     29  N   UNL A   1      32.617  34.220  27.568  1.00  0.00    -0.352 N 
ATOM     30  C   UNL A   1      33.101  34.803  28.706  1.00  0.00     0.251 C 
ATOM     31  H   UNL A   1      32.076  34.810  26.996  1.00  0.00     0.163 HD
ATOM     32  O   UNL A   1      32.577  35.828  29.130  1.00  0.00    -0.269 OA
BRANCH  30  33
ATOM     33  C   UNL A   1      34.265  34.223  29.402  1.00  0.00     0.039 A 
ATOM     34  C   UNL A   1      35.546  34.615  29.008  1.00  0.00     0.014 A 
ATOM     35  C   UNL A   1      34.100  33.232  30.374  1.00  0.00     0.014 A 
ATOM     36  C   UNL A   1      36.658  34.008  29.587  1.00  0.00     0.010 A 
ATOM     37  C   UNL A   1      35.206  32.708  31.027  1.00  0.00     0.010 A 
ATOM     38  C   UNL A   1      36.495  33.054  30.604  1.00  0.00    -0.014 A 
BRANCH  38  39
ATOM     39  C   UNL A   1      37.666  32.358  31.183  1.00  0.00     0.031 A 
ATOM     40  C   UNL A   1      38.169  32.743  32.547  1.00  0.00     0.074 A 
ATOM     41  C   UNL A   1      38.290  31.408  30.465  1.00  0.00     0.049 A 
ATOM     42  N   UNL A   1      39.176  32.257  33.227  1.00  0.00    -0.248 NA
ATOM     43  C   UNL A   1      37.472  33.849  33.224  1.00  0.00     0.031 C 
ATOM     44  C   UNL A   1      37.927  31.005  29.106  1.00  0.00     0.029 A 
ATOM     45  N   UNL A   1      39.361  30.613  30.777  1.00  0.00    -0.354 N 
ATOM     46  C   UNL A   1      39.242  33.008  34.393  1.00  0.00     0.074 A 
ATOM     47  C   UNL A   1      38.225  34.030  34.298  1.00  0.00     0.031 C 
ATOM     48  C   UNL A   1      38.739  30.012  28.714  1.00  0.00     0.029 A 
ATOM     49  C   UNL A   1      39.699  29.736  29.779  1.00  0.00     0.049 A 
ATOM     50  H   UNL A   1      39.840  30.664  31.636  1.00  0.00     0.167 HD
ATOM     51  C   UNL A   1      40.059  32.842  35.461  1.00  0.00     0.037 A 
ATOM     52  C   UNL A   1      40.675  28.811  29.731  1.00  0.00     0.037 A 
ATOM     53  C   UNL A   1      41.052  31.805  35.550  1.00  0.00     0.049 A 
ATOM     54  C   UNL A   1      41.551  28.621  30.938  1.00  0.00     0.074 A 
ATOM     55  C   UNL A   1      41.888  31.495  36.607  1.00  0.00     0.029 A 
ATOM     56  N   UNL A   1      41.349  30.910  34.529  1.00  0.00    -0.354 N 
ATOM     57  N   UNL A   1      41.550  29.278  32.074  1.00  0.00    -0.248 NA
ATOM     58  C   UNL A   1      42.548  27.547  30.865  1.00  0.00     0.031 C 
ATOM     59  C   UNL A   1      42.734  30.456  36.203  1.00  0.00     0.029 A 
ATOM     60  C   UNL A   1      42.375  30.065  34.922  1.00  0.00     0.049 A 
ATOM     61  H   UNL A   1      40.897  30.881  33.655  1.00  0.00     0.167 HD
ATOM     62  C   UNL A   1      42.524  28.680  32.863  1.00  0.00     0.074 A 
ATOM     63  C   UNL A   1      43.081  27.596  32.078  1.00  0.00     0.031 C 
ATOM     64  C   UNL A   1      42.919  28.994  34.123  1.00  0.00     0.037 A 
BRANCH  51  65
ATOM     65  C   UNL A   1      39.916  33.815  36.601  1.00  0.00     0.064 A 
ATOM     66  C   UNL A   1      40.643  35.016  36.653  1.00  0.00     0.173 A 
ATOM     67  C   UNL A   1      39.043  33.538  37.665  1.00  0.00     0.173 A 
ATOM     68  F   UNL A   1      41.501  35.329  35.670  1.00  0.00    -0.203 F 
ATOM     69  C   UNL A   1      40.542  35.871  37.748  1.00  0.00     0.198 A 
ATOM     70  C   UNL A   1      38.913  34.416  38.737  1.00  0.00     0.198 A 
ATOM     71  F   UNL A   1      38.316  32.409  37.668  1.00  0.00    -0.203 F 
ATOM     72  F   UNL A   1      41.306  36.971  37.809  1.00  0.00    -0.200 F 
ATOM     73  C   UNL A   1      39.673  35.574  38.786  1.00  0.00     0.200 A 
ATOM     74  F   UNL A   1      38.061  34.134  39.733  1.00  0.00    -0.200 F 
ATOM     75  F   UNL A   1      39.578  36.397  39.838  1.00  0.00    -0.200 F 
ENDBRANCH  51  65
BRANCH  52  76
ATOM     76  C   UNL A   1      40.833  27.976  28.514  1.00  0.00     0.064 A 
ATOM     77  C   UNL A   1      40.162  26.753  28.381  1.00  0.00     0.173 A 
ATOM     78  C   UNL A   1      41.628  28.402  27.440  1.00  0.00     0.173 A 
ATOM     79  F   UNL A   1      39.398  26.296  29.385  1.00  0.00    -0.203 F 
ATOM     80  C   UNL A   1      40.294  25.979  27.230  1.00  0.00     0.198 A 
ATOM     81  C   UNL A   1      41.735  27.645  26.276  1.00  0.00     0.198 A 
ATOM     82  F   UNL A   1      42.279  29.573  27.510  1.00  0.00    -0.203 F 
ATOM     83  F   UNL A   1      39.672  24.796  27.144  1.00  0.00    -0.200 F 
ATOM     84  C   UNL A   1      41.074  26.430  26.175  1.00  0.00     0.200 A 
ATOM     85  F   UNL A   1      42.471  28.095  25.251  1.00  0.00    -0.200 F 
ATOM     86  F   UNL A   1      41.188  25.694  25.061  1.00  0.00    -0.200 F 
ENDBRANCH  52  76
BRANCH  64  87
ATOM     87  C   UNL A   1      43.975  28.125  34.745  1.00  0.00     0.064 A 
ATOM     88  C   UNL A   1      45.340  28.435  34.659  1.00  0.00     0.173 A 
ATOM     89  C   UNL A   1      43.609  26.969  35.453  1.00  0.00     0.173 A 
ATOM     90  F   UNL A   1      45.746  29.522  33.983  1.00  0.00    -0.203 F 
ATOM     91  C   UNL A   1      46.302  27.597  35.218  1.00  0.00     0.198 A 
ATOM     92  C   UNL A   1      44.570  26.156  36.047  1.00  0.00     0.198 A 
ATOM     93  F   UNL A   1      42.317  26.631  35.577  1.00  0.00    -0.203 F 
ATOM     94  F   UNL A   1      47.603  27.876  35.061  1.00  0.00    -0.200 F 
ATOM     95  C   UNL A   1      45.916  26.463  35.916  1.00  0.00     0.200 A 
ATOM     96  F   UNL A   1      44.193  25.071  36.737  1.00  0.00    -0.200 F 
ATOM     97  F   UNL A   1      46.842  25.658  36.455  1.00  0.00    -0.200 F 
ENDBRANCH  64  87
ENDBRANCH  38  39
ENDBRANCH  30  33
ENDBRANCH  28  29
ENDBRANCH  27  28
ENDBRANCH   1  27
TORSDOF 14
ENDMDL
MODEL 3
REMARK VINA RESULT:     -13.1      0.933      7.305
REMARK SMILES COc1ccccc1OC1CCN(c2cccc(C(=O)NCCCNC(=O)c3ccc(-c4c5nc(c(-c6c(F)c(F)c(F)c(F)c6F)c6ccc([nH]6)c(-c6c(F)c(F)c(F)c(F)c6F)c6nc(c(-c7c(F)c(F)c(F)c(F)c7F)c7ccc4[nH]7)C=C6)C=C5)cc3)n2)CC1
REMARK SMILES IDX 22 1 21 2 19 3 20 4 18 6 14 7 15 8 91 9 16 10 17 11 13 12
REMARK SMILES IDX 10 13 11 14 93 15 12 16 92 17 9 18 8 19 3 20 4 21 5 22 7 23
REMARK SMILES IDX 6 24 2 25 1 26 23 27 24 28 25 29 26 30 27 32 28 33 29 34
REMARK SMILES IDX 90 35 30 36 89 37 31 38 32 39 33 40 83 41 34 42 88 43 82 44
REMARK SMILES IDX 84 45 35 46 87 47 81 48 80 49 36 51 68 52 48 53 67 54 49 55
REMARK SMILES IDX 52 56 66 57 85 58 50 59 51 60 65 62 86 63 53 64 37 65 38 66
REMARK SMILES IDX 46 67 39 68 40 69 44 70 47 71 41 72 42 73 45 74 43 75 69 76
REMARK SMILES IDX 70 77 78 78 71 79 72 80 76 81 79 82 73 83 74 84 77 85 75 86
REMARK SMILES IDX 54 87 55 88 63 89 56 90 57 91 61 92 64 93 58 94 59 95 62 96
REMARK SMILES IDX 60 97
REMARK H PARENT 21 5 25 31 84 50 52 61
REMARK Flexibility Score: inf
ROOT
ATOM      1  C   UNL A   1      31.257  31.436  26.453  1.00  0.00     0.118 C 
ENDROOT
BRANCH   1   2
ATOM      2  N   UNL A   1      32.510  30.744  26.600  1.00  0.00    -0.351 N 
ATOM      3  C   UNL A   1      32.941  29.529  26.133  1.00  0.00     0.269 C 
ATOM      4  O   UNL A   1      34.059  29.180  26.524  1.00  0.00    -0.268 OA
ATOM      5  H   UNL A   1      33.180  31.230  27.133  1.00  0.00     0.163 HD
BRANCH   3   6
ATOM      6  C   UNL A   1      32.172  28.677  25.156  1.00  0.00     0.130 A 
ATOM      7  C   UNL A   1      31.993  26.466  24.440  1.00  0.00     0.129 A 
ATOM      8  C   UNL A   1      31.175  26.829  23.388  1.00  0.00     0.047 A 
ATOM      9  N   UNL A   1      32.483  27.374  25.293  1.00  0.00    -0.226 NA
ATOM     10  C   UNL A   1      30.783  28.158  23.279  1.00  0.00     0.006 A 
ATOM     11  C   UNL A   1      31.272  29.095  24.190  1.00  0.00     0.034 A 
BRANCH   7  12
ATOM     12  N   UNL A   1      32.354  25.169  24.683  1.00  0.00    -0.356 N 
ATOM     13  C   UNL A   1      32.845  21.451  24.159  1.00  0.00     0.177 C 
ATOM     14  C   UNL A   1      34.022  22.737  23.299  1.00  0.00     0.066 C 
ATOM     15  C   UNL A   1      31.256  22.136  25.052  1.00  0.00     0.066 C 
ATOM     16  C   UNL A   1      33.862  24.611  23.772  1.00  0.00     0.122 C 
ATOM     17  C   UNL A   1      31.165  24.028  25.492  1.00  0.00     0.122 C 
BRANCH  13  18
ATOM     18  O   UNL A   1      33.650  20.820  25.199  1.00  0.00    -0.486 OA
BRANCH  18  19
ATOM     19  C   UNL A   1      33.725  19.468  24.931  1.00  0.00     0.161 A 
ATOM     20  C   UNL A   1      34.977  18.870  24.714  1.00  0.00     0.160 A 
ATOM     21  C   UNL A   1      35.049  17.504  24.457  1.00  0.00     0.050 A 
ATOM     22  C   UNL A   1      33.876  16.748  24.403  1.00  0.00     0.004 A 
ATOM     23  C   UNL A   1      32.554  18.725  24.870  1.00  0.00     0.050 A 
ATOM     24  C   UNL A   1      32.633  17.357  24.601  1.00  0.00     0.004 A 
BRANCH  20  25
ATOM     25  O   UNL A   1      35.993  19.802  24.780  1.00  0.00    -0.493 OA
ATOM     26  C   UNL A   1      37.295  21.120  24.793  1.00  0.00     0.278 C 
ENDBRANCH  20  25
ENDBRANCH  18  19
ENDBRANCH  13  18
ENDBRANCH   7  12
ENDBRANCH   3   6
ENDBRANCH   1   2
BRANCH   1  27
ATOM     27  C   UNL A   1      31.484  32.941  26.566  1.00  0.00     0.042 C 
BRANCH  27  28
ATOM     28  C   UNL A   1      32.651  33.268  27.488  1.00  0.00     0.118 C 
BRANCH  28  29
ATOM     29  N   UNL A   1      32.544  34.630  27.993  1.00  0.00    -0.352 N 
ATOM     30  C   UNL A   1      33.101  35.202  29.103  1.00  0.00     0.251 C 
ATOM     31  H   UNL A   1      31.986  35.233  27.451  1.00  0.00     0.163 HD
ATOM     32  O   UNL A   1      32.622  36.237  29.554  1.00  0.00    -0.269 OA
BRANCH  30  33
ATOM     33  C   UNL A   1      34.287  34.597  29.736  1.00  0.00     0.039 A 
ATOM     34  C   UNL A   1      35.527  34.736  29.108  1.00  0.00     0.014 A 
ATOM     35  C   UNL A   1      34.168  33.819  30.892  1.00  0.00     0.014 A 
ATOM     36  C   UNL A   1      36.642  34.091  29.639  1.00  0.00     0.010 A 
ATOM     37  C   UNL A   1      35.298  33.269  31.479  1.00  0.00     0.010 A 
ATOM     38  C   UNL A   1      36.535  33.358  30.831  1.00  0.00    -0.014 A 
BRANCH  38  39
ATOM     39  C   UNL A   1      37.697  32.618  31.371  1.00  0.00     0.031 A 
ATOM     40  C   UNL A   1      38.257  32.979  32.720  1.00  0.00     0.074 A 
ATOM     41  C   UNL A   1      38.265  31.650  30.630  1.00  0.00     0.049 A 
ATOM     42  N   UNL A   1      39.266  32.454  33.366  1.00  0.00    -0.248 NA
ATOM     43  C   UNL A   1      37.620  34.106  33.422  1.00  0.00     0.031 C 
ATOM     44  C   UNL A   1      37.846  31.266  29.281  1.00  0.00     0.029 A 
ATOM     45  N   UNL A   1      39.316  30.816  30.906  1.00  0.00    -0.354 N 
ATOM     46  C   UNL A   1      39.395  33.197  34.532  1.00  0.00     0.074 A 
ATOM     47  C   UNL A   1      38.412  34.255  34.472  1.00  0.00     0.031 C 
ATOM     48  C   UNL A   1      38.610  30.246  28.861  1.00  0.00     0.029 A 
ATOM     49  C   UNL A   1      39.592  29.932  29.894  1.00  0.00     0.049 A 
ATOM     50  H   UNL A   1      39.823  30.846  31.750  1.00  0.00     0.167 HD
ATOM     51  C   UNL A   1      40.238  32.998  35.574  1.00  0.00     0.037 A 
ATOM     52  C   UNL A   1      40.532  28.973  29.813  1.00  0.00     0.037 A 
ATOM     53  C   UNL A   1      41.196  31.925  35.628  1.00  0.00     0.049 A 
ATOM     54  C   UNL A   1      41.438  28.747  30.991  1.00  0.00     0.074 A 
ATOM     55  C   UNL A   1      42.052  31.581  36.657  1.00  0.00     0.029 A 
ATOM     56  N   UNL A   1      41.429  31.026  34.595  1.00  0.00    -0.354 N 
ATOM     57  N   UNL A   1      41.496  29.398  32.129  1.00  0.00    -0.248 NA
ATOM     58  C   UNL A   1      42.393  27.639  30.884  1.00  0.00     0.031 C 
ATOM     59  C   UNL A   1      42.848  30.515  36.224  1.00  0.00     0.029 A 
ATOM     60  C   UNL A   1      42.436  30.143  34.952  1.00  0.00     0.049 A 
ATOM     61  H   UNL A   1      40.950  31.016  33.735  1.00  0.00     0.167 HD
ATOM     62  C   UNL A   1      42.473  28.762  32.885  1.00  0.00     0.074 A 
ATOM     63  C   UNL A   1      42.965  27.663  32.080  1.00  0.00     0.031 C 
ATOM     64  C   UNL A   1      42.917  29.057  34.133  1.00  0.00     0.037 A 
BRANCH  51  65
ATOM     65  C   UNL A   1      40.165  33.969  36.720  1.00  0.00     0.064 A 
ATOM     66  C   UNL A   1      39.298  33.776  37.809  1.00  0.00     0.173 A 
ATOM     67  C   UNL A   1      40.970  35.119  36.728  1.00  0.00     0.173 A 
ATOM     68  F   UNL A   1      38.496  32.701  37.851  1.00  0.00    -0.203 F 
ATOM     69  C   UNL A   1      39.201  34.720  38.828  1.00  0.00     0.198 A 
ATOM     70  C   UNL A   1      40.900  36.040  37.771  1.00  0.00     0.198 A 
ATOM     71  F   UNL A   1      41.823  35.355  35.719  1.00  0.00    -0.203 F 
ATOM     72  F   UNL A   1      38.309  34.549  39.814  1.00  0.00    -0.200 F 
ATOM     73  C   UNL A   1      40.006  35.847  38.812  1.00  0.00     0.200 A 
ATOM     74  F   UNL A   1      41.691  37.122  37.760  1.00  0.00    -0.200 F 
ATOM     75  F   UNL A   1      39.911  36.755  39.793  1.00  0.00    -0.200 F 
ENDBRANCH  51  65
BRANCH  52  76
ATOM     76  C   UNL A   1      40.623  28.139  28.588  1.00  0.00     0.064 A 
ATOM     77  C   UNL A   1      41.413  28.533  27.499  1.00  0.00     0.173 A 
ATOM     78  C   UNL A   1      39.952  26.911  28.496  1.00  0.00     0.173 A 
ATOM     79  F   UNL A   1      42.066  29.704  27.535  1.00  0.00    -0.203 F 
ATOM     80  C   UNL A   1      41.515  27.740  26.359  1.00  0.00     0.198 A 
ATOM     81  C   UNL A   1      40.080  26.103  27.368  1.00  0.00     0.198 A 
ATOM     82  F   UNL A   1      39.196  26.481  29.516  1.00  0.00    -0.203 F 
ATOM     83  F   UNL A   1      42.247  28.157  25.318  1.00  0.00    -0.200 F 
ATOM     84  C   UNL A   1      40.855  26.521  26.298  1.00  0.00     0.200 A 
ATOM     85  F   UNL A   1      39.459  24.917  27.323  1.00  0.00    -0.200 F 
ATOM     86  F   UNL A   1      40.966  25.751  25.207  1.00  0.00    -0.200 F 
ENDBRANCH  52  76
BRANCH  64  87
ATOM     87  C   UNL A   1      43.960  28.148  34.719  1.00  0.00     0.064 A 
ATOM     88  C   UNL A   1      43.620  26.989  35.434  1.00  0.00     0.173 A 
ATOM     89  C   UNL A   1      45.323  28.434  34.546  1.00  0.00     0.173 A 
ATOM     90  F   UNL A   1      42.331  26.674  35.638  1.00  0.00    -0.203 F 
ATOM     91  C   UNL A   1      44.605  26.179  35.994  1.00  0.00     0.198 A 
ATOM     92  C   UNL A   1      46.305  27.599  35.071  1.00  0.00     0.198 A 
ATOM     93  F   UNL A   1      45.705  29.523  33.860  1.00  0.00    -0.203 F 
ATOM     94  F   UNL A   1      44.255  25.117  36.733  1.00  0.00    -0.200 F 
ATOM     95  C   UNL A   1      45.945  26.481  35.806  1.00  0.00     0.200 A 
ATOM     96  F   UNL A   1      47.599  27.884  34.872  1.00  0.00    -0.200 F 
ATOM     97  F   UNL A   1      46.892  25.699  36.343  1.00  0.00    -0.200 F 
ENDBRANCH  64  87
ENDBRANCH  38  39
ENDBRANCH  30  33
ENDBRANCH  28  29
ENDBRANCH  27  28
ENDBRANCH   1  27
TORSDOF 14
ENDMDL
