MODEL 1
REMARK VINA RESULT:     -12.0      0.000      0.000
REMARK SMILES Cc1cccc(CN(C)c2ccc(C(=O)NCCCNC(=O)c3ccc(-c4c5nc(c(-c6c(F)c(F)c(F)c(F)c6F)c6ccc([nH]6)c(-c6c(F)c(F)c(F)c(F)c6F)c6nc(c(-c7c(F)c(F)c(F)c(F)c7F)c7ccc4[nH]7)C=C6)C=C5)cc3)cc2N)n1
REMARK SMILES IDX 17 1 16 2 14 3 15 4 13 6 10 7 11 8 87 9 12 10 86 11 8 12
REMARK SMILES IDX 9 13 7 14 6 15 1 16 2 17 3 18 89 19 4 20 5 21 88 22 18 25
REMARK SMILES IDX 19 26 20 27 21 28 22 30 23 31 24 32 85 33 25 34 84 35 26 36
REMARK SMILES IDX 27 37 28 38 78 39 29 40 83 41 77 42 79 43 30 44 82 45 76 46
REMARK SMILES IDX 75 47 31 49 63 50 43 51 62 52 44 53 47 54 61 55 80 56 45 57
REMARK SMILES IDX 46 58 60 60 81 61 48 62 32 63 33 64 41 65 34 66 35 67 39 68
REMARK SMILES IDX 42 69 36 70 37 71 40 72 38 73 64 74 65 75 73 76 66 77 67 78
REMARK SMILES IDX 71 79 74 80 68 81 69 82 72 83 70 84 49 85 50 86 58 87 51 88
REMARK SMILES IDX 52 89 56 90 59 91 53 92 54 93 57 94 55 95
REMARK H PARENT 16 5 88 23 88 24 20 29 79 48 47 59
REMARK Flexibility Score: inf
ROOT
ATOM      1  C   UNL A   1      37.519  20.792  24.626  1.00  0.00     0.118 C 
ENDROOT
BRANCH   1   2
ATOM      2  N   UNL A   1      38.023  21.977  25.299  1.00  0.00    -0.352 N 
ATOM      3  C   UNL A   1      37.410  23.086  25.836  1.00  0.00     0.251 C 
ATOM      4  O   UNL A   1      38.143  23.927  26.356  1.00  0.00    -0.269 OA
ATOM      5  H   UNL A   1      39.003  21.989  25.389  1.00  0.00     0.163 HD
BRANCH   3   6
ATOM      6  C   UNL A   1      35.932  23.294  25.863  1.00  0.00     0.041 A 
ATOM      7  C   UNL A   1      33.101  23.838  25.919  1.00  0.00     0.060 A 
ATOM      8  C   UNL A   1      34.025  24.687  25.275  1.00  0.00     0.029 A 
ATOM      9  C   UNL A   1      33.703  22.836  26.705  1.00  0.00     0.056 A 
ATOM     10  C   UNL A   1      35.413  24.450  25.283  1.00  0.00     0.016 A 
ATOM     11  C   UNL A   1      35.035  22.457  26.498  1.00  0.00     0.041 A 
BRANCH   7  12
ATOM     12  N   UNL A   1      31.724  23.934  25.713  1.00  0.00    -0.367 N 
ATOM     13  C   UNL A   1      31.027  23.000  24.824  1.00  0.00     0.144 C 
BRANCH  12  14
ATOM     14  C   UNL A   1      30.809  24.953  26.307  1.00  0.00     0.172 C 
BRANCH  14  15
ATOM     15  C   UNL A   1      30.932  26.425  25.909  1.00  0.00     0.060 A 
ATOM     16  C   UNL A   1      32.446  29.497  27.251  1.00  0.00     0.067 C 
ATOM     17  C   UNL A   1      31.762  28.561  26.303  1.00  0.00     0.038 A 
ATOM     18  C   UNL A   1      31.434  28.976  25.014  1.00  0.00     0.023 A 
ATOM     19  N   UNL A   1      31.494  27.315  26.766  1.00  0.00    -0.256 NA
ATOM     20  C   UNL A   1      30.781  28.087  24.172  1.00  0.00     0.004 A 
ATOM     21  C   UNL A   1      30.502  26.805  24.630  1.00  0.00     0.026 A 
ENDBRANCH  14  15
ENDBRANCH  12  14
ENDBRANCH   7  12
BRANCH   9  22
ATOM     22  N   UNL A   1      33.123  22.335  27.874  1.00  0.00    -0.397 N 
ATOM     23  H   UNL A   1      32.311  21.780  27.822  1.00  0.00     0.156 HD
ATOM     24  H   UNL A   1      33.524  22.538  28.749  1.00  0.00     0.156 HD
ENDBRANCH   9  22
ENDBRANCH   3   6
ENDBRANCH   1   2
BRANCH   1  25
ATOM     25  C   UNL A   1      38.352  19.559  24.986  1.00  0.00     0.042 C 
BRANCH  25  26
ATOM     26  C   UNL A   1      39.326  19.835  26.126  1.00  0.00     0.118 C 
BRANCH  26  27
ATOM     27  N   UNL A   1      40.477  18.945  26.066  1.00  0.00    -0.352 N 
ATOM     28  C   UNL A   1      41.817  19.229  26.056  1.00  0.00     0.251 C 
ATOM     29  H   UNL A   1      40.258  17.986  26.029  1.00  0.00     0.163 HD
ATOM     30  O   UNL A   1      42.621  18.344  25.782  1.00  0.00    -0.269 OA
BRANCH  28  31
ATOM     31  C   UNL A   1      42.303  20.594  26.354  1.00  0.00     0.039 A 
ATOM     32  C   UNL A   1      42.612  21.440  25.284  1.00  0.00     0.014 A 
ATOM     33  C   UNL A   1      42.507  21.027  27.667  1.00  0.00     0.014 A 
ATOM     34  C   UNL A   1      43.081  22.731  25.530  1.00  0.00     0.010 A 
ATOM     35  C   UNL A   1      42.908  22.337  27.913  1.00  0.00     0.010 A 
ATOM     36  C   UNL A   1      43.208  23.198  26.847  1.00  0.00    -0.014 A 
BRANCH  36  37
ATOM     37  C   UNL A   1      43.654  24.584  27.129  1.00  0.00     0.031 A 
ATOM     38  C   UNL A   1      42.677  25.604  27.641  1.00  0.00     0.074 A 
ATOM     39  C   UNL A   1      44.924  24.938  26.862  1.00  0.00     0.049 A 
ATOM     40  N   UNL A   1      42.859  26.878  27.884  1.00  0.00    -0.248 NA
ATOM     41  C   UNL A   1      41.305  25.135  27.888  1.00  0.00     0.031 C 
ATOM     42  C   UNL A   1      45.952  24.047  26.323  1.00  0.00     0.029 A 
ATOM     43  N   UNL A   1      45.566  26.143  26.996  1.00  0.00    -0.354 N 
ATOM     44  C   UNL A   1      41.625  27.364  28.293  1.00  0.00     0.074 A 
ATOM     45  C   UNL A   1      40.690  26.262  28.218  1.00  0.00     0.031 C 
ATOM     46  C   UNL A   1      47.102  24.728  26.195  1.00  0.00     0.029 A 
ATOM     47  C   UNL A   1      46.881  26.112  26.606  1.00  0.00     0.049 A 
ATOM     48  H   UNL A   1      45.124  26.953  27.340  1.00  0.00     0.167 HD
ATOM     49  C   UNL A   1      41.306  28.612  28.714  1.00  0.00     0.037 A 
ATOM     50  C   UNL A   1      47.803  27.091  26.576  1.00  0.00     0.037 A 
ATOM     51  C   UNL A   1      42.246  29.698  28.807  1.00  0.00     0.049 A 
ATOM     52  C   UNL A   1      47.423  28.470  27.038  1.00  0.00     0.074 A 
ATOM     53  C   UNL A   1      42.041  30.981  29.282  1.00  0.00     0.029 A 
ATOM     54  N   UNL A   1      43.574  29.628  28.407  1.00  0.00    -0.354 N 
ATOM     55  N   UNL A   1      46.272  28.904  27.489  1.00  0.00    -0.248 NA
ATOM     56  C   UNL A   1      48.474  29.496  26.988  1.00  0.00     0.031 C 
ATOM     57  C   UNL A   1      43.231  31.701  29.125  1.00  0.00     0.029 A 
ATOM     58  C   UNL A   1      44.193  30.853  28.601  1.00  0.00     0.049 A 
ATOM     59  H   UNL A   1      44.012  28.826  28.040  1.00  0.00     0.167 HD
ATOM     60  C   UNL A   1      46.463  30.243  27.801  1.00  0.00     0.074 A 
ATOM     61  C   UNL A   1      47.848  30.546  27.500  1.00  0.00     0.031 C 
ATOM     62  C   UNL A   1      45.573  31.138  28.295  1.00  0.00     0.037 A 
BRANCH  49  63
ATOM     63  C   UNL A   1      39.876  28.867  29.099  1.00  0.00     0.064 A 
ATOM     64  C   UNL A   1      39.423  28.689  30.415  1.00  0.00     0.173 A 
ATOM     65  C   UNL A   1      38.948  29.302  28.141  1.00  0.00     0.173 A 
ATOM     66  F   UNL A   1      40.265  28.264  31.368  1.00  0.00    -0.203 F 
ATOM     67  C   UNL A   1      38.087  28.899  30.750  1.00  0.00     0.198 A 
ATOM     68  C   UNL A   1      37.620  29.543  28.485  1.00  0.00     0.198 A 
ATOM     69  F   UNL A   1      39.328  29.495  26.869  1.00  0.00    -0.203 F 
ATOM     70  F   UNL A   1      37.666  28.663  32.000  1.00  0.00    -0.200 F 
ATOM     71  C   UNL A   1      37.188  29.330  29.786  1.00  0.00     0.200 A 
ATOM     72  F   UNL A   1      36.756  29.973  27.556  1.00  0.00    -0.200 F 
ATOM     73  F   UNL A   1      35.903  29.531  30.109  1.00  0.00    -0.200 F 
ENDBRANCH  49  63
BRANCH  50  74
ATOM     74  C   UNL A   1      49.186  26.786  26.128  1.00  0.00     0.064 A 
ATOM     75  C   UNL A   1      49.562  26.974  24.791  1.00  0.00     0.173 A 
ATOM     76  C   UNL A   1      50.162  26.326  27.023  1.00  0.00     0.173 A 
ATOM     77  F   UNL A   1      48.657  27.395  23.895  1.00  0.00    -0.203 F 
ATOM     78  C   UNL A   1      50.860  26.704  24.363  1.00  0.00     0.198 A 
ATOM     79  C   UNL A   1      51.467  26.082  26.600  1.00  0.00     0.198 A 
ATOM     80  F   UNL A   1      49.855  26.137  28.314  1.00  0.00    -0.203 F 
ATOM     81  F   UNL A   1      51.184  26.862  23.073  1.00  0.00    -0.200 F 
ATOM     82  C   UNL A   1      51.813  26.265  25.269  1.00  0.00     0.200 A 
ATOM     83  F   UNL A   1      52.390  25.674  27.482  1.00  0.00    -0.200 F 
ATOM     84  F   UNL A   1      53.065  26.018  24.861  1.00  0.00    -0.200 F 
ENDBRANCH  50  74
BRANCH  62  85
ATOM     85  C   UNL A   1      46.076  32.526  28.567  1.00  0.00     0.064 A 
ATOM     86  C   UNL A   1      46.659  32.871  29.795  1.00  0.00     0.173 A 
ATOM     87  C   UNL A   1      46.010  33.512  27.570  1.00  0.00     0.173 A 
ATOM     88  F   UNL A   1      46.730  31.969  30.786  1.00  0.00    -0.203 F 
ATOM     89  C   UNL A   1      47.134  34.160  30.024  1.00  0.00     0.198 A 
ATOM     90  C   UNL A   1      46.513  34.790  27.792  1.00  0.00     0.198 A 
ATOM     91  F   UNL A   1      45.467  33.231  26.376  1.00  0.00    -0.203 F 
ATOM     92  F   UNL A   1      47.643  34.481  31.222  1.00  0.00    -0.200 F 
ATOM     93  C   UNL A   1      47.068  35.115  29.021  1.00  0.00     0.200 A 
ATOM     94  F   UNL A   1      46.460  35.709  26.818  1.00  0.00    -0.200 F 
ATOM     95  F   UNL A   1      47.532  36.353  29.242  1.00  0.00    -0.200 F 
ENDBRANCH  62  85
ENDBRANCH  36  37
ENDBRANCH  28  31
ENDBRANCH  26  27
ENDBRANCH  25  26
ENDBRANCH   1  25
TORSDOF 14
ENDMDL
MODEL 2
REMARK VINA RESULT:     -12.0      1.382      2.116
REMARK SMILES Cc1cccc(CN(C)c2ccc(C(=O)NCCCNC(=O)c3ccc(-c4c5nc(c(-c6c(F)c(F)c(F)c(F)c6F)c6ccc([nH]6)c(-c6c(F)c(F)c(F)c(F)c6F)c6nc(c(-c7c(F)c(F)c(F)c(F)c7F)c7ccc4[nH]7)C=C6)C=C5)cc3)cc2N)n1
REMARK SMILES IDX 17 1 16 2 14 3 15 4 13 6 10 7 11 8 87 9 12 10 86 11 8 12
REMARK SMILES IDX 9 13 7 14 6 15 1 16 2 17 3 18 89 19 4 20 5 21 88 22 18 25
REMARK SMILES IDX 19 26 20 27 21 28 22 30 23 31 24 32 85 33 25 34 84 35 26 36
REMARK SMILES IDX 27 37 28 38 78 39 29 40 83 41 77 42 79 43 30 44 82 45 76 46
REMARK SMILES IDX 75 47 31 49 63 50 43 51 62 52 44 53 47 54 61 55 80 56 45 57
REMARK SMILES IDX 46 58 60 60 81 61 48 62 32 63 33 64 41 65 34 66 35 67 39 68
REMARK SMILES IDX 42 69 36 70 37 71 40 72 38 73 64 74 65 75 73 76 66 77 67 78
REMARK SMILES IDX 71 79 74 80 68 81 69 82 72 83 70 84 49 85 50 86 58 87 51 88
REMARK SMILES IDX 52 89 56 90 59 91 53 92 54 93 57 94 55 95
REMARK H PARENT 16 5 88 23 88 24 20 29 79 48 47 59
REMARK Flexibility Score: inf
ROOT
ATOM      1  C   UNL A   1      36.607  20.554  24.893  1.00  0.00     0.118 C 
ENDROOT
BRANCH   1   2
ATOM      2  N   UNL A   1      35.332  19.874  25.045  1.00  0.00    -0.352 N 
ATOM      3  C   UNL A   1      34.026  20.301  24.991  1.00  0.00     0.251 C 
ATOM      4  O   UNL A   1      33.155  19.446  25.159  1.00  0.00    -0.269 OA
ATOM      5  H   UNL A   1      35.421  18.910  25.224  1.00  0.00     0.163 HD
BRANCH   3   6
ATOM      6  C   UNL A   1      33.617  21.706  24.697  1.00  0.00     0.041 A 
ATOM      7  C   UNL A   1      32.810  24.442  24.272  1.00  0.00     0.060 A 
ATOM      8  C   UNL A   1      33.528  24.031  25.413  1.00  0.00     0.029 A 
ATOM      9  C   UNL A   1      32.341  23.374  23.482  1.00  0.00     0.056 A 
ATOM     10  C   UNL A   1      33.886  22.689  25.648  1.00  0.00     0.016 A 
ATOM     11  C   UNL A   1      32.912  22.099  23.576  1.00  0.00     0.041 A 
BRANCH   7  12
ATOM     12  N   UNL A   1      32.665  25.785  23.919  1.00  0.00    -0.367 N 
ATOM     13  C   UNL A   1      33.465  26.371  22.840  1.00  0.00     0.144 C 
BRANCH  12  14
ATOM     14  C   UNL A   1      31.751  26.774  24.561  1.00  0.00     0.172 C 
BRANCH  14  15
ATOM     15  C   UNL A   1      32.321  27.910  25.412  1.00  0.00     0.060 A 
ATOM     16  C   UNL A   1      31.407  31.353  26.332  1.00  0.00     0.067 C 
ATOM     17  C   UNL A   1      32.135  30.044  26.317  1.00  0.00     0.038 A 
ATOM     18  C   UNL A   1      33.178  29.807  27.210  1.00  0.00     0.023 A 
ATOM     19  N   UNL A   1      31.722  29.128  25.407  1.00  0.00    -0.256 NA
ATOM     20  C   UNL A   1      33.843  28.590  27.151  1.00  0.00     0.004 A 
ATOM     21  C   UNL A   1      33.430  27.639  26.226  1.00  0.00     0.026 A 
ENDBRANCH  14  15
ENDBRANCH  12  14
ENDBRANCH   7  12
BRANCH   9  22
ATOM     22  N   UNL A   1      31.151  23.434  22.751  1.00  0.00    -0.397 N 
ATOM     23  H   UNL A   1      31.068  24.060  21.995  1.00  0.00     0.156 HD
ATOM     24  H   UNL A   1      30.395  22.852  22.991  1.00  0.00     0.156 HD
ENDBRANCH   9  22
ENDBRANCH   3   6
ENDBRANCH   1   2
BRANCH   1  25
ATOM     25  C   UNL A   1      37.773  19.568  24.998  1.00  0.00     0.042 C 
BRANCH  25  26
ATOM     26  C   UNL A   1      38.964  20.163  25.741  1.00  0.00     0.118 C 
BRANCH  26  27
ATOM     27  N   UNL A   1      40.062  19.210  25.831  1.00  0.00    -0.352 N 
ATOM     28  C   UNL A   1      41.404  19.418  26.012  1.00  0.00     0.251 C 
ATOM     29  H   UNL A   1      39.797  18.265  25.749  1.00  0.00     0.163 HD
ATOM     30  O   UNL A   1      42.188  18.490  25.841  1.00  0.00    -0.269 OA
BRANCH  28  31
ATOM     31  C   UNL A   1      41.917  20.751  26.395  1.00  0.00     0.039 A 
ATOM     32  C   UNL A   1      42.234  21.659  25.379  1.00  0.00     0.014 A 
ATOM     33  C   UNL A   1      42.140  21.093  27.731  1.00  0.00     0.014 A 
ATOM     34  C   UNL A   1      42.728  22.923  25.705  1.00  0.00     0.010 A 
ATOM     35  C   UNL A   1      42.566  22.377  28.058  1.00  0.00     0.010 A 
ATOM     36  C   UNL A   1      42.874  23.301  27.049  1.00  0.00    -0.014 A 
BRANCH  36  37
ATOM     37  C   UNL A   1      43.348  24.657  27.416  1.00  0.00     0.031 A 
ATOM     38  C   UNL A   1      42.368  25.709  27.850  1.00  0.00     0.074 A 
ATOM     39  C   UNL A   1      44.654  24.957  27.297  1.00  0.00     0.049 A 
ATOM     40  N   UNL A   1      42.578  26.967  28.148  1.00  0.00    -0.248 NA
ATOM     41  C   UNL A   1      40.957  25.300  27.935  1.00  0.00     0.031 C 
ATOM     42  C   UNL A   1      45.694  24.031  26.846  1.00  0.00     0.029 A 
ATOM     43  N   UNL A   1      45.330  26.127  27.533  1.00  0.00    -0.354 N 
ATOM     44  C   UNL A   1      41.330  27.501  28.436  1.00  0.00     0.074 A 
ATOM     45  C   UNL A   1      40.361  26.447  28.229  1.00  0.00     0.031 C 
ATOM     46  C   UNL A   1      46.880  24.660  26.862  1.00  0.00     0.029 A 
ATOM     47  C   UNL A   1      46.677  26.043  27.286  1.00  0.00     0.049 A 
ATOM     48  H   UNL A   1      44.890  26.948  27.851  1.00  0.00     0.167 HD
ATOM     49  C   UNL A   1      41.023  28.752  28.856  1.00  0.00     0.037 A 
ATOM     50  C   UNL A   1      47.640  26.978  27.384  1.00  0.00     0.037 A 
ATOM     51  C   UNL A   1      41.995  29.790  29.080  1.00  0.00     0.049 A 
ATOM     52  C   UNL A   1      47.273  28.362  27.841  1.00  0.00     0.074 A 
ATOM     53  C   UNL A   1      41.796  31.070  29.567  1.00  0.00     0.029 A 
ATOM     54  N   UNL A   1      43.353  29.667  28.823  1.00  0.00    -0.354 N 
ATOM     55  N   UNL A   1      46.101  28.839  28.179  1.00  0.00    -0.248 NA
ATOM     56  C   UNL A   1      48.368  29.338  27.934  1.00  0.00     0.031 C 
ATOM     57  C   UNL A   1      43.027  31.736  29.559  1.00  0.00     0.029 A 
ATOM     58  C   UNL A   1      44.002  30.857  29.117  1.00  0.00     0.049 A 
ATOM     59  H   UNL A   1      43.793  28.854  28.482  1.00  0.00     0.167 HD
ATOM     60  C   UNL A   1      46.316  30.159  28.548  1.00  0.00     0.074 A 
ATOM     61  C   UNL A   1      47.737  30.404  28.406  1.00  0.00     0.031 C 
ATOM     62  C   UNL A   1      45.418  31.083  28.970  1.00  0.00     0.037 A 
BRANCH  49  63
ATOM     63  C   UNL A   1      39.572  29.065  29.092  1.00  0.00     0.064 A 
ATOM     64  C   UNL A   1      38.982  28.915  30.356  1.00  0.00     0.173 A 
ATOM     65  C   UNL A   1      38.764  29.528  28.044  1.00  0.00     0.173 A 
ATOM     66  F   UNL A   1      39.706  28.465  31.392  1.00  0.00    -0.203 F 
ATOM     67  C   UNL A   1      37.628  29.179  30.553  1.00  0.00     0.198 A 
ATOM     68  C   UNL A   1      37.419  29.822  28.250  1.00  0.00     0.198 A 
ATOM     69  F   UNL A   1      39.278  29.696  26.816  1.00  0.00    -0.203 F 
ATOM     70  F   UNL A   1      37.074  28.969  31.754  1.00  0.00    -0.200 F 
ATOM     71  C   UNL A   1      36.849  29.637  29.501  1.00  0.00     0.200 A 
ATOM     72  F   UNL A   1      36.670  30.278  27.236  1.00  0.00    -0.200 F 
ATOM     73  F   UNL A   1      35.547  29.890  29.691  1.00  0.00    -0.200 F 
ENDBRANCH  49  63
BRANCH  50  74
ATOM     74  C   UNL A   1      49.048  26.618  27.077  1.00  0.00     0.064 A 
ATOM     75  C   UNL A   1      49.528  26.667  25.761  1.00  0.00     0.173 A 
ATOM     76  C   UNL A   1      49.946  26.245  28.088  1.00  0.00     0.173 A 
ATOM     77  F   UNL A   1      48.702  27.000  24.760  1.00  0.00    -0.203 F 
ATOM     78  C   UNL A   1      50.851  26.344  25.465  1.00  0.00     0.198 A 
ATOM     79  C   UNL A   1      51.275  25.950  27.794  1.00  0.00     0.198 A 
ATOM     80  F   UNL A   1      49.538  26.192  29.364  1.00  0.00    -0.203 F 
ATOM     81  F   UNL A   1      51.276  26.368  24.195  1.00  0.00    -0.200 F 
ATOM     82  C   UNL A   1      51.725  25.994  26.483  1.00  0.00     0.200 A 
ATOM     83  F   UNL A   1      52.122  25.627  28.782  1.00  0.00    -0.200 F 
ATOM     84  F   UNL A   1      53.001  25.698  26.200  1.00  0.00    -0.200 F 
ENDBRANCH  50  74
BRANCH  62  85
ATOM     85  C   UNL A   1      45.950  32.439  29.333  1.00  0.00     0.064 A 
ATOM     86  C   UNL A   1      46.006  33.484  28.400  1.00  0.00     0.173 A 
ATOM     87  C   UNL A   1      46.373  32.706  30.645  1.00  0.00     0.173 A 
ATOM     88  F   UNL A   1      45.628  33.274  27.129  1.00  0.00    -0.203 F 
ATOM     89  C   UNL A   1      46.489  34.739  28.759  1.00  0.00     0.198 A 
ATOM     90  C   UNL A   1      46.828  33.969  31.008  1.00  0.00     0.198 A 
ATOM     91  F   UNL A   1      46.335  31.742  31.577  1.00  0.00    -0.203 F 
ATOM     92  F   UNL A   1      46.579  35.709  27.839  1.00  0.00    -0.200 F 
ATOM     93  C   UNL A   1      46.893  34.983  30.064  1.00  0.00     0.200 A 
ATOM     94  F   UNL A   1      47.205  34.208  32.272  1.00  0.00    -0.200 F 
ATOM     95  F   UNL A   1      47.351  36.194  30.409  1.00  0.00    -0.200 F 
ENDBRANCH  62  85
ENDBRANCH  36  37
ENDBRANCH  28  31
ENDBRANCH  26  27
ENDBRANCH  25  26
ENDBRANCH   1  25
TORSDOF 14
ENDMDL
MODEL 3
REMARK VINA RESULT:     -12.0      5.590     11.151
REMARK SMILES Cc1cccc(CN(C)c2ccc(C(=O)NCCCNC(=O)c3ccc(-c4c5nc(c(-c6c(F)c(F)c(F)c(F)c6F)c6ccc([nH]6)c(-c6c(F)c(F)c(F)c(F)c6F)c6nc(c(-c7c(F)c(F)c(F)c(F)c7F)c7ccc4[nH]7)C=C6)C=C5)cc3)cc2N)n1
REMARK SMILES IDX 17 1 16 2 14 3 15 4 13 6 10 7 11 8 87 9 12 10 86 11 8 12
REMARK SMILES IDX 9 13 7 14 6 15 1 16 2 17 3 18 89 19 4 20 5 21 88 22 18 25
REMARK SMILES IDX 19 26 20 27 21 28 22 30 23 31 24 32 85 33 25 34 84 35 26 36
REMARK SMILES IDX 27 37 28 38 78 39 29 40 83 41 77 42 79 43 30 44 82 45 76 46
REMARK SMILES IDX 75 47 31 49 63 50 43 51 62 52 44 53 47 54 61 55 80 56 45 57
REMARK SMILES IDX 46 58 60 60 81 61 48 62 32 63 33 64 41 65 34 66 35 67 39 68
REMARK SMILES IDX 42 69 36 70 37 71 40 72 38 73 64 74 65 75 73 76 66 77 67 78
REMARK SMILES IDX 71 79 74 80 68 81 69 82 72 83 70 84 49 85 50 86 58 87 51 88
REMARK SMILES IDX 52 89 56 90 59 91 53 92 54 93 57 94 55 95
REMARK H PARENT 16 5 88 23 88 24 20 29 79 48 47 59
REMARK Flexibility Score: inf
ROOT
ATOM      1  C   UNL A   1      31.731  30.682  26.868  1.00  0.00     0.118 C 
ENDROOT
BRANCH   1   2
ATOM      2  N   UNL A   1      33.106  30.389  27.238  1.00  0.00    -0.352 N 
ATOM      3  C   UNL A   1      34.008  29.437  26.824  1.00  0.00     0.251 C 
ATOM      4  O   UNL A   1      35.124  29.468  27.344  1.00  0.00    -0.269 OA
ATOM      5  H   UNL A   1      33.464  30.996  27.925  1.00  0.00     0.163 HD
BRANCH   3   6
ATOM      6  C   UNL A   1      33.727  28.422  25.766  1.00  0.00     0.041 A 
ATOM      7  C   UNL A   1      33.270  26.368  23.795  1.00  0.00     0.060 A 
ATOM      8  C   UNL A   1      33.466  26.079  25.161  1.00  0.00     0.029 A 
ATOM      9  C   UNL A   1      33.533  27.710  23.455  1.00  0.00     0.056 A 
ATOM     10  C   UNL A   1      33.734  27.074  26.121  1.00  0.00     0.016 A 
ATOM     11  C   UNL A   1      33.538  28.715  24.430  1.00  0.00     0.041 A 
BRANCH   7  12
ATOM     12  N   UNL A   1      32.771  25.428  22.892  1.00  0.00    -0.367 N 
ATOM     13  C   UNL A   1      31.402  25.528  22.377  1.00  0.00     0.144 C 
BRANCH  12  14
ATOM     14  C   UNL A   1      33.497  24.235  22.366  1.00  0.00     0.172 C 
BRANCH  14  15
ATOM     15  C   UNL A   1      33.944  23.123  23.316  1.00  0.00     0.060 A 
ATOM     16  C   UNL A   1      32.535  20.057  24.781  1.00  0.00     0.067 C 
ATOM     17  C   UNL A   1      33.531  21.110  24.405  1.00  0.00     0.038 A 
ATOM     18  C   UNL A   1      34.874  20.965  24.744  1.00  0.00     0.023 A 
ATOM     19  N   UNL A   1      33.055  22.183  23.726  1.00  0.00    -0.256 NA
ATOM     20  C   UNL A   1      35.764  21.972  24.397  1.00  0.00     0.004 A 
ATOM     21  C   UNL A   1      35.292  23.077  23.699  1.00  0.00     0.026 A 
ENDBRANCH  14  15
ENDBRANCH  12  14
ENDBRANCH   7  12
BRANCH   9  22
ATOM     22  N   UNL A   1      34.037  28.094  22.209  1.00  0.00    -0.397 N 
ATOM     23  H   UNL A   1      34.980  27.921  21.985  1.00  0.00     0.156 HD
ATOM     24  H   UNL A   1      33.450  28.539  21.556  1.00  0.00     0.156 HD
ENDBRANCH   9  22
ENDBRANCH   3   6
ENDBRANCH   1   2
BRANCH   1  25
ATOM     25  C   UNL A   1      31.469  32.190  26.876  1.00  0.00     0.042 C 
BRANCH  25  26
ATOM     26  C   UNL A   1      32.754  32.998  27.018  1.00  0.00     0.118 C 
BRANCH  26  27
ATOM     27  N   UNL A   1      32.499  34.297  27.626  1.00  0.00    -0.352 N 
ATOM     28  C   UNL A   1      33.038  34.871  28.747  1.00  0.00     0.251 C 
ATOM     29  H   UNL A   1      31.836  34.850  27.155  1.00  0.00     0.163 HD
ATOM     30  O   UNL A   1      32.527  35.886  29.210  1.00  0.00    -0.269 OA
BRANCH  28  31
ATOM     31  C   UNL A   1      34.215  34.273  29.412  1.00  0.00     0.039 A 
ATOM     32  C   UNL A   1      34.004  33.435  30.512  1.00  0.00     0.014 A 
ATOM     33  C   UNL A   1      35.517  34.570  29.000  1.00  0.00     0.014 A 
ATOM     34  C   UNL A   1      35.094  32.860  31.168  1.00  0.00     0.010 A 
ATOM     35  C   UNL A   1      36.599  33.942  29.611  1.00  0.00     0.010 A 
ATOM     36  C   UNL A   1      36.399  33.089  30.706  1.00  0.00    -0.014 A 
BRANCH  36  37
ATOM     37  C   UNL A   1      37.566  32.446  31.357  1.00  0.00     0.031 A 
ATOM     38  C   UNL A   1      38.307  31.341  30.660  1.00  0.00     0.074 A 
ATOM     39  C   UNL A   1      37.917  32.816  32.602  1.00  0.00     0.049 A 
ATOM     40  N   UNL A   1      39.307  30.613  31.090  1.00  0.00    -0.248 NA
ATOM     41  C   UNL A   1      37.845  30.988  29.309  1.00  0.00     0.031 C 
ATOM     42  C   UNL A   1      37.246  33.847  33.396  1.00  0.00     0.029 A 
ATOM     43  N   UNL A   1      38.915  32.360  33.425  1.00  0.00    -0.354 N 
ATOM     44  C   UNL A   1      39.580  29.708  30.074  1.00  0.00     0.074 A 
ATOM     45  C   UNL A   1      38.609  29.943  29.026  1.00  0.00     0.031 C 
ATOM     46  C   UNL A   1      37.868  33.963  34.580  1.00  0.00     0.029 A 
ATOM     47  C   UNL A   1      38.953  32.988  34.644  1.00  0.00     0.049 A 
ATOM     48  H   UNL A   1      39.545  31.650  33.164  1.00  0.00     0.167 HD
ATOM     49  C   UNL A   1      40.565  28.779  30.011  1.00  0.00     0.037 A 
ATOM     50  C   UNL A   1      39.767  32.795  35.698  1.00  0.00     0.037 A 
ATOM     51  C   UNL A   1      41.540  28.566  31.048  1.00  0.00     0.049 A 
ATOM     52  C   UNL A   1      40.845  31.752  35.609  1.00  0.00     0.074 A 
ATOM     53  C   UNL A   1      42.617  27.697  31.056  1.00  0.00     0.029 A 
ATOM     54  N   UNL A   1      41.550  29.226  32.269  1.00  0.00    -0.354 N 
ATOM     55  N   UNL A   1      41.140  30.949  34.617  1.00  0.00    -0.248 NA
ATOM     56  C   UNL A   1      41.707  31.591  36.789  1.00  0.00     0.031 C 
ATOM     57  C   UNL A   1      43.250  27.797  32.300  1.00  0.00     0.029 A 
ATOM     58  C   UNL A   1      42.600  28.765  33.049  1.00  0.00     0.049 A 
ATOM     59  H   UNL A   1      40.906  29.919  32.542  1.00  0.00     0.167 HD
ATOM     60  C   UNL A   1      42.234  30.205  35.038  1.00  0.00     0.074 A 
ATOM     61  C   UNL A   1      42.559  30.664  36.373  1.00  0.00     0.031 C 
ATOM     62  C   UNL A   1      42.909  29.233  34.376  1.00  0.00     0.037 A 
BRANCH  49  63
ATOM     63  C   UNL A   1      40.627  27.921  28.779  1.00  0.00     0.064 A 
ATOM     64  C   UNL A   1      39.922  26.711  28.687  1.00  0.00     0.173 A 
ATOM     65  C   UNL A   1      41.394  28.317  27.674  1.00  0.00     0.173 A 
ATOM     66  F   UNL A   1      39.182  26.279  29.718  1.00  0.00    -0.203 F 
ATOM     67  C   UNL A   1      40.015  25.911  27.550  1.00  0.00     0.198 A 
ATOM     68  C   UNL A   1      41.459  27.532  26.526  1.00  0.00     0.198 A 
ATOM     69  F   UNL A   1      42.082  29.468  27.705  1.00  0.00    -0.203 F 
ATOM     70  F   UNL A   1      39.382  24.731  27.510  1.00  0.00    -0.200 F 
ATOM     71  C   UNL A   1      40.779  26.324  26.469  1.00  0.00     0.200 A 
ATOM     72  F   UNL A   1      42.186  27.938  25.477  1.00  0.00    -0.200 F 
ATOM     73  F   UNL A   1      40.867  25.554  25.376  1.00  0.00    -0.200 F 
ENDBRANCH  49  63
BRANCH  50  74
ATOM     74  C   UNL A   1      39.613  33.639  36.910  1.00  0.00     0.064 A 
ATOM     75  C   UNL A   1      40.279  34.868  37.016  1.00  0.00     0.173 A 
ATOM     76  C   UNL A   1      38.783  33.251  37.972  1.00  0.00     0.173 A 
ATOM     77  F   UNL A   1      41.097  35.271  36.034  1.00  0.00    -0.203 F 
ATOM     78  C   UNL A   1      40.130  35.672  38.144  1.00  0.00     0.198 A 
ATOM     79  C   UNL A   1      38.614  34.069  39.087  1.00  0.00     0.198 A 
ATOM     80  F   UNL A   1      38.118  32.089  37.916  1.00  0.00    -0.203 F 
ATOM     81  F   UNL A   1      40.803  36.827  38.233  1.00  0.00    -0.200 F 
ATOM     82  C   UNL A   1      39.291  35.276  39.175  1.00  0.00     0.200 A 
ATOM     83  F   UNL A   1      37.790  33.691  40.074  1.00  0.00    -0.200 F 
ATOM     84  F   UNL A   1      39.138  36.057  40.252  1.00  0.00    -0.200 F 
ENDBRANCH  50  74
BRANCH  62  85
ATOM     85  C   UNL A   1      44.085  28.618  35.078  1.00  0.00     0.064 A 
ATOM     86  C   UNL A   1      43.953  27.467  35.869  1.00  0.00     0.173 A 
ATOM     87  C   UNL A   1      45.369  29.166  34.925  1.00  0.00     0.173 A 
ATOM     88  F   UNL A   1      42.745  26.915  36.059  1.00  0.00    -0.203 F 
ATOM     89  C   UNL A   1      45.057  26.902  36.500  1.00  0.00     0.198 A 
ATOM     90  C   UNL A   1      46.475  28.581  35.533  1.00  0.00     0.198 A 
ATOM     91  F   UNL A   1      45.550  30.263  34.174  1.00  0.00    -0.203 F 
ATOM     92  F   UNL A   1      44.900  25.830  37.290  1.00  0.00    -0.200 F 
ATOM     93  C   UNL A   1      46.318  27.455  36.326  1.00  0.00     0.200 A 
ATOM     94  F   UNL A   1      47.694  29.108  35.354  1.00  0.00    -0.200 F 
ATOM     95  F   UNL A   1      47.381  26.904  36.930  1.00  0.00    -0.200 F 
ENDBRANCH  62  85
ENDBRANCH  36  37
ENDBRANCH  28  31
ENDBRANCH  26  27
ENDBRANCH  25  26
ENDBRANCH   1  25
TORSDOF 14
ENDMDL
