MODEL 1
REMARK VINA RESULT:     -12.1      0.000      0.000
REMARK SMILES CCc1c(C(=O)NCCCNC(=O)c2ccc(-c3c4nc(c(-c5c(F)c(F)c(F)c(F)c5F)c5ccc([nH]5)c(-c5c(F)c(F)c(F)c(F)c5F)c5nc(c(-c6c(F)c(F)c(F)c(F)c6F)c6ccc3[nH]6)C=C5)C=C4)cc2)nnn1-c1ccc(OC)cc1
REMARK SMILES IDX 9 1 8 2 7 3 5 4 6 5 4 7 3 8 79 9 77 10 78 11 2 12 1 13 80 14
REMARK SMILES IDX 81 15 87 16 82 17 86 18 83 19 84 20 85 21 10 22 11 23 12 24
REMARK SMILES IDX 13 26 14 27 15 28 76 29 16 30 75 31 17 32 18 33 19 34 69 35
REMARK SMILES IDX 20 36 74 37 68 38 70 39 21 40 73 41 67 42 66 43 22 45 54 46
REMARK SMILES IDX 34 47 53 48 35 49 38 50 52 51 71 52 36 53 37 54 51 56 72 57
REMARK SMILES IDX 39 58 23 59 24 60 32 61 25 62 26 63 30 64 33 65 27 66 28 67
REMARK SMILES IDX 31 68 29 69 55 70 56 71 64 72 57 73 58 74 62 75 65 76 59 77
REMARK SMILES IDX 60 78 63 79 61 80 40 81 41 82 49 83 42 84 43 85 47 86 50 87
REMARK SMILES IDX 44 88 45 89 48 90 46 91
REMARK H PARENT 7 6 11 25 70 44 38 55
REMARK Flexibility Score: inf
ROOT
ATOM      1  C   UNL A   1      40.908  20.247  26.416  1.00  0.00     0.042 C 
ENDROOT
BRANCH   1   2
ATOM      2  C   UNL A   1      42.044  19.658  27.259  1.00  0.00     0.118 C 
BRANCH   2   3
ATOM      3  N   UNL A   1      42.980  18.966  26.424  1.00  0.00    -0.351 N 
ATOM      4  C   UNL A   1      43.910  19.403  25.530  1.00  0.00     0.273 C 
ATOM      5  O   UNL A   1      44.490  18.473  24.954  1.00  0.00    -0.267 OA
ATOM      6  H   UNL A   1      42.943  17.986  26.513  1.00  0.00     0.163 HD
BRANCH   4   7
ATOM      7  C   UNL A   1      44.265  20.803  25.227  1.00  0.00     0.174 A 
ATOM      8  C   UNL A   1      44.527  22.028  25.871  1.00  0.00     0.077 A 
ATOM      9  N   UNL A   1      44.972  22.833  24.798  1.00  0.00    -0.217 N 
ATOM     10  N   UNL A   1      44.377  21.023  23.855  1.00  0.00    -0.124 NA
ATOM     11  N   UNL A   1      44.697  22.273  23.621  1.00  0.00    -0.061 NA
BRANCH   8  12
ATOM     12  C   UNL A   1      44.533  22.709  27.224  1.00  0.00     0.055 C 
ATOM     13  C   UNL A   1      43.300  23.107  27.976  1.00  0.00     0.011 C 
ENDBRANCH   8  12
BRANCH   9  14
ATOM     14  C   UNL A   1      45.467  24.158  24.864  1.00  0.00     0.067 A 
ATOM     15  C   UNL A   1      44.557  25.194  25.074  1.00  0.00     0.032 A 
ATOM     16  C   UNL A   1      46.848  24.393  24.937  1.00  0.00     0.032 A 
ATOM     17  C   UNL A   1      45.039  26.436  25.487  1.00  0.00     0.048 A 
ATOM     18  C   UNL A   1      47.317  25.638  25.353  1.00  0.00     0.048 A 
ATOM     19  C   UNL A   1      46.412  26.654  25.659  1.00  0.00     0.119 A 
BRANCH  19  20
ATOM     20  O   UNL A   1      46.740  27.891  26.142  1.00  0.00    -0.497 OA
ATOM     21  C   UNL A   1      47.573  27.924  27.295  1.00  0.00     0.278 C 
ENDBRANCH  19  20
ENDBRANCH   9  14
ENDBRANCH   4   7
ENDBRANCH   2   3
ENDBRANCH   1   2
BRANCH   1  22
ATOM     22  C   UNL A   1      40.589  21.656  26.824  1.00  0.00     0.118 C 
BRANCH  22  23
ATOM     23  N   UNL A   1      39.338  22.130  26.199  1.00  0.00    -0.352 N 
ATOM     24  C   UNL A   1      38.725  23.371  26.335  1.00  0.00     0.251 C 
ATOM     25  H   UNL A   1      38.880  21.486  25.612  1.00  0.00     0.163 HD
ATOM     26  O   UNL A   1      37.568  23.554  26.028  1.00  0.00    -0.269 OA
BRANCH  24  27
ATOM     27  C   UNL A   1      39.557  24.456  26.885  1.00  0.00     0.039 A 
ATOM     28  C   UNL A   1      40.465  25.186  26.120  1.00  0.00     0.014 A 
ATOM     29  C   UNL A   1      39.232  24.847  28.171  1.00  0.00     0.014 A 
ATOM     30  C   UNL A   1      40.944  26.379  26.653  1.00  0.00     0.010 A 
ATOM     31  C   UNL A   1      39.372  26.160  28.477  1.00  0.00     0.010 A 
ATOM     32  C   UNL A   1      40.350  26.879  27.825  1.00  0.00    -0.014 A 
BRANCH  32  33
ATOM     33  C   UNL A   1      40.640  28.195  28.371  1.00  0.00     0.031 A 
ATOM     34  C   UNL A   1      41.851  28.806  27.788  1.00  0.00     0.074 A 
ATOM     35  C   UNL A   1      39.772  28.873  29.160  1.00  0.00     0.049 A 
ATOM     36  N   UNL A   1      43.021  28.856  28.328  1.00  0.00    -0.248 NA
ATOM     37  C   UNL A   1      41.832  29.215  26.375  1.00  0.00     0.031 C 
ATOM     38  C   UNL A   1      38.389  28.511  29.517  1.00  0.00     0.029 A 
ATOM     39  N   UNL A   1      39.911  30.094  29.750  1.00  0.00    -0.354 N 
ATOM     40  C   UNL A   1      43.808  29.572  27.435  1.00  0.00     0.074 A 
ATOM     41  C   UNL A   1      43.116  29.529  26.176  1.00  0.00     0.031 C 
ATOM     42  C   UNL A   1      37.749  29.577  30.041  1.00  0.00     0.029 A 
ATOM     43  C   UNL A   1      38.726  30.622  30.258  1.00  0.00     0.049 A 
ATOM     44  H   UNL A   1      40.774  30.562  29.813  1.00  0.00     0.167 HD
ATOM     45  C   UNL A   1      44.749  30.431  27.918  1.00  0.00     0.037 A 
ATOM     46  C   UNL A   1      38.560  31.830  30.848  1.00  0.00     0.037 A 
ATOM     47  C   UNL A   1      44.922  30.217  29.338  1.00  0.00     0.049 A 
ATOM     48  C   UNL A   1      39.891  32.258  31.334  1.00  0.00     0.074 A 
ATOM     49  C   UNL A   1      45.501  29.263  30.144  1.00  0.00     0.029 A 
ATOM     50  N   UNL A   1      44.017  30.906  30.104  1.00  0.00    -0.354 N 
ATOM     51  N   UNL A   1      40.534  31.640  32.287  1.00  0.00    -0.248 NA
ATOM     52  C   UNL A   1      40.702  33.136  30.500  1.00  0.00     0.031 C 
ATOM     53  C   UNL A   1      44.798  29.311  31.386  1.00  0.00     0.029 A 
ATOM     54  C   UNL A   1      43.847  30.328  31.332  1.00  0.00     0.049 A 
ATOM     55  H   UNL A   1      43.547  31.718  29.806  1.00  0.00     0.167 HD
ATOM     56  C   UNL A   1      41.858  31.704  31.899  1.00  0.00     0.074 A 
ATOM     57  C   UNL A   1      41.921  32.774  30.913  1.00  0.00     0.031 C 
ATOM     58  C   UNL A   1      42.705  30.664  32.153  1.00  0.00     0.037 A 
BRANCH  45  59
ATOM     59  C   UNL A   1      45.111  31.774  27.312  1.00  0.00     0.064 A 
ATOM     60  C   UNL A   1      46.417  31.946  26.804  1.00  0.00     0.173 A 
ATOM     61  C   UNL A   1      44.376  32.965  27.496  1.00  0.00     0.173 A 
ATOM     62  F   UNL A   1      47.214  30.887  26.594  1.00  0.00    -0.203 F 
ATOM     63  C   UNL A   1      46.969  33.213  26.588  1.00  0.00     0.198 A 
ATOM     64  C   UNL A   1      44.915  34.225  27.234  1.00  0.00     0.198 A 
ATOM     65  F   UNL A   1      43.155  32.982  28.039  1.00  0.00    -0.203 F 
ATOM     66  F   UNL A   1      48.255  33.327  26.226  1.00  0.00    -0.200 F 
ATOM     67  C   UNL A   1      46.220  34.351  26.812  1.00  0.00     0.200 A 
ATOM     68  F   UNL A   1      44.178  35.317  27.480  1.00  0.00    -0.200 F 
ATOM     69  F   UNL A   1      46.763  35.567  26.668  1.00  0.00    -0.200 F 
ENDBRANCH  45  59
BRANCH  46  70
ATOM     70  C   UNL A   1      37.388  32.731  30.816  1.00  0.00     0.064 A 
ATOM     71  C   UNL A   1      37.030  33.425  29.649  1.00  0.00     0.173 A 
ATOM     72  C   UNL A   1      36.429  32.696  31.846  1.00  0.00     0.173 A 
ATOM     73  F   UNL A   1      37.875  33.475  28.609  1.00  0.00    -0.203 F 
ATOM     74  C   UNL A   1      35.770  34.015  29.505  1.00  0.00     0.198 A 
ATOM     75  C   UNL A   1      35.171  33.284  31.702  1.00  0.00     0.198 A 
ATOM     76  F   UNL A   1      36.660  32.002  32.970  1.00  0.00    -0.203 F 
ATOM     77  F   UNL A   1      35.438  34.611  28.352  1.00  0.00    -0.200 F 
ATOM     78  C   UNL A   1      34.836  33.930  30.525  1.00  0.00     0.200 A 
ATOM     79  F   UNL A   1      34.264  33.160  32.680  1.00  0.00    -0.200 F 
ATOM     80  F   UNL A   1      33.604  34.429  30.360  1.00  0.00    -0.200 F 
ENDBRANCH  46  70
BRANCH  58  81
ATOM     81  C   UNL A   1      42.343  29.738  33.274  1.00  0.00     0.064 A 
ATOM     82  C   UNL A   1      41.666  28.517  33.120  1.00  0.00     0.173 A 
ATOM     83  C   UNL A   1      42.773  30.081  34.562  1.00  0.00     0.173 A 
ATOM     84  F   UNL A   1      41.287  28.084  31.911  1.00  0.00    -0.203 F 
ATOM     85  C   UNL A   1      41.400  27.698  34.218  1.00  0.00     0.198 A 
ATOM     86  C   UNL A   1      42.541  29.246  35.649  1.00  0.00     0.198 A 
ATOM     87  F   UNL A   1      43.459  31.217  34.759  1.00  0.00    -0.203 F 
ATOM     88  F   UNL A   1      40.735  26.546  34.052  1.00  0.00    -0.200 F 
ATOM     89  C   UNL A   1      41.844  28.061  35.480  1.00  0.00     0.200 A 
ATOM     90  F   UNL A   1      43.009  29.583  36.859  1.00  0.00    -0.200 F 
ATOM     91  F   UNL A   1      41.618  27.259  36.530  1.00  0.00    -0.200 F 
ENDBRANCH  58  81
ENDBRANCH  32  33
ENDBRANCH  24  27
ENDBRANCH  22  23
ENDBRANCH   1  22
TORSDOF 13
ENDMDL
MODEL 2
REMARK VINA RESULT:     -12.1      3.216      8.262
REMARK SMILES CCc1c(C(=O)NCCCNC(=O)c2ccc(-c3c4nc(c(-c5c(F)c(F)c(F)c(F)c5F)c5ccc([nH]5)c(-c5c(F)c(F)c(F)c(F)c5F)c5nc(c(-c6c(F)c(F)c(F)c(F)c6F)c6ccc3[nH]6)C=C5)C=C4)cc2)nnn1-c1ccc(OC)cc1
REMARK SMILES IDX 9 1 8 2 7 3 5 4 6 5 4 7 3 8 79 9 77 10 78 11 2 12 1 13 80 14
REMARK SMILES IDX 81 15 87 16 82 17 86 18 83 19 84 20 85 21 10 22 11 23 12 24
REMARK SMILES IDX 13 26 14 27 15 28 76 29 16 30 75 31 17 32 18 33 19 34 69 35
REMARK SMILES IDX 20 36 74 37 68 38 70 39 21 40 73 41 67 42 66 43 22 45 54 46
REMARK SMILES IDX 34 47 53 48 35 49 38 50 52 51 71 52 36 53 37 54 51 56 72 57
REMARK SMILES IDX 39 58 23 59 24 60 32 61 25 62 26 63 30 64 33 65 27 66 28 67
REMARK SMILES IDX 31 68 29 69 55 70 56 71 64 72 57 73 58 74 62 75 65 76 59 77
REMARK SMILES IDX 60 78 63 79 61 80 40 81 41 82 49 83 42 84 43 85 47 86 50 87
REMARK SMILES IDX 44 88 45 89 48 90 46 91
REMARK H PARENT 7 6 11 25 70 44 38 55
REMARK Flexibility Score: inf
ROOT
ATOM      1  C   UNL A   1      43.796  33.668  24.983  1.00  0.00     0.042 C 
ENDROOT
BRANCH   1   2
ATOM      2  C   UNL A   1      44.120  32.465  25.876  1.00  0.00     0.118 C 
BRANCH   2   3
ATOM      3  N   UNL A   1      45.534  32.341  26.057  1.00  0.00    -0.351 N 
ATOM      4  C   UNL A   1      46.356  31.257  26.146  1.00  0.00     0.273 C 
ATOM      5  O   UNL A   1      47.534  31.571  26.367  1.00  0.00    -0.267 OA
ATOM      6  H   UNL A   1      46.002  33.203  26.131  1.00  0.00     0.163 HD
BRANCH   4   7
ATOM      7  C   UNL A   1      45.979  29.838  25.995  1.00  0.00     0.174 A 
ATOM      8  C   UNL A   1      45.302  28.808  26.676  1.00  0.00     0.077 A 
ATOM      9  N   UNL A   1      45.257  27.790  25.697  1.00  0.00    -0.217 N 
ATOM     10  N   UNL A   1      46.440  29.307  24.791  1.00  0.00    -0.124 NA
ATOM     11  N   UNL A   1      46.085  28.049  24.686  1.00  0.00    -0.061 NA
BRANCH   8  12
ATOM     12  C   UNL A   1      44.622  28.464  27.985  1.00  0.00     0.055 C 
ATOM     13  C   UNL A   1      44.048  29.474  28.931  1.00  0.00     0.011 C 
ENDBRANCH   8  12
BRANCH   9  14
ATOM     14  C   UNL A   1      44.607  26.535  25.790  1.00  0.00     0.067 A 
ATOM     15  C   UNL A   1      43.279  26.446  25.371  1.00  0.00     0.032 A 
ATOM     16  C   UNL A   1      45.345  25.380  26.083  1.00  0.00     0.032 A 
ATOM     17  C   UNL A   1      42.740  25.184  25.123  1.00  0.00     0.048 A 
ATOM     18  C   UNL A   1      44.795  24.124  25.829  1.00  0.00     0.048 A 
ATOM     19  C   UNL A   1      43.500  24.024  25.318  1.00  0.00     0.119 A 
BRANCH  19  20
ATOM     20  O   UNL A   1      42.875  22.861  24.963  1.00  0.00    -0.497 OA
ATOM     21  C   UNL A   1      41.784  22.449  25.778  1.00  0.00     0.278 C 
ENDBRANCH  19  20
ENDBRANCH   9  14
ENDBRANCH   4   7
ENDBRANCH   2   3
ENDBRANCH   1   2
BRANCH   1  22
ATOM     22  C   UNL A   1      43.589  34.916  25.790  1.00  0.00     0.118 C 
BRANCH  22  23
ATOM     23  N   UNL A   1      44.873  35.569  26.116  1.00  0.00    -0.352 N 
ATOM     24  C   UNL A   1      45.258  36.160  27.315  1.00  0.00     0.251 C 
ATOM     25  H   UNL A   1      45.541  35.589  25.393  1.00  0.00     0.163 HD
ATOM     26  O   UNL A   1      46.198  36.919  27.385  1.00  0.00    -0.269 OA
BRANCH  24  27
ATOM     27  C   UNL A   1      44.451  35.820  28.501  1.00  0.00     0.039 A 
ATOM     28  C   UNL A   1      43.467  36.658  29.021  1.00  0.00     0.014 A 
ATOM     29  C   UNL A   1      44.586  34.518  28.946  1.00  0.00     0.014 A 
ATOM     30  C   UNL A   1      42.558  36.106  29.919  1.00  0.00     0.010 A 
ATOM     31  C   UNL A   1      43.487  33.920  29.468  1.00  0.00     0.010 A 
ATOM     32  C   UNL A   1      42.554  34.712  30.102  1.00  0.00    -0.014 A 
BRANCH  32  33
ATOM     33  C   UNL A   1      41.542  34.008  30.870  1.00  0.00     0.031 A 
ATOM     34  C   UNL A   1      41.961  33.734  32.259  1.00  0.00     0.074 A 
ATOM     35  C   UNL A   1      40.275  33.824  30.427  1.00  0.00     0.049 A 
ATOM     36  N   UNL A   1      42.400  32.613  32.721  1.00  0.00    -0.248 NA
ATOM     37  C   UNL A   1      42.119  34.862  33.191  1.00  0.00     0.031 C 
ATOM     38  C   UNL A   1      39.647  34.363  29.207  1.00  0.00     0.029 A 
ATOM     39  N   UNL A   1      39.234  33.178  31.024  1.00  0.00    -0.354 N 
ATOM     40  C   UNL A   1      42.605  32.830  34.078  1.00  0.00     0.074 A 
ATOM     41  C   UNL A   1      42.673  34.255  34.245  1.00  0.00     0.031 C 
ATOM     42  C   UNL A   1      38.306  34.234  29.278  1.00  0.00     0.029 A 
ATOM     43  C   UNL A   1      37.996  33.417  30.430  1.00  0.00     0.049 A 
ATOM     44  H   UNL A   1      39.346  32.593  31.807  1.00  0.00     0.167 HD
ATOM     45  C   UNL A   1      42.325  31.830  34.961  1.00  0.00     0.037 A 
ATOM     46  C   UNL A   1      36.793  32.949  30.840  1.00  0.00     0.037 A 
ATOM     47  C   UNL A   1      42.104  30.594  34.245  1.00  0.00     0.049 A 
ATOM     48  C   UNL A   1      37.056  31.752  31.669  1.00  0.00     0.074 A 
ATOM     49  C   UNL A   1      42.878  29.671  33.577  1.00  0.00     0.029 A 
ATOM     50  N   UNL A   1      40.816  30.449  33.797  1.00  0.00    -0.354 N 
ATOM     51  N   UNL A   1      37.563  30.649  31.188  1.00  0.00    -0.248 NA
ATOM     52  C   UNL A   1      37.132  31.895  33.118  1.00  0.00     0.031 C 
ATOM     53  C   UNL A   1      42.025  29.069  32.601  1.00  0.00     0.029 A 
ATOM     54  C   UNL A   1      40.741  29.592  32.733  1.00  0.00     0.049 A 
ATOM     55  H   UNL A   1      40.040  30.906  34.194  1.00  0.00     0.167 HD
ATOM     56  C   UNL A   1      38.392  30.190  32.192  1.00  0.00     0.074 A 
ATOM     57  C   UNL A   1      37.953  30.878  33.400  1.00  0.00     0.031 C 
ATOM     58  C   UNL A   1      39.567  29.566  31.889  1.00  0.00     0.037 A 
BRANCH  45  59
ATOM     59  C   UNL A   1      41.722  32.017  36.340  1.00  0.00     0.064 A 
ATOM     60  C   UNL A   1      40.495  32.709  36.445  1.00  0.00     0.173 A 
ATOM     61  C   UNL A   1      42.423  31.851  37.555  1.00  0.00     0.173 A 
ATOM     62  F   UNL A   1      39.743  32.934  35.357  1.00  0.00    -0.203 F 
ATOM     63  C   UNL A   1      40.056  33.266  37.650  1.00  0.00     0.198 A 
ATOM     64  C   UNL A   1      41.958  32.368  38.764  1.00  0.00     0.198 A 
ATOM     65  F   UNL A   1      43.633  31.288  37.617  1.00  0.00    -0.203 F 
ATOM     66  F   UNL A   1      38.949  34.021  37.672  1.00  0.00    -0.200 F 
ATOM     67  C   UNL A   1      40.793  33.102  38.807  1.00  0.00     0.200 A 
ATOM     68  F   UNL A   1      42.700  32.216  39.870  1.00  0.00    -0.200 F 
ATOM     69  F   UNL A   1      40.411  33.686  39.950  1.00  0.00    -0.200 F 
ENDBRANCH  45  59
BRANCH  46  70
ATOM     70  C   UNL A   1      35.464  33.592  30.755  1.00  0.00     0.064 A 
ATOM     71  C   UNL A   1      35.052  34.549  31.697  1.00  0.00     0.173 A 
ATOM     72  C   UNL A   1      34.694  33.494  29.581  1.00  0.00     0.173 A 
ATOM     73  F   UNL A   1      35.753  34.727  32.826  1.00  0.00    -0.203 F 
ATOM     74  C   UNL A   1      33.958  35.388  31.459  1.00  0.00     0.198 A 
ATOM     75  C   UNL A   1      33.603  34.332  29.343  1.00  0.00     0.198 A 
ATOM     76  F   UNL A   1      35.051  32.652  28.599  1.00  0.00    -0.203 F 
ATOM     77  F   UNL A   1      33.635  36.335  32.349  1.00  0.00    -0.200 F 
ATOM     78  C   UNL A   1      33.245  35.289  30.275  1.00  0.00     0.200 A 
ATOM     79  F   UNL A   1      32.946  34.253  28.177  1.00  0.00    -0.200 F 
ATOM     80  F   UNL A   1      32.244  36.140  30.013  1.00  0.00    -0.200 F 
ENDBRANCH  46  70
BRANCH  58  81
ATOM     81  C   UNL A   1      39.682  28.933  30.537  1.00  0.00     0.064 A 
ATOM     82  C   UNL A   1      40.288  29.530  29.419  1.00  0.00     0.173 A 
ATOM     83  C   UNL A   1      39.214  27.621  30.394  1.00  0.00     0.173 A 
ATOM     84  F   UNL A   1      40.826  30.754  29.497  1.00  0.00    -0.203 F 
ATOM     85  C   UNL A   1      40.384  28.852  28.204  1.00  0.00     0.198 A 
ATOM     86  C   UNL A   1      39.344  26.933  29.192  1.00  0.00     0.198 A 
ATOM     87  F   UNL A   1      38.662  26.988  31.440  1.00  0.00    -0.203 F 
ATOM     88  F   UNL A   1      40.948  29.449  27.144  1.00  0.00    -0.200 F 
ATOM     89  C   UNL A   1      39.917  27.552  28.094  1.00  0.00     0.200 A 
ATOM     90  F   UNL A   1      38.928  25.662  29.106  1.00  0.00    -0.200 F 
ATOM     91  F   UNL A   1      40.037  26.888  26.936  1.00  0.00    -0.200 F 
ENDBRANCH  58  81
ENDBRANCH  32  33
ENDBRANCH  24  27
ENDBRANCH  22  23
ENDBRANCH   1  22
TORSDOF 13
ENDMDL
MODEL 3
REMARK VINA RESULT:     -11.9      4.455      9.594
REMARK SMILES CCc1c(C(=O)NCCCNC(=O)c2ccc(-c3c4nc(c(-c5c(F)c(F)c(F)c(F)c5F)c5ccc([nH]5)c(-c5c(F)c(F)c(F)c(F)c5F)c5nc(c(-c6c(F)c(F)c(F)c(F)c6F)c6ccc3[nH]6)C=C5)C=C4)cc2)nnn1-c1ccc(OC)cc1
REMARK SMILES IDX 9 1 8 2 7 3 5 4 6 5 4 7 3 8 79 9 77 10 78 11 2 12 1 13 80 14
REMARK SMILES IDX 81 15 87 16 82 17 86 18 83 19 84 20 85 21 10 22 11 23 12 24
REMARK SMILES IDX 13 26 14 27 15 28 76 29 16 30 75 31 17 32 18 33 19 34 69 35
REMARK SMILES IDX 20 36 74 37 68 38 70 39 21 40 73 41 67 42 66 43 22 45 54 46
REMARK SMILES IDX 34 47 53 48 35 49 38 50 52 51 71 52 36 53 37 54 51 56 72 57
REMARK SMILES IDX 39 58 23 59 24 60 32 61 25 62 26 63 30 64 33 65 27 66 28 67
REMARK SMILES IDX 31 68 29 69 55 70 56 71 64 72 57 73 58 74 62 75 65 76 59 77
REMARK SMILES IDX 60 78 63 79 61 80 40 81 41 82 49 83 42 84 43 85 47 86 50 87
REMARK SMILES IDX 44 88 45 89 48 90 46 91
REMARK H PARENT 7 6 11 25 70 44 38 55
REMARK Flexibility Score: inf
ROOT
ATOM      1  C   UNL A   1      33.750  28.828  27.076  1.00  0.00     0.042 C 
ENDROOT
BRANCH   1   2
ATOM      2  C   UNL A   1      33.645  27.474  26.366  1.00  0.00     0.118 C 
BRANCH   2   3
ATOM      3  N   UNL A   1      33.508  27.658  24.953  1.00  0.00    -0.351 N 
ATOM      4  C   UNL A   1      33.563  26.788  23.905  1.00  0.00     0.273 C 
ATOM      5  O   UNL A   1      33.455  27.356  22.810  1.00  0.00    -0.267 OA
ATOM      6  H   UNL A   1      33.343  28.591  24.688  1.00  0.00     0.163 HD
BRANCH   4   7
ATOM      7  C   UNL A   1      33.715  25.322  23.972  1.00  0.00     0.174 A 
ATOM      8  C   UNL A   1      33.545  24.244  24.863  1.00  0.00     0.077 A 
ATOM      9  N   UNL A   1      33.761  23.131  24.021  1.00  0.00    -0.217 N 
ATOM     10  N   UNL A   1      34.194  24.797  22.773  1.00  0.00    -0.124 NA
ATOM     11  N   UNL A   1      34.314  23.494  22.863  1.00  0.00    -0.061 NA
BRANCH   8  12
ATOM     12  C   UNL A   1      33.196  23.901  26.296  1.00  0.00     0.055 C 
ATOM     13  C   UNL A   1      31.799  23.831  26.834  1.00  0.00     0.011 C 
ENDBRANCH   8  12
BRANCH   9  14
ATOM     14  C   UNL A   1      33.631  21.761  24.354  1.00  0.00     0.067 A 
ATOM     15  C   UNL A   1      32.448  21.106  24.008  1.00  0.00     0.032 A 
ATOM     16  C   UNL A   1      34.741  21.039  24.815  1.00  0.00     0.032 A 
ATOM     17  C   UNL A   1      32.432  19.712  24.004  1.00  0.00     0.048 A 
ATOM     18  C   UNL A   1      34.713  19.645  24.803  1.00  0.00     0.048 A 
ATOM     19  C   UNL A   1      33.568  18.977  24.368  1.00  0.00     0.119 A 
BRANCH  19  20
ATOM     20  O   UNL A   1      33.438  17.621  24.243  1.00  0.00    -0.497 OA
ATOM     21  C   UNL A   1      33.194  16.891  25.440  1.00  0.00     0.278 C 
ENDBRANCH  19  20
ENDBRANCH   9  14
ENDBRANCH   4   7
ENDBRANCH   2   3
ENDBRANCH   1   2
BRANCH   1  22
ATOM     22  C   UNL A   1      35.179  29.254  27.248  1.00  0.00     0.118 C 
BRANCH  22  23
ATOM     23  N   UNL A   1      35.411  29.844  28.582  1.00  0.00    -0.352 N 
ATOM     24  C   UNL A   1      36.489  29.641  29.437  1.00  0.00     0.251 C 
ATOM     25  H   UNL A   1      34.714  30.459  28.906  1.00  0.00     0.163 HD
ATOM     26  O   UNL A   1      36.440  29.928  30.611  1.00  0.00    -0.269 OA
BRANCH  24  27
ATOM     27  C   UNL A   1      37.696  29.044  28.838  1.00  0.00     0.039 A 
ATOM     28  C   UNL A   1      38.388  29.622  27.775  1.00  0.00     0.014 A 
ATOM     29  C   UNL A   1      38.225  27.972  29.533  1.00  0.00     0.014 A 
ATOM     30  C   UNL A   1      39.673  29.157  27.513  1.00  0.00     0.010 A 
ATOM     31  C   UNL A   1      39.574  27.834  29.535  1.00  0.00     0.010 A 
ATOM     32  C   UNL A   1      40.275  28.285  28.437  1.00  0.00    -0.014 A 
BRANCH  32  33
ATOM     33  C   UNL A   1      41.668  27.877  28.365  1.00  0.00     0.031 A 
ATOM     34  C   UNL A   1      41.864  26.629  27.602  1.00  0.00     0.074 A 
ATOM     35  C   UNL A   1      42.690  28.674  28.761  1.00  0.00     0.049 A 
ATOM     36  N   UNL A   1      42.047  25.451  28.093  1.00  0.00    -0.248 NA
ATOM     37  C   UNL A   1      41.618  26.634  26.151  1.00  0.00     0.031 C 
ATOM     38  C   UNL A   1      42.634  30.077  29.208  1.00  0.00     0.029 A 
ATOM     39  N   UNL A   1      44.030  28.425  28.766  1.00  0.00    -0.354 N 
ATOM     40  C   UNL A   1      42.237  24.620  26.996  1.00  0.00     0.074 A 
ATOM     41  C   UNL A   1      41.709  25.332  25.865  1.00  0.00     0.031 C 
ATOM     42  C   UNL A   1      43.870  30.617  29.202  1.00  0.00     0.029 A 
ATOM     43  C   UNL A   1      44.822  29.553  28.967  1.00  0.00     0.049 A 
ATOM     44  H   UNL A   1      44.407  27.524  28.638  1.00  0.00     0.167 HD
ATOM     45  C   UNL A   1      43.141  23.604  27.080  1.00  0.00     0.037 A 
ATOM     46  C   UNL A   1      46.175  29.609  28.970  1.00  0.00     0.037 A 
ATOM     47  C   UNL A   1      43.552  23.428  28.455  1.00  0.00     0.049 A 
ATOM     48  C   UNL A   1      46.661  28.240  29.252  1.00  0.00     0.074 A 
ATOM     49  C   UNL A   1      42.999  22.918  29.609  1.00  0.00     0.029 A 
ATOM     50  N   UNL A   1      44.576  24.260  28.826  1.00  0.00    -0.354 N 
ATOM     51  N   UNL A   1      46.468  27.636  30.393  1.00  0.00    -0.248 NA
ATOM     52  C   UNL A   1      47.020  27.371  28.138  1.00  0.00     0.031 C 
ATOM     53  C   UNL A   1      43.639  23.596  30.691  1.00  0.00     0.029 A 
ATOM     54  C   UNL A   1      44.606  24.459  30.179  1.00  0.00     0.049 A 
ATOM     55  H   UNL A   1      45.214  24.665  28.194  1.00  0.00     0.167 HD
ATOM     56  C   UNL A   1      46.249  26.318  30.047  1.00  0.00     0.074 A 
ATOM     57  C   UNL A   1      46.775  26.181  28.695  1.00  0.00     0.031 C 
ATOM     58  C   UNL A   1      45.357  25.557  30.746  1.00  0.00     0.037 A 
BRANCH  45  59
ATOM     59  C   UNL A   1      44.052  23.140  25.959  1.00  0.00     0.064 A 
ATOM     60  C   UNL A   1      44.096  21.759  25.663  1.00  0.00     0.173 A 
ATOM     61  C   UNL A   1      45.097  23.907  25.401  1.00  0.00     0.173 A 
ATOM     62  F   UNL A   1      43.160  20.927  26.144  1.00  0.00    -0.203 F 
ATOM     63  C   UNL A   1      45.150  21.187  24.944  1.00  0.00     0.198 A 
ATOM     64  C   UNL A   1      46.122  23.339  24.645  1.00  0.00     0.198 A 
ATOM     65  F   UNL A   1      45.244  25.212  25.648  1.00  0.00    -0.203 F 
ATOM     66  F   UNL A   1      45.212  19.856  24.798  1.00  0.00    -0.200 F 
ATOM     67  C   UNL A   1      46.168  21.976  24.444  1.00  0.00     0.200 A 
ATOM     68  F   UNL A   1      47.110  24.120  24.188  1.00  0.00    -0.200 F 
ATOM     69  F   UNL A   1      47.212  21.427  23.811  1.00  0.00    -0.200 F 
ENDBRANCH  45  59
BRANCH  46  70
ATOM     70  C   UNL A   1      47.065  30.702  28.523  1.00  0.00     0.064 A 
ATOM     71  C   UNL A   1      46.827  31.396  27.326  1.00  0.00     0.173 A 
ATOM     72  C   UNL A   1      47.993  31.278  29.410  1.00  0.00     0.173 A 
ATOM     73  F   UNL A   1      45.931  30.931  26.443  1.00  0.00    -0.203 F 
ATOM     74  C   UNL A   1      47.452  32.618  27.052  1.00  0.00     0.198 A 
ATOM     75  C   UNL A   1      48.616  32.497  29.137  1.00  0.00     0.198 A 
ATOM     76  F   UNL A   1      48.235  30.716  30.604  1.00  0.00    -0.203 F 
ATOM     77  F   UNL A   1      47.149  33.287  25.931  1.00  0.00    -0.200 F 
ATOM     78  C   UNL A   1      48.332  33.175  27.965  1.00  0.00     0.200 A 
ATOM     79  F   UNL A   1      49.435  33.043  30.046  1.00  0.00    -0.200 F 
ATOM     80  F   UNL A   1      48.874  34.379  27.737  1.00  0.00    -0.200 F 
ENDBRANCH  46  70
BRANCH  58  81
ATOM     81  C   UNL A   1      45.043  25.978  32.149  1.00  0.00     0.064 A 
ATOM     82  C   UNL A   1      43.918  26.727  32.530  1.00  0.00     0.173 A 
ATOM     83  C   UNL A   1      45.897  25.532  33.166  1.00  0.00     0.173 A 
ATOM     84  F   UNL A   1      43.016  27.128  31.625  1.00  0.00    -0.203 F 
ATOM     85  C   UNL A   1      43.685  27.046  33.868  1.00  0.00     0.198 A 
ATOM     86  C   UNL A   1      45.642  25.818  34.502  1.00  0.00     0.198 A 
ATOM     87  F   UNL A   1      46.966  24.779  32.862  1.00  0.00    -0.203 F 
ATOM     88  F   UNL A   1      42.615  27.780  34.208  1.00  0.00    -0.200 F 
ATOM     89  C   UNL A   1      44.544  26.585  34.852  1.00  0.00     0.200 A 
ATOM     90  F   UNL A   1      46.455  25.335  35.452  1.00  0.00    -0.200 F 
ATOM     91  F   UNL A   1      44.303  26.863  36.142  1.00  0.00    -0.200 F 
ENDBRANCH  58  81
ENDBRANCH  32  33
ENDBRANCH  24  27
ENDBRANCH  22  23
ENDBRANCH   1  22
TORSDOF 13
ENDMDL
