MODEL 1
REMARK VINA RESULT:     -13.2      0.000      0.000
REMARK SMILES Cc1ccc(C#N)cc1Nc1cc(C)c(N)c(C(=O)NCCCNC(=O)c2ccc(-c3c4nc(c(-c5c(F)c(F)c(F)c(F)c5F)c5ccc([nH]5)c(-c5c(F)c(F)c(F)c(F)c5F)c5nc(c(-c6c(F)c(F)c(F)c(F)c6F)c6ccc3[nH]6)C=C5)C=C4)cc2)c1
REMARK SMILES IDX 21 1 20 2 18 3 19 4 17 6 11 7 12 8 90 9 13 10 14 11 15 12
REMARK SMILES IDX 10 13 9 15 1 16 2 17 3 18 4 19 8 20 5 21 6 22 7 23 16 24
REMARK SMILES IDX 22 27 23 28 24 29 25 30 26 32 27 33 28 34 89 35 29 36 88 37
REMARK SMILES IDX 30 38 31 39 32 40 82 41 33 42 87 43 81 44 83 45 34 46 86 47
REMARK SMILES IDX 80 48 79 49 35 51 67 52 47 53 66 54 48 55 51 56 65 57 84 58
REMARK SMILES IDX 49 59 50 60 64 62 85 63 52 64 36 65 37 66 45 67 38 68 39 69
REMARK SMILES IDX 43 70 46 71 40 72 41 73 44 74 42 75 68 76 69 77 77 78 70 79
REMARK SMILES IDX 71 80 75 81 78 82 72 83 73 84 76 85 74 86 53 87 54 88 62 89
REMARK SMILES IDX 55 90 56 91 60 92 63 93 57 94 58 95 61 96 59 97
REMARK H PARENT 20 5 10 14 16 25 16 26 24 31 83 50 51 61
REMARK Flexibility Score: inf
ROOT
ATOM      1  C   UNL A   1      31.771  30.442  26.596  1.00  0.00     0.118 C 
ENDROOT
BRANCH   1   2
ATOM      2  N   UNL A   1      32.556  30.151  25.411  1.00  0.00    -0.352 N 
ATOM      3  C   UNL A   1      32.406  29.305  24.341  1.00  0.00     0.253 C 
ATOM      4  O   UNL A   1      33.339  29.320  23.531  1.00  0.00    -0.269 OA
ATOM      5  H   UNL A   1      33.384  30.680  25.363  1.00  0.00     0.163 HD
BRANCH   3   6
ATOM      6  C   UNL A   1      31.191  28.452  24.085  1.00  0.00     0.065 A 
ATOM      7  C   UNL A   1      29.998  26.333  24.346  1.00  0.00     0.040 A 
ATOM      8  C   UNL A   1      28.858  26.916  23.806  1.00  0.00     0.031 A 
ATOM      9  C   UNL A   1      31.167  27.092  24.412  1.00  0.00     0.042 A 
ATOM     10  C   UNL A   1      28.861  28.252  23.363  1.00  0.00    -0.025 A 
ATOM     11  C   UNL A   1      27.587  28.756  22.736  1.00  0.00     0.047 C 
ATOM     12  C   UNL A   1      30.017  29.046  23.537  1.00  0.00     0.047 A 
BRANCH   7  13
ATOM     13  N   UNL A   1      29.942  25.056  24.933  1.00  0.00    -0.355 N 
ATOM     14  H   UNL A   1      29.083  24.810  25.349  1.00  0.00     0.167 HD
BRANCH  13  15
ATOM     15  C   UNL A   1      30.965  24.079  24.998  1.00  0.00     0.043 A 
ATOM     16  C   UNL A   1      29.795  22.948  26.961  1.00  0.00     0.046 C 
ATOM     17  C   UNL A   1      30.910  23.042  25.955  1.00  0.00    -0.027 A 
ATOM     18  C   UNL A   1      31.946  22.090  26.015  1.00  0.00     0.007 A 
ATOM     19  C   UNL A   1      33.017  22.138  25.125  1.00  0.00     0.020 A 
ATOM     20  C   UNL A   1      32.041  24.090  24.090  1.00  0.00     0.045 A 
ATOM     21  C   UNL A   1      33.065  23.140  24.159  1.00  0.00     0.054 A 
BRANCH  21  22
ATOM     22  C   UNL A   1      34.174  23.209  23.250  1.00  0.00     0.099 C 
ATOM     23  N   UNL A   1      35.069  23.264  22.516  1.00  0.00    -0.192 NA
ENDBRANCH  21  22
ENDBRANCH  13  15
ENDBRANCH   7  13
BRANCH  12  24
ATOM     24  N   UNL A   1      30.029  30.365  23.088  1.00  0.00    -0.398 N 
ATOM     25  H   UNL A   1      30.364  30.576  22.186  1.00  0.00     0.156 HD
ATOM     26  H   UNL A   1      29.702  31.088  23.672  1.00  0.00     0.156 HD
ENDBRANCH  12  24
ENDBRANCH   3   6
ENDBRANCH   1   2
BRANCH   1  27
ATOM     27  C   UNL A   1      31.554  31.947  26.729  1.00  0.00     0.042 C 
BRANCH  27  28
ATOM     28  C   UNL A   1      32.791  32.661  27.262  1.00  0.00     0.118 C 
BRANCH  28  29
ATOM     29  N   UNL A   1      32.516  34.054  27.605  1.00  0.00    -0.352 N 
ATOM     30  C   UNL A   1      33.037  34.841  28.601  1.00  0.00     0.251 C 
ATOM     31  H   UNL A   1      31.851  34.499  27.031  1.00  0.00     0.163 HD
ATOM     32  O   UNL A   1      32.513  35.915  28.878  1.00  0.00    -0.269 OA
BRANCH  30  33
ATOM     33  C   UNL A   1      34.216  34.377  29.356  1.00  0.00     0.039 A 
ATOM     34  C   UNL A   1      35.498  34.574  28.843  1.00  0.00     0.014 A 
ATOM     35  C   UNL A   1      34.037  33.715  30.573  1.00  0.00     0.014 A 
ATOM     36  C   UNL A   1      36.575  33.929  29.431  1.00  0.00     0.010 A 
ATOM     37  C   UNL A   1      35.142  33.167  31.227  1.00  0.00     0.010 A 
ATOM     38  C   UNL A   1      36.412  33.217  30.629  1.00  0.00    -0.014 A 
BRANCH  38  39
ATOM     39  C   UNL A   1      37.582  32.524  31.226  1.00  0.00     0.031 A 
ATOM     40  C   UNL A   1      38.058  32.875  32.609  1.00  0.00     0.074 A 
ATOM     41  C   UNL A   1      38.177  31.532  30.536  1.00  0.00     0.049 A 
ATOM     42  N   UNL A   1      39.057  32.371  33.290  1.00  0.00    -0.248 NA
ATOM     43  C   UNL A   1      37.324  33.932  33.326  1.00  0.00     0.031 C 
ATOM     44  C   UNL A   1      37.790  31.090  29.195  1.00  0.00     0.029 A 
ATOM     45  N   UNL A   1      39.214  30.699  30.872  1.00  0.00    -0.354 N 
ATOM     46  C   UNL A   1      39.081  33.056  34.498  1.00  0.00     0.074 A 
ATOM     47  C   UNL A   1      38.024  34.041  34.446  1.00  0.00     0.031 C 
ATOM     48  C   UNL A   1      38.540  30.038  28.844  1.00  0.00     0.029 A 
ATOM     49  C   UNL A   1      39.516  29.780  29.896  1.00  0.00     0.049 A 
ATOM     50  H   UNL A   1      39.695  30.754  31.729  1.00  0.00     0.167 HD
ATOM     51  C   UNL A   1      39.902  32.865  35.559  1.00  0.00     0.037 A 
ATOM     52  C   UNL A   1      40.488  28.850  29.840  1.00  0.00     0.037 A 
ATOM     53  C   UNL A   1      40.936  31.866  35.609  1.00  0.00     0.049 A 
ATOM     54  C   UNL A   1      41.425  28.707  31.006  1.00  0.00     0.074 A 
ATOM     55  C   UNL A   1      41.802  31.578  36.649  1.00  0.00     0.029 A 
ATOM     56  N   UNL A   1      41.249  30.992  34.576  1.00  0.00    -0.354 N 
ATOM     57  N   UNL A   1      41.422  29.345  32.151  1.00  0.00    -0.248 NA
ATOM     58  C   UNL A   1      42.505  27.721  30.871  1.00  0.00     0.031 C 
ATOM     59  C   UNL A   1      42.682  30.580  36.223  1.00  0.00     0.029 A 
ATOM     60  C   UNL A   1      42.319  30.191  34.943  1.00  0.00     0.049 A 
ATOM     61  H   UNL A   1      40.780  30.948  33.711  1.00  0.00     0.167 HD
ATOM     62  C   UNL A   1      42.481  28.824  32.880  1.00  0.00     0.074 A 
ATOM     63  C   UNL A   1      43.090  27.800  32.058  1.00  0.00     0.031 C 
ATOM     64  C   UNL A   1      42.912  29.169  34.118  1.00  0.00     0.037 A 
BRANCH  51  65
ATOM     65  C   UNL A   1      39.731  33.753  36.759  1.00  0.00     0.064 A 
ATOM     66  C   UNL A   1      40.310  35.029  36.821  1.00  0.00     0.173 A 
ATOM     67  C   UNL A   1      38.896  33.361  37.817  1.00  0.00     0.173 A 
ATOM     68  F   UNL A   1      41.125  35.450  35.843  1.00  0.00    -0.203 F 
ATOM     69  C   UNL A   1      40.069  35.874  37.903  1.00  0.00     0.198 A 
ATOM     70  C   UNL A   1      38.631  34.221  38.880  1.00  0.00     0.198 A 
ATOM     71  F   UNL A   1      38.310  32.153  37.806  1.00  0.00    -0.203 F 
ATOM     72  F   UNL A   1      40.660  37.075  37.956  1.00  0.00    -0.200 F 
ATOM     73  C   UNL A   1      39.219  35.475  38.923  1.00  0.00     0.200 A 
ATOM     74  F   UNL A   1      37.793  33.840  39.855  1.00  0.00    -0.200 F 
ATOM     75  F   UNL A   1      38.968  36.299  39.949  1.00  0.00    -0.200 F 
ENDBRANCH  51  65
BRANCH  52  76
ATOM     76  C   UNL A   1      40.618  27.996  28.631  1.00  0.00     0.064 A 
ATOM     77  C   UNL A   1      39.962  26.760  28.545  1.00  0.00     0.173 A 
ATOM     78  C   UNL A   1      41.379  28.408  27.525  1.00  0.00     0.173 A 
ATOM     79  F   UNL A   1      39.238  26.313  29.581  1.00  0.00    -0.203 F 
ATOM     80  C   UNL A   1      40.072  25.965  27.405  1.00  0.00     0.198 A 
ATOM     81  C   UNL A   1      41.456  27.631  26.372  1.00  0.00     0.198 A 
ATOM     82  F   UNL A   1      42.022  29.584  27.553  1.00  0.00    -0.203 F 
ATOM     83  F   UNL A   1      39.469  24.770  27.366  1.00  0.00    -0.200 F 
ATOM     84  C   UNL A   1      40.809  26.405  26.316  1.00  0.00     0.200 A 
ATOM     85  F   UNL A   1      42.151  28.072  25.315  1.00  0.00    -0.200 F 
ATOM     86  F   UNL A   1      40.900  25.649  25.214  1.00  0.00    -0.200 F 
ENDBRANCH  52  76
BRANCH  64  87
ATOM     87  C   UNL A   1      44.090  28.426  34.680  1.00  0.00     0.064 A 
ATOM     88  C   UNL A   1      45.395  28.925  34.563  1.00  0.00     0.173 A 
ATOM     89  C   UNL A   1      43.900  27.248  35.419  1.00  0.00     0.173 A 
ATOM     90  F   UNL A   1      45.633  30.040  33.857  1.00  0.00    -0.203 F 
ATOM     91  C   UNL A   1      46.470  28.262  35.152  1.00  0.00     0.198 A 
ATOM     92  C   UNL A   1      44.971  26.609  36.038  1.00  0.00     0.198 A 
ATOM     93  F   UNL A   1      42.670  26.734  35.569  1.00  0.00    -0.203 F 
ATOM     94  F   UNL A   1      47.714  28.736  34.994  1.00  0.00    -0.200 F 
ATOM     95  C   UNL A   1      46.255  27.114  35.900  1.00  0.00     0.200 A 
ATOM     96  F   UNL A   1      44.758  25.513  36.779  1.00  0.00    -0.200 F 
ATOM     97  F   UNL A   1      47.286  26.493  36.488  1.00  0.00    -0.200 F 
ENDBRANCH  64  87
ENDBRANCH  38  39
ENDBRANCH  30  33
ENDBRANCH  28  29
ENDBRANCH  27  28
ENDBRANCH   1  27
TORSDOF 14
ENDMDL
MODEL 2
REMARK VINA RESULT:     -13.1      1.500      7.460
REMARK SMILES Cc1ccc(C#N)cc1Nc1cc(C)c(N)c(C(=O)NCCCNC(=O)c2ccc(-c3c4nc(c(-c5c(F)c(F)c(F)c(F)c5F)c5ccc([nH]5)c(-c5c(F)c(F)c(F)c(F)c5F)c5nc(c(-c6c(F)c(F)c(F)c(F)c6F)c6ccc3[nH]6)C=C5)C=C4)cc2)c1
REMARK SMILES IDX 21 1 20 2 18 3 19 4 17 6 11 7 12 8 90 9 13 10 14 11 15 12
REMARK SMILES IDX 10 13 9 15 1 16 2 17 3 18 4 19 8 20 5 21 6 22 7 23 16 24
REMARK SMILES IDX 22 27 23 28 24 29 25 30 26 32 27 33 28 34 89 35 29 36 88 37
REMARK SMILES IDX 30 38 31 39 32 40 82 41 33 42 87 43 81 44 83 45 34 46 86 47
REMARK SMILES IDX 80 48 79 49 35 51 67 52 47 53 66 54 48 55 51 56 65 57 84 58
REMARK SMILES IDX 49 59 50 60 64 62 85 63 52 64 36 65 37 66 45 67 38 68 39 69
REMARK SMILES IDX 43 70 46 71 40 72 41 73 44 74 42 75 68 76 69 77 77 78 70 79
REMARK SMILES IDX 71 80 75 81 78 82 72 83 73 84 76 85 74 86 53 87 54 88 62 89
REMARK SMILES IDX 55 90 56 91 60 92 63 93 57 94 58 95 61 96 59 97
REMARK H PARENT 20 5 10 14 16 25 16 26 24 31 83 50 51 61
REMARK Flexibility Score: inf
ROOT
ATOM      1  C   UNL A   1      31.927  30.546  26.580  1.00  0.00     0.118 C 
ENDROOT
BRANCH   1   2
ATOM      2  N   UNL A   1      33.328  30.268  26.833  1.00  0.00    -0.352 N 
ATOM      3  C   UNL A   1      34.170  29.222  26.544  1.00  0.00     0.253 C 
ATOM      4  O   UNL A   1      35.321  29.347  26.974  1.00  0.00    -0.269 OA
ATOM      5  H   UNL A   1      33.779  30.994  27.321  1.00  0.00     0.163 HD
BRANCH   3   6
ATOM      6  C   UNL A   1      33.794  28.023  25.715  1.00  0.00     0.065 A 
ATOM      7  C   UNL A   1      33.184  25.659  25.564  1.00  0.00     0.040 A 
ATOM      8  C   UNL A   1      32.887  25.828  24.217  1.00  0.00     0.031 A 
ATOM      9  C   UNL A   1      33.700  26.743  26.274  1.00  0.00     0.042 A 
ATOM     10  C   UNL A   1      33.067  27.070  23.580  1.00  0.00    -0.025 A 
ATOM     11  C   UNL A   1      32.774  27.118  22.103  1.00  0.00     0.047 C 
ATOM     12  C   UNL A   1      33.483  28.191  24.334  1.00  0.00     0.047 A 
BRANCH   7  13
ATOM     13  N   UNL A   1      32.850  24.465  26.228  1.00  0.00    -0.355 N 
ATOM     14  H   UNL A   1      32.363  24.565  27.078  1.00  0.00     0.167 HD
BRANCH  13  15
ATOM     15  C   UNL A   1      33.126  23.135  25.825  1.00  0.00     0.043 A 
ATOM     16  C   UNL A   1      30.637  22.587  25.838  1.00  0.00     0.046 C 
ATOM     17  C   UNL A   1      32.077  22.214  25.612  1.00  0.00    -0.027 A 
ATOM     18  C   UNL A   1      32.373  20.893  25.228  1.00  0.00     0.007 A 
ATOM     19  C   UNL A   1      33.690  20.482  25.027  1.00  0.00     0.020 A 
ATOM     20  C   UNL A   1      34.446  22.707  25.587  1.00  0.00     0.045 A 
ATOM     21  C   UNL A   1      34.730  21.390  25.206  1.00  0.00     0.054 A 
BRANCH  21  22
ATOM     22  C   UNL A   1      36.091  20.972  25.020  1.00  0.00     0.099 C 
ATOM     23  N   UNL A   1      37.188  20.632  24.871  1.00  0.00    -0.192 NA
ENDBRANCH  21  22
ENDBRANCH  13  15
ENDBRANCH   7  13
BRANCH  12  24
ATOM     24  N   UNL A   1      33.674  29.420  23.705  1.00  0.00    -0.398 N 
ATOM     25  H   UNL A   1      33.955  30.204  24.231  1.00  0.00     0.156 HD
ATOM     26  H   UNL A   1      33.528  29.505  22.735  1.00  0.00     0.156 HD
ENDBRANCH  12  24
ENDBRANCH   3   6
ENDBRANCH   1   2
BRANCH   1  27
ATOM     27  C   UNL A   1      31.636  32.029  26.792  1.00  0.00     0.042 C 
BRANCH  27  28
ATOM     28  C   UNL A   1      32.870  32.796  27.255  1.00  0.00     0.118 C 
BRANCH  28  29
ATOM     29  N   UNL A   1      32.559  34.182  27.597  1.00  0.00    -0.352 N 
ATOM     30  C   UNL A   1      33.008  34.961  28.633  1.00  0.00     0.251 C 
ATOM     31  H   UNL A   1      31.927  34.627  26.987  1.00  0.00     0.163 HD
ATOM     32  O   UNL A   1      32.456  36.026  28.889  1.00  0.00    -0.269 OA
BRANCH  30  33
ATOM     33  C   UNL A   1      34.142  34.498  29.455  1.00  0.00     0.039 A 
ATOM     34  C   UNL A   1      35.443  34.578  28.962  1.00  0.00     0.014 A 
ATOM     35  C   UNL A   1      33.898  33.956  30.720  1.00  0.00     0.014 A 
ATOM     36  C   UNL A   1      36.468  33.927  29.631  1.00  0.00     0.010 A 
ATOM     37  C   UNL A   1      34.955  33.406  31.447  1.00  0.00     0.010 A 
ATOM     38  C   UNL A   1      36.238  33.332  30.881  1.00  0.00    -0.014 A 
BRANCH  38  39
ATOM     39  C   UNL A   1      37.354  32.629  31.565  1.00  0.00     0.031 A 
ATOM     40  C   UNL A   1      38.091  31.512  30.879  1.00  0.00     0.074 A 
ATOM     41  C   UNL A   1      37.738  33.046  32.787  1.00  0.00     0.049 A 
ATOM     42  N   UNL A   1      39.093  30.792  31.321  1.00  0.00    -0.248 NA
ATOM     43  C   UNL A   1      37.652  31.148  29.522  1.00  0.00     0.031 C 
ATOM     44  C   UNL A   1      37.110  34.132  33.541  1.00  0.00     0.029 A 
ATOM     45  N   UNL A   1      38.760  32.627  33.600  1.00  0.00    -0.354 N 
ATOM     46  C   UNL A   1      39.387  29.886  30.311  1.00  0.00     0.074 A 
ATOM     47  C   UNL A   1      38.437  30.116  29.247  1.00  0.00     0.031 C 
ATOM     48  C   UNL A   1      37.789  34.329  34.679  1.00  0.00     0.029 A 
ATOM     49  C   UNL A   1      38.849  33.332  34.775  1.00  0.00     0.049 A 
ATOM     50  H   UNL A   1      39.371  31.892  33.363  1.00  0.00     0.167 HD
ATOM     51  C   UNL A   1      40.374  28.959  30.272  1.00  0.00     0.037 A 
ATOM     52  C   UNL A   1      39.673  33.178  35.829  1.00  0.00     0.037 A 
ATOM     53  C   UNL A   1      41.331  28.755  31.328  1.00  0.00     0.049 A 
ATOM     54  C   UNL A   1      40.716  32.097  35.783  1.00  0.00     0.074 A 
ATOM     55  C   UNL A   1      42.384  27.858  31.370  1.00  0.00     0.029 A 
ATOM     56  N   UNL A   1      41.351  29.451  32.529  1.00  0.00    -0.354 N 
ATOM     57  N   UNL A   1      40.999  31.263  34.812  1.00  0.00    -0.248 NA
ATOM     58  C   UNL A   1      41.550  31.930  36.981  1.00  0.00     0.031 C 
ATOM     59  C   UNL A   1      42.998  27.963  32.621  1.00  0.00     0.029 A 
ATOM     60  C   UNL A   1      42.377  28.977  33.332  1.00  0.00     0.049 A 
ATOM     61  H   UNL A   1      40.729  30.174  32.773  1.00  0.00     0.167 HD
ATOM     62  C   UNL A   1      42.055  30.489  35.271  1.00  0.00     0.074 A 
ATOM     63  C   UNL A   1      42.378  30.968  36.598  1.00  0.00     0.031 C 
ATOM     64  C   UNL A   1      42.694  29.468  34.649  1.00  0.00     0.037 A 
BRANCH  51  65
ATOM     65  C   UNL A   1      40.480  28.083  29.056  1.00  0.00     0.064 A 
ATOM     66  C   UNL A   1      39.761  26.884  28.945  1.00  0.00     0.173 A 
ATOM     67  C   UNL A   1      41.233  28.499  27.946  1.00  0.00     0.173 A 
ATOM     68  F   UNL A   1      39.034  26.434  29.979  1.00  0.00    -0.203 F 
ATOM     69  C   UNL A   1      39.802  26.128  27.776  1.00  0.00     0.198 A 
ATOM     70  C   UNL A   1      41.244  27.758  26.767  1.00  0.00     0.198 A 
ATOM     71  F   UNL A   1      41.935  29.641  27.994  1.00  0.00    -0.203 F 
ATOM     72  F   UNL A   1      39.133  24.969  27.706  1.00  0.00    -0.200 F 
ATOM     73  C   UNL A   1      40.531  26.573  26.683  1.00  0.00     0.200 A 
ATOM     74  F   UNL A   1      41.936  28.200  25.706  1.00  0.00    -0.200 F 
ATOM     75  F   UNL A   1      40.548  25.858  25.551  1.00  0.00    -0.200 F 
ENDBRANCH  51  65
BRANCH  52  76
ATOM     76  C   UNL A   1      39.530  34.068  37.010  1.00  0.00     0.064 A 
ATOM     77  C   UNL A   1      38.768  33.679  38.120  1.00  0.00     0.173 A 
ATOM     78  C   UNL A   1      40.172  35.316  37.066  1.00  0.00     0.173 A 
ATOM     79  F   UNL A   1      38.119  32.505  38.108  1.00  0.00    -0.203 F 
ATOM     80  C   UNL A   1      38.644  34.507  39.234  1.00  0.00     0.198 A 
ATOM     81  C   UNL A   1      40.079  36.125  38.195  1.00  0.00     0.198 A 
ATOM     82  F   UNL A   1      40.917  35.734  36.033  1.00  0.00    -0.203 F 
ATOM     83  F   UNL A   1      37.875  34.129  40.263  1.00  0.00    -0.200 F 
ATOM     84  C   UNL A   1      39.308  35.724  39.275  1.00  0.00     0.200 A 
ATOM     85  F   UNL A   1      40.742  37.289  38.239  1.00  0.00    -0.200 F 
ATOM     86  F   UNL A   1      39.203  36.512  40.354  1.00  0.00    -0.200 F 
ENDBRANCH  52  76
BRANCH  64  87
ATOM     87  C   UNL A   1      43.824  28.802  35.380  1.00  0.00     0.064 A 
ATOM     88  C   UNL A   1      45.146  29.252  35.253  1.00  0.00     0.173 A 
ATOM     89  C   UNL A   1      43.570  27.760  36.285  1.00  0.00     0.173 A 
ATOM     90  F   UNL A   1      45.445  30.237  34.392  1.00  0.00    -0.203 F 
ATOM     91  C   UNL A   1      46.174  28.672  35.992  1.00  0.00     0.198 A 
ATOM     92  C   UNL A   1      44.594  27.208  37.050  1.00  0.00     0.198 A 
ATOM     93  F   UNL A   1      42.321  27.298  36.452  1.00  0.00    -0.203 F 
ATOM     94  F   UNL A   1      47.436  29.092  35.825  1.00  0.00    -0.200 F 
ATOM     95  C   UNL A   1      45.895  27.662  36.900  1.00  0.00     0.200 A 
ATOM     96  F   UNL A   1      44.317  26.248  37.943  1.00  0.00    -0.200 F 
ATOM     97  F   UNL A   1      46.881  27.123  37.630  1.00  0.00    -0.200 F 
ENDBRANCH  64  87
ENDBRANCH  38  39
ENDBRANCH  30  33
ENDBRANCH  28  29
ENDBRANCH  27  28
ENDBRANCH   1  27
TORSDOF 14
ENDMDL
MODEL 3
REMARK VINA RESULT:     -13.1      0.378      7.368
REMARK SMILES Cc1ccc(C#N)cc1Nc1cc(C)c(N)c(C(=O)NCCCNC(=O)c2ccc(-c3c4nc(c(-c5c(F)c(F)c(F)c(F)c5F)c5ccc([nH]5)c(-c5c(F)c(F)c(F)c(F)c5F)c5nc(c(-c6c(F)c(F)c(F)c(F)c6F)c6ccc3[nH]6)C=C5)C=C4)cc2)c1
REMARK SMILES IDX 21 1 20 2 18 3 19 4 17 6 11 7 12 8 90 9 13 10 14 11 15 12
REMARK SMILES IDX 10 13 9 15 1 16 2 17 3 18 4 19 8 20 5 21 6 22 7 23 16 24
REMARK SMILES IDX 22 27 23 28 24 29 25 30 26 32 27 33 28 34 89 35 29 36 88 37
REMARK SMILES IDX 30 38 31 39 32 40 82 41 33 42 87 43 81 44 83 45 34 46 86 47
REMARK SMILES IDX 80 48 79 49 35 51 67 52 47 53 66 54 48 55 51 56 65 57 84 58
REMARK SMILES IDX 49 59 50 60 64 62 85 63 52 64 36 65 37 66 45 67 38 68 39 69
REMARK SMILES IDX 43 70 46 71 40 72 41 73 44 74 42 75 68 76 69 77 77 78 70 79
REMARK SMILES IDX 71 80 75 81 78 82 72 83 73 84 76 85 74 86 53 87 54 88 62 89
REMARK SMILES IDX 55 90 56 91 60 92 63 93 57 94 58 95 61 96 59 97
REMARK H PARENT 20 5 10 14 16 25 16 26 24 31 83 50 51 61
REMARK Flexibility Score: inf
ROOT
ATOM      1  C   UNL A   1      31.738  30.422  26.574  1.00  0.00     0.118 C 
ENDROOT
BRANCH   1   2
ATOM      2  N   UNL A   1      32.553  30.110  25.415  1.00  0.00    -0.352 N 
ATOM      3  C   UNL A   1      32.425  29.254  24.350  1.00  0.00     0.253 C 
ATOM      4  O   UNL A   1      33.381  29.251  23.568  1.00  0.00    -0.269 OA
ATOM      5  H   UNL A   1      33.388  30.631  25.385  1.00  0.00     0.163 HD
BRANCH   3   6
ATOM      6  C   UNL A   1      31.210  28.410  24.069  1.00  0.00     0.065 A 
ATOM      7  C   UNL A   1      30.028  26.276  24.237  1.00  0.00     0.040 A 
ATOM      8  C   UNL A   1      28.877  26.881  23.746  1.00  0.00     0.031 A 
ATOM      9  C   UNL A   1      31.195  27.035  24.324  1.00  0.00     0.042 A 
ATOM     10  C   UNL A   1      28.869  28.238  23.374  1.00  0.00    -0.025 A 
ATOM     11  C   UNL A   1      27.584  28.770  22.794  1.00  0.00     0.047 C 
ATOM     12  C   UNL A   1      30.025  29.027  23.572  1.00  0.00     0.047 A 
BRANCH   7  13
ATOM     13  N   UNL A   1      29.985  24.969  24.756  1.00  0.00    -0.355 N 
ATOM     14  H   UNL A   1      29.099  24.647  25.039  1.00  0.00     0.167 HD
BRANCH  13  15
ATOM     15  C   UNL A   1      31.057  24.059  24.921  1.00  0.00     0.043 A 
ATOM     16  C   UNL A   1      29.911  23.036  26.955  1.00  0.00     0.046 C 
ATOM     17  C   UNL A   1      31.039  23.105  25.962  1.00  0.00    -0.027 A 
ATOM     18  C   UNL A   1      32.123  22.221  26.119  1.00  0.00     0.007 A 
ATOM     19  C   UNL A   1      33.208  22.252  25.245  1.00  0.00     0.020 A 
ATOM     20  C   UNL A   1      32.149  24.053  24.032  1.00  0.00     0.045 A 
ATOM     21  C   UNL A   1      33.222  23.170  24.197  1.00  0.00     0.054 A 
BRANCH  21  22
ATOM     22  C   UNL A   1      34.344  23.223  23.303  1.00  0.00     0.099 C 
ATOM     23  N   UNL A   1      35.248  23.265  22.580  1.00  0.00    -0.192 NA
ENDBRANCH  21  22
ENDBRANCH  13  15
ENDBRANCH   7  13
BRANCH  12  24
ATOM     24  N   UNL A   1      30.025  30.368  23.192  1.00  0.00    -0.398 N 
ATOM     25  H   UNL A   1      30.698  30.700  22.553  1.00  0.00     0.156 HD
ATOM     26  H   UNL A   1      29.353  30.986  23.563  1.00  0.00     0.156 HD
ENDBRANCH  12  24
ENDBRANCH   3   6
ENDBRANCH   1   2
BRANCH   1  27
ATOM     27  C   UNL A   1      31.541  31.931  26.690  1.00  0.00     0.042 C 
BRANCH  27  28
ATOM     28  C   UNL A   1      32.743  32.620  27.327  1.00  0.00     0.118 C 
BRANCH  28  29
ATOM     29  N   UNL A   1      32.490  34.035  27.590  1.00  0.00    -0.352 N 
ATOM     30  C   UNL A   1      32.997  34.860  28.562  1.00  0.00     0.251 C 
ATOM     31  H   UNL A   1      31.856  34.464  26.971  1.00  0.00     0.163 HD
ATOM     32  O   UNL A   1      32.489  35.957  28.766  1.00  0.00    -0.269 OA
BRANCH  30  33
ATOM     33  C   UNL A   1      34.138  34.408  29.379  1.00  0.00     0.039 A 
ATOM     34  C   UNL A   1      35.436  34.487  28.874  1.00  0.00     0.014 A 
ATOM     35  C   UNL A   1      33.907  33.877  30.651  1.00  0.00     0.014 A 
ATOM     36  C   UNL A   1      36.468  33.845  29.541  1.00  0.00     0.010 A 
ATOM     37  C   UNL A   1      34.972  33.337  31.375  1.00  0.00     0.010 A 
ATOM     38  C   UNL A   1      36.250  33.261  30.798  1.00  0.00    -0.014 A 
BRANCH  38  39
ATOM     39  C   UNL A   1      37.373  32.568  31.480  1.00  0.00     0.031 A 
ATOM     40  C   UNL A   1      38.123  31.462  30.790  1.00  0.00     0.074 A 
ATOM     41  C   UNL A   1      37.753  32.984  32.703  1.00  0.00     0.049 A 
ATOM     42  N   UNL A   1      39.133  30.751  31.230  1.00  0.00    -0.248 NA
ATOM     43  C   UNL A   1      37.688  31.098  29.432  1.00  0.00     0.031 C 
ATOM     44  C   UNL A   1      37.113  34.061  33.462  1.00  0.00     0.029 A 
ATOM     45  N   UNL A   1      38.779  32.574  33.515  1.00  0.00    -0.354 N 
ATOM     46  C   UNL A   1      39.437  29.852  30.216  1.00  0.00     0.074 A 
ATOM     47  C   UNL A   1      38.484  30.075  29.152  1.00  0.00     0.031 C 
ATOM     48  C   UNL A   1      37.790  34.261  34.600  1.00  0.00     0.029 A 
ATOM     49  C   UNL A   1      38.861  33.275  34.693  1.00  0.00     0.049 A 
ATOM     50  H   UNL A   1      39.399  31.847  33.276  1.00  0.00     0.167 HD
ATOM     51  C   UNL A   1      40.434  28.937  30.173  1.00  0.00     0.037 A 
ATOM     52  C   UNL A   1      39.687  33.126  35.746  1.00  0.00     0.037 A 
ATOM     53  C   UNL A   1      41.393  28.739  31.229  1.00  0.00     0.049 A 
ATOM     54  C   UNL A   1      40.741  32.057  35.696  1.00  0.00     0.074 A 
ATOM     55  C   UNL A   1      42.456  27.854  31.267  1.00  0.00     0.029 A 
ATOM     56  N   UNL A   1      41.405  29.431  32.432  1.00  0.00    -0.354 N 
ATOM     57  N   UNL A   1      41.034  31.230  34.722  1.00  0.00    -0.248 NA
ATOM     58  C   UNL A   1      41.577  31.895  36.893  1.00  0.00     0.031 C 
ATOM     59  C   UNL A   1      43.069  27.961  32.518  1.00  0.00     0.029 A 
ATOM     60  C   UNL A   1      42.436  28.965  33.233  1.00  0.00     0.049 A 
ATOM     61  H   UNL A   1      40.776  30.146  32.679  1.00  0.00     0.167 HD
ATOM     62  C   UNL A   1      42.098  30.466  35.178  1.00  0.00     0.074 A 
ATOM     63  C   UNL A   1      42.416  30.944  36.507  1.00  0.00     0.031 C 
ATOM     64  C   UNL A   1      42.748  29.455  34.552  1.00  0.00     0.037 A 
BRANCH  51  65
ATOM     65  C   UNL A   1      40.549  28.067  28.954  1.00  0.00     0.064 A 
ATOM     66  C   UNL A   1      39.835  26.865  28.834  1.00  0.00     0.173 A 
ATOM     67  C   UNL A   1      41.308  28.489  27.850  1.00  0.00     0.173 A 
ATOM     68  F   UNL A   1      39.104  26.409  29.862  1.00  0.00    -0.203 F 
ATOM     69  C   UNL A   1      39.885  26.114  27.661  1.00  0.00     0.198 A 
ATOM     70  C   UNL A   1      41.328  27.754  26.668  1.00  0.00     0.198 A 
ATOM     71  F   UNL A   1      42.006  29.634  27.907  1.00  0.00    -0.203 F 
ATOM     72  F   UNL A   1      39.220  24.954  27.583  1.00  0.00    -0.200 F 
ATOM     73  C   UNL A   1      40.619  26.567  26.575  1.00  0.00     0.200 A 
ATOM     74  F   UNL A   1      42.023  28.203  25.613  1.00  0.00    -0.200 F 
ATOM     75  F   UNL A   1      40.644  25.857  25.439  1.00  0.00    -0.200 F 
ENDBRANCH  51  65
BRANCH  52  76
ATOM     76  C   UNL A   1      39.533  34.011  36.930  1.00  0.00     0.064 A 
ATOM     77  C   UNL A   1      38.776  33.609  38.039  1.00  0.00     0.173 A 
ATOM     78  C   UNL A   1      40.161  35.265  36.991  1.00  0.00     0.173 A 
ATOM     79  F   UNL A   1      38.141  32.427  38.023  1.00  0.00    -0.203 F 
ATOM     80  C   UNL A   1      38.644  34.431  39.156  1.00  0.00     0.198 A 
ATOM     81  C   UNL A   1      40.059  36.070  38.123  1.00  0.00     0.198 A 
ATOM     82  F   UNL A   1      40.901  35.697  35.959  1.00  0.00    -0.203 F 
ATOM     83  F   UNL A   1      37.880  34.040  40.184  1.00  0.00    -0.200 F 
ATOM     84  C   UNL A   1      39.293  35.655  39.202  1.00  0.00     0.200 A 
ATOM     85  F   UNL A   1      40.708  37.241  38.171  1.00  0.00    -0.200 F 
ATOM     86  F   UNL A   1      39.180  36.438  40.284  1.00  0.00    -0.200 F 
ENDBRANCH  52  76
BRANCH  64  87
ATOM     87  C   UNL A   1      43.886  28.799  35.281  1.00  0.00     0.064 A 
ATOM     88  C   UNL A   1      43.682  27.691  36.116  1.00  0.00     0.173 A 
ATOM     89  C   UNL A   1      45.206  29.230  35.072  1.00  0.00     0.173 A 
ATOM     90  F   UNL A   1      42.439  27.248  36.359  1.00  0.00    -0.203 F 
ATOM     91  C   UNL A   1      44.755  27.048  36.727  1.00  0.00     0.198 A 
ATOM     92  C   UNL A   1      46.279  28.561  35.654  1.00  0.00     0.198 A 
ATOM     93  F   UNL A   1      45.457  30.279  34.274  1.00  0.00    -0.203 F 
ATOM     94  F   UNL A   1      44.533  26.016  37.552  1.00  0.00    -0.200 F 
ATOM     95  C   UNL A   1      46.052  27.474  36.485  1.00  0.00     0.200 A 
ATOM     96  F   UNL A   1      47.533  28.961  35.400  1.00  0.00    -0.200 F 
ATOM     97  F   UNL A   1      47.086  26.839  37.053  1.00  0.00    -0.200 F 
ENDBRANCH  64  87
ENDBRANCH  38  39
ENDBRANCH  30  33
ENDBRANCH  28  29
ENDBRANCH  27  28
ENDBRANCH   1  27
TORSDOF 14
ENDMDL
