MODEL 1
REMARK VINA RESULT:     -13.6      0.000      0.000
REMARK SMILES COc1ccc2c(c1)c(CC(=O)NCCCNC(=O)c1ccc(-c3c4nc(c(-c5c(F)c(F)c(F)c(F)c5F)c5ccc([nH]5)c(-c5c(F)c(F)c(F)c(F)c5F)c5nc(c(-c6c(F)c(F)c(F)c(F)c6F)c6ccc3[nH]6)C=C5)C=C4)cc1)c(C)n2Cc1ccn(C(F)F)c(=O)c1
REMARK SMILES IDX 14 1 13 2 11 3 12 4 10 6 9 7 3 8 4 9 8 10 5 11 7 12 6 13
REMARK SMILES IDX 85 14 83 15 84 16 2 17 1 18 86 19 87 20 88 21 96 22 89 23
REMARK SMILES IDX 94 24 90 25 95 26 91 27 92 28 93 29 15 30 16 31 17 32 18 33
REMARK SMILES IDX 19 35 20 36 21 37 82 38 22 39 81 40 23 41 24 42 25 43 75 44
REMARK SMILES IDX 26 45 80 46 74 47 76 48 27 49 79 50 73 51 72 52 28 54 60 55
REMARK SMILES IDX 40 56 59 57 41 58 44 59 58 60 77 61 42 62 43 63 57 65 78 66
REMARK SMILES IDX 45 67 29 68 30 69 38 70 31 71 32 72 36 73 39 74 33 75 34 76
REMARK SMILES IDX 37 77 35 78 61 79 62 80 70 81 63 82 64 83 68 84 71 85 65 86
REMARK SMILES IDX 66 87 69 88 67 89 46 90 47 91 55 92 48 93 49 94 53 95 56 96
REMARK SMILES IDX 50 97 51 98 54 99 52 100
REMARK H PARENT 13 5 17 34 76 53 44 64
REMARK Flexibility Score: inf
ROOT
ATOM      1  C   UNL A   1      39.168  23.443  26.836  1.00  0.00     0.117 C 
ENDROOT
BRANCH   1   2
ATOM      2  N   UNL A   1      38.532  22.581  25.852  1.00  0.00    -0.356 N 
ATOM      3  C   UNL A   1      37.308  22.681  25.249  1.00  0.00     0.224 C 
ATOM      4  O   UNL A   1      37.032  21.862  24.367  1.00  0.00    -0.275 OA
ATOM      5  H   UNL A   1      39.066  21.802  25.576  1.00  0.00     0.163 HD
BRANCH   3   6
ATOM      6  C   UNL A   1      36.342  23.804  25.600  1.00  0.00     0.138 C 
BRANCH   6   7
ATOM      7  C   UNL A   1      34.921  23.494  25.243  1.00  0.00    -0.010 A 
ATOM      8  C   UNL A   1      33.436  25.476  22.344  1.00  0.00     0.119 A 
ATOM      9  C   UNL A   1      32.249  24.757  22.259  1.00  0.00     0.048 A 
ATOM     10  C   UNL A   1      34.419  25.109  23.264  1.00  0.00     0.057 A 
ATOM     11  C   UNL A   1      31.983  23.701  23.140  1.00  0.00     0.031 A 
ATOM     12  C   UNL A   1      34.163  24.068  24.182  1.00  0.00     0.007 A 
ATOM     13  C   UNL A   1      32.940  23.392  24.124  1.00  0.00     0.049 A 
ATOM     14  N   UNL A   1      32.945  22.460  25.154  1.00  0.00    -0.340 N 
ATOM     15  C   UNL A   1      34.062  22.664  25.946  1.00  0.00     0.020 A 
ATOM     16  C   UNL A   1      34.286  22.059  27.288  1.00  0.00     0.065 C 
BRANCH   8  17
ATOM     17  O   UNL A   1      33.734  26.521  21.511  1.00  0.00    -0.497 OA
ATOM     18  C   UNL A   1      33.530  27.791  22.129  1.00  0.00     0.278 C 
ENDBRANCH   8  17
BRANCH  14  19
ATOM     19  C   UNL A   1      31.900  21.452  25.374  1.00  0.00     0.158 C 
BRANCH  19  20
ATOM     20  C   UNL A   1      32.274  20.098  24.814  1.00  0.00    -0.021 A 
ATOM     21  C   UNL A   1      32.839  19.114  25.713  1.00  0.00     0.024 A 
ATOM     22  C   UNL A   1      32.101  19.766  23.523  1.00  0.00     0.077 A 
ATOM     23  C   UNL A   1      33.324  17.961  25.249  1.00  0.00     0.095 A 
ATOM     24  C   UNL A   1      32.600  18.461  22.988  1.00  0.00     0.255 A 
ATOM     25  N   UNL A   1      33.210  17.627  23.919  1.00  0.00    -0.258 N 
ATOM     26  O   UNL A   1      32.460  18.246  21.800  1.00  0.00    -0.269 OA
BRANCH  25  27
ATOM     27  C   UNL A   1      33.837  16.414  23.462  1.00  0.00     0.451 C 
ATOM     28  F   UNL A   1      34.705  16.635  22.455  1.00  0.00    -0.185 F 
ATOM     29  F   UNL A   1      34.490  15.830  24.493  1.00  0.00    -0.185 F 
ENDBRANCH  25  27
ENDBRANCH  19  20
ENDBRANCH  14  19
ENDBRANCH   6   7
ENDBRANCH   3   6
ENDBRANCH   1   2
BRANCH   1  30
ATOM     30  C   UNL A   1      40.409  22.823  27.491  1.00  0.00     0.042 C 
BRANCH  30  31
ATOM     31  C   UNL A   1      41.078  21.699  26.693  1.00  0.00     0.118 C 
BRANCH  31  32
ATOM     32  N   UNL A   1      41.965  22.151  25.630  1.00  0.00    -0.352 N 
ATOM     33  C   UNL A   1      42.708  23.263  25.338  1.00  0.00     0.251 C 
ATOM     34  H   UNL A   1      42.053  21.469  24.925  1.00  0.00     0.163 HD
ATOM     35  O   UNL A   1      43.457  23.148  24.361  1.00  0.00    -0.269 OA
BRANCH  33  36
ATOM     36  C   UNL A   1      42.655  24.587  26.020  1.00  0.00     0.039 A 
ATOM     37  C   UNL A   1      43.317  24.933  27.190  1.00  0.00     0.014 A 
ATOM     38  C   UNL A   1      41.798  25.551  25.439  1.00  0.00     0.014 A 
ATOM     39  C   UNL A   1      43.027  26.150  27.818  1.00  0.00     0.010 A 
ATOM     40  C   UNL A   1      41.507  26.768  26.066  1.00  0.00     0.010 A 
ATOM     41  C   UNL A   1      42.070  27.045  27.302  1.00  0.00    -0.014 A 
BRANCH  41  42
ATOM     42  C   UNL A   1      41.777  28.260  28.087  1.00  0.00     0.031 A 
ATOM     43  C   UNL A   1      42.830  29.310  28.005  1.00  0.00     0.074 A 
ATOM     44  C   UNL A   1      40.669  28.517  28.821  1.00  0.00     0.049 A 
ATOM     45  N   UNL A   1      43.535  29.809  28.969  1.00  0.00    -0.248 NA
ATOM     46  C   UNL A   1      43.205  29.794  26.667  1.00  0.00     0.031 C 
ATOM     47  C   UNL A   1      39.418  27.761  28.882  1.00  0.00     0.029 A 
ATOM     48  N   UNL A   1      40.412  29.591  29.641  1.00  0.00    -0.354 N 
ATOM     49  C   UNL A   1      44.361  30.762  28.384  1.00  0.00     0.074 A 
ATOM     50  C   UNL A   1      44.192  30.641  26.959  1.00  0.00     0.031 C 
ATOM     51  C   UNL A   1      38.476  28.498  29.514  1.00  0.00     0.029 A 
ATOM     52  C   UNL A   1      39.080  29.723  30.016  1.00  0.00     0.049 A 
ATOM     53  H   UNL A   1      41.113  30.215  29.939  1.00  0.00     0.167 HD
ATOM     54  C   UNL A   1      44.974  31.722  29.127  1.00  0.00     0.037 A 
ATOM     55  C   UNL A   1      38.500  30.780  30.644  1.00  0.00     0.037 A 
ATOM     56  C   UNL A   1      45.113  31.332  30.504  1.00  0.00     0.049 A 
ATOM     57  C   UNL A   1      39.568  31.528  31.346  1.00  0.00     0.074 A 
ATOM     58  C   UNL A   1      45.714  30.272  31.155  1.00  0.00     0.029 A 
ATOM     59  N   UNL A   1      44.315  31.934  31.443  1.00  0.00    -0.354 N 
ATOM     60  N   UNL A   1      40.177  31.117  32.422  1.00  0.00    -0.248 NA
ATOM     61  C   UNL A   1      40.207  32.631  30.645  1.00  0.00     0.031 C 
ATOM     62  C   UNL A   1      44.887  30.009  32.285  1.00  0.00     0.029 A 
ATOM     63  C   UNL A   1      43.855  30.945  32.270  1.00  0.00     0.049 A 
ATOM     64  H   UNL A   1      44.111  32.895  31.509  1.00  0.00     0.167 HD
ATOM     65  C   UNL A   1      41.469  31.594  32.286  1.00  0.00     0.074 A 
ATOM     66  C   UNL A   1      41.397  32.613  31.247  1.00  0.00     0.031 C 
ATOM     67  C   UNL A   1      42.523  30.920  32.824  1.00  0.00     0.037 A 
BRANCH  54  68
ATOM     68  C   UNL A   1      45.094  33.152  28.670  1.00  0.00     0.064 A 
ATOM     69  C   UNL A   1      43.928  33.885  28.374  1.00  0.00     0.173 A 
ATOM     70  C   UNL A   1      46.305  33.713  28.208  1.00  0.00     0.173 A 
ATOM     71  F   UNL A   1      42.721  33.428  28.739  1.00  0.00    -0.203 F 
ATOM     72  C   UNL A   1      43.968  35.048  27.600  1.00  0.00     0.198 A 
ATOM     73  C   UNL A   1      46.345  34.902  27.484  1.00  0.00     0.198 A 
ATOM     74  F   UNL A   1      47.477  33.079  28.329  1.00  0.00    -0.203 F 
ATOM     75  F   UNL A   1      42.825  35.636  27.226  1.00  0.00    -0.200 F 
ATOM     76  C   UNL A   1      45.176  35.551  27.152  1.00  0.00     0.200 A 
ATOM     77  F   UNL A   1      47.523  35.360  27.038  1.00  0.00    -0.200 F 
ATOM     78  F   UNL A   1      45.212  36.626  26.353  1.00  0.00    -0.200 F 
ENDBRANCH  54  68
BRANCH  55  79
ATOM     79  C   UNL A   1      37.129  31.341  30.506  1.00  0.00     0.064 A 
ATOM     80  C   UNL A   1      36.306  31.533  31.634  1.00  0.00     0.173 A 
ATOM     81  C   UNL A   1      36.706  31.974  29.322  1.00  0.00     0.173 A 
ATOM     82  F   UNL A   1      36.640  30.998  32.818  1.00  0.00    -0.203 F 
ATOM     83  C   UNL A   1      35.167  32.345  31.590  1.00  0.00     0.198 A 
ATOM     84  C   UNL A   1      35.561  32.773  29.277  1.00  0.00     0.198 A 
ATOM     85  F   UNL A   1      37.443  31.912  28.205  1.00  0.00    -0.203 F 
ATOM     86  F   UNL A   1      34.458  32.565  32.707  1.00  0.00    -0.200 F 
ATOM     87  C   UNL A   1      34.804  32.976  30.414  1.00  0.00     0.200 A 
ATOM     88  F   UNL A   1      35.236  33.400  28.137  1.00  0.00    -0.200 F 
ATOM     89  F   UNL A   1      33.752  33.807  30.385  1.00  0.00    -0.200 F 
ENDBRANCH  55  79
BRANCH  67  90
ATOM     90  C   UNL A   1      42.253  29.872  33.861  1.00  0.00     0.064 A 
ATOM     91  C   UNL A   1      41.830  28.565  33.569  1.00  0.00     0.173 A 
ATOM     92  C   UNL A   1      42.615  30.162  35.185  1.00  0.00     0.173 A 
ATOM     93  F   UNL A   1      41.546  28.188  32.314  1.00  0.00    -0.203 F 
ATOM     94  C   UNL A   1      41.760  27.596  34.569  1.00  0.00     0.198 A 
ATOM     95  C   UNL A   1      42.575  29.184  36.172  1.00  0.00     0.198 A 
ATOM     96  F   UNL A   1      43.066  31.384  35.509  1.00  0.00    -0.203 F 
ATOM     97  F   UNL A   1      41.364  26.349  34.271  1.00  0.00    -0.200 F 
ATOM     98  C   UNL A   1      42.145  27.903  35.865  1.00  0.00     0.200 A 
ATOM     99  F   UNL A   1      42.992  29.471  37.414  1.00  0.00    -0.200 F 
ATOM    100  F   UNL A   1      42.132  26.955  36.813  1.00  0.00    -0.200 F 
ENDBRANCH  67  90
ENDBRANCH  41  42
ENDBRANCH  33  36
ENDBRANCH  31  32
ENDBRANCH  30  31
ENDBRANCH   1  30
TORSDOF 15
ENDMDL
MODEL 2
REMARK VINA RESULT:     -13.2      2.984      4.651
REMARK SMILES COc1ccc2c(c1)c(CC(=O)NCCCNC(=O)c1ccc(-c3c4nc(c(-c5c(F)c(F)c(F)c(F)c5F)c5ccc([nH]5)c(-c5c(F)c(F)c(F)c(F)c5F)c5nc(c(-c6c(F)c(F)c(F)c(F)c6F)c6ccc3[nH]6)C=C5)C=C4)cc1)c(C)n2Cc1ccn(C(F)F)c(=O)c1
REMARK SMILES IDX 14 1 13 2 11 3 12 4 10 6 9 7 3 8 4 9 8 10 5 11 7 12 6 13
REMARK SMILES IDX 85 14 83 15 84 16 2 17 1 18 86 19 87 20 88 21 96 22 89 23
REMARK SMILES IDX 94 24 90 25 95 26 91 27 92 28 93 29 15 30 16 31 17 32 18 33
REMARK SMILES IDX 19 35 20 36 21 37 82 38 22 39 81 40 23 41 24 42 25 43 75 44
REMARK SMILES IDX 26 45 80 46 74 47 76 48 27 49 79 50 73 51 72 52 28 54 60 55
REMARK SMILES IDX 40 56 59 57 41 58 44 59 58 60 77 61 42 62 43 63 57 65 78 66
REMARK SMILES IDX 45 67 29 68 30 69 38 70 31 71 32 72 36 73 39 74 33 75 34 76
REMARK SMILES IDX 37 77 35 78 61 79 62 80 70 81 63 82 64 83 68 84 71 85 65 86
REMARK SMILES IDX 66 87 69 88 67 89 46 90 47 91 55 92 48 93 49 94 53 95 56 96
REMARK SMILES IDX 50 97 51 98 54 99 52 100
REMARK H PARENT 13 5 17 34 76 53 44 64
REMARK Flexibility Score: inf
ROOT
ATOM      1  C   UNL A   1      40.569  20.521  26.156  1.00  0.00     0.117 C 
ENDROOT
BRANCH   1   2
ATOM      2  N   UNL A   1      39.644  19.401  26.087  1.00  0.00    -0.356 N 
ATOM      3  C   UNL A   1      38.456  19.275  25.419  1.00  0.00     0.224 C 
ATOM      4  O   UNL A   1      37.895  18.176  25.445  1.00  0.00    -0.275 OA
ATOM      5  H   UNL A   1      39.914  18.607  26.603  1.00  0.00     0.163 HD
BRANCH   3   6
ATOM      6  C   UNL A   1      37.876  20.428  24.613  1.00  0.00     0.138 C 
BRANCH   6   7
ATOM      7  C   UNL A   1      36.550  20.899  25.125  1.00  0.00    -0.010 A 
ATOM      8  C   UNL A   1      33.563  18.639  24.417  1.00  0.00     0.119 A 
ATOM      9  C   UNL A   1      32.651  19.340  25.197  1.00  0.00     0.048 A 
ATOM     10  C   UNL A   1      34.900  19.037  24.363  1.00  0.00     0.057 A 
ATOM     11  C   UNL A   1      33.035  20.500  25.884  1.00  0.00     0.031 A 
ATOM     12  C   UNL A   1      35.303  20.218  25.021  1.00  0.00     0.007 A 
ATOM     13  C   UNL A   1      34.362  20.947  25.755  1.00  0.00     0.049 A 
ATOM     14  N   UNL A   1      35.017  22.065  26.253  1.00  0.00    -0.340 N 
ATOM     15  C   UNL A   1      36.287  22.131  25.704  1.00  0.00     0.020 A 
ATOM     16  C   UNL A   1      37.193  23.310  25.773  1.00  0.00     0.065 C 
BRANCH   8  17
ATOM     17  O   UNL A   1      33.231  17.507  23.721  1.00  0.00    -0.497 OA
ATOM     18  C   UNL A   1      34.173  16.452  23.908  1.00  0.00     0.278 C 
ENDBRANCH   8  17
BRANCH  14  19
ATOM     19  C   UNL A   1      34.426  23.035  27.184  1.00  0.00     0.158 C 
BRANCH  19  20
ATOM     20  C   UNL A   1      33.429  23.951  26.512  1.00  0.00    -0.021 A 
ATOM     21  C   UNL A   1      33.917  24.893  25.526  1.00  0.00     0.024 A 
ATOM     22  C   UNL A   1      32.113  23.929  26.784  1.00  0.00     0.077 A 
ATOM     23  C   UNL A   1      33.112  25.824  25.011  1.00  0.00     0.095 A 
ATOM     24  C   UNL A   1      31.183  24.938  26.188  1.00  0.00     0.255 A 
ATOM     25  N   UNL A   1      31.771  25.854  25.323  1.00  0.00    -0.258 N 
ATOM     26  O   UNL A   1      30.015  24.894  26.518  1.00  0.00    -0.269 OA
BRANCH  25  27
ATOM     27  C   UNL A   1      30.974  26.940  24.813  1.00  0.00     0.451 C 
ATOM     28  F   UNL A   1      31.107  28.062  25.548  1.00  0.00    -0.185 F 
ATOM     29  F   UNL A   1      31.335  27.199  23.534  1.00  0.00    -0.185 F 
ENDBRANCH  25  27
ENDBRANCH  19  20
ENDBRANCH  14  19
ENDBRANCH   6   7
ENDBRANCH   3   6
ENDBRANCH   1   2
BRANCH   1  30
ATOM     30  C   UNL A   1      41.948  20.149  26.716  1.00  0.00     0.042 C 
BRANCH  30  31
ATOM     31  C   UNL A   1      42.620  18.942  26.056  1.00  0.00     0.118 C 
BRANCH  31  32
ATOM     32  N   UNL A   1      43.623  19.274  25.054  1.00  0.00    -0.352 N 
ATOM     33  C   UNL A   1      44.428  20.337  24.742  1.00  0.00     0.251 C 
ATOM     34  H   UNL A   1      43.759  18.528  24.425  1.00  0.00     0.163 HD
ATOM     35  O   UNL A   1      45.266  20.116  23.862  1.00  0.00    -0.269 OA
BRANCH  33  36
ATOM     36  C   UNL A   1      44.349  21.719  25.296  1.00  0.00     0.039 A 
ATOM     37  C   UNL A   1      45.054  22.206  26.388  1.00  0.00     0.014 A 
ATOM     38  C   UNL A   1      43.418  22.584  24.673  1.00  0.00     0.014 A 
ATOM     39  C   UNL A   1      44.740  23.466  26.910  1.00  0.00     0.010 A 
ATOM     40  C   UNL A   1      43.104  23.844  25.196  1.00  0.00     0.010 A 
ATOM     41  C   UNL A   1      43.717  24.265  26.365  1.00  0.00    -0.014 A 
BRANCH  41  42
ATOM     42  C   UNL A   1      43.409  25.539  27.044  1.00  0.00     0.031 A 
ATOM     43  C   UNL A   1      44.397  26.623  26.788  1.00  0.00     0.074 A 
ATOM     44  C   UNL A   1      42.337  25.817  27.822  1.00  0.00     0.049 A 
ATOM     45  N   UNL A   1      45.133  27.251  27.649  1.00  0.00    -0.248 NA
ATOM     46  C   UNL A   1      44.662  26.985  25.388  1.00  0.00     0.031 C 
ATOM     47  C   UNL A   1      41.134  25.013  28.042  1.00  0.00     0.029 A 
ATOM     48  N   UNL A   1      42.074  26.956  28.548  1.00  0.00    -0.354 N 
ATOM     49  C   UNL A   1      45.870  28.176  26.919  1.00  0.00     0.074 A 
ATOM     50  C   UNL A   1      45.619  27.903  25.527  1.00  0.00     0.031 C 
ATOM     51  C   UNL A   1      40.196  25.766  28.660  1.00  0.00     0.029 A 
ATOM     52  C   UNL A   1      40.763  27.063  28.997  1.00  0.00     0.049 A 
ATOM     53  H   UNL A   1      42.758  27.639  28.735  1.00  0.00     0.167 HD
ATOM     54  C   UNL A   1      46.475  29.234  27.520  1.00  0.00     0.037 A 
ATOM     55  C   UNL A   1      40.168  28.150  29.555  1.00  0.00     0.037 A 
ATOM     56  C   UNL A   1      46.720  28.994  28.917  1.00  0.00     0.049 A 
ATOM     57  C   UNL A   1      41.236  29.015  30.107  1.00  0.00     0.074 A 
ATOM     58  C   UNL A   1      47.417  28.035  29.627  1.00  0.00     0.029 A 
ATOM     59  N   UNL A   1      45.951  29.650  29.843  1.00  0.00    -0.354 N 
ATOM     60  N   UNL A   1      41.931  28.745  31.174  1.00  0.00    -0.248 NA
ATOM     61  C   UNL A   1      41.770  30.070  29.259  1.00  0.00     0.031 C 
ATOM     62  C   UNL A   1      46.677  27.850  30.831  1.00  0.00     0.029 A 
ATOM     63  C   UNL A   1      45.597  28.730  30.793  1.00  0.00     0.049 A 
ATOM     64  H   UNL A   1      45.700  30.602  29.827  1.00  0.00     0.167 HD
ATOM     65  C   UNL A   1      43.185  29.265  30.905  1.00  0.00     0.074 A 
ATOM     66  C   UNL A   1      42.994  30.169  29.778  1.00  0.00     0.031 C 
ATOM     67  C   UNL A   1      44.306  28.700  31.435  1.00  0.00     0.037 A 
BRANCH  54  68
ATOM     68  C   UNL A   1      46.490  30.615  26.918  1.00  0.00     0.064 A 
ATOM     69  C   UNL A   1      47.685  31.359  26.921  1.00  0.00     0.173 A 
ATOM     70  C   UNL A   1      45.313  31.346  26.639  1.00  0.00     0.173 A 
ATOM     71  F   UNL A   1      48.858  30.770  27.204  1.00  0.00    -0.203 F 
ATOM     72  C   UNL A   1      47.689  32.745  26.740  1.00  0.00     0.198 A 
ATOM     73  C   UNL A   1      45.329  32.718  26.405  1.00  0.00     0.198 A 
ATOM     74  F   UNL A   1      44.097  30.790  26.701  1.00  0.00    -0.203 F 
ATOM     75  F   UNL A   1      48.829  33.431  26.889  1.00  0.00    -0.200 F 
ATOM     76  C   UNL A   1      46.510  33.423  26.489  1.00  0.00     0.200 A 
ATOM     77  F   UNL A   1      44.173  33.361  26.188  1.00  0.00    -0.200 F 
ATOM     78  F   UNL A   1      46.501  34.758  26.385  1.00  0.00    -0.200 F 
ENDBRANCH  54  68
BRANCH  55  79
ATOM     79  C   UNL A   1      38.763  28.629  29.455  1.00  0.00     0.064 A 
ATOM     80  C   UNL A   1      37.980  28.831  30.609  1.00  0.00     0.173 A 
ATOM     81  C   UNL A   1      38.254  29.181  28.264  1.00  0.00     0.173 A 
ATOM     82  F   UNL A   1      38.395  28.371  31.800  1.00  0.00    -0.203 F 
ATOM     83  C   UNL A   1      36.796  29.577  30.581  1.00  0.00     0.198 A 
ATOM     84  C   UNL A   1      37.065  29.915  28.235  1.00  0.00     0.198 A 
ATOM     85  F   UNL A   1      38.944  29.106  27.118  1.00  0.00    -0.203 F 
ATOM     86  F   UNL A   1      36.126  29.812  31.718  1.00  0.00    -0.200 F 
ATOM     87  C   UNL A   1      36.348  30.131  29.395  1.00  0.00     0.200 A 
ATOM     88  F   UNL A   1      36.656  30.467  27.084  1.00  0.00    -0.200 F 
ATOM     89  F   UNL A   1      35.252  30.902  29.376  1.00  0.00    -0.200 F 
ENDBRANCH  55  79
BRANCH  67  90
ATOM     90  C   UNL A   1      44.156  27.752  32.586  1.00  0.00     0.064 A 
ATOM     91  C   UNL A   1      43.994  26.363  32.448  1.00  0.00     0.173 A 
ATOM     92  C   UNL A   1      44.370  28.259  33.876  1.00  0.00     0.173 A 
ATOM     93  F   UNL A   1      43.867  25.793  31.241  1.00  0.00    -0.203 F 
ATOM     94  C   UNL A   1      44.030  25.525  33.561  1.00  0.00     0.198 A 
ATOM     95  C   UNL A   1      44.438  27.416  34.980  1.00  0.00     0.198 A 
ATOM     96  F   UNL A   1      44.573  29.573  34.059  1.00  0.00    -0.203 F 
ATOM     97  F   UNL A   1      43.883  24.200  33.410  1.00  0.00    -0.200 F 
ATOM     98  C   UNL A   1      44.265  26.051  34.823  1.00  0.00     0.200 A 
ATOM     99  F   UNL A   1      44.712  27.922  36.190  1.00  0.00    -0.200 F 
ATOM    100  F   UNL A   1      44.357  25.236  35.884  1.00  0.00    -0.200 F 
ENDBRANCH  67  90
ENDBRANCH  41  42
ENDBRANCH  33  36
ENDBRANCH  31  32
ENDBRANCH  30  31
ENDBRANCH   1  30
TORSDOF 15
ENDMDL
MODEL 3
REMARK VINA RESULT:     -13.2      3.169      5.344
REMARK SMILES COc1ccc2c(c1)c(CC(=O)NCCCNC(=O)c1ccc(-c3c4nc(c(-c5c(F)c(F)c(F)c(F)c5F)c5ccc([nH]5)c(-c5c(F)c(F)c(F)c(F)c5F)c5nc(c(-c6c(F)c(F)c(F)c(F)c6F)c6ccc3[nH]6)C=C5)C=C4)cc1)c(C)n2Cc1ccn(C(F)F)c(=O)c1
REMARK SMILES IDX 14 1 13 2 11 3 12 4 10 6 9 7 3 8 4 9 8 10 5 11 7 12 6 13
REMARK SMILES IDX 85 14 83 15 84 16 2 17 1 18 86 19 87 20 88 21 96 22 89 23
REMARK SMILES IDX 94 24 90 25 95 26 91 27 92 28 93 29 15 30 16 31 17 32 18 33
REMARK SMILES IDX 19 35 20 36 21 37 82 38 22 39 81 40 23 41 24 42 25 43 75 44
REMARK SMILES IDX 26 45 80 46 74 47 76 48 27 49 79 50 73 51 72 52 28 54 60 55
REMARK SMILES IDX 40 56 59 57 41 58 44 59 58 60 77 61 42 62 43 63 57 65 78 66
REMARK SMILES IDX 45 67 29 68 30 69 38 70 31 71 32 72 36 73 39 74 33 75 34 76
REMARK SMILES IDX 37 77 35 78 61 79 62 80 70 81 63 82 64 83 68 84 71 85 65 86
REMARK SMILES IDX 66 87 69 88 67 89 46 90 47 91 55 92 48 93 49 94 53 95 56 96
REMARK SMILES IDX 50 97 51 98 54 99 52 100
REMARK H PARENT 13 5 17 34 76 53 44 64
REMARK Flexibility Score: inf
ROOT
ATOM      1  C   UNL A   1      34.813  21.616  25.024  1.00  0.00     0.117 C 
ENDROOT
BRANCH   1   2
ATOM      2  N   UNL A   1      34.738  22.564  23.923  1.00  0.00    -0.356 N 
ATOM      3  C   UNL A   1      34.558  23.920  23.935  1.00  0.00     0.224 C 
ATOM      4  O   UNL A   1      34.624  24.519  22.858  1.00  0.00    -0.275 OA
ATOM      5  H   UNL A   1      34.832  22.167  23.027  1.00  0.00     0.163 HD
BRANCH   3   6
ATOM      6  C   UNL A   1      34.353  24.680  25.238  1.00  0.00     0.138 C 
BRANCH   6   7
ATOM      7  C   UNL A   1      33.087  25.480  25.262  1.00  0.00    -0.010 A 
ATOM      8  C   UNL A   1      33.356  29.028  26.634  1.00  0.00     0.119 A 
ATOM      9  C   UNL A   1      32.065  29.420  26.299  1.00  0.00     0.048 A 
ATOM     10  C   UNL A   1      33.820  27.757  26.289  1.00  0.00     0.057 A 
ATOM     11  C   UNL A   1      31.181  28.528  25.676  1.00  0.00     0.031 A 
ATOM     12  C   UNL A   1      32.939  26.832  25.689  1.00  0.00     0.007 A 
ATOM     13  C   UNL A   1      31.625  27.220  25.410  1.00  0.00     0.049 A 
ATOM     14  N   UNL A   1      30.984  26.115  24.868  1.00  0.00    -0.340 N 
ATOM     15  C   UNL A   1      31.816  25.013  24.965  1.00  0.00     0.020 A 
ATOM     16  C   UNL A   1      31.401  23.599  24.747  1.00  0.00     0.065 C 
BRANCH   8  17
ATOM     17  O   UNL A   1      34.250  29.861  27.251  1.00  0.00    -0.497 OA
ATOM     18  C   UNL A   1      33.669  31.108  27.628  1.00  0.00     0.278 C 
ENDBRANCH   8  17
BRANCH  14  19
ATOM     19  C   UNL A   1      29.622  26.125  24.318  1.00  0.00     0.158 C 
BRANCH  19  20
ATOM     20  C   UNL A   1      29.332  27.370  23.510  1.00  0.00    -0.021 A 
ATOM     21  C   UNL A   1      30.362  27.869  22.623  1.00  0.00     0.024 A 
ATOM     22  C   UNL A   1      28.163  28.029  23.574  1.00  0.00     0.077 A 
ATOM     23  C   UNL A   1      30.221  29.041  22.001  1.00  0.00     0.095 A 
ATOM     24  C   UNL A   1      27.966  29.324  22.852  1.00  0.00     0.255 A 
ATOM     25  N   UNL A   1      29.051  29.761  22.101  1.00  0.00    -0.258 N 
ATOM     26  O   UNL A   1      26.903  29.896  22.995  1.00  0.00    -0.269 OA
BRANCH  25  27
ATOM     27  C   UNL A   1      28.994  31.061  21.485  1.00  0.00     0.451 C 
ATOM     28  F   UNL A   1      27.973  31.170  20.612  1.00  0.00    -0.185 F 
ATOM     29  F   UNL A   1      28.863  32.007  22.444  1.00  0.00    -0.185 F 
ENDBRANCH  25  27
ENDBRANCH  19  20
ENDBRANCH  14  19
ENDBRANCH   6   7
ENDBRANCH   3   6
ENDBRANCH   1   2
BRANCH   1  30
ATOM     30  C   UNL A   1      36.190  21.561  25.699  1.00  0.00     0.042 C 
BRANCH  30  31
ATOM     31  C   UNL A   1      37.378  21.898  24.793  1.00  0.00     0.118 C 
BRANCH  31  32
ATOM     32  N   UNL A   1      38.659  21.377  25.249  1.00  0.00    -0.352 N 
ATOM     33  C   UNL A   1      39.626  21.722  26.155  1.00  0.00     0.251 C 
ATOM     34  H   UNL A   1      38.896  20.548  24.773  1.00  0.00     0.163 HD
ATOM     35  O   UNL A   1      40.510  20.875  26.323  1.00  0.00    -0.269 OA
BRANCH  33  36
ATOM     36  C   UNL A   1      39.753  23.013  26.889  1.00  0.00     0.039 A 
ATOM     37  C   UNL A   1      38.864  24.078  26.835  1.00  0.00     0.014 A 
ATOM     38  C   UNL A   1      40.928  23.174  27.661  1.00  0.00     0.014 A 
ATOM     39  C   UNL A   1      39.207  25.298  27.428  1.00  0.00     0.010 A 
ATOM     40  C   UNL A   1      41.270  24.395  28.254  1.00  0.00     0.010 A 
ATOM     41  C   UNL A   1      40.439  25.491  28.081  1.00  0.00    -0.014 A 
BRANCH  41  42
ATOM     42  C   UNL A   1      40.737  26.840  28.596  1.00  0.00     0.031 A 
ATOM     43  C   UNL A   1      41.969  27.454  28.027  1.00  0.00     0.074 A 
ATOM     44  C   UNL A   1      40.009  27.563  29.479  1.00  0.00     0.049 A 
ATOM     45  N   UNL A   1      43.034  27.835  28.657  1.00  0.00    -0.248 NA
ATOM     46  C   UNL A   1      42.057  27.571  26.564  1.00  0.00     0.031 C 
ATOM     47  C   UNL A   1      38.671  27.285  30.003  1.00  0.00     0.029 A 
ATOM     48  N   UNL A   1      40.311  28.775  30.054  1.00  0.00    -0.354 N 
ATOM     49  C   UNL A   1      43.885  28.355  27.689  1.00  0.00     0.074 A 
ATOM     50  C   UNL A   1      43.282  28.075  26.411  1.00  0.00     0.031 C 
ATOM     51  C   UNL A   1      38.198  28.383  30.637  1.00  0.00     0.029 A 
ATOM     52  C   UNL A   1      39.237  29.400  30.679  1.00  0.00     0.049 A 
ATOM     53  H   UNL A   1      41.213  29.169  30.026  1.00  0.00     0.167 HD
ATOM     54  C   UNL A   1      44.929  29.160  28.020  1.00  0.00     0.037 A 
ATOM     55  C   UNL A   1      39.184  30.673  31.150  1.00  0.00     0.037 A 
ATOM     56  C   UNL A   1      45.349  28.967  29.382  1.00  0.00     0.049 A 
ATOM     57  C   UNL A   1      40.574  31.125  31.390  1.00  0.00     0.074 A 
ATOM     58  C   UNL A   1      45.795  27.883  30.114  1.00  0.00     0.029 A 
ATOM     59  N   UNL A   1      45.060  29.939  30.305  1.00  0.00    -0.354 N 
ATOM     60  N   UNL A   1      41.330  30.708  32.366  1.00  0.00    -0.248 NA
ATOM     61  C   UNL A   1      41.262  31.828  30.319  1.00  0.00     0.031 C 
ATOM     62  C   UNL A   1      45.293  28.090  31.432  1.00  0.00     0.029 A 
ATOM     63  C   UNL A   1      44.604  29.301  31.427  1.00  0.00     0.049 A 
ATOM     64  H   UNL A   1      45.159  30.911  30.183  1.00  0.00     0.167 HD
ATOM     65  C   UNL A   1      42.605  30.700  31.829  1.00  0.00     0.074 A 
ATOM     66  C   UNL A   1      42.521  31.510  30.621  1.00  0.00     0.031 C 
ATOM     67  C   UNL A   1      43.540  29.808  32.259  1.00  0.00     0.037 A 
BRANCH  54  68
ATOM     68  C   UNL A   1      45.304  30.379  27.219  1.00  0.00     0.064 A 
ATOM     69  C   UNL A   1      46.664  30.678  27.008  1.00  0.00     0.173 A 
ATOM     70  C   UNL A   1      44.395  31.423  26.935  1.00  0.00     0.173 A 
ATOM     71  F   UNL A   1      47.614  29.770  27.276  1.00  0.00    -0.203 F 
ATOM     72  C   UNL A   1      47.084  31.954  26.623  1.00  0.00     0.198 A 
ATOM     73  C   UNL A   1      44.815  32.676  26.497  1.00  0.00     0.198 A 
ATOM     74  F   UNL A   1      43.084  31.314  27.182  1.00  0.00    -0.203 F 
ATOM     75  F   UNL A   1      48.393  32.235  26.569  1.00  0.00    -0.200 F 
ATOM     76  C   UNL A   1      46.160  32.953  26.374  1.00  0.00     0.200 A 
ATOM     77  F   UNL A   1      43.906  33.637  26.285  1.00  0.00    -0.200 F 
ATOM     78  F   UNL A   1      46.562  34.194  26.072  1.00  0.00    -0.200 F 
ENDBRANCH  54  68
BRANCH  55  79
ATOM     79  C   UNL A   1      38.045  31.630  31.196  1.00  0.00     0.064 A 
ATOM     80  C   UNL A   1      37.492  32.159  30.013  1.00  0.00     0.173 A 
ATOM     81  C   UNL A   1      37.285  31.817  32.366  1.00  0.00     0.173 A 
ATOM     82  F   UNL A   1      38.124  32.005  28.840  1.00  0.00    -0.203 F 
ATOM     83  C   UNL A   1      36.241  32.786  29.996  1.00  0.00     0.198 A 
ATOM     84  C   UNL A   1      36.042  32.455  32.349  1.00  0.00     0.198 A 
ATOM     85  F   UNL A   1      37.682  31.302  33.538  1.00  0.00    -0.203 F 
ATOM     86  F   UNL A   1      35.717  33.202  28.833  1.00  0.00    -0.200 F 
ATOM     87  C   UNL A   1      35.511  32.920  31.162  1.00  0.00     0.200 A 
ATOM     88  F   UNL A   1      35.333  32.555  33.483  1.00  0.00    -0.200 F 
ATOM     89  F   UNL A   1      34.284  33.460  31.138  1.00  0.00    -0.200 F 
ENDBRANCH  55  79
BRANCH  67  90
ATOM     90  C   UNL A   1      43.303  29.086  33.551  1.00  0.00     0.064 A 
ATOM     91  C   UNL A   1      43.730  29.553  34.805  1.00  0.00     0.173 A 
ATOM     92  C   UNL A   1      42.450  27.972  33.524  1.00  0.00     0.173 A 
ATOM     93  F   UNL A   1      44.478  30.659  34.918  1.00  0.00    -0.203 F 
ATOM     94  C   UNL A   1      43.329  28.916  35.979  1.00  0.00     0.198 A 
ATOM     95  C   UNL A   1      42.027  27.361  34.699  1.00  0.00     0.198 A 
ATOM     96  F   UNL A   1      41.978  27.512  32.354  1.00  0.00    -0.203 F 
ATOM     97  F   UNL A   1      43.739  29.381  37.169  1.00  0.00    -0.200 F 
ATOM     98  C   UNL A   1      42.468  27.831  35.925  1.00  0.00     0.200 A 
ATOM     99  F   UNL A   1      41.158  26.341  34.645  1.00  0.00    -0.200 F 
ATOM    100  F   UNL A   1      42.038  27.256  37.058  1.00  0.00    -0.200 F 
ENDBRANCH  67  90
ENDBRANCH  41  42
ENDBRANCH  33  36
ENDBRANCH  31  32
ENDBRANCH  30  31
ENDBRANCH   1  30
TORSDOF 15
ENDMDL
