MODEL 1
REMARK VINA RESULT:     -11.6      0.000      0.000
REMARK SMILES C=CCOc1ccccc1/C=C/c1cc(C(=O)NCCCNC(=O)c2ccc(-c3c4nc(c(-c5c(F)c(F)c(F)c(F)c5F)c5ccc([nH]5)c(-c5c(F)c(F)c(F)c(F)c5F)c5nc(c(-c6c(F)c(F)c(F)c(F)c6F)c6ccc3[nH]6)C=C5)C=C4)cc2)ncn1
REMARK SMILES IDX 16 1 17 2 18 3 15 5 13 6 14 7 90 8 89 9 88 10 12 11 11 12
REMARK SMILES IDX 10 13 5 14 6 15 7 16 9 17 8 18 4 19 3 20 2 21 1 22 19 23
REMARK SMILES IDX 20 24 21 25 22 26 23 27 24 29 25 30 26 31 87 32 27 33 86 34
REMARK SMILES IDX 28 35 29 36 30 37 80 38 31 39 85 40 79 41 81 42 32 43 84 44
REMARK SMILES IDX 78 45 77 46 33 48 65 49 45 50 64 51 46 52 49 53 63 54 82 55
REMARK SMILES IDX 47 56 48 57 62 59 83 60 50 61 34 62 35 63 43 64 36 65 37 66
REMARK SMILES IDX 41 67 44 68 38 69 39 70 42 71 40 72 66 73 67 74 75 75 68 76
REMARK SMILES IDX 69 77 73 78 76 79 70 80 71 81 74 82 72 83 51 84 52 85 60 86
REMARK SMILES IDX 53 87 54 88 58 89 61 90 55 91 56 92 59 93 57 94
REMARK H PARENT 18 4 22 28 81 47 49 58
REMARK Flexibility Score: inf
ROOT
ATOM      1  C   UNL A   1      41.113  22.021  27.851  1.00  0.00     0.270 C 
ATOM      2  O   UNL A   1      41.605  22.804  28.664  1.00  0.00    -0.268 OA
ATOM      3  N   UNL A   1      41.657  20.753  27.789  1.00  0.00    -0.351 N 
ATOM      4  H   UNL A   1      42.445  20.628  28.366  1.00  0.00     0.163 HD
ENDROOT
BRANCH   1   5
ATOM      5  C   UNL A   1      39.945  22.446  27.011  1.00  0.00     0.132 A 
ATOM      6  C   UNL A   1      38.114  22.027  25.620  1.00  0.00     0.067 A 
ATOM      7  C   UNL A   1      39.291  21.573  26.176  1.00  0.00     0.062 A 
ATOM      8  N   UNL A   1      37.717  23.307  25.719  1.00  0.00    -0.237 NA
ATOM      9  C   UNL A   1      38.489  24.110  26.464  1.00  0.00     0.223 A 
ATOM     10  N   UNL A   1      39.572  23.737  27.151  1.00  0.00    -0.231 NA
BRANCH   6  11
ATOM     11  C   UNL A   1      37.143  21.119  24.990  1.00  0.00     0.029 C 
ATOM     12  C   UNL A   1      35.931  20.888  25.528  1.00  0.00     0.014 C 
BRANCH  12  13
ATOM     13  C   UNL A   1      34.793  20.224  24.873  1.00  0.00     0.017 A 
ATOM     14  C   UNL A   1      33.647  20.979  24.549  1.00  0.00     0.126 A 
ATOM     15  C   UNL A   1      32.524  20.382  23.976  1.00  0.00     0.047 A 
ATOM     16  C   UNL A   1      32.543  19.019  23.687  1.00  0.00     0.004 A 
ATOM     17  C   UNL A   1      34.790  18.856  24.585  1.00  0.00     0.012 A 
ATOM     18  C   UNL A   1      33.674  18.259  23.987  1.00  0.00     0.001 A 
BRANCH  14  19
ATOM     19  O   UNL A   1      33.590  22.324  24.838  1.00  0.00    -0.489 OA
BRANCH  19  20
ATOM     20  C   UNL A   1      32.293  22.690  25.332  1.00  0.00     0.257 C 
BRANCH  20  21
ATOM     21  C   UNL A   1      32.341  22.700  26.832  1.00  0.00     0.006 C 
ATOM     22  C   UNL A   1      33.468  22.794  27.552  1.00  0.00     0.007 C 
ENDBRANCH  20  21
ENDBRANCH  19  20
ENDBRANCH  14  19
ENDBRANCH  12  13
ENDBRANCH   6  11
ENDBRANCH   1   5
BRANCH   3  23
ATOM     23  C   UNL A   1      41.288  19.568  27.030  1.00  0.00     0.118 C 
BRANCH  23  24
ATOM     24  C   UNL A   1      42.105  19.447  25.742  1.00  0.00     0.042 C 
BRANCH  24  25
ATOM     25  C   UNL A   1      43.427  18.703  25.917  1.00  0.00     0.118 C 
BRANCH  25  26
ATOM     26  N   UNL A   1      44.210  18.677  24.693  1.00  0.00    -0.352 N 
ATOM     27  C   UNL A   1      44.843  19.686  24.019  1.00  0.00     0.251 C 
ATOM     28  H   UNL A   1      44.298  17.787  24.280  1.00  0.00     0.163 HD
ATOM     29  O   UNL A   1      45.291  19.456  22.893  1.00  0.00    -0.269 OA
BRANCH  27  30
ATOM     30  C   UNL A   1      45.000  21.042  24.598  1.00  0.00     0.039 A 
ATOM     31  C   UNL A   1      44.653  22.141  23.803  1.00  0.00     0.014 A 
ATOM     32  C   UNL A   1      45.556  21.256  25.863  1.00  0.00     0.014 A 
ATOM     33  C   UNL A   1      44.838  23.441  24.281  1.00  0.00     0.010 A 
ATOM     34  C   UNL A   1      45.675  22.552  26.368  1.00  0.00     0.010 A 
ATOM     35  C   UNL A   1      45.337  23.658  25.574  1.00  0.00    -0.014 A 
BRANCH  35  36
ATOM     36  C   UNL A   1      45.518  25.041  26.086  1.00  0.00     0.031 A 
ATOM     37  C   UNL A   1      46.867  25.704  26.052  1.00  0.00     0.074 A 
ATOM     38  C   UNL A   1      44.466  25.693  26.616  1.00  0.00     0.049 A 
ATOM     39  N   UNL A   1      47.204  26.915  26.421  1.00  0.00    -0.248 NA
ATOM     40  C   UNL A   1      47.992  24.891  25.568  1.00  0.00     0.031 C 
ATOM     41  C   UNL A   1      43.125  25.134  26.779  1.00  0.00     0.029 A 
ATOM     42  N   UNL A   1      44.361  26.966  27.117  1.00  0.00    -0.354 N 
ATOM     43  C   UNL A   1      48.578  27.002  26.229  1.00  0.00     0.074 A 
ATOM     44  C   UNL A   1      49.018  25.706  25.760  1.00  0.00     0.031 C 
ATOM     45  C   UNL A   1      42.325  26.065  27.323  1.00  0.00     0.029 A 
ATOM     46  C   UNL A   1      43.100  27.279  27.559  1.00  0.00     0.049 A 
ATOM     47  H   UNL A   1      45.119  27.595  27.156  1.00  0.00     0.167 HD
ATOM     48  C   UNL A   1      49.392  28.070  26.407  1.00  0.00     0.037 A 
ATOM     49  C   UNL A   1      42.618  28.421  28.085  1.00  0.00     0.037 A 
ATOM     50  C   UNL A   1      48.945  29.368  26.844  1.00  0.00     0.049 A 
ATOM     51  C   UNL A   1      43.522  29.615  28.207  1.00  0.00     0.074 A 
ATOM     52  C   UNL A   1      49.675  30.536  26.971  1.00  0.00     0.029 A 
ATOM     53  N   UNL A   1      47.646  29.664  27.230  1.00  0.00    -0.354 N 
ATOM     54  N   UNL A   1      44.798  29.717  27.925  1.00  0.00    -0.248 NA
ATOM     55  C   UNL A   1      42.914  30.859  28.700  1.00  0.00     0.031 C 
ATOM     56  C   UNL A   1      48.826  31.530  27.473  1.00  0.00     0.029 A 
ATOM     57  C   UNL A   1      47.556  30.992  27.615  1.00  0.00     0.049 A 
ATOM     58  H   UNL A   1      46.897  29.024  27.231  1.00  0.00     0.167 HD
ATOM     59  C   UNL A   1      45.143  31.037  28.185  1.00  0.00     0.074 A 
ATOM     60  C   UNL A   1      43.935  31.702  28.633  1.00  0.00     0.031 C 
ATOM     61  C   UNL A   1      46.350  31.640  28.063  1.00  0.00     0.037 A 
BRANCH  48  62
ATOM     62  C   UNL A   1      50.855  27.875  26.126  1.00  0.00     0.064 A 
ATOM     63  C   UNL A   1      51.386  28.030  24.836  1.00  0.00     0.173 A 
ATOM     64  C   UNL A   1      51.740  27.541  27.162  1.00  0.00     0.173 A 
ATOM     65  F   UNL A   1      50.583  28.340  23.807  1.00  0.00    -0.203 F 
ATOM     66  C   UNL A   1      52.740  27.816  24.586  1.00  0.00     0.198 A 
ATOM     67  C   UNL A   1      53.099  27.359  26.914  1.00  0.00     0.198 A 
ATOM     68  F   UNL A   1      51.288  27.389  28.416  1.00  0.00    -0.203 F 
ATOM     69  F   UNL A   1      53.212  27.912  23.335  1.00  0.00    -0.200 F 
ATOM     70  C   UNL A   1      53.595  27.486  25.626  1.00  0.00     0.200 A 
ATOM     71  F   UNL A   1      53.926  27.051  27.922  1.00  0.00    -0.200 F 
ATOM     72  F   UNL A   1      54.897  27.279  25.384  1.00  0.00    -0.200 F 
ENDBRANCH  48  62
BRANCH  49  73
ATOM     73  C   UNL A   1      41.189  28.490  28.480  1.00  0.00     0.064 A 
ATOM     74  C   UNL A   1      40.782  28.137  29.774  1.00  0.00     0.173 A 
ATOM     75  C   UNL A   1      40.213  28.959  27.590  1.00  0.00     0.173 A 
ATOM     76  F   UNL A   1      41.679  27.668  30.653  1.00  0.00    -0.203 F 
ATOM     77  C   UNL A   1      39.448  28.242  30.161  1.00  0.00     0.198 A 
ATOM     78  C   UNL A   1      38.882  29.086  27.985  1.00  0.00     0.198 A 
ATOM     79  F   UNL A   1      40.556  29.319  26.345  1.00  0.00    -0.203 F 
ATOM     80  F   UNL A   1      39.080  27.874  31.395  1.00  0.00    -0.200 F 
ATOM     81  C   UNL A   1      38.501  28.725  29.269  1.00  0.00     0.200 A 
ATOM     82  F   UNL A   1      37.974  29.569  27.127  1.00  0.00    -0.200 F 
ATOM     83  F   UNL A   1      37.221  28.843  29.646  1.00  0.00    -0.200 F 
ENDBRANCH  49  73
BRANCH  61  84
ATOM     84  C   UNL A   1      46.424  33.100  28.403  1.00  0.00     0.064 A 
ATOM     85  C   UNL A   1      46.733  33.537  29.700  1.00  0.00     0.173 A 
ATOM     86  C   UNL A   1      46.213  34.071  27.413  1.00  0.00     0.173 A 
ATOM     87  F   UNL A   1      46.927  32.647  30.684  1.00  0.00    -0.203 F 
ATOM     88  C   UNL A   1      46.803  34.896  29.998  1.00  0.00     0.198 A 
ATOM     89  C   UNL A   1      46.311  35.429  27.709  1.00  0.00     0.198 A 
ATOM     90  F   UNL A   1      45.920  33.705  26.157  1.00  0.00    -0.203 F 
ATOM     91  F   UNL A   1      47.056  35.292  31.253  1.00  0.00    -0.200 F 
ATOM     92  C   UNL A   1      46.599  35.839  29.001  1.00  0.00     0.200 A 
ATOM     93  F   UNL A   1      46.123  36.338  26.743  1.00  0.00    -0.200 F 
ATOM     94  F   UNL A   1      46.671  37.146  29.290  1.00  0.00    -0.200 F 
ENDBRANCH  61  84
ENDBRANCH  35  36
ENDBRANCH  27  30
ENDBRANCH  25  26
ENDBRANCH  24  25
ENDBRANCH  23  24
ENDBRANCH   3  23
TORSDOF 15
ENDMDL
MODEL 2
REMARK VINA RESULT:     -11.6      0.127      1.589
REMARK SMILES C=CCOc1ccccc1/C=C/c1cc(C(=O)NCCCNC(=O)c2ccc(-c3c4nc(c(-c5c(F)c(F)c(F)c(F)c5F)c5ccc([nH]5)c(-c5c(F)c(F)c(F)c(F)c5F)c5nc(c(-c6c(F)c(F)c(F)c(F)c6F)c6ccc3[nH]6)C=C5)C=C4)cc2)ncn1
REMARK SMILES IDX 16 1 17 2 18 3 15 5 13 6 14 7 90 8 89 9 88 10 12 11 11 12
REMARK SMILES IDX 10 13 5 14 6 15 7 16 9 17 8 18 4 19 3 20 2 21 1 22 19 23
REMARK SMILES IDX 20 24 21 25 22 26 23 27 24 29 25 30 26 31 87 32 27 33 86 34
REMARK SMILES IDX 28 35 29 36 30 37 80 38 31 39 85 40 79 41 81 42 32 43 84 44
REMARK SMILES IDX 78 45 77 46 33 48 65 49 45 50 64 51 46 52 49 53 63 54 82 55
REMARK SMILES IDX 47 56 48 57 62 59 83 60 50 61 34 62 35 63 43 64 36 65 37 66
REMARK SMILES IDX 41 67 44 68 38 69 39 70 42 71 40 72 66 73 67 74 75 75 68 76
REMARK SMILES IDX 69 77 73 78 76 79 70 80 71 81 74 82 72 83 51 84 52 85 60 86
REMARK SMILES IDX 53 87 54 88 58 89 61 90 55 91 56 92 59 93 57 94
REMARK H PARENT 18 4 22 28 81 47 49 58
REMARK Flexibility Score: inf
ROOT
ATOM      1  C   UNL A   1      41.148  22.010  27.848  1.00  0.00     0.270 C 
ATOM      2  O   UNL A   1      41.663  22.791  28.649  1.00  0.00    -0.268 OA
ATOM      3  N   UNL A   1      41.677  20.736  27.782  1.00  0.00    -0.351 N 
ATOM      4  H   UNL A   1      42.473  20.604  28.347  1.00  0.00     0.163 HD
ENDROOT
BRANCH   1   5
ATOM      5  C   UNL A   1      39.971  22.446  27.025  1.00  0.00     0.132 A 
ATOM      6  C   UNL A   1      38.122  22.043  25.653  1.00  0.00     0.067 A 
ATOM      7  C   UNL A   1      39.305  21.581  26.191  1.00  0.00     0.062 A 
ATOM      8  N   UNL A   1      37.730  23.323  25.768  1.00  0.00    -0.237 NA
ATOM      9  C   UNL A   1      38.514  24.118  26.509  1.00  0.00     0.223 A 
ATOM     10  N   UNL A   1      39.604  23.736  27.180  1.00  0.00    -0.231 NA
BRANCH   6  11
ATOM     11  C   UNL A   1      37.141  21.143  25.029  1.00  0.00     0.029 C 
ATOM     12  C   UNL A   1      35.948  20.886  25.596  1.00  0.00     0.014 C 
BRANCH  12  13
ATOM     13  C   UNL A   1      34.796  20.230  24.956  1.00  0.00     0.017 A 
ATOM     14  C   UNL A   1      33.631  20.979  24.697  1.00  0.00     0.126 A 
ATOM     15  C   UNL A   1      32.497  20.386  24.141  1.00  0.00     0.047 A 
ATOM     16  C   UNL A   1      32.523  19.034  23.806  1.00  0.00     0.004 A 
ATOM     17  C   UNL A   1      34.801  18.872  24.623  1.00  0.00     0.012 A 
ATOM     18  C   UNL A   1      33.673  18.280  24.043  1.00  0.00     0.001 A 
BRANCH  14  19
ATOM     19  O   UNL A   1      33.567  22.313  25.032  1.00  0.00    -0.489 OA
BRANCH  19  20
ATOM     20  C   UNL A   1      32.221  22.701  25.348  1.00  0.00     0.257 C 
BRANCH  20  21
ATOM     21  C   UNL A   1      32.110  22.858  26.837  1.00  0.00     0.006 C 
ATOM     22  C   UNL A   1      33.109  22.624  27.700  1.00  0.00     0.007 C 
ENDBRANCH  20  21
ENDBRANCH  19  20
ENDBRANCH  14  19
ENDBRANCH  12  13
ENDBRANCH   6  11
ENDBRANCH   1   5
BRANCH   3  23
ATOM     23  C   UNL A   1      41.281  19.553  27.034  1.00  0.00     0.118 C 
BRANCH  23  24
ATOM     24  C   UNL A   1      42.100  19.397  25.751  1.00  0.00     0.042 C 
BRANCH  24  25
ATOM     25  C   UNL A   1      43.418  18.653  25.946  1.00  0.00     0.118 C 
BRANCH  25  26
ATOM     26  N   UNL A   1      44.210  18.607  24.728  1.00  0.00    -0.352 N 
ATOM     27  C   UNL A   1      44.851  19.605  24.045  1.00  0.00     0.251 C 
ATOM     28  H   UNL A   1      44.298  17.711  24.328  1.00  0.00     0.163 HD
ATOM     29  O   UNL A   1      45.307  19.358  22.926  1.00  0.00    -0.269 OA
BRANCH  27  30
ATOM     30  C   UNL A   1      45.009  20.967  24.606  1.00  0.00     0.039 A 
ATOM     31  C   UNL A   1      44.667  22.057  23.795  1.00  0.00     0.014 A 
ATOM     32  C   UNL A   1      45.561  21.198  25.870  1.00  0.00     0.014 A 
ATOM     33  C   UNL A   1      44.852  23.362  24.256  1.00  0.00     0.010 A 
ATOM     34  C   UNL A   1      45.680  22.501  26.358  1.00  0.00     0.010 A 
ATOM     35  C   UNL A   1      45.347  23.597  25.548  1.00  0.00    -0.014 A 
BRANCH  35  36
ATOM     36  C   UNL A   1      45.529  24.986  26.042  1.00  0.00     0.031 A 
ATOM     37  C   UNL A   1      46.876  25.652  25.986  1.00  0.00     0.074 A 
ATOM     38  C   UNL A   1      44.480  25.641  26.575  1.00  0.00     0.049 A 
ATOM     39  N   UNL A   1      47.213  26.869  26.338  1.00  0.00    -0.248 NA
ATOM     40  C   UNL A   1      47.998  24.837  25.500  1.00  0.00     0.031 C 
ATOM     41  C   UNL A   1      43.143  25.079  26.758  1.00  0.00     0.029 A 
ATOM     42  N   UNL A   1      44.377  26.919  27.062  1.00  0.00    -0.354 N 
ATOM     43  C   UNL A   1      48.584  26.957  26.131  1.00  0.00     0.074 A 
ATOM     44  C   UNL A   1      49.024  25.657  25.673  1.00  0.00     0.031 C 
ATOM     45  C   UNL A   1      42.346  26.014  27.299  1.00  0.00     0.029 A 
ATOM     46  C   UNL A   1      43.119  27.233  27.513  1.00  0.00     0.049 A 
ATOM     47  H   UNL A   1      45.132  27.551  27.086  1.00  0.00     0.167 HD
ATOM     48  C   UNL A   1      49.397  28.031  26.287  1.00  0.00     0.037 A 
ATOM     49  C   UNL A   1      42.639  28.380  28.030  1.00  0.00     0.037 A 
ATOM     50  C   UNL A   1      48.950  29.331  26.714  1.00  0.00     0.049 A 
ATOM     51  C   UNL A   1      43.540  29.578  28.129  1.00  0.00     0.074 A 
ATOM     52  C   UNL A   1      49.677  30.503  26.820  1.00  0.00     0.029 A 
ATOM     53  N   UNL A   1      47.654  29.628  27.110  1.00  0.00    -0.354 N 
ATOM     54  N   UNL A   1      44.813  29.681  27.833  1.00  0.00    -0.248 NA
ATOM     55  C   UNL A   1      42.933  30.826  28.613  1.00  0.00     0.031 C 
ATOM     56  C   UNL A   1      48.830  31.501  27.319  1.00  0.00     0.029 A 
ATOM     57  C   UNL A   1      47.564  30.960  27.480  1.00  0.00     0.049 A 
ATOM     58  H   UNL A   1      46.907  28.986  27.126  1.00  0.00     0.167 HD
ATOM     59  C   UNL A   1      45.156  31.004  28.074  1.00  0.00     0.074 A 
ATOM     60  C   UNL A   1      43.951  31.671  28.526  1.00  0.00     0.031 C 
ATOM     61  C   UNL A   1      46.360  31.610  27.933  1.00  0.00     0.037 A 
BRANCH  48  62
ATOM     62  C   UNL A   1      50.857  27.837  25.994  1.00  0.00     0.064 A 
ATOM     63  C   UNL A   1      51.781  27.542  27.009  1.00  0.00     0.173 A 
ATOM     64  C   UNL A   1      51.339  27.935  24.680  1.00  0.00     0.173 A 
ATOM     65  F   UNL A   1      51.376  27.446  28.284  1.00  0.00    -0.203 F 
ATOM     66  C   UNL A   1      53.137  27.395  26.726  1.00  0.00     0.198 A 
ATOM     67  C   UNL A   1      52.691  27.756  24.396  1.00  0.00     0.198 A 
ATOM     68  F   UNL A   1      50.498  28.206  23.670  1.00  0.00    -0.203 F 
ATOM     69  F   UNL A   1      54.007  27.173  27.721  1.00  0.00    -0.200 F 
ATOM     70  C   UNL A   1      53.589  27.497  25.419  1.00  0.00     0.200 A 
ATOM     71  F   UNL A   1      53.125  27.844  23.131  1.00  0.00    -0.200 F 
ATOM     72  F   UNL A   1      54.895  27.357  25.148  1.00  0.00    -0.200 F 
ENDBRANCH  48  62
BRANCH  49  73
ATOM     73  C   UNL A   1      41.214  28.450  28.439  1.00  0.00     0.064 A 
ATOM     74  C   UNL A   1      40.815  28.068  29.727  1.00  0.00     0.173 A 
ATOM     75  C   UNL A   1      40.233  28.946  27.569  1.00  0.00     0.173 A 
ATOM     76  F   UNL A   1      41.716  27.573  30.588  1.00  0.00    -0.203 F 
ATOM     77  C   UNL A   1      39.485  28.173  30.128  1.00  0.00     0.198 A 
ATOM     78  C   UNL A   1      38.907  29.073  27.978  1.00  0.00     0.198 A 
ATOM     79  F   UNL A   1      40.569  29.332  26.329  1.00  0.00    -0.203 F 
ATOM     80  F   UNL A   1      39.124  27.779  31.357  1.00  0.00    -0.200 F 
ATOM     81  C   UNL A   1      38.534  28.684  29.256  1.00  0.00     0.200 A 
ATOM     82  F   UNL A   1      37.995  29.581  27.139  1.00  0.00    -0.200 F 
ATOM     83  F   UNL A   1      37.258  28.801  29.647  1.00  0.00    -0.200 F 
ENDBRANCH  49  73
BRANCH  61  84
ATOM     84  C   UNL A   1      46.433  33.074  28.254  1.00  0.00     0.064 A 
ATOM     85  C   UNL A   1      46.175  34.053  27.282  1.00  0.00     0.173 A 
ATOM     86  C   UNL A   1      46.733  33.502  29.556  1.00  0.00     0.173 A 
ATOM     87  F   UNL A   1      45.898  33.694  26.020  1.00  0.00    -0.203 F 
ATOM     88  C   UNL A   1      46.240  35.407  27.597  1.00  0.00     0.198 A 
ATOM     89  C   UNL A   1      46.771  34.857  29.874  1.00  0.00     0.198 A 
ATOM     90  F   UNL A   1      46.983  32.606  30.522  1.00  0.00    -0.203 F 
ATOM     91  F   UNL A   1      46.034  36.326  26.644  1.00  0.00    -0.200 F 
ATOM     92  C   UNL A   1      46.531  35.808  28.893  1.00  0.00     0.200 A 
ATOM     93  F   UNL A   1      47.042  35.242  31.128  1.00  0.00    -0.200 F 
ATOM     94  F   UNL A   1      46.589  37.113  29.195  1.00  0.00    -0.200 F 
ENDBRANCH  61  84
ENDBRANCH  35  36
ENDBRANCH  27  30
ENDBRANCH  25  26
ENDBRANCH  24  25
ENDBRANCH  23  24
ENDBRANCH   3  23
TORSDOF 15
ENDMDL
MODEL 3
REMARK VINA RESULT:     -11.6      5.928     11.612
REMARK SMILES C=CCOc1ccccc1/C=C/c1cc(C(=O)NCCCNC(=O)c2ccc(-c3c4nc(c(-c5c(F)c(F)c(F)c(F)c5F)c5ccc([nH]5)c(-c5c(F)c(F)c(F)c(F)c5F)c5nc(c(-c6c(F)c(F)c(F)c(F)c6F)c6ccc3[nH]6)C=C5)C=C4)cc2)ncn1
REMARK SMILES IDX 16 1 17 2 18 3 15 5 13 6 14 7 90 8 89 9 88 10 12 11 11 12
REMARK SMILES IDX 10 13 5 14 6 15 7 16 9 17 8 18 4 19 3 20 2 21 1 22 19 23
REMARK SMILES IDX 20 24 21 25 22 26 23 27 24 29 25 30 26 31 87 32 27 33 86 34
REMARK SMILES IDX 28 35 29 36 30 37 80 38 31 39 85 40 79 41 81 42 32 43 84 44
REMARK SMILES IDX 78 45 77 46 33 48 65 49 45 50 64 51 46 52 49 53 63 54 82 55
REMARK SMILES IDX 47 56 48 57 62 59 83 60 50 61 34 62 35 63 43 64 36 65 37 66
REMARK SMILES IDX 41 67 44 68 38 69 39 70 42 71 40 72 66 73 67 74 75 75 68 76
REMARK SMILES IDX 69 77 73 78 76 79 70 80 71 81 74 82 72 83 51 84 52 85 60 86
REMARK SMILES IDX 53 87 54 88 58 89 61 90 55 91 56 92 59 93 57 94
REMARK H PARENT 18 4 22 28 81 47 49 58
REMARK Flexibility Score: inf
ROOT
ATOM      1  C   UNL A   1      30.638  28.901  23.038  1.00  0.00     0.270 C 
ATOM      2  O   UNL A   1      30.068  29.206  21.990  1.00  0.00    -0.268 OA
ATOM      3  N   UNL A   1      30.851  29.911  23.956  1.00  0.00    -0.351 N 
ATOM      4  H   UNL A   1      30.579  30.803  23.639  1.00  0.00     0.163 HD
ENDROOT
BRANCH   1   5
ATOM      5  C   UNL A   1      31.033  27.476  23.291  1.00  0.00     0.132 A 
ATOM      6  C   UNL A   1      32.599  25.779  23.655  1.00  0.00     0.067 A 
ATOM      7  C   UNL A   1      32.337  27.053  23.199  1.00  0.00     0.062 A 
ATOM      8  N   UNL A   1      31.622  24.918  23.989  1.00  0.00    -0.237 NA
ATOM      9  C   UNL A   1      30.371  25.394  23.935  1.00  0.00     0.223 A 
ATOM     10  N   UNL A   1      30.023  26.648  23.636  1.00  0.00    -0.231 NA
BRANCH   6  11
ATOM     11  C   UNL A   1      33.965  25.311  23.934  1.00  0.00     0.029 C 
ATOM     12  C   UNL A   1      34.223  24.389  24.879  1.00  0.00     0.014 C 
BRANCH  12  13
ATOM     13  C   UNL A   1      35.486  23.657  25.069  1.00  0.00     0.017 A 
ATOM     14  C   UNL A   1      35.587  22.327  24.615  1.00  0.00     0.126 A 
ATOM     15  C   UNL A   1      36.747  21.577  24.821  1.00  0.00     0.047 A 
ATOM     16  C   UNL A   1      37.838  22.162  25.459  1.00  0.00     0.004 A 
ATOM     17  C   UNL A   1      36.588  24.224  25.717  1.00  0.00     0.012 A 
ATOM     18  C   UNL A   1      37.760  23.483  25.902  1.00  0.00     0.001 A 
BRANCH  14  19
ATOM     19  O   UNL A   1      34.521  21.714  23.996  1.00  0.00    -0.489 OA
BRANCH  19  20
ATOM     20  C   UNL A   1      34.112  20.541  24.715  1.00  0.00     0.257 C 
BRANCH  20  21
ATOM     21  C   UNL A   1      33.074  20.940  25.724  1.00  0.00     0.006 C 
ATOM     22  C   UNL A   1      31.888  21.482  25.415  1.00  0.00     0.007 C 
ENDBRANCH  20  21
ENDBRANCH  19  20
ENDBRANCH  14  19
ENDBRANCH  12  13
ENDBRANCH   6  11
ENDBRANCH   1   5
BRANCH   3  23
ATOM     23  C   UNL A   1      31.402  29.905  25.302  1.00  0.00     0.118 C 
BRANCH  23  24
ATOM     24  C   UNL A   1      31.219  31.259  25.991  1.00  0.00     0.042 C 
BRANCH  24  25
ATOM     25  C   UNL A   1      32.355  31.628  26.942  1.00  0.00     0.118 C 
BRANCH  25  26
ATOM     26  N   UNL A   1      32.404  33.055  27.213  1.00  0.00    -0.352 N 
ATOM     27  C   UNL A   1      33.252  33.782  28.005  1.00  0.00     0.251 C 
ATOM     28  H   UNL A   1      31.713  33.586  26.752  1.00  0.00     0.163 HD
ATOM     29  O   UNL A   1      32.982  34.964  28.230  1.00  0.00    -0.269 OA
BRANCH  27  30
ATOM     30  C   UNL A   1      34.473  33.192  28.600  1.00  0.00     0.039 A 
ATOM     31  C   UNL A   1      34.318  32.251  29.626  1.00  0.00     0.014 A 
ATOM     32  C   UNL A   1      35.759  33.603  28.233  1.00  0.00     0.014 A 
ATOM     33  C   UNL A   1      35.439  31.710  30.260  1.00  0.00     0.010 A 
ATOM     34  C   UNL A   1      36.880  33.010  28.817  1.00  0.00     0.010 A 
ATOM     35  C   UNL A   1      36.732  32.073  29.851  1.00  0.00    -0.014 A 
BRANCH  35  36
ATOM     36  C   UNL A   1      37.922  31.484  30.516  1.00  0.00     0.031 A 
ATOM     37  C   UNL A   1      38.306  31.894  31.911  1.00  0.00     0.074 A 
ATOM     38  C   UNL A   1      38.684  30.599  29.846  1.00  0.00     0.049 A 
ATOM     39  N   UNL A   1      39.289  31.460  32.660  1.00  0.00    -0.248 NA
ATOM     40  C   UNL A   1      37.498  32.950  32.536  1.00  0.00     0.031 C 
ATOM     41  C   UNL A   1      38.465  30.179  28.462  1.00  0.00     0.029 A 
ATOM     42  N   UNL A   1      39.795  29.896  30.237  1.00  0.00    -0.354 N 
ATOM     43  C   UNL A   1      39.226  32.200  33.834  1.00  0.00     0.074 A 
ATOM     44  C   UNL A   1      38.142  33.145  33.677  1.00  0.00     0.031 C 
ATOM     45  C   UNL A   1      39.400  29.276  28.125  1.00  0.00     0.029 A 
ATOM     46  C   UNL A   1      40.289  29.065  29.263  1.00  0.00     0.049 A 
ATOM     47  H   UNL A   1      40.199  29.980  31.132  1.00  0.00     0.167 HD
ATOM     48  C   UNL A   1      39.989  32.086  34.949  1.00  0.00     0.037 A 
ATOM     49  C   UNL A   1      41.336  28.218  29.288  1.00  0.00     0.037 A 
ATOM     50  C   UNL A   1      41.047  31.124  35.114  1.00  0.00     0.049 A 
ATOM     51  C   UNL A   1      42.124  28.057  30.557  1.00  0.00     0.074 A 
ATOM     52  C   UNL A   1      41.820  30.870  36.233  1.00  0.00     0.029 A 
ATOM     53  N   UNL A   1      41.485  30.257  34.122  1.00  0.00    -0.354 N 
ATOM     54  N   UNL A   1      41.991  28.688  31.697  1.00  0.00    -0.248 NA
ATOM     55  C   UNL A   1      43.194  27.049  30.549  1.00  0.00     0.031 C 
ATOM     56  C   UNL A   1      42.752  29.878  35.907  1.00  0.00     0.029 A 
ATOM     57  C   UNL A   1      42.530  29.481  34.597  1.00  0.00     0.049 A 
ATOM     58  H   UNL A   1      41.108  30.202  33.214  1.00  0.00     0.167 HD
ATOM     59  C   UNL A   1      42.943  28.144  32.549  1.00  0.00     0.074 A 
ATOM     60  C   UNL A   1      43.637  27.118  31.797  1.00  0.00     0.031 C 
ATOM     61  C   UNL A   1      43.215  28.467  33.837  1.00  0.00     0.037 A 
BRANCH  48  62
ATOM     62  C   UNL A   1      39.701  33.033  36.079  1.00  0.00     0.064 A 
ATOM     63  C   UNL A   1      38.731  32.748  37.052  1.00  0.00     0.173 A 
ATOM     64  C   UNL A   1      40.413  34.236  36.199  1.00  0.00     0.173 A 
ATOM     65  F   UNL A   1      38.015  31.615  36.981  1.00  0.00    -0.203 F 
ATOM     66  C   UNL A   1      38.455  33.649  38.077  1.00  0.00     0.198 A 
ATOM     67  C   UNL A   1      40.156  35.121  37.243  1.00  0.00     0.198 A 
ATOM     68  F   UNL A   1      41.358  34.555  35.301  1.00  0.00    -0.203 F 
ATOM     69  F   UNL A   1      37.482  33.380  38.960  1.00  0.00    -0.200 F 
ATOM     70  C   UNL A   1      39.171  34.832  38.175  1.00  0.00     0.200 A 
ATOM     71  F   UNL A   1      40.856  36.259  37.342  1.00  0.00    -0.200 F 
ATOM     72  F   UNL A   1      38.903  35.700  39.161  1.00  0.00    -0.200 F 
ENDBRANCH  48  62
BRANCH  49  73
ATOM     73  C   UNL A   1      41.652  27.422  28.076  1.00  0.00     0.064 A 
ATOM     74  C   UNL A   1      42.568  27.891  27.125  1.00  0.00     0.173 A 
ATOM     75  C   UNL A   1      41.084  26.157  27.871  1.00  0.00     0.173 A 
ATOM     76  F   UNL A   1      43.125  29.102  27.272  1.00  0.00    -0.203 F 
ATOM     77  C   UNL A   1      42.900  27.126  26.008  1.00  0.00     0.198 A 
ATOM     78  C   UNL A   1      41.433  25.383  26.766  1.00  0.00     0.198 A 
ATOM     79  F   UNL A   1      40.209  25.662  28.759  1.00  0.00    -0.203 F 
ATOM     80  F   UNL A   1      43.760  27.607  25.101  1.00  0.00    -0.200 F 
ATOM     81  C   UNL A   1      42.339  25.869  25.835  1.00  0.00     0.200 A 
ATOM     82  F   UNL A   1      40.902  24.163  26.610  1.00  0.00    -0.200 F 
ATOM     83  F   UNL A   1      42.670  25.127  24.770  1.00  0.00    -0.200 F 
ENDBRANCH  49  73
BRANCH  61  84
ATOM     84  C   UNL A   1      44.300  27.689  34.523  1.00  0.00     0.064 A 
ATOM     85  C   UNL A   1      44.042  26.452  35.134  1.00  0.00     0.173 A 
ATOM     86  C   UNL A   1      45.616  28.173  34.545  1.00  0.00     0.173 A 
ATOM     87  F   UNL A   1      42.797  25.955  35.153  1.00  0.00    -0.203 F 
ATOM     88  C   UNL A   1      45.061  25.739  35.761  1.00  0.00     0.198 A 
ATOM     89  C   UNL A   1      46.637  27.445  35.150  1.00  0.00     0.198 A 
ATOM     90  F   UNL A   1      45.914  29.348  33.971  1.00  0.00    -0.203 F 
ATOM     91  F   UNL A   1      44.785  24.581  36.376  1.00  0.00    -0.200 F 
ATOM     92  C   UNL A   1      46.357  26.233  35.762  1.00  0.00     0.200 A 
ATOM     93  F   UNL A   1      47.891  27.918  35.142  1.00  0.00    -0.200 F 
ATOM     94  F   UNL A   1      47.337  25.543  36.364  1.00  0.00    -0.200 F 
ENDBRANCH  61  84
ENDBRANCH  35  36
ENDBRANCH  27  30
ENDBRANCH  25  26
ENDBRANCH  24  25
ENDBRANCH  23  24
ENDBRANCH   3  23
TORSDOF 15
ENDMDL
