MODEL 1
REMARK VINA RESULT:     -11.6      0.000      0.000
REMARK SMILES COc1cccc(-n2cc(C(=O)NCCCNC(=O)c3ccc(-c4c5nc(c(-c6c(F)c(F)c(F)c(F)c6F)c6ccc([nH]6)c(-c6c(F)c(F)c(F)c(F)c6F)c6nc(c(-c7c(F)c(F)c(F)c(F)c7F)c7ccc4[nH]7)C=C6)C=C5)cc3)c3c2[C@H](c2cc(OC)c(OC)c(OC)c2)CC(=O)N3)c1
REMARK SMILES IDX 15 1 14 2 13 3 11 4 12 5 10 7 8 8 9 9 84 10 83 11 85 12
REMARK SMILES IDX 101 13 98 14 99 15 100 17 7 18 3 19 4 20 102 21 5 22 6 23
REMARK SMILES IDX 2 24 1 25 86 26 87 27 97 28 88 29 94 30 91 31 89 32 90 33
REMARK SMILES IDX 95 34 96 35 92 36 93 37 16 38 17 39 18 40 19 42 20 43 21 44
REMARK SMILES IDX 82 45 22 46 81 47 23 48 24 49 25 50 75 51 26 52 80 53 74 54
REMARK SMILES IDX 76 55 27 56 79 57 73 58 72 59 28 61 60 62 40 63 59 64 41 65
REMARK SMILES IDX 44 66 58 67 77 68 42 69 43 70 57 72 78 73 45 74 29 75 30 76
REMARK SMILES IDX 38 77 31 78 32 79 36 80 39 81 33 82 34 83 37 84 35 85 61 86
REMARK SMILES IDX 62 87 70 88 63 89 64 90 68 91 71 92 65 93 66 94 69 95 67 96
REMARK SMILES IDX 46 97 47 98 55 99 48 100 49 101 53 102 56 103 50 104 51 105
REMARK SMILES IDX 54 106 52 107
REMARK H PARENT 13 6 101 16 17 41 76 60 44 71
REMARK Flexibility Score: inf
ROOT
ATOM      1  C   UNL A   1      41.832  20.475  26.688  1.00  0.00     0.042 C 
ENDROOT
BRANCH   1   2
ATOM      2  C   UNL A   1      42.659  21.346  25.725  1.00  0.00     0.118 C 
BRANCH   2   3
ATOM      3  N   UNL A   1      43.939  20.748  25.435  1.00  0.00    -0.352 N 
ATOM      4  C   UNL A   1      45.220  21.203  25.585  1.00  0.00     0.254 C 
ATOM      5  O   UNL A   1      46.098  20.379  25.310  1.00  0.00    -0.269 OA
ATOM      6  H   UNL A   1      43.879  19.839  25.058  1.00  0.00     0.163 HD
BRANCH   4   7
ATOM      7  C   UNL A   1      45.577  22.553  26.043  1.00  0.00     0.081 A 
ATOM      8  N   UNL A   1      46.294  24.684  25.679  1.00  0.00    -0.317 N 
ATOM      9  C   UNL A   1      46.008  23.478  25.094  1.00  0.00     0.107 A 
ATOM     10  C   UNL A   1      45.995  24.599  27.017  1.00  0.00     0.055 A 
ATOM     11  C   UNL A   1      45.527  23.321  27.248  1.00  0.00     0.076 A 
ATOM     12  C   UNL A   1      46.034  25.679  28.087  1.00  0.00     0.078 C 
ATOM     13  N   UNL A   1      45.105  23.054  28.523  1.00  0.00    -0.324 N 
ATOM     14  C   UNL A   1      44.790  25.449  28.975  1.00  0.00     0.115 C 
ATOM     15  C   UNL A   1      44.725  24.004  29.427  1.00  0.00     0.225 C 
ATOM     16  H   UNL A   1      45.074  22.112  28.808  1.00  0.00     0.170 HD
ATOM     17  O   UNL A   1      44.319  23.671  30.540  1.00  0.00    -0.275 OA
BRANCH   8  18
ATOM     18  C   UNL A   1      46.826  25.770  24.972  1.00  0.00     0.049 A 
ATOM     19  C   UNL A   1      48.601  26.758  23.690  1.00  0.00     0.120 A 
ATOM     20  C   UNL A   1      47.814  27.907  23.541  1.00  0.00     0.046 A 
ATOM     21  C   UNL A   1      48.102  25.672  24.407  1.00  0.00     0.073 A 
ATOM     22  C   UNL A   1      46.571  28.013  24.166  1.00  0.00     0.006 A 
ATOM     23  C   UNL A   1      46.095  26.954  24.925  1.00  0.00     0.027 A 
BRANCH  19  24
ATOM     24  O   UNL A   1      49.826  26.837  23.092  1.00  0.00    -0.497 OA
ATOM     25  C   UNL A   1      49.868  27.271  21.739  1.00  0.00     0.278 C 
ENDBRANCH  19  24
ENDBRANCH   8  18
BRANCH  12  26
ATOM     26  C   UNL A   1      47.349  25.687  28.884  1.00  0.00    -0.031 A 
ATOM     27  C   UNL A   1      48.535  25.415  28.208  1.00  0.00     0.055 A 
ATOM     28  C   UNL A   1      47.461  25.906  30.268  1.00  0.00     0.055 A 
ATOM     29  C   UNL A   1      49.733  25.153  28.879  1.00  0.00     0.164 A 
ATOM     30  C   UNL A   1      48.683  25.785  30.959  1.00  0.00     0.164 A 
ATOM     31  C   UNL A   1      49.833  25.368  30.263  1.00  0.00     0.203 A 
BRANCH  29  32
ATOM     32  O   UNL A   1      50.736  24.725  28.043  1.00  0.00    -0.493 OA
ATOM     33  C   UNL A   1      50.934  25.513  26.871  1.00  0.00     0.278 C 
ENDBRANCH  29  32
BRANCH  30  34
ATOM     34  O   UNL A   1      48.785  26.001  32.311  1.00  0.00    -0.493 OA
ATOM     35  C   UNL A   1      48.960  27.337  32.772  1.00  0.00     0.278 C 
ENDBRANCH  30  34
BRANCH  31  36
ATOM     36  O   UNL A   1      51.067  25.131  30.808  1.00  0.00    -0.490 OA
ATOM     37  C   UNL A   1      52.005  26.193  30.865  1.00  0.00     0.278 C 
ENDBRANCH  31  36
ENDBRANCH  12  26
ENDBRANCH   4   7
ENDBRANCH   2   3
ENDBRANCH   1   2
BRANCH   1  38
ATOM     38  C   UNL A   1      40.843  21.291  27.462  1.00  0.00     0.118 C 
BRANCH  38  39
ATOM     39  N   UNL A   1      39.724  21.729  26.610  1.00  0.00    -0.352 N 
ATOM     40  C   UNL A   1      39.072  22.953  26.590  1.00  0.00     0.251 C 
ATOM     41  H   UNL A   1      39.394  21.062  25.967  1.00  0.00     0.163 HD
ATOM     42  O   UNL A   1      37.994  23.095  26.043  1.00  0.00    -0.269 OA
BRANCH  40  43
ATOM     43  C   UNL A   1      39.740  24.084  27.246  1.00  0.00     0.039 A 
ATOM     44  C   UNL A   1      40.964  24.056  27.910  1.00  0.00     0.014 A 
ATOM     45  C   UNL A   1      39.025  25.253  27.291  1.00  0.00     0.014 A 
ATOM     46  C   UNL A   1      41.370  25.234  28.545  1.00  0.00     0.010 A 
ATOM     47  C   UNL A   1      39.718  26.404  27.271  1.00  0.00     0.010 A 
ATOM     48  C   UNL A   1      40.647  26.400  28.269  1.00  0.00    -0.014 A 
BRANCH  48  49
ATOM     49  C   UNL A   1      40.852  27.714  28.816  1.00  0.00     0.031 A 
ATOM     50  C   UNL A   1      42.007  28.409  28.227  1.00  0.00     0.074 A 
ATOM     51  C   UNL A   1      39.889  28.346  29.522  1.00  0.00     0.049 A 
ATOM     52  N   UNL A   1      43.168  28.540  28.767  1.00  0.00    -0.248 NA
ATOM     53  C   UNL A   1      41.959  28.795  26.806  1.00  0.00     0.031 C 
ATOM     54  C   UNL A   1      38.515  27.936  29.845  1.00  0.00     0.029 A 
ATOM     55  N   UNL A   1      39.963  29.580  30.072  1.00  0.00    -0.354 N 
ATOM     56  C   UNL A   1      43.942  29.214  27.834  1.00  0.00     0.074 A 
ATOM     57  C   UNL A   1      43.236  29.115  26.586  1.00  0.00     0.031 C 
ATOM     58  C   UNL A   1      37.837  28.986  30.369  1.00  0.00     0.029 A 
ATOM     59  C   UNL A   1      38.766  30.083  30.560  1.00  0.00     0.049 A 
ATOM     60  H   UNL A   1      40.807  30.085  30.122  1.00  0.00     0.167 HD
ATOM     61  C   UNL A   1      44.971  30.007  28.238  1.00  0.00     0.037 A 
ATOM     62  C   UNL A   1      38.595  31.341  31.041  1.00  0.00     0.037 A 
ATOM     63  C   UNL A   1      45.233  29.812  29.646  1.00  0.00     0.049 A 
ATOM     64  C   UNL A   1      39.955  31.853  31.385  1.00  0.00     0.074 A 
ATOM     65  C   UNL A   1      45.636  28.729  30.403  1.00  0.00     0.029 A 
ATOM     66  N   UNL A   1      44.639  30.689  30.528  1.00  0.00    -0.354 N 
ATOM     67  N   UNL A   1      40.688  31.349  32.343  1.00  0.00    -0.248 NA
ATOM     68  C   UNL A   1      40.699  32.542  30.336  1.00  0.00     0.031 C 
ATOM     69  C   UNL A   1      44.839  28.789  31.585  1.00  0.00     0.029 A 
ATOM     70  C   UNL A   1      44.062  29.948  31.531  1.00  0.00     0.049 A 
ATOM     71  H   UNL A   1      44.630  31.670  30.453  1.00  0.00     0.167 HD
ATOM     72  C   UNL A   1      41.978  31.291  31.825  1.00  0.00     0.074 A 
ATOM     73  C   UNL A   1      41.931  32.097  30.605  1.00  0.00     0.031 C 
ATOM     74  C   UNL A   1      42.874  30.353  32.253  1.00  0.00     0.037 A 
BRANCH  61  75
ATOM     75  C   UNL A   1      45.503  31.195  27.485  1.00  0.00     0.064 A 
ATOM     76  C   UNL A   1      46.865  31.207  27.125  1.00  0.00     0.173 A 
ATOM     77  C   UNL A   1      44.823  32.423  27.335  1.00  0.00     0.173 A 
ATOM     78  F   UNL A   1      47.607  30.094  27.224  1.00  0.00    -0.203 F 
ATOM     79  C   UNL A   1      47.515  32.379  26.734  1.00  0.00     0.198 A 
ATOM     80  C   UNL A   1      45.463  33.577  26.891  1.00  0.00     0.198 A 
ATOM     81  F   UNL A   1      43.551  32.592  27.711  1.00  0.00    -0.203 F 
ATOM     82  F   UNL A   1      48.837  32.365  26.526  1.00  0.00    -0.200 F 
ATOM     83  C   UNL A   1      46.815  33.565  26.626  1.00  0.00     0.200 A 
ATOM     84  F   UNL A   1      44.767  34.721  26.803  1.00  0.00    -0.200 F 
ATOM     85  F   UNL A   1      47.446  34.703  26.313  1.00  0.00    -0.200 F 
ENDBRANCH  61  75
BRANCH  62  86
ATOM     86  C   UNL A   1      37.409  32.217  30.897  1.00  0.00     0.064 A 
ATOM     87  C   UNL A   1      37.129  32.878  29.691  1.00  0.00     0.173 A 
ATOM     88  C   UNL A   1      36.378  32.206  31.858  1.00  0.00     0.173 A 
ATOM     89  F   UNL A   1      38.039  32.895  28.707  1.00  0.00    -0.203 F 
ATOM     90  C   UNL A   1      35.885  33.476  29.453  1.00  0.00     0.198 A 
ATOM     91  C   UNL A   1      35.139  32.804  31.621  1.00  0.00     0.198 A 
ATOM     92  F   UNL A   1      36.519  31.534  33.010  1.00  0.00    -0.203 F 
ATOM     93  F   UNL A   1      35.635  34.050  28.268  1.00  0.00    -0.200 F 
ATOM     94  C   UNL A   1      34.888  33.429  30.413  1.00  0.00     0.200 A 
ATOM     95  F   UNL A   1      34.169  32.714  32.542  1.00  0.00    -0.200 F 
ATOM     96  F   UNL A   1      33.676  33.945  30.161  1.00  0.00    -0.200 F 
ENDBRANCH  62  86
BRANCH  74  97
ATOM     97  C   UNL A   1      42.499  29.511  33.447  1.00  0.00     0.064 A 
ATOM     98  C   UNL A   1      41.835  28.274  33.362  1.00  0.00     0.173 A 
ATOM     99  C   UNL A   1      42.991  29.885  34.703  1.00  0.00     0.173 A 
ATOM    100  F   UNL A   1      41.422  27.792  32.188  1.00  0.00    -0.203 F 
ATOM    101  C   UNL A   1      41.644  27.469  34.487  1.00  0.00     0.198 A 
ATOM    102  C   UNL A   1      42.830  29.065  35.818  1.00  0.00     0.198 A 
ATOM    103  F   UNL A   1      43.685  31.026  34.837  1.00  0.00    -0.203 F 
ATOM    104  F   UNL A   1      41.007  26.294  34.372  1.00  0.00    -0.200 F 
ATOM    105  C   UNL A   1      42.150  27.862  35.712  1.00  0.00     0.200 A 
ATOM    106  F   UNL A   1      43.369  29.426  36.991  1.00  0.00    -0.200 F 
ATOM    107  F   UNL A   1      42.011  27.070  36.784  1.00  0.00    -0.200 F 
ENDBRANCH  74  97
ENDBRANCH  48  49
ENDBRANCH  40  43
ENDBRANCH  38  39
ENDBRANCH   1  38
TORSDOF 16
ENDMDL
MODEL 2
REMARK VINA RESULT:     -11.2      3.288      8.252
REMARK SMILES COc1cccc(-n2cc(C(=O)NCCCNC(=O)c3ccc(-c4c5nc(c(-c6c(F)c(F)c(F)c(F)c6F)c6ccc([nH]6)c(-c6c(F)c(F)c(F)c(F)c6F)c6nc(c(-c7c(F)c(F)c(F)c(F)c7F)c7ccc4[nH]7)C=C6)C=C5)cc3)c3c2[C@H](c2cc(OC)c(OC)c(OC)c2)CC(=O)N3)c1
REMARK SMILES IDX 15 1 14 2 13 3 11 4 12 5 10 7 8 8 9 9 84 10 83 11 85 12
REMARK SMILES IDX 101 13 98 14 99 15 100 17 7 18 3 19 4 20 102 21 5 22 6 23
REMARK SMILES IDX 2 24 1 25 86 26 87 27 97 28 88 29 94 30 91 31 89 32 90 33
REMARK SMILES IDX 95 34 96 35 92 36 93 37 16 38 17 39 18 40 19 42 20 43 21 44
REMARK SMILES IDX 82 45 22 46 81 47 23 48 24 49 25 50 75 51 26 52 80 53 74 54
REMARK SMILES IDX 76 55 27 56 79 57 73 58 72 59 28 61 60 62 40 63 59 64 41 65
REMARK SMILES IDX 44 66 58 67 77 68 42 69 43 70 57 72 78 73 45 74 29 75 30 76
REMARK SMILES IDX 38 77 31 78 32 79 36 80 39 81 33 82 34 83 37 84 35 85 61 86
REMARK SMILES IDX 62 87 70 88 63 89 64 90 68 91 71 92 65 93 66 94 69 95 67 96
REMARK SMILES IDX 46 97 47 98 55 99 48 100 49 101 53 102 56 103 50 104 51 105
REMARK SMILES IDX 54 106 52 107
REMARK H PARENT 13 6 101 16 17 41 76 60 44 71
REMARK Flexibility Score: inf
ROOT
ATOM      1  C   UNL A   1      46.145  32.444  27.265  1.00  0.00     0.042 C 
ENDROOT
BRANCH   1   2
ATOM      2  C   UNL A   1      46.020  31.117  26.494  1.00  0.00     0.118 C 
BRANCH   2   3
ATOM      3  N   UNL A   1      47.171  30.274  26.700  1.00  0.00    -0.352 N 
ATOM      4  C   UNL A   1      47.294  28.961  27.064  1.00  0.00     0.254 C 
ATOM      5  O   UNL A   1      48.450  28.529  27.062  1.00  0.00    -0.269 OA
ATOM      6  H   UNL A   1      48.032  30.729  26.552  1.00  0.00     0.163 HD
BRANCH   4   7
ATOM      7  C   UNL A   1      46.168  28.087  27.425  1.00  0.00     0.081 A 
ATOM      8  N   UNL A   1      45.045  26.741  28.879  1.00  0.00    -0.317 N 
ATOM      9  C   UNL A   1      46.158  27.520  28.698  1.00  0.00     0.107 A 
ATOM     10  C   UNL A   1      44.264  26.832  27.753  1.00  0.00     0.055 A 
ATOM     11  C   UNL A   1      44.917  27.672  26.873  1.00  0.00     0.076 A 
ATOM     12  C   UNL A   1      42.887  26.248  27.481  1.00  0.00     0.078 C 
ATOM     13  N   UNL A   1      44.261  27.949  25.704  1.00  0.00    -0.324 N 
ATOM     14  C   UNL A   1      42.104  27.333  26.708  1.00  0.00     0.115 C 
ATOM     15  C   UNL A   1      42.912  27.824  25.524  1.00  0.00     0.225 C 
ATOM     16  H   UNL A   1      44.797  28.259  24.939  1.00  0.00     0.170 HD
ATOM     17  O   UNL A   1      42.400  28.135  24.450  1.00  0.00    -0.275 OA
BRANCH   8  18
ATOM     18  C   UNL A   1      44.819  25.986  30.037  1.00  0.00     0.049 A 
ATOM     19  C   UNL A   1      44.529  25.853  32.418  1.00  0.00     0.120 A 
ATOM     20  C   UNL A   1      44.317  24.475  32.285  1.00  0.00     0.046 A 
ATOM     21  C   UNL A   1      44.776  26.622  31.282  1.00  0.00     0.073 A 
ATOM     22  C   UNL A   1      44.428  23.846  31.045  1.00  0.00     0.006 A 
ATOM     23  C   UNL A   1      44.728  24.602  29.920  1.00  0.00     0.027 A 
BRANCH  19  24
ATOM     24  O   UNL A   1      44.471  26.308  33.705  1.00  0.00    -0.497 OA
ATOM     25  C   UNL A   1      43.202  26.307  34.344  1.00  0.00     0.278 C 
ENDBRANCH  19  24
ENDBRANCH   8  18
BRANCH  12  26
ATOM     26  C   UNL A   1      42.942  24.902  26.739  1.00  0.00    -0.031 A 
ATOM     27  C   UNL A   1      41.764  24.173  26.602  1.00  0.00     0.055 A 
ATOM     28  C   UNL A   1      44.103  24.310  26.211  1.00  0.00     0.055 A 
ATOM     29  C   UNL A   1      41.757  22.842  26.173  1.00  0.00     0.164 A 
ATOM     30  C   UNL A   1      44.106  23.020  25.644  1.00  0.00     0.164 A 
ATOM     31  C   UNL A   1      42.923  22.257  25.654  1.00  0.00     0.203 A 
BRANCH  29  32
ATOM     32  O   UNL A   1      40.523  22.247  26.286  1.00  0.00    -0.493 OA
ATOM     33  C   UNL A   1      39.473  23.098  26.740  1.00  0.00     0.278 C 
ENDBRANCH  29  32
BRANCH  30  34
ATOM     34  O   UNL A   1      45.244  22.448  25.131  1.00  0.00    -0.493 OA
ATOM     35  C   UNL A   1      46.384  23.276  24.926  1.00  0.00     0.278 C 
ENDBRANCH  30  34
BRANCH  31  36
ATOM     36  O   UNL A   1      42.789  20.967  25.214  1.00  0.00    -0.490 OA
ATOM     37  C   UNL A   1      42.945  19.907  26.143  1.00  0.00     0.278 C 
ENDBRANCH  31  36
ENDBRANCH  12  26
ENDBRANCH   4   7
ENDBRANCH   2   3
ENDBRANCH   1   2
BRANCH   1  38
ATOM     38  C   UNL A   1      45.776  33.618  26.410  1.00  0.00     0.118 C 
BRANCH  38  39
ATOM     39  N   UNL A   1      46.334  34.870  26.948  1.00  0.00    -0.352 N 
ATOM     40  C   UNL A   1      45.705  35.850  27.703  1.00  0.00     0.251 C 
ATOM     41  H   UNL A   1      47.282  35.035  26.745  1.00  0.00     0.163 HD
ATOM     42  O   UNL A   1      46.191  36.957  27.846  1.00  0.00    -0.269 OA
BRANCH  40  43
ATOM     43  C   UNL A   1      44.429  35.497  28.338  1.00  0.00     0.039 A 
ATOM     44  C   UNL A   1      43.178  36.030  28.044  1.00  0.00     0.014 A 
ATOM     45  C   UNL A   1      44.512  34.627  29.395  1.00  0.00     0.014 A 
ATOM     46  C   UNL A   1      42.106  35.613  28.839  1.00  0.00     0.010 A 
ATOM     47  C   UNL A   1      43.471  33.803  29.602  1.00  0.00     0.010 A 
ATOM     48  C   UNL A   1      42.321  34.529  29.699  1.00  0.00    -0.014 A 
BRANCH  48  49
ATOM     49  C   UNL A   1      41.392  33.941  30.625  1.00  0.00     0.031 A 
ATOM     50  C   UNL A   1      41.965  33.739  31.966  1.00  0.00     0.074 A 
ATOM     51  C   UNL A   1      40.065  33.912  30.375  1.00  0.00     0.049 A 
ATOM     52  N   UNL A   1      42.391  32.624  32.447  1.00  0.00    -0.248 NA
ATOM     53  C   UNL A   1      42.324  34.917  32.773  1.00  0.00     0.031 C 
ATOM     54  C   UNL A   1      39.292  34.453  29.248  1.00  0.00     0.029 A 
ATOM     55  N   UNL A   1      39.099  33.398  31.173  1.00  0.00    -0.354 N 
ATOM     56  C   UNL A   1      42.883  32.923  33.708  1.00  0.00     0.074 A 
ATOM     57  C   UNL A   1      43.044  34.352  33.743  1.00  0.00     0.031 C 
ATOM     58  C   UNL A   1      37.969  34.399  29.535  1.00  0.00     0.029 A 
ATOM     59  C   UNL A   1      37.798  33.685  30.785  1.00  0.00     0.049 A 
ATOM     60  H   UNL A   1      39.306  32.859  31.970  1.00  0.00     0.167 HD
ATOM     61  C   UNL A   1      42.872  31.984  34.691  1.00  0.00     0.037 A 
ATOM     62  C   UNL A   1      36.691  33.370  31.504  1.00  0.00     0.037 A 
ATOM     63  C   UNL A   1      42.537  30.688  34.145  1.00  0.00     0.049 A 
ATOM     64  C   UNL A   1      37.095  32.292  32.456  1.00  0.00     0.074 A 
ATOM     65  C   UNL A   1      43.136  29.857  33.218  1.00  0.00     0.029 A 
ATOM     66  N   UNL A   1      41.217  30.298  34.205  1.00  0.00    -0.354 N 
ATOM     67  N   UNL A   1      37.456  31.096  32.071  1.00  0.00    -0.248 NA
ATOM     68  C   UNL A   1      37.610  32.703  33.758  1.00  0.00     0.031 C 
ATOM     69  C   UNL A   1      42.061  29.355  32.426  1.00  0.00     0.029 A 
ATOM     70  C   UNL A   1      40.862  29.828  32.964  1.00  0.00     0.049 A 
ATOM     71  H   UNL A   1      40.633  30.346  34.996  1.00  0.00     0.167 HD
ATOM     72  C   UNL A   1      38.552  30.772  32.863  1.00  0.00     0.074 A 
ATOM     73  C   UNL A   1      38.562  31.778  33.926  1.00  0.00     0.031 C 
ATOM     74  C   UNL A   1      39.524  29.921  32.418  1.00  0.00     0.037 A 
BRANCH  61  75
ATOM     75  C   UNL A   1      42.809  32.268  36.167  1.00  0.00     0.064 A 
ATOM     76  C   UNL A   1      43.820  31.743  36.996  1.00  0.00     0.173 A 
ATOM     77  C   UNL A   1      41.683  32.791  36.838  1.00  0.00     0.173 A 
ATOM     78  F   UNL A   1      44.937  31.223  36.465  1.00  0.00    -0.203 F 
ATOM     79  C   UNL A   1      43.673  31.666  38.382  1.00  0.00     0.198 A 
ATOM     80  C   UNL A   1      41.565  32.763  38.225  1.00  0.00     0.198 A 
ATOM     81  F   UNL A   1      40.607  33.248  36.189  1.00  0.00    -0.203 F 
ATOM     82  F   UNL A   1      44.605  31.043  39.113  1.00  0.00    -0.200 F 
ATOM     83  C   UNL A   1      42.541  32.168  38.995  1.00  0.00     0.200 A 
ATOM     84  F   UNL A   1      40.453  33.246  38.799  1.00  0.00    -0.200 F 
ATOM     85  F   UNL A   1      42.368  32.039  40.315  1.00  0.00    -0.200 F 
ENDBRANCH  61  75
BRANCH  62  86
ATOM     86  C   UNL A   1      35.446  34.158  31.650  1.00  0.00     0.064 A 
ATOM     87  C   UNL A   1      35.296  35.108  32.672  1.00  0.00     0.173 A 
ATOM     88  C   UNL A   1      34.481  34.188  30.623  1.00  0.00     0.173 A 
ATOM     89  F   UNL A   1      36.197  35.177  33.663  1.00  0.00    -0.203 F 
ATOM     90  C   UNL A   1      34.255  36.045  32.658  1.00  0.00     0.198 A 
ATOM     91  C   UNL A   1      33.442  35.121  30.610  1.00  0.00     0.198 A 
ATOM     92  F   UNL A   1      34.581  33.374  29.563  1.00  0.00    -0.203 F 
ATOM     93  F   UNL A   1      34.176  36.973  33.622  1.00  0.00    -0.200 F 
ATOM     94  C   UNL A   1      33.336  36.057  31.622  1.00  0.00     0.200 A 
ATOM     95  F   UNL A   1      32.585  35.149  29.580  1.00  0.00    -0.200 F 
ATOM     96  F   UNL A   1      32.377  36.994  31.574  1.00  0.00    -0.200 F 
ENDBRANCH  62  86
BRANCH  74  97
ATOM     97  C   UNL A   1      39.277  29.180  31.127  1.00  0.00     0.064 A 
ATOM     98  C   UNL A   1      39.561  29.702  29.852  1.00  0.00     0.173 A 
ATOM     99  C   UNL A   1      38.911  27.831  31.196  1.00  0.00     0.173 A 
ATOM    100  F   UNL A   1      40.014  30.949  29.702  1.00  0.00    -0.203 F 
ATOM    101  C   UNL A   1      39.450  28.919  28.702  1.00  0.00     0.198 A 
ATOM    102  C   UNL A   1      38.835  27.042  30.051  1.00  0.00     0.198 A 
ATOM    103  F   UNL A   1      38.685  27.259  32.389  1.00  0.00    -0.203 F 
ATOM    104  F   UNL A   1      39.730  29.447  27.500  1.00  0.00    -0.200 F 
ATOM    105  C   UNL A   1      39.096  27.587  28.804  1.00  0.00     0.200 A 
ATOM    106  F   UNL A   1      38.542  25.738  30.162  1.00  0.00    -0.200 F 
ATOM    107  F   UNL A   1      39.036  26.820  27.707  1.00  0.00    -0.200 F 
ENDBRANCH  74  97
ENDBRANCH  48  49
ENDBRANCH  40  43
ENDBRANCH  38  39
ENDBRANCH   1  38
TORSDOF 16
ENDMDL
MODEL 3
REMARK VINA RESULT:     -10.4      1.802      3.879
REMARK SMILES COc1cccc(-n2cc(C(=O)NCCCNC(=O)c3ccc(-c4c5nc(c(-c6c(F)c(F)c(F)c(F)c6F)c6ccc([nH]6)c(-c6c(F)c(F)c(F)c(F)c6F)c6nc(c(-c7c(F)c(F)c(F)c(F)c7F)c7ccc4[nH]7)C=C6)C=C5)cc3)c3c2[C@H](c2cc(OC)c(OC)c(OC)c2)CC(=O)N3)c1
REMARK SMILES IDX 15 1 14 2 13 3 11 4 12 5 10 7 8 8 9 9 84 10 83 11 85 12
REMARK SMILES IDX 101 13 98 14 99 15 100 17 7 18 3 19 4 20 102 21 5 22 6 23
REMARK SMILES IDX 2 24 1 25 86 26 87 27 97 28 88 29 94 30 91 31 89 32 90 33
REMARK SMILES IDX 95 34 96 35 92 36 93 37 16 38 17 39 18 40 19 42 20 43 21 44
REMARK SMILES IDX 82 45 22 46 81 47 23 48 24 49 25 50 75 51 26 52 80 53 74 54
REMARK SMILES IDX 76 55 27 56 79 57 73 58 72 59 28 61 60 62 40 63 59 64 41 65
REMARK SMILES IDX 44 66 58 67 77 68 42 69 43 70 57 72 78 73 45 74 29 75 30 76
REMARK SMILES IDX 38 77 31 78 32 79 36 80 39 81 33 82 34 83 37 84 35 85 61 86
REMARK SMILES IDX 62 87 70 88 63 89 64 90 68 91 71 92 65 93 66 94 69 95 67 96
REMARK SMILES IDX 46 97 47 98 55 99 48 100 49 101 53 102 56 103 50 104 51 105
REMARK SMILES IDX 54 106 52 107
REMARK H PARENT 13 6 101 16 17 41 76 60 44 71
REMARK Flexibility Score: inf
ROOT
ATOM      1  C   UNL A   1      42.744  24.427  25.002  1.00  0.00     0.042 C 
ENDROOT
BRANCH   1   2
ATOM      2  C   UNL A   1      44.198  24.930  24.984  1.00  0.00     0.118 C 
BRANCH   2   3
ATOM      3  N   UNL A   1      45.136  23.838  24.894  1.00  0.00    -0.352 N 
ATOM      4  C   UNL A   1      46.144  23.424  25.721  1.00  0.00     0.254 C 
ATOM      5  O   UNL A   1      46.703  22.379  25.374  1.00  0.00    -0.269 OA
ATOM      6  H   UNL A   1      45.030  23.285  24.086  1.00  0.00     0.163 HD
BRANCH   4   7
ATOM      7  C   UNL A   1      46.561  24.125  26.944  1.00  0.00     0.081 A 
ATOM      8  N   UNL A   1      46.192  24.888  29.058  1.00  0.00    -0.317 N 
ATOM      9  C   UNL A   1      45.651  24.213  27.995  1.00  0.00     0.107 A 
ATOM     10  C   UNL A   1      47.494  25.202  28.754  1.00  0.00     0.055 A 
ATOM     11  C   UNL A   1      47.744  24.717  27.486  1.00  0.00     0.076 A 
ATOM     12  C   UNL A   1      48.559  25.855  29.622  1.00  0.00     0.078 C 
ATOM     13  N   UNL A   1      49.023  24.870  27.022  1.00  0.00    -0.324 N 
ATOM     14  C   UNL A   1      49.879  25.114  29.313  1.00  0.00     0.115 C 
ATOM     15  C   UNL A   1      50.117  25.061  27.817  1.00  0.00     0.225 C 
ATOM     16  H   UNL A   1      49.164  24.842  26.049  1.00  0.00     0.170 HD
ATOM     17  O   UNL A   1      51.238  25.148  27.317  1.00  0.00    -0.275 OA
BRANCH   8  18
ATOM     18  C   UNL A   1      45.470  25.194  30.218  1.00  0.00     0.049 A 
ATOM     19  C   UNL A   1      44.310  24.489  32.201  1.00  0.00     0.120 A 
ATOM     20  C   UNL A   1      44.102  25.836  32.522  1.00  0.00     0.046 A 
ATOM     21  C   UNL A   1      45.008  24.160  31.040  1.00  0.00     0.073 A 
ATOM     22  C   UNL A   1      44.512  26.853  31.659  1.00  0.00     0.006 A 
ATOM     23  C   UNL A   1      45.159  26.526  30.476  1.00  0.00     0.027 A 
BRANCH  19  24
ATOM     24  O   UNL A   1      43.778  23.609  33.100  1.00  0.00    -0.497 OA
ATOM     25  C   UNL A   1      43.513  24.092  34.410  1.00  0.00     0.278 C 
ENDBRANCH  19  24
ENDBRANCH   8  18
BRANCH  12  26
ATOM     26  C   UNL A   1      48.658  27.375  29.407  1.00  0.00    -0.031 A 
ATOM     27  C   UNL A   1      48.510  27.873  28.116  1.00  0.00     0.055 A 
ATOM     28  C   UNL A   1      48.931  28.323  30.410  1.00  0.00     0.055 A 
ATOM     29  C   UNL A   1      48.830  29.193  27.785  1.00  0.00     0.164 A 
ATOM     30  C   UNL A   1      49.125  29.690  30.129  1.00  0.00     0.164 A 
ATOM     31  C   UNL A   1      49.109  30.130  28.792  1.00  0.00     0.203 A 
BRANCH  29  32
ATOM     32  O   UNL A   1      48.794  29.432  26.432  1.00  0.00    -0.493 OA
ATOM     33  C   UNL A   1      48.375  28.331  25.627  1.00  0.00     0.278 C 
ENDBRANCH  29  32
BRANCH  30  34
ATOM     34  O   UNL A   1      49.391  30.609  31.113  1.00  0.00    -0.493 OA
ATOM     35  C   UNL A   1      49.229  30.213  32.471  1.00  0.00     0.278 C 
ENDBRANCH  30  34
BRANCH  31  36
ATOM     36  O   UNL A   1      49.356  31.406  28.358  1.00  0.00    -0.490 OA
ATOM     37  C   UNL A   1      50.697  31.796  28.111  1.00  0.00     0.278 C 
ENDBRANCH  31  36
ENDBRANCH  12  26
ENDBRANCH   4   7
ENDBRANCH   2   3
ENDBRANCH   1   2
BRANCH   1  38
ATOM     38  C   UNL A   1      42.652  23.013  25.486  1.00  0.00     0.118 C 
BRANCH  38  39
ATOM     39  N   UNL A   1      41.258  22.631  25.768  1.00  0.00    -0.352 N 
ATOM     40  C   UNL A   1      40.412  23.096  26.764  1.00  0.00     0.251 C 
ATOM     41  H   UNL A   1      40.874  21.952  25.168  1.00  0.00     0.163 HD
ATOM     42  O   UNL A   1      39.390  22.505  27.063  1.00  0.00    -0.269 OA
BRANCH  40  43
ATOM     43  C   UNL A   1      40.790  24.342  27.442  1.00  0.00     0.039 A 
ATOM     44  C   UNL A   1      41.879  24.532  28.288  1.00  0.00     0.014 A 
ATOM     45  C   UNL A   1      39.914  25.387  27.298  1.00  0.00     0.014 A 
ATOM     46  C   UNL A   1      41.998  25.783  28.900  1.00  0.00     0.010 A 
ATOM     47  C   UNL A   1      40.424  26.630  27.311  1.00  0.00     0.010 A 
ATOM     48  C   UNL A   1      41.167  26.811  28.440  1.00  0.00    -0.014 A 
BRANCH  48  49
ATOM     49  C   UNL A   1      41.085  28.162  28.925  1.00  0.00     0.031 A 
ATOM     50  C   UNL A   1      42.052  29.065  28.281  1.00  0.00     0.074 A 
ATOM     51  C   UNL A   1      40.016  28.600  29.624  1.00  0.00     0.049 A 
ATOM     52  N   UNL A   1      43.162  29.472  28.789  1.00  0.00    -0.248 NA
ATOM     53  C   UNL A   1      41.903  29.364  26.847  1.00  0.00     0.031 C 
ATOM     54  C   UNL A   1      38.769  27.915  29.995  1.00  0.00     0.029 A 
ATOM     55  N   UNL A   1      39.824  29.845  30.119  1.00  0.00    -0.354 N 
ATOM     56  C   UNL A   1      43.757  30.255  27.812  1.00  0.00     0.074 A 
ATOM     57  C   UNL A   1      43.075  29.946  26.585  1.00  0.00     0.031 C 
ATOM     58  C   UNL A   1      37.883  28.814  30.488  1.00  0.00     0.029 A 
ATOM     59  C   UNL A   1      38.551  30.095  30.612  1.00  0.00     0.049 A 
ATOM     60  H   UNL A   1      40.536  30.524  30.129  1.00  0.00     0.167 HD
ATOM     61  C   UNL A   1      44.592  31.272  28.158  1.00  0.00     0.037 A 
ATOM     62  C   UNL A   1      38.114  31.306  31.042  1.00  0.00     0.037 A 
ATOM     63  C   UNL A   1      44.907  31.205  29.567  1.00  0.00     0.049 A 
ATOM     64  C   UNL A   1      39.332  32.120  31.333  1.00  0.00     0.074 A 
ATOM     65  C   UNL A   1      45.549  30.273  30.361  1.00  0.00     0.029 A 
ATOM     66  N   UNL A   1      44.146  31.971  30.424  1.00  0.00    -0.354 N 
ATOM     67  N   UNL A   1      40.170  31.833  32.296  1.00  0.00    -0.248 NA
ATOM     68  C   UNL A   1      39.893  32.905  30.239  1.00  0.00     0.031 C 
ATOM     69  C   UNL A   1      44.772  30.212  31.556  1.00  0.00     0.029 A 
ATOM     70  C   UNL A   1      43.758  31.169  31.470  1.00  0.00     0.049 A 
ATOM     71  H   UNL A   1      43.920  32.921  30.307  1.00  0.00     0.167 HD
ATOM     72  C   UNL A   1      41.433  32.036  31.752  1.00  0.00     0.074 A 
ATOM     73  C   UNL A   1      41.196  32.754  30.500  1.00  0.00     0.031 C 
ATOM     74  C   UNL A   1      42.519  31.337  32.200  1.00  0.00     0.037 A 
BRANCH  61  75
ATOM     75  C   UNL A   1      44.840  32.511  27.343  1.00  0.00     0.064 A 
ATOM     76  C   UNL A   1      46.065  32.628  26.656  1.00  0.00     0.173 A 
ATOM     77  C   UNL A   1      44.067  33.690  27.415  1.00  0.00     0.173 A 
ATOM     78  F   UNL A   1      46.877  31.570  26.523  1.00  0.00    -0.203 F 
ATOM     79  C   UNL A   1      46.519  33.852  26.161  1.00  0.00     0.198 A 
ATOM     80  C   UNL A   1      44.500  34.897  26.871  1.00  0.00     0.198 A 
ATOM     81  F   UNL A   1      42.923  33.759  28.103  1.00  0.00    -0.203 F 
ATOM     82  F   UNL A   1      47.745  33.938  25.630  1.00  0.00    -0.200 F 
ATOM     83  C   UNL A   1      45.740  34.987  26.277  1.00  0.00     0.200 A 
ATOM     84  F   UNL A   1      43.733  35.989  27.004  1.00  0.00    -0.200 F 
ATOM     85  F   UNL A   1      46.199  36.173  25.861  1.00  0.00    -0.200 F 
ENDBRANCH  61  75
BRANCH  62  86
ATOM     86  C   UNL A   1      36.763  31.893  30.887  1.00  0.00     0.064 A 
ATOM     87  C   UNL A   1      35.921  32.096  31.992  1.00  0.00     0.173 A 
ATOM     88  C   UNL A   1      36.376  32.518  29.684  1.00  0.00     0.173 A 
ATOM     89  F   UNL A   1      36.241  31.574  33.185  1.00  0.00    -0.203 F 
ATOM     90  C   UNL A   1      34.773  32.893  31.904  1.00  0.00     0.198 A 
ATOM     91  C   UNL A   1      35.230  33.312  29.597  1.00  0.00     0.198 A 
ATOM     92  F   UNL A   1      37.153  32.450  28.594  1.00  0.00    -0.203 F 
ATOM     93  F   UNL A   1      34.024  33.110  32.995  1.00  0.00    -0.200 F 
ATOM     94  C   UNL A   1      34.435  33.508  30.710  1.00  0.00     0.200 A 
ATOM     95  F   UNL A   1      34.937  33.935  28.447  1.00  0.00    -0.200 F 
ATOM     96  F   UNL A   1      33.371  34.322  30.643  1.00  0.00    -0.200 F 
ENDBRANCH  62  86
BRANCH  74  97
ATOM     97  C   UNL A   1      42.353  30.491  33.437  1.00  0.00     0.064 A 
ATOM     98  C   UNL A   1      42.356  31.002  34.748  1.00  0.00     0.173 A 
ATOM     99  C   UNL A   1      41.998  29.146  33.279  1.00  0.00     0.173 A 
ATOM    100  F   UNL A   1      42.584  32.296  34.983  1.00  0.00    -0.203 F 
ATOM    101  C   UNL A   1      42.052  30.197  35.846  1.00  0.00     0.198 A 
ATOM    102  C   UNL A   1      41.661  28.352  34.373  1.00  0.00     0.198 A 
ATOM    103  F   UNL A   1      41.919  28.615  32.049  1.00  0.00    -0.203 F 
ATOM    104  F   UNL A   1      42.063  30.715  37.084  1.00  0.00    -0.200 F 
ATOM    105  C   UNL A   1      41.696  28.874  35.656  1.00  0.00     0.200 A 
ATOM    106  F   UNL A   1      41.265  27.086  34.178  1.00  0.00    -0.200 F 
ATOM    107  F   UNL A   1      41.357  28.111  36.704  1.00  0.00    -0.200 F 
ENDBRANCH  74  97
ENDBRANCH  48  49
ENDBRANCH  40  43
ENDBRANCH  38  39
ENDBRANCH   1  38
TORSDOF 16
ENDMDL
