MODEL 1
REMARK VINA RESULT:     -13.5      0.000      0.000
REMARK SMILES O=C(NCCCNC(=O)[C@H](c1c[nH]c2ccc(Cl)cc12)[NH+]1CCN(c2ncc(Br)cn2)CC1)c1ccc(-c2c3nc(c(-c4c(F)c(F)c(F)c(F)c4F)c4ccc([nH]4)c(-c4c(F)c(F)c(F)c(F)c4F)c4nc(c(-c5c(F)c(F)c(F)c(F)c5F)c5ccc2[nH]5)C=C4)C=C3)cc1
REMARK SMILES IDX 5 1 4 2 3 3 1 4 2 5 34 7 35 8 96 9 36 10 95 11 37 12 38 13
REMARK SMILES IDX 39 14 89 15 40 16 94 17 88 18 90 19 41 20 93 21 87 22 86 23
REMARK SMILES IDX 42 25 74 26 54 27 73 28 55 29 58 30 72 31 91 32 56 33 57 34
REMARK SMILES IDX 71 36 92 37 59 38 43 39 44 40 52 41 45 42 46 43 50 44 53 45
REMARK SMILES IDX 47 46 48 47 51 48 49 49 75 50 76 51 84 52 77 53 78 54 82 55
REMARK SMILES IDX 85 56 79 57 80 58 83 59 81 60 60 61 61 62 69 63 62 64 63 65
REMARK SMILES IDX 67 66 70 67 64 68 65 69 68 70 66 71 6 72 7 73 8 74 9 76
REMARK SMILES IDX 10 77 21 78 22 79 33 80 23 82 32 83 24 84 25 85 26 86 31 87
REMARK SMILES IDX 27 88 30 89 28 90 29 91 11 92 12 93 20 94 13 95 14 96 19 97
REMARK SMILES IDX 15 99 17 100 16 101 18 102
REMARK H PARENT 3 6 90 24 58 35 7 75 21 81 13 98
REMARK Flexibility Score: inf
ROOT
ATOM      1  C   UNL A   1      33.032  27.666  25.456  1.00  0.00     0.042 C 
ENDROOT
BRANCH   1   2
ATOM      2  C   UNL A   1      33.695  28.958  25.021  1.00  0.00     0.118 C 
BRANCH   2   3
ATOM      3  N   UNL A   1      32.964  30.124  25.492  1.00  0.00    -0.352 N 
ATOM      4  O   UNL A   1      32.287  31.656  27.004  1.00  0.00    -0.269 OA
ATOM      5  C   UNL A   1      33.150  30.862  26.636  1.00  0.00     0.251 C 
ATOM      6  H   UNL A   1      32.231  30.429  24.908  1.00  0.00     0.163 HD
BRANCH   5   7
ATOM      7  C   UNL A   1      34.386  30.690  27.428  1.00  0.00     0.039 A 
ATOM      8  C   UNL A   1      34.687  29.453  27.997  1.00  0.00     0.014 A 
ATOM      9  C   UNL A   1      35.268  31.763  27.589  1.00  0.00     0.014 A 
ATOM     10  C   UNL A   1      35.760  29.333  28.865  1.00  0.00     0.010 A 
ATOM     11  C   UNL A   1      36.430  31.600  28.352  1.00  0.00     0.010 A 
ATOM     12  C   UNL A   1      36.675  30.387  29.012  1.00  0.00    -0.014 A 
BRANCH  12  13
ATOM     13  C   UNL A   1      37.928  30.121  29.763  1.00  0.00     0.031 A 
ATOM     14  C   UNL A   1      38.141  30.634  31.157  1.00  0.00     0.074 A 
ATOM     15  C   UNL A   1      38.857  29.342  29.173  1.00  0.00     0.049 A 
ATOM     16  N   UNL A   1      39.161  30.436  31.956  1.00  0.00    -0.248 NA
ATOM     17  C   UNL A   1      37.090  31.487  31.729  1.00  0.00     0.031 C 
ATOM     18  C   UNL A   1      38.762  28.810  27.809  1.00  0.00     0.029 A 
ATOM     19  N   UNL A   1      40.038  28.827  29.643  1.00  0.00    -0.354 N 
ATOM     20  C   UNL A   1      38.878  31.139  33.119  1.00  0.00     0.074 A 
ATOM     21  C   UNL A   1      37.607  31.802  32.911  1.00  0.00     0.031 C 
ATOM     22  C   UNL A   1      39.795  27.990  27.580  1.00  0.00     0.029 A 
ATOM     23  C   UNL A   1      40.672  28.007  28.742  1.00  0.00     0.049 A 
ATOM     24  H   UNL A   1      40.395  29.027  30.538  1.00  0.00     0.167 HD
ATOM     25  C   UNL A   1      39.610  31.212  34.258  1.00  0.00     0.037 A 
ATOM     26  C   UNL A   1      41.846  27.356  28.829  1.00  0.00     0.037 A 
ATOM     27  C   UNL A   1      40.873  30.542  34.454  1.00  0.00     0.049 A 
ATOM     28  C   UNL A   1      42.640  27.478  30.095  1.00  0.00     0.074 A 
ATOM     29  C   UNL A   1      41.689  30.547  35.573  1.00  0.00     0.029 A 
ATOM     30  N   UNL A   1      41.504  29.747  33.506  1.00  0.00    -0.354 N 
ATOM     31  N   UNL A   1      42.349  28.129  31.195  1.00  0.00    -0.248 NA
ATOM     32  C   UNL A   1      43.929  26.777  30.133  1.00  0.00     0.031 C 
ATOM     33  C   UNL A   1      42.833  29.795  35.286  1.00  0.00     0.029 A 
ATOM     34  C   UNL A   1      42.707  29.272  34.009  1.00  0.00     0.049 A 
ATOM     35  H   UNL A   1      41.150  29.549  32.610  1.00  0.00     0.167 HD
ATOM     36  C   UNL A   1      43.411  27.910  32.059  1.00  0.00     0.074 A 
ATOM     37  C   UNL A   1      44.332  27.030  31.369  1.00  0.00     0.031 C 
ATOM     38  C   UNL A   1      43.614  28.402  33.305  1.00  0.00     0.037 A 
BRANCH  25  39
ATOM     39  C   UNL A   1      39.075  32.047  35.386  1.00  0.00     0.064 A 
ATOM     40  C   UNL A   1      38.322  31.483  36.427  1.00  0.00     0.173 A 
ATOM     41  C   UNL A   1      39.383  33.414  35.469  1.00  0.00     0.173 A 
ATOM     42  F   UNL A   1      37.992  30.183  36.393  1.00  0.00    -0.203 F 
ATOM     43  C   UNL A   1      37.885  32.258  37.499  1.00  0.00     0.198 A 
ATOM     44  C   UNL A   1      38.969  34.180  36.556  1.00  0.00     0.198 A 
ATOM     45  F   UNL A   1      40.106  34.004  34.505  1.00  0.00    -0.203 F 
ATOM     46  F   UNL A   1      37.139  31.703  38.465  1.00  0.00    -0.200 F 
ATOM     47  C   UNL A   1      38.217  33.602  37.568  1.00  0.00     0.200 A 
ATOM     48  F   UNL A   1      39.304  35.476  36.629  1.00  0.00    -0.200 F 
ATOM     49  F   UNL A   1      37.811  34.342  38.609  1.00  0.00    -0.200 F 
ENDBRANCH  25  39
BRANCH  26  50
ATOM     50  C   UNL A   1      42.347  26.566  27.674  1.00  0.00     0.064 A 
ATOM     51  C   UNL A   1      41.916  25.252  27.447  1.00  0.00     0.173 A 
ATOM     52  C   UNL A   1      43.283  27.108  26.779  1.00  0.00     0.173 A 
ATOM     53  F   UNL A   1      41.035  24.682  28.281  1.00  0.00    -0.203 F 
ATOM     54  C   UNL A   1      42.426  24.502  26.388  1.00  0.00     0.198 A 
ATOM     55  C   UNL A   1      43.760  26.372  25.697  1.00  0.00     0.198 A 
ATOM     56  F   UNL A   1      43.723  28.364  26.944  1.00  0.00    -0.203 F 
ATOM     57  F   UNL A   1      42.044  23.227  26.231  1.00  0.00    -0.200 F 
ATOM     58  C   UNL A   1      43.341  25.064  25.512  1.00  0.00     0.200 A 
ATOM     59  F   UNL A   1      44.626  26.928  24.841  1.00  0.00    -0.200 F 
ATOM     60  F   UNL A   1      43.828  24.342  24.494  1.00  0.00    -0.200 F 
ENDBRANCH  26  50
BRANCH  38  61
ATOM     61  C   UNL A   1      44.875  27.976  34.000  1.00  0.00     0.064 A 
ATOM     62  C   UNL A   1      44.924  26.815  34.787  1.00  0.00     0.173 A 
ATOM     63  C   UNL A   1      46.043  28.743  33.886  1.00  0.00     0.173 A 
ATOM     64  F   UNL A   1      43.827  26.058  34.944  1.00  0.00    -0.203 F 
ATOM     65  C   UNL A   1      46.084  26.463  35.471  1.00  0.00     0.198 A 
ATOM     66  C   UNL A   1      47.213  28.366  34.542  1.00  0.00     0.198 A 
ATOM     67  F   UNL A   1      46.053  29.858  33.141  1.00  0.00    -0.203 F 
ATOM     68  F   UNL A   1      46.084  25.391  36.275  1.00  0.00    -0.200 F 
ATOM     69  C   UNL A   1      47.228  27.236  35.343  1.00  0.00     0.200 A 
ATOM     70  F   UNL A   1      48.322  29.106  34.406  1.00  0.00    -0.200 F 
ATOM     71  F   UNL A   1      48.342  26.897  36.006  1.00  0.00    -0.200 F 
ENDBRANCH  38  61
ENDBRANCH  12  13
ENDBRANCH   5   7
ENDBRANCH   2   3
ENDBRANCH   1   2
BRANCH   1  72
ATOM     72  C   UNL A   1      34.038  26.564  25.764  1.00  0.00     0.118 C 
BRANCH  72  73
ATOM     73  N   UNL A   1      34.465  25.824  24.584  1.00  0.00    -0.351 N 
ATOM     74  C   UNL A   1      33.775  24.859  23.880  1.00  0.00     0.283 C 
ATOM     75  H   UNL A   1      35.363  26.040  24.245  1.00  0.00     0.163 HD
ATOM     76  O   UNL A   1      34.301  24.406  22.863  1.00  0.00    -0.268 OA
BRANCH  74  77
ATOM     77  C   UNL A   1      32.387  24.428  24.410  1.00  0.00     0.307 C 
BRANCH  77  78
ATOM     78  N   UNL A   1      31.337  24.717  23.414  1.00  0.00    -0.318 N 
ATOM     79  C   UNL A   1      30.018  25.132  23.904  1.00  0.00     0.285 C 
ATOM     80  C   UNL A   1      31.760  25.510  22.253  1.00  0.00     0.285 C 
ATOM     81  H   UNL A   1      31.183  23.765  23.084  1.00  0.00     0.349 HD
ATOM     82  C   UNL A   1      29.781  26.646  24.060  1.00  0.00     0.181 C 
ATOM     83  C   UNL A   1      31.607  27.038  22.392  1.00  0.00     0.181 C 
ATOM     84  N   UNL A   1      30.286  27.379  22.908  1.00  0.00    -0.330 N 
BRANCH  84  85
ATOM     85  C   UNL A   1      29.966  28.715  22.836  1.00  0.00     0.225 A 
ATOM     86  N   UNL A   1      29.416  29.152  21.692  1.00  0.00    -0.220 NA
ATOM     87  N   UNL A   1      30.153  29.502  23.913  1.00  0.00    -0.220 NA
ATOM     88  C   UNL A   1      28.970  30.422  21.665  1.00  0.00     0.132 A 
ATOM     89  C   UNL A   1      29.741  30.784  23.820  1.00  0.00     0.132 A 
ATOM     90  C   UNL A   1      29.111  31.294  22.714  1.00  0.00     0.054 A 
ATOM     91  Br  UNL A   1      28.466  33.054  22.647  1.00  0.00    -0.047 Br
ENDBRANCH  84  85
ENDBRANCH  77  78
BRANCH  77  92
ATOM     92  C   UNL A   1      32.328  23.072  25.061  1.00  0.00     0.044 A 
ATOM     93  C   UNL A   1      32.270  22.736  26.400  1.00  0.00     0.094 A 
ATOM     94  C   UNL A   1      32.286  21.820  24.346  1.00  0.00     0.011 A 
ATOM     95  N   UNL A   1      32.442  21.383  26.519  1.00  0.00    -0.361 N 
ATOM     96  C   UNL A   1      32.430  20.794  25.278  1.00  0.00     0.046 A 
ATOM     97  C   UNL A   1      32.165  21.474  22.983  1.00  0.00     0.031 A 
ATOM     98  H   UNL A   1      32.557  20.901  27.370  1.00  0.00     0.166 HD
ATOM     99  C   UNL A   1      32.530  19.445  24.914  1.00  0.00     0.028 A 
ATOM    100  C   UNL A   1      32.209  20.128  22.612  1.00  0.00     0.041 A 
ATOM    101  C   UNL A   1      32.411  19.128  23.558  1.00  0.00     0.022 A 
ATOM    102  Cl  UNL A   1      32.005  19.709  20.952  1.00  0.00    -0.084 Cl
ENDBRANCH  77  92
ENDBRANCH  74  77
ENDBRANCH  72  73
ENDBRANCH   1  72
TORSDOF 13
ENDMDL
MODEL 2
REMARK VINA RESULT:     -13.3      0.319      1.960
REMARK SMILES O=C(NCCCNC(=O)[C@H](c1c[nH]c2ccc(Cl)cc12)[NH+]1CCN(c2ncc(Br)cn2)CC1)c1ccc(-c2c3nc(c(-c4c(F)c(F)c(F)c(F)c4F)c4ccc([nH]4)c(-c4c(F)c(F)c(F)c(F)c4F)c4nc(c(-c5c(F)c(F)c(F)c(F)c5F)c5ccc2[nH]5)C=C4)C=C3)cc1
REMARK SMILES IDX 5 1 4 2 3 3 1 4 2 5 34 7 35 8 96 9 36 10 95 11 37 12 38 13
REMARK SMILES IDX 39 14 89 15 40 16 94 17 88 18 90 19 41 20 93 21 87 22 86 23
REMARK SMILES IDX 42 25 74 26 54 27 73 28 55 29 58 30 72 31 91 32 56 33 57 34
REMARK SMILES IDX 71 36 92 37 59 38 43 39 44 40 52 41 45 42 46 43 50 44 53 45
REMARK SMILES IDX 47 46 48 47 51 48 49 49 75 50 76 51 84 52 77 53 78 54 82 55
REMARK SMILES IDX 85 56 79 57 80 58 83 59 81 60 60 61 61 62 69 63 62 64 63 65
REMARK SMILES IDX 67 66 70 67 64 68 65 69 68 70 66 71 6 72 7 73 8 74 9 76
REMARK SMILES IDX 10 77 21 78 22 79 33 80 23 82 32 83 24 84 25 85 26 86 31 87
REMARK SMILES IDX 27 88 30 89 28 90 29 91 11 92 12 93 20 94 13 95 14 96 19 97
REMARK SMILES IDX 15 99 17 100 16 101 18 102
REMARK H PARENT 3 6 90 24 58 35 7 75 21 81 13 98
REMARK Flexibility Score: inf
ROOT
ATOM      1  C   UNL A   1      33.047  27.665  25.519  1.00  0.00     0.042 C 
ENDROOT
BRANCH   1   2
ATOM      2  C   UNL A   1      33.780  28.934  25.128  1.00  0.00     0.118 C 
BRANCH   2   3
ATOM      3  N   UNL A   1      33.091  30.123  25.605  1.00  0.00    -0.352 N 
ATOM      4  O   UNL A   1      32.475  31.676  27.122  1.00  0.00    -0.269 OA
ATOM      5  C   UNL A   1      33.308  30.854  26.747  1.00  0.00     0.251 C 
ATOM      6  H   UNL A   1      32.363  30.451  25.026  1.00  0.00     0.163 HD
BRANCH   5   7
ATOM      7  C   UNL A   1      34.545  30.642  27.530  1.00  0.00     0.039 A 
ATOM      8  C   UNL A   1      34.778  29.417  28.153  1.00  0.00     0.014 A 
ATOM      9  C   UNL A   1      35.493  31.664  27.628  1.00  0.00     0.014 A 
ATOM     10  C   UNL A   1      35.855  29.271  29.012  1.00  0.00     0.010 A 
ATOM     11  C   UNL A   1      36.655  31.465  28.382  1.00  0.00     0.010 A 
ATOM     12  C   UNL A   1      36.836  30.271  29.096  1.00  0.00    -0.014 A 
BRANCH  12  13
ATOM     13  C   UNL A   1      38.082  29.963  29.843  1.00  0.00     0.031 A 
ATOM     14  C   UNL A   1      38.325  30.482  31.230  1.00  0.00     0.074 A 
ATOM     15  C   UNL A   1      38.975  29.141  29.255  1.00  0.00     0.049 A 
ATOM     16  N   UNL A   1      39.341  30.251  32.025  1.00  0.00    -0.248 NA
ATOM     17  C   UNL A   1      37.312  31.382  31.799  1.00  0.00     0.031 C 
ATOM     18  C   UNL A   1      38.850  28.599  27.898  1.00  0.00     0.029 A 
ATOM     19  N   UNL A   1      40.137  28.584  29.723  1.00  0.00    -0.354 N 
ATOM     20  C   UNL A   1      39.094  30.976  33.182  1.00  0.00     0.074 A 
ATOM     21  C   UNL A   1      37.849  31.688  32.974  1.00  0.00     0.031 C 
ATOM     22  C   UNL A   1      39.848  27.737  27.671  1.00  0.00     0.029 A 
ATOM     23  C   UNL A   1      40.732  27.729  28.827  1.00  0.00     0.049 A 
ATOM     24  H   UNL A   1      40.508  28.779  30.614  1.00  0.00     0.167 HD
ATOM     25  C   UNL A   1      39.835  31.032  34.315  1.00  0.00     0.037 A 
ATOM     26  C   UNL A   1      41.879  27.033  28.914  1.00  0.00     0.037 A 
ATOM     27  C   UNL A   1      41.072  30.314  34.511  1.00  0.00     0.049 A 
ATOM     28  C   UNL A   1      42.686  27.136  30.174  1.00  0.00     0.074 A 
ATOM     29  C   UNL A   1      41.894  30.297  35.625  1.00  0.00     0.029 A 
ATOM     30  N   UNL A   1      41.664  29.484  33.568  1.00  0.00    -0.354 N 
ATOM     31  N   UNL A   1      42.428  27.810  31.269  1.00  0.00    -0.248 NA
ATOM     32  C   UNL A   1      43.945  26.384  30.212  1.00  0.00     0.031 C 
ATOM     33  C   UNL A   1      43.006  29.497  35.338  1.00  0.00     0.029 A 
ATOM     34  C   UNL A   1      42.850  28.967  34.069  1.00  0.00     0.049 A 
ATOM     35  H   UNL A   1      41.296  29.291  32.675  1.00  0.00     0.167 HD
ATOM     36  C   UNL A   1      43.486  27.557  32.129  1.00  0.00     0.074 A 
ATOM     37  C   UNL A   1      44.367  26.634  31.442  1.00  0.00     0.031 C 
ATOM     38  C   UNL A   1      43.717  28.054  33.368  1.00  0.00     0.037 A 
BRANCH  25  39
ATOM     39  C   UNL A   1      39.342  31.900  35.437  1.00  0.00     0.064 A 
ATOM     40  C   UNL A   1      39.656  33.266  35.503  1.00  0.00     0.173 A 
ATOM     41  C   UNL A   1      38.483  31.380  36.417  1.00  0.00     0.173 A 
ATOM     42  F   UNL A   1      40.480  33.814  34.597  1.00  0.00    -0.203 F 
ATOM     43  C   UNL A   1      39.142  34.074  36.516  1.00  0.00     0.198 A 
ATOM     44  C   UNL A   1      37.948  32.195  37.411  1.00  0.00     0.198 A 
ATOM     45  F   UNL A   1      38.144  30.082  36.399  1.00  0.00    -0.203 F 
ATOM     46  F   UNL A   1      39.482  35.369  36.575  1.00  0.00    -0.200 F 
ATOM     47  C   UNL A   1      38.280  33.541  37.461  1.00  0.00     0.200 A 
ATOM     48  F   UNL A   1      37.103  31.682  38.316  1.00  0.00    -0.200 F 
ATOM     49  F   UNL A   1      37.772  34.323  38.424  1.00  0.00    -0.200 F 
ENDBRANCH  25  39
BRANCH  26  50
ATOM     50  C   UNL A   1      42.340  26.211  27.764  1.00  0.00     0.064 A 
ATOM     51  C   UNL A   1      43.292  26.695  26.857  1.00  0.00     0.173 A 
ATOM     52  C   UNL A   1      41.823  24.925  27.542  1.00  0.00     0.173 A 
ATOM     53  F   UNL A   1      43.805  27.924  27.015  1.00  0.00    -0.203 F 
ATOM     54  C   UNL A   1      43.684  25.937  25.755  1.00  0.00     0.198 A 
ATOM     55  C   UNL A   1      42.247  24.152  26.464  1.00  0.00     0.198 A 
ATOM     56  F   UNL A   1      40.916  24.409  28.385  1.00  0.00    -0.203 F 
ATOM     57  F   UNL A   1      44.548  26.448  24.868  1.00  0.00    -0.200 F 
ATOM     58  C   UNL A   1      43.167  24.665  25.563  1.00  0.00     0.200 A 
ATOM     59  F   UNL A   1      41.761  22.915  26.298  1.00  0.00    -0.200 F 
ATOM     60  F   UNL A   1      43.547  23.937  24.505  1.00  0.00    -0.200 F 
ENDBRANCH  26  50
BRANCH  38  61
ATOM     61  C   UNL A   1      44.964  27.584  34.060  1.00  0.00     0.064 A 
ATOM     62  C   UNL A   1      46.176  28.281  33.944  1.00  0.00     0.173 A 
ATOM     63  C   UNL A   1      44.949  26.417  34.837  1.00  0.00     0.173 A 
ATOM     64  F   UNL A   1      46.247  29.392  33.195  1.00  0.00    -0.203 F 
ATOM     65  C   UNL A   1      47.337  27.803  34.544  1.00  0.00     0.198 A 
ATOM     66  C   UNL A   1      46.104  25.963  35.468  1.00  0.00     0.198 A 
ATOM     67  F   UNL A   1      43.815  25.716  34.987  1.00  0.00    -0.203 F 
ATOM     68  F   UNL A   1      48.498  28.446  34.358  1.00  0.00    -0.200 F 
ATOM     69  C   UNL A   1      47.299  26.647  35.310  1.00  0.00     0.200 A 
ATOM     70  F   UNL A   1      46.062  24.853  36.219  1.00  0.00    -0.200 F 
ATOM     71  F   UNL A   1      48.418  26.186  35.883  1.00  0.00    -0.200 F 
ENDBRANCH  38  61
ENDBRANCH  12  13
ENDBRANCH   5   7
ENDBRANCH   2   3
ENDBRANCH   1   2
BRANCH   1  72
ATOM     72  C   UNL A   1      33.994  26.511  25.822  1.00  0.00     0.118 C 
BRANCH  72  73
ATOM     73  N   UNL A   1      34.455  25.812  24.630  1.00  0.00    -0.351 N 
ATOM     74  C   UNL A   1      33.795  24.855  23.887  1.00  0.00     0.283 C 
ATOM     75  H   UNL A   1      35.354  26.055  24.312  1.00  0.00     0.163 HD
ATOM     76  O   UNL A   1      34.347  24.441  22.866  1.00  0.00    -0.268 OA
BRANCH  74  77
ATOM     77  C   UNL A   1      32.407  24.383  24.380  1.00  0.00     0.307 C 
BRANCH  77  78
ATOM     78  N   UNL A   1      31.373  24.654  23.363  1.00  0.00    -0.318 N 
ATOM     79  C   UNL A   1      30.010  24.939  23.825  1.00  0.00     0.285 C 
ATOM     80  C   UNL A   1      31.775  25.547  22.268  1.00  0.00     0.285 C 
ATOM     81  H   UNL A   1      31.305  23.715  22.971  1.00  0.00     0.349 HD
ATOM     82  C   UNL A   1      29.652  26.418  24.060  1.00  0.00     0.181 C 
ATOM     83  C   UNL A   1      31.500  27.047  22.491  1.00  0.00     0.181 C 
ATOM     84  N   UNL A   1      30.139  27.256  22.973  1.00  0.00    -0.330 N 
BRANCH  84  85
ATOM     85  C   UNL A   1      29.721  28.567  22.968  1.00  0.00     0.225 A 
ATOM     86  N   UNL A   1      30.227  29.373  23.916  1.00  0.00    -0.220 NA
ATOM     87  N   UNL A   1      28.892  28.996  21.999  1.00  0.00    -0.220 NA
ATOM     88  C   UNL A   1      29.935  30.686  23.831  1.00  0.00     0.132 A 
ATOM     89  C   UNL A   1      28.583  30.310  21.988  1.00  0.00     0.132 A 
ATOM     90  C   UNL A   1      29.105  31.215  22.876  1.00  0.00     0.054 A 
ATOM     91  Br  UNL A   1      28.731  33.050  22.780  1.00  0.00    -0.047 Br
ENDBRANCH  84  85
ENDBRANCH  77  78
BRANCH  77  92
ATOM     92  C   UNL A   1      32.368  23.020  25.018  1.00  0.00     0.044 A 
ATOM     93  C   UNL A   1      32.354  22.669  26.355  1.00  0.00     0.094 A 
ATOM     94  C   UNL A   1      32.303  21.776  24.291  1.00  0.00     0.011 A 
ATOM     95  N   UNL A   1      32.529  21.314  26.453  1.00  0.00    -0.361 N 
ATOM     96  C   UNL A   1      32.477  20.739  25.206  1.00  0.00     0.046 A 
ATOM     97  C   UNL A   1      32.138  21.444  22.929  1.00  0.00     0.031 A 
ATOM     98  H   UNL A   1      32.671  20.823  27.295  1.00  0.00     0.166 HD
ATOM     99  C   UNL A   1      32.565  19.395  24.825  1.00  0.00     0.028 A 
ATOM    100  C   UNL A   1      32.170  20.102  22.542  1.00  0.00     0.041 A 
ATOM    101  C   UNL A   1      32.402  19.093  23.470  1.00  0.00     0.022 A 
ATOM    102  Cl  UNL A   1      31.913  19.702  20.885  1.00  0.00    -0.084 Cl
ENDBRANCH  77  92
ENDBRANCH  74  77
ENDBRANCH  72  73
ENDBRANCH   1  72
TORSDOF 13
ENDMDL
MODEL 3
REMARK VINA RESULT:     -13.1      4.316      9.681
REMARK SMILES O=C(NCCCNC(=O)[C@H](c1c[nH]c2ccc(Cl)cc12)[NH+]1CCN(c2ncc(Br)cn2)CC1)c1ccc(-c2c3nc(c(-c4c(F)c(F)c(F)c(F)c4F)c4ccc([nH]4)c(-c4c(F)c(F)c(F)c(F)c4F)c4nc(c(-c5c(F)c(F)c(F)c(F)c5F)c5ccc2[nH]5)C=C4)C=C3)cc1
REMARK SMILES IDX 5 1 4 2 3 3 1 4 2 5 34 7 35 8 96 9 36 10 95 11 37 12 38 13
REMARK SMILES IDX 39 14 89 15 40 16 94 17 88 18 90 19 41 20 93 21 87 22 86 23
REMARK SMILES IDX 42 25 74 26 54 27 73 28 55 29 58 30 72 31 91 32 56 33 57 34
REMARK SMILES IDX 71 36 92 37 59 38 43 39 44 40 52 41 45 42 46 43 50 44 53 45
REMARK SMILES IDX 47 46 48 47 51 48 49 49 75 50 76 51 84 52 77 53 78 54 82 55
REMARK SMILES IDX 85 56 79 57 80 58 83 59 81 60 60 61 61 62 69 63 62 64 63 65
REMARK SMILES IDX 67 66 70 67 64 68 65 69 68 70 66 71 6 72 7 73 8 74 9 76
REMARK SMILES IDX 10 77 21 78 22 79 33 80 23 82 32 83 24 84 25 85 26 86 31 87
REMARK SMILES IDX 27 88 30 89 28 90 29 91 11 92 12 93 20 94 13 95 14 96 19 97
REMARK SMILES IDX 15 99 17 100 16 101 18 102
REMARK H PARENT 3 6 90 24 58 35 7 75 21 81 13 98
REMARK Flexibility Score: inf
ROOT
ATOM      1  C   UNL A   1      35.234  23.408  25.189  1.00  0.00     0.042 C 
ENDROOT
BRANCH   1   2
ATOM      2  C   UNL A   1      35.872  22.775  26.411  1.00  0.00     0.118 C 
BRANCH   2   3
ATOM      3  N   UNL A   1      36.706  21.638  26.055  1.00  0.00    -0.352 N 
ATOM      4  O   UNL A   1      38.572  20.606  25.317  1.00  0.00    -0.269 OA
ATOM      5  C   UNL A   1      38.065  21.586  25.859  1.00  0.00     0.251 C 
ATOM      6  H   UNL A   1      36.230  20.784  25.938  1.00  0.00     0.163 HD
BRANCH   5   7
ATOM      7  C   UNL A   1      38.914  22.716  26.292  1.00  0.00     0.039 A 
ATOM      8  C   UNL A   1      38.661  24.003  25.819  1.00  0.00     0.014 A 
ATOM      9  C   UNL A   1      39.959  22.499  27.195  1.00  0.00     0.014 A 
ATOM     10  C   UNL A   1      39.547  25.030  26.100  1.00  0.00     0.010 A 
ATOM     11  C   UNL A   1      40.769  23.569  27.592  1.00  0.00     0.010 A 
ATOM     12  C   UNL A   1      40.581  24.841  27.031  1.00  0.00    -0.014 A 
BRANCH  12  13
ATOM     13  C   UNL A   1      41.347  26.034  27.472  1.00  0.00     0.031 A 
ATOM     14  C   UNL A   1      42.758  26.280  27.024  1.00  0.00     0.074 A 
ATOM     15  C   UNL A   1      40.710  26.935  28.247  1.00  0.00     0.049 A 
ATOM     16  N   UNL A   1      43.533  27.305  27.284  1.00  0.00    -0.248 NA
ATOM     17  C   UNL A   1      43.390  25.248  26.191  1.00  0.00     0.031 C 
ATOM     18  C   UNL A   1      39.345  26.782  28.762  1.00  0.00     0.029 A 
ATOM     19  N   UNL A   1      41.097  28.167  28.708  1.00  0.00    -0.354 N 
ATOM     20  C   UNL A   1      44.740  27.041  26.652  1.00  0.00     0.074 A 
ATOM     21  C   UNL A   1      44.612  25.741  26.026  1.00  0.00     0.031 C 
ATOM     22  C   UNL A   1      38.984  27.901  29.400  1.00  0.00     0.029 A 
ATOM     23  C   UNL A   1      40.117  28.815  29.420  1.00  0.00     0.049 A 
ATOM     24  H   UNL A   1      41.990  28.548  28.544  1.00  0.00     0.167 HD
ATOM     25  C   UNL A   1      45.848  27.820  26.593  1.00  0.00     0.037 A 
ATOM     26  C   UNL A   1      40.134  30.006  30.044  1.00  0.00     0.037 A 
ATOM     27  C   UNL A   1      45.961  29.116  27.218  1.00  0.00     0.049 A 
ATOM     28  C   UNL A   1      41.385  30.831  29.978  1.00  0.00     0.074 A 
ATOM     29  C   UNL A   1      47.038  29.987  27.212  1.00  0.00     0.029 A 
ATOM     30  N   UNL A   1      44.961  29.727  27.962  1.00  0.00    -0.354 N 
ATOM     31  N   UNL A   1      42.511  30.578  29.358  1.00  0.00    -0.248 NA
ATOM     32  C   UNL A   1      41.368  32.109  30.700  1.00  0.00     0.031 C 
ATOM     33  C   UNL A   1      46.706  31.101  27.990  1.00  0.00     0.029 A 
ATOM     34  C   UNL A   1      45.403  30.955  28.434  1.00  0.00     0.049 A 
ATOM     35  H   UNL A   1      44.069  29.346  28.130  1.00  0.00     0.167 HD
ATOM     36  C   UNL A   1      43.334  31.666  29.606  1.00  0.00     0.074 A 
ATOM     37  C   UNL A   1      42.561  32.600  30.399  1.00  0.00     0.031 C 
ATOM     38  C   UNL A   1      44.619  31.868  29.227  1.00  0.00     0.037 A 
BRANCH  25  39
ATOM     39  C   UNL A   1      47.035  27.300  25.835  1.00  0.00     0.064 A 
ATOM     40  C   UNL A   1      47.223  27.588  24.474  1.00  0.00     0.173 A 
ATOM     41  C   UNL A   1      48.037  26.569  26.492  1.00  0.00     0.173 A 
ATOM     42  F   UNL A   1      46.293  28.276  23.795  1.00  0.00    -0.203 F 
ATOM     43  C   UNL A   1      48.361  27.151  23.798  1.00  0.00     0.198 A 
ATOM     44  C   UNL A   1      49.186  26.158  25.820  1.00  0.00     0.198 A 
ATOM     45  F   UNL A   1      47.913  26.270  27.794  1.00  0.00    -0.203 F 
ATOM     46  F   UNL A   1      48.502  27.412  22.490  1.00  0.00    -0.200 F 
ATOM     47  C   UNL A   1      49.345  26.447  24.473  1.00  0.00     0.200 A 
ATOM     48  F   UNL A   1      50.144  25.490  26.478  1.00  0.00    -0.200 F 
ATOM     49  F   UNL A   1      50.447  26.043  23.825  1.00  0.00    -0.200 F 
ENDBRANCH  25  39
BRANCH  26  50
ATOM     50  C   UNL A   1      38.943  30.464  30.808  1.00  0.00     0.064 A 
ATOM     51  C   UNL A   1      38.841  30.262  32.190  1.00  0.00     0.173 A 
ATOM     52  C   UNL A   1      37.872  31.101  30.162  1.00  0.00     0.173 A 
ATOM     53  F   UNL A   1      39.830  29.643  32.853  1.00  0.00    -0.203 F 
ATOM     54  C   UNL A   1      37.701  30.652  32.891  1.00  0.00     0.198 A 
ATOM     55  C   UNL A   1      36.752  31.528  30.870  1.00  0.00     0.198 A 
ATOM     56  F   UNL A   1      37.921  31.327  28.840  1.00  0.00    -0.203 F 
ATOM     57  F   UNL A   1      37.603  30.391  34.202  1.00  0.00    -0.200 F 
ATOM     58  C   UNL A   1      36.661  31.290  32.232  1.00  0.00     0.200 A 
ATOM     59  F   UNL A   1      35.761  32.165  30.232  1.00  0.00    -0.200 F 
ATOM     60  F   UNL A   1      35.568  31.666  32.908  1.00  0.00    -0.200 F 
ENDBRANCH  26  50
BRANCH  38  61
ATOM     61  C   UNL A   1      45.250  33.163  29.651  1.00  0.00     0.064 A 
ATOM     62  C   UNL A   1      45.950  33.277  30.862  1.00  0.00     0.173 A 
ATOM     63  C   UNL A   1      45.143  34.305  28.844  1.00  0.00     0.173 A 
ATOM     64  F   UNL A   1      46.064  32.219  31.679  1.00  0.00    -0.203 F 
ATOM     65  C   UNL A   1      46.481  34.498  31.269  1.00  0.00     0.198 A 
ATOM     66  C   UNL A   1      45.708  35.515  29.238  1.00  0.00     0.198 A 
ATOM     67  F   UNL A   1      44.490  34.249  27.674  1.00  0.00    -0.203 F 
ATOM     68  F   UNL A   1      47.081  34.599  32.463  1.00  0.00    -0.200 F 
ATOM     69  C   UNL A   1      46.364  35.614  30.454  1.00  0.00     0.200 A 
ATOM     70  F   UNL A   1      45.606  36.589  28.442  1.00  0.00    -0.200 F 
ATOM     71  F   UNL A   1      46.871  36.789  30.850  1.00  0.00    -0.200 F 
ENDBRANCH  38  61
ENDBRANCH  12  13
ENDBRANCH   5   7
ENDBRANCH   2   3
ENDBRANCH   1   2
BRANCH   1  72
ATOM     72  C   UNL A   1      35.065  24.916  25.330  1.00  0.00     0.118 C 
BRANCH  72  73
ATOM     73  N   UNL A   1      33.891  25.296  26.103  1.00  0.00    -0.351 N 
ATOM     74  C   UNL A   1      32.576  25.363  25.691  1.00  0.00     0.283 C 
ATOM     75  H   UNL A   1      34.057  25.538  27.043  1.00  0.00     0.163 HD
ATOM     76  O   UNL A   1      31.725  25.646  26.536  1.00  0.00    -0.268 OA
BRANCH  74  77
ATOM     77  C   UNL A   1      32.266  25.063  24.206  1.00  0.00     0.307 C 
BRANCH  77  78
ATOM     78  N   UNL A   1      31.361  23.903  24.087  1.00  0.00    -0.318 N 
ATOM     79  C   UNL A   1      31.553  22.992  22.953  1.00  0.00     0.285 C 
ATOM     80  C   UNL A   1      31.094  23.172  25.333  1.00  0.00     0.285 C 
ATOM     81  H   UNL A   1      30.507  24.408  23.850  1.00  0.00     0.349 HD
ATOM     82  C   UNL A   1      32.483  21.786  23.182  1.00  0.00     0.181 C 
ATOM     83  C   UNL A   1      32.046  21.999  25.639  1.00  0.00     0.181 C 
ATOM     84  N   UNL A   1      32.213  21.151  24.464  1.00  0.00    -0.330 N 
BRANCH  84  85
ATOM     85  C   UNL A   1      32.843  19.951  24.704  1.00  0.00     0.225 A 
ATOM     86  N   UNL A   1      32.064  18.903  25.016  1.00  0.00    -0.220 NA
ATOM     87  N   UNL A   1      34.179  19.861  24.557  1.00  0.00    -0.220 NA
ATOM     88  C   UNL A   1      32.657  17.698  25.112  1.00  0.00     0.132 A 
ATOM     89  C   UNL A   1      34.736  18.642  24.717  1.00  0.00     0.132 A 
ATOM     90  C   UNL A   1      34.008  17.508  24.972  1.00  0.00     0.054 A 
ATOM     91  Br  UNL A   1      34.800  15.812  25.098  1.00  0.00    -0.047 Br
ENDBRANCH  84  85
ENDBRANCH  77  78
BRANCH  77  92
ATOM     92  C   UNL A   1      31.927  26.258  23.355  1.00  0.00     0.044 A 
ATOM     93  C   UNL A   1      32.720  26.971  22.476  1.00  0.00     0.094 A 
ATOM     94  C   UNL A   1      30.624  26.874  23.288  1.00  0.00     0.011 A 
ATOM     95  N   UNL A   1      32.042  28.097  22.091  1.00  0.00    -0.361 N 
ATOM     96  C   UNL A   1      30.749  28.052  22.553  1.00  0.00     0.046 A 
ATOM     97  C   UNL A   1      29.355  26.544  23.812  1.00  0.00     0.031 A 
ATOM     98  H   UNL A   1      32.426  28.833  21.560  1.00  0.00     0.166 HD
ATOM     99  C   UNL A   1      29.692  28.952  22.374  1.00  0.00     0.028 A 
ATOM    100  C   UNL A   1      28.279  27.408  23.595  1.00  0.00     0.041 A 
ATOM    101  C   UNL A   1      28.446  28.605  22.906  1.00  0.00     0.022 A 
ATOM    102  Cl  UNL A   1      26.722  26.972  24.190  1.00  0.00    -0.084 Cl
ENDBRANCH  77  92
ENDBRANCH  74  77
ENDBRANCH  72  73
ENDBRANCH   1  72
TORSDOF 13
ENDMDL
