MODEL 1
REMARK VINA RESULT:     -11.3      0.000      0.000
REMARK SMILES Cc1ccc(S(=O)(=O)N2CCN(C(=O)[C@H]3CCCC[C@@H]3C(=O)NCCCNC(=O)c3ccc(-c4c5nc(c(-c6c(F)c(F)c(F)c(F)c6F)c6ccc([nH]6)c(-c6c(F)c(F)c(F)c(F)c6F)c6nc(c(-c7c(F)c(F)c(F)c(F)c7F)c7ccc4[nH]7)C=C6)C=C5)cc3)CC2)cc1C
REMARK SMILES IDX 24 1 23 2 21 3 22 4 20 6 15 7 16 8 17 9 19 10 18 11 13 12
REMARK SMILES IDX 9 13 10 14 94 15 11 16 93 17 12 18 14 19 6 20 7 21 8 22 5 23
REMARK SMILES IDX 1 24 2 25 3 26 96 27 4 28 95 29 97 30 25 31 26 32 27 33
REMARK SMILES IDX 28 34 29 36 30 37 31 38 92 39 32 40 91 41 33 42 34 43 35 44
REMARK SMILES IDX 85 45 36 46 90 47 84 48 86 49 37 50 89 51 83 52 82 53 38 55
REMARK SMILES IDX 70 56 50 57 69 58 51 59 54 60 68 61 87 62 52 63 53 64 67 66
REMARK SMILES IDX 88 67 55 68 39 69 40 70 48 71 41 72 42 73 46 74 49 75 43 76
REMARK SMILES IDX 44 77 47 78 45 79 71 80 72 81 80 82 73 83 74 84 78 85 81 86
REMARK SMILES IDX 75 87 76 88 79 89 77 90 56 91 57 92 65 93 58 94 59 95 63 96
REMARK SMILES IDX 66 97 60 98 61 99 64 100 62 101
REMARK H PARENT 23 5 27 35 86 54 54 65
REMARK Flexibility Score: inf
ROOT
ATOM      1  C   UNL A   1      34.316  33.941  30.104  1.00  0.00     0.117 C 
ENDROOT
BRANCH   1   2
ATOM      2  N   UNL A   1      34.732  34.750  31.228  1.00  0.00    -0.356 N 
ATOM      3  C   UNL A   1      35.759  34.545  32.091  1.00  0.00     0.223 C 
ATOM      4  O   UNL A   1      35.891  35.363  33.002  1.00  0.00    -0.275 OA
ATOM      5  H   UNL A   1      34.197  35.560  31.389  1.00  0.00     0.163 HD
BRANCH   3   6
ATOM      6  C   UNL A   1      36.635  33.302  31.962  1.00  0.00     0.091 C 
ATOM      7  C   UNL A   1      37.256  32.948  33.353  1.00  0.00     0.091 C 
ATOM      8  C   UNL A   1      38.364  33.982  33.671  1.00  0.00     0.014 C 
ATOM      9  C   UNL A   1      39.441  34.084  32.604  1.00  0.00     0.001 C 
ATOM     10  C   UNL A   1      37.773  33.360  30.912  1.00  0.00     0.014 C 
ATOM     11  C   UNL A   1      38.832  34.394  31.252  1.00  0.00     0.001 C 
BRANCH   7  12
ATOM     12  C   UNL A   1      37.651  31.465  33.283  1.00  0.00     0.226 C 
ATOM     13  N   UNL A   1      41.240  29.847  34.847  1.00  0.00    -0.194 NA
ATOM     14  C   UNL A   1      40.726  29.420  33.536  1.00  0.00     0.124 C 
ATOM     15  C   UNL A   1      40.921  31.243  35.215  1.00  0.00     0.124 C 
ATOM     16  C   UNL A   1      39.222  29.651  33.459  1.00  0.00     0.136 C 
ATOM     17  C   UNL A   1      39.427  31.565  35.062  1.00  0.00     0.136 C 
ATOM     18  N   UNL A   1      38.829  31.020  33.836  1.00  0.00    -0.340 N 
ATOM     19  O   UNL A   1      36.899  30.650  32.735  1.00  0.00    -0.275 OA
BRANCH  13  20
ATOM     20  S   UNL A   1      41.877  28.742  35.935  1.00  0.00     0.243 S 
ATOM     21  O   UNL A   1      40.776  28.112  36.628  1.00  0.00    -0.207 OA
ATOM     22  O   UNL A   1      42.933  29.426  36.658  1.00  0.00    -0.207 OA
BRANCH  20  23
ATOM     23  C   UNL A   1      42.672  27.463  34.985  1.00  0.00     0.082 A 
ATOM     24  C   UNL A   1      44.537  24.361  32.625  1.00  0.00     0.044 C 
ATOM     25  C   UNL A   1      43.880  25.405  33.483  1.00  0.00    -0.048 A 
ATOM     26  C   UNL A   1      44.126  26.746  33.187  1.00  0.00     0.005 A 
ATOM     27  C   UNL A   1      43.015  25.089  34.551  1.00  0.00    -0.047 A 
ATOM     28  C   UNL A   1      43.518  27.753  33.927  1.00  0.00     0.022 A 
ATOM     29  C   UNL A   1      42.429  26.128  35.306  1.00  0.00     0.025 A 
ATOM     30  C   UNL A   1      42.670  23.676  34.924  1.00  0.00     0.044 C 
ENDBRANCH  20  23
ENDBRANCH  13  20
ENDBRANCH   7  12
ENDBRANCH   3   6
ENDBRANCH   1   2
BRANCH   1  31
ATOM     31  C   UNL A   1      35.031  34.281  28.817  1.00  0.00     0.042 C 
BRANCH  31  32
ATOM     32  C   UNL A   1      35.528  33.078  28.044  1.00  0.00     0.118 C 
BRANCH  32  33
ATOM     33  N   UNL A   1      34.565  31.989  27.978  1.00  0.00    -0.352 N 
ATOM     34  C   UNL A   1      34.770  30.630  27.995  1.00  0.00     0.251 C 
ATOM     35  H   UNL A   1      33.624  32.268  27.912  1.00  0.00     0.163 HD
ATOM     36  O   UNL A   1      33.833  29.866  27.783  1.00  0.00    -0.269 OA
BRANCH  34  37
ATOM     37  C   UNL A   1      36.127  30.089  28.225  1.00  0.00     0.039 A 
ATOM     38  C   UNL A   1      37.053  30.114  27.181  1.00  0.00     0.014 A 
ATOM     39  C   UNL A   1      36.498  29.580  29.471  1.00  0.00     0.014 A 
ATOM     40  C   UNL A   1      38.366  29.701  27.414  1.00  0.00     0.010 A 
ATOM     41  C   UNL A   1      37.833  29.308  29.739  1.00  0.00     0.010 A 
ATOM     42  C   UNL A   1      38.779  29.337  28.707  1.00  0.00    -0.014 A 
BRANCH  42  43
ATOM     43  C   UNL A   1      40.184  28.946  28.990  1.00  0.00     0.031 A 
ATOM     44  C   UNL A   1      41.091  29.889  29.737  1.00  0.00     0.074 A 
ATOM     45  C   UNL A   1      40.658  27.769  28.535  1.00  0.00     0.049 A 
ATOM     46  N   UNL A   1      42.354  29.748  30.051  1.00  0.00    -0.248 NA
ATOM     47  C   UNL A   1      40.514  31.176  30.156  1.00  0.00     0.031 C 
ATOM     48  C   UNL A   1      39.899  26.798  27.745  1.00  0.00     0.029 A 
ATOM     49  N   UNL A   1      41.895  27.191  28.672  1.00  0.00    -0.354 N 
ATOM     50  C   UNL A   1      42.718  30.929  30.686  1.00  0.00     0.074 A 
ATOM     51  C   UNL A   1      41.571  31.806  30.645  1.00  0.00     0.031 C 
ATOM     52  C   UNL A   1      40.673  25.728  27.503  1.00  0.00     0.029 A 
ATOM     53  C   UNL A   1      41.994  25.954  28.081  1.00  0.00     0.049 A 
ATOM     54  H   UNL A   1      42.641  27.620  29.147  1.00  0.00     0.167 HD
ATOM     55  C   UNL A   1      43.893  31.243  31.282  1.00  0.00     0.037 A 
ATOM     56  C   UNL A   1      43.033  25.101  28.012  1.00  0.00     0.037 A 
ATOM     57  C   UNL A   1      45.024  30.357  31.346  1.00  0.00     0.049 A 
ATOM     58  C   UNL A   1      44.329  25.475  28.681  1.00  0.00     0.074 A 
ATOM     59  C   UNL A   1      46.238  30.552  31.979  1.00  0.00     0.029 A 
ATOM     60  N   UNL A   1      45.081  29.106  30.748  1.00  0.00    -0.354 N 
ATOM     61  N   UNL A   1      44.635  26.560  29.349  1.00  0.00    -0.248 NA
ATOM     62  C   UNL A   1      45.422  24.497  28.594  1.00  0.00     0.031 C 
ATOM     63  C   UNL A   1      47.052  29.447  31.713  1.00  0.00     0.029 A 
ATOM     64  C   UNL A   1      46.320  28.531  30.974  1.00  0.00     0.049 A 
ATOM     65  H   UNL A   1      44.348  28.689  30.238  1.00  0.00     0.167 HD
ATOM     66  C   UNL A   1      45.940  26.383  29.790  1.00  0.00     0.074 A 
ATOM     67  C   UNL A   1      46.361  25.078  29.327  1.00  0.00     0.031 C 
ATOM     68  C   UNL A   1      46.721  27.226  30.511  1.00  0.00     0.037 A 
BRANCH  55  69
ATOM     69  C   UNL A   1      44.009  32.600  31.917  1.00  0.00     0.064 A 
ATOM     70  C   UNL A   1      43.912  32.779  33.306  1.00  0.00     0.173 A 
ATOM     71  C   UNL A   1      44.249  33.736  31.128  1.00  0.00     0.173 A 
ATOM     72  F   UNL A   1      43.669  31.731  34.107  1.00  0.00    -0.203 F 
ATOM     73  C   UNL A   1      44.015  34.045  33.878  1.00  0.00     0.198 A 
ATOM     74  C   UNL A   1      44.390  34.996  31.707  1.00  0.00     0.198 A 
ATOM     75  F   UNL A   1      44.356  33.625  29.796  1.00  0.00    -0.203 F 
ATOM     76  F   UNL A   1      43.859  34.197  35.200  1.00  0.00    -0.200 F 
ATOM     77  C   UNL A   1      44.263  35.150  33.078  1.00  0.00     0.200 A 
ATOM     78  F   UNL A   1      44.645  36.060  30.933  1.00  0.00    -0.200 F 
ATOM     79  F   UNL A   1      44.371  36.368  33.629  1.00  0.00    -0.200 F 
ENDBRANCH  55  69
BRANCH  56  80
ATOM     80  C   UNL A   1      42.884  23.799  27.309  1.00  0.00     0.064 A 
ATOM     81  C   UNL A   1      42.374  22.673  27.971  1.00  0.00     0.173 A 
ATOM     82  C   UNL A   1      43.257  23.648  25.966  1.00  0.00     0.173 A 
ATOM     83  F   UNL A   1      42.020  22.761  29.263  1.00  0.00    -0.203 F 
ATOM     84  C   UNL A   1      42.268  21.442  27.328  1.00  0.00     0.198 A 
ATOM     85  C   UNL A   1      43.120  22.425  25.312  1.00  0.00     0.198 A 
ATOM     86  F   UNL A   1      43.744  24.693  25.281  1.00  0.00    -0.203 F 
ATOM     87  F   UNL A   1      41.829  20.371  28.002  1.00  0.00    -0.200 F 
ATOM     88  C   UNL A   1      42.636  21.320  25.996  1.00  0.00     0.200 A 
ATOM     89  F   UNL A   1      43.460  22.316  24.020  1.00  0.00    -0.200 F 
ATOM     90  F   UNL A   1      42.533  20.137  25.375  1.00  0.00    -0.200 F 
ENDBRANCH  56  80
BRANCH  68  91
ATOM     91  C   UNL A   1      48.095  26.744  30.882  1.00  0.00     0.064 A 
ATOM     92  C   UNL A   1      48.339  26.045  32.074  1.00  0.00     0.173 A 
ATOM     93  C   UNL A   1      49.178  26.957  30.014  1.00  0.00     0.173 A 
ATOM     94  F   UNL A   1      47.341  25.824  32.943  1.00  0.00    -0.203 F 
ATOM     95  C   UNL A   1      49.621  25.612  32.400  1.00  0.00     0.198 A 
ATOM     96  C   UNL A   1      50.450  26.488  30.326  1.00  0.00     0.198 A 
ATOM     97  F   UNL A   1      48.998  27.611  28.856  1.00  0.00    -0.203 F 
ATOM     98  F   UNL A   1      49.841  25.001  33.573  1.00  0.00    -0.200 F 
ATOM     99  C   UNL A   1      50.674  25.827  31.522  1.00  0.00     0.200 A 
ATOM    100  F   UNL A   1      51.462  26.681  29.468  1.00  0.00    -0.200 F 
ATOM    101  F   UNL A   1      51.906  25.404  31.836  1.00  0.00    -0.200 F 
ENDBRANCH  68  91
ENDBRANCH  42  43
ENDBRANCH  34  37
ENDBRANCH  32  33
ENDBRANCH  31  32
ENDBRANCH   1  31
TORSDOF 13
ENDMDL
MODEL 2
REMARK VINA RESULT:     -10.8      4.890      8.779
REMARK SMILES Cc1ccc(S(=O)(=O)N2CCN(C(=O)[C@H]3CCCC[C@@H]3C(=O)NCCCNC(=O)c3ccc(-c4c5nc(c(-c6c(F)c(F)c(F)c(F)c6F)c6ccc([nH]6)c(-c6c(F)c(F)c(F)c(F)c6F)c6nc(c(-c7c(F)c(F)c(F)c(F)c7F)c7ccc4[nH]7)C=C6)C=C5)cc3)CC2)cc1C
REMARK SMILES IDX 24 1 23 2 21 3 22 4 20 6 15 7 16 8 17 9 19 10 18 11 13 12
REMARK SMILES IDX 9 13 10 14 94 15 11 16 93 17 12 18 14 19 6 20 7 21 8 22 5 23
REMARK SMILES IDX 1 24 2 25 3 26 96 27 4 28 95 29 97 30 25 31 26 32 27 33
REMARK SMILES IDX 28 34 29 36 30 37 31 38 92 39 32 40 91 41 33 42 34 43 35 44
REMARK SMILES IDX 85 45 36 46 90 47 84 48 86 49 37 50 89 51 83 52 82 53 38 55
REMARK SMILES IDX 70 56 50 57 69 58 51 59 54 60 68 61 87 62 52 63 53 64 67 66
REMARK SMILES IDX 88 67 55 68 39 69 40 70 48 71 41 72 42 73 46 74 49 75 43 76
REMARK SMILES IDX 44 77 47 78 45 79 71 80 72 81 80 82 73 83 74 84 78 85 81 86
REMARK SMILES IDX 75 87 76 88 79 89 77 90 56 91 57 92 65 93 58 94 59 95 63 96
REMARK SMILES IDX 66 97 60 98 61 99 64 100 62 101
REMARK H PARENT 23 5 27 35 86 54 54 65
REMARK Flexibility Score: inf
ROOT
ATOM      1  C   UNL A   1      31.002  31.371  25.898  1.00  0.00     0.117 C 
ENDROOT
BRANCH   1   2
ATOM      2  N   UNL A   1      30.522  32.374  24.974  1.00  0.00    -0.356 N 
ATOM      3  C   UNL A   1      29.527  32.280  24.057  1.00  0.00     0.223 C 
ATOM      4  O   UNL A   1      29.327  33.269  23.350  1.00  0.00    -0.275 OA
ATOM      5  H   UNL A   1      30.981  33.244  25.015  1.00  0.00     0.163 HD
BRANCH   3   6
ATOM      6  C   UNL A   1      28.769  30.967  23.876  1.00  0.00     0.091 C 
ATOM      7  C   UNL A   1      29.603  29.997  22.977  1.00  0.00     0.091 C 
ATOM      8  C   UNL A   1      29.539  30.506  21.516  1.00  0.00     0.014 C 
ATOM      9  C   UNL A   1      28.126  30.668  20.978  1.00  0.00     0.001 C 
ATOM     10  C   UNL A   1      27.335  31.066  23.299  1.00  0.00     0.014 C 
ATOM     11  C   UNL A   1      27.312  31.582  21.871  1.00  0.00     0.001 C 
BRANCH   7  12
ATOM     12  C   UNL A   1      29.083  28.582  23.272  1.00  0.00     0.226 C 
ATOM     13  N   UNL A   1      31.491  25.346  24.567  1.00  0.00    -0.194 NA
ATOM     14  C   UNL A   1      30.443  25.151  23.552  1.00  0.00     0.124 C 
ATOM     15  C   UNL A   1      32.118  26.685  24.563  1.00  0.00     0.124 C 
ATOM     16  C   UNL A   1      29.375  26.229  23.684  1.00  0.00     0.136 C 
ATOM     17  C   UNL A   1      31.083  27.819  24.594  1.00  0.00     0.136 C 
ATOM     18  N   UNL A   1      29.933  27.592  23.709  1.00  0.00    -0.340 N 
ATOM     19  O   UNL A   1      27.882  28.323  23.130  1.00  0.00    -0.275 OA
BRANCH  13  20
ATOM     20  S   UNL A   1      31.732  24.232  25.796  1.00  0.00     0.243 S 
ATOM     21  O   UNL A   1      30.877  23.094  25.542  1.00  0.00    -0.207 OA
ATOM     22  O   UNL A   1      31.664  24.965  27.046  1.00  0.00    -0.207 OA
BRANCH  20  23
ATOM     23  C   UNL A   1      33.408  23.644  25.655  1.00  0.00     0.082 A 
ATOM     24  C   UNL A   1      37.469  22.233  25.231  1.00  0.00     0.044 C 
ATOM     25  C   UNL A   1      36.042  22.675  25.387  1.00  0.00    -0.048 A 
ATOM     26  C   UNL A   1      35.797  24.028  25.624  1.00  0.00     0.005 A 
ATOM     27  C   UNL A   1      34.948  21.792  25.285  1.00  0.00    -0.047 A 
ATOM     28  C   UNL A   1      34.494  24.497  25.744  1.00  0.00     0.022 A 
ATOM     29  C   UNL A   1      33.634  22.285  25.436  1.00  0.00     0.025 A 
ATOM     30  C   UNL A   1      35.113  20.326  25.005  1.00  0.00     0.044 C 
ENDBRANCH  20  23
ENDBRANCH  13  20
ENDBRANCH   7  12
ENDBRANCH   3   6
ENDBRANCH   1   2
BRANCH   1  31
ATOM     31  C   UNL A   1      31.465  31.939  27.219  1.00  0.00     0.042 C 
BRANCH  31  32
ATOM     32  C   UNL A   1      32.672  32.846  27.120  1.00  0.00     0.118 C 
BRANCH  32  33
ATOM     33  N   UNL A   1      32.433  34.190  27.625  1.00  0.00    -0.352 N 
ATOM     34  C   UNL A   1      33.039  34.864  28.659  1.00  0.00     0.251 C 
ATOM     35  H   UNL A   1      31.730  34.694  27.155  1.00  0.00     0.163 HD
ATOM     36  O   UNL A   1      32.596  35.947  29.029  1.00  0.00    -0.269 OA
BRANCH  34  37
ATOM     37  C   UNL A   1      34.199  34.264  29.354  1.00  0.00     0.039 A 
ATOM     38  C   UNL A   1      33.973  33.347  30.382  1.00  0.00     0.014 A 
ATOM     39  C   UNL A   1      35.505  34.581  28.981  1.00  0.00     0.014 A 
ATOM     40  C   UNL A   1      35.056  32.699  30.978  1.00  0.00     0.010 A 
ATOM     41  C   UNL A   1      36.567  33.832  29.470  1.00  0.00     0.010 A 
ATOM     42  C   UNL A   1      36.360  32.901  30.495  1.00  0.00    -0.014 A 
BRANCH  42  43
ATOM     43  C   UNL A   1      37.522  32.181  31.076  1.00  0.00     0.031 A 
ATOM     44  C   UNL A   1      38.013  32.534  32.456  1.00  0.00     0.074 A 
ATOM     45  C   UNL A   1      38.165  31.246  30.348  1.00  0.00     0.049 A 
ATOM     46  N   UNL A   1      39.029  32.047  33.123  1.00  0.00    -0.248 NA
ATOM     47  C   UNL A   1      37.290  33.600  33.167  1.00  0.00     0.031 C 
ATOM     48  C   UNL A   1      37.827  30.860  28.977  1.00  0.00     0.029 A 
ATOM     49  N   UNL A   1      39.240  30.452  30.660  1.00  0.00    -0.354 N 
ATOM     50  C   UNL A   1      39.070  32.757  34.316  1.00  0.00     0.074 A 
ATOM     51  C   UNL A   1      38.032  33.759  34.252  1.00  0.00     0.031 C 
ATOM     52  C   UNL A   1      38.649  29.875  28.582  1.00  0.00     0.029 A 
ATOM     53  C   UNL A   1      39.600  29.591  29.653  1.00  0.00     0.049 A 
ATOM     54  H   UNL A   1      39.708  30.495  31.524  1.00  0.00     0.167 HD
ATOM     55  C   UNL A   1      39.880  32.569  35.386  1.00  0.00     0.037 A 
ATOM     56  C   UNL A   1      40.586  28.677  29.599  1.00  0.00     0.037 A 
ATOM     57  C   UNL A   1      40.895  31.553  35.458  1.00  0.00     0.049 A 
ATOM     58  C   UNL A   1      41.474  28.488  30.801  1.00  0.00     0.074 A 
ATOM     59  C   UNL A   1      41.725  31.237  36.518  1.00  0.00     0.029 A 
ATOM     60  N   UNL A   1      41.220  30.689  34.422  1.00  0.00    -0.354 N 
ATOM     61  N   UNL A   1      41.450  29.109  31.954  1.00  0.00    -0.248 NA
ATOM     62  C   UNL A   1      42.519  27.461  30.694  1.00  0.00     0.031 C 
ATOM     63  C   UNL A   1      42.595  30.223  36.102  1.00  0.00     0.029 A 
ATOM     64  C   UNL A   1      42.260  29.859  34.808  1.00  0.00     0.049 A 
ATOM     65  H   UNL A   1      40.778  30.669  33.542  1.00  0.00     0.167 HD
ATOM     66  C   UNL A   1      42.452  28.530  32.722  1.00  0.00     0.074 A 
ATOM     67  C   UNL A   1      43.051  27.494  31.907  1.00  0.00     0.031 C 
ATOM     68  C   UNL A   1      42.841  28.828  33.986  1.00  0.00     0.037 A 
BRANCH  55  69
ATOM     69  C   UNL A   1      39.693  33.481  36.567  1.00  0.00     0.064 A 
ATOM     70  C   UNL A   1      40.359  34.713  36.664  1.00  0.00     0.173 A 
ATOM     71  C   UNL A   1      38.816  33.130  37.604  1.00  0.00     0.173 A 
ATOM     72  F   UNL A   1      41.220  35.093  35.707  1.00  0.00    -0.203 F 
ATOM     73  C   UNL A   1      40.180  35.543  37.768  1.00  0.00     0.198 A 
ATOM     74  C   UNL A   1      38.610  33.979  38.689  1.00  0.00     0.198 A 
ATOM     75  F   UNL A   1      38.150  31.967  37.563  1.00  0.00    -0.203 F 
ATOM     76  F   UNL A   1      40.873  36.686  37.865  1.00  0.00    -0.200 F 
ATOM     77  C   UNL A   1      39.299  35.179  38.775  1.00  0.00     0.200 A 
ATOM     78  F   UNL A   1      37.746  33.633  39.654  1.00  0.00    -0.200 F 
ATOM     79  F   UNL A   1      39.121  35.981  39.834  1.00  0.00    -0.200 F 
ENDBRANCH  55  69
BRANCH  56  80
ATOM     80  C   UNL A   1      40.771  27.850  28.376  1.00  0.00     0.064 A 
ATOM     81  C   UNL A   1      40.132  26.608  28.239  1.00  0.00     0.173 A 
ATOM     82  C   UNL A   1      41.596  28.274  27.324  1.00  0.00     0.173 A 
ATOM     83  F   UNL A   1      39.347  26.148  29.225  1.00  0.00    -0.203 F 
ATOM     84  C   UNL A   1      40.332  25.813  27.113  1.00  0.00     0.198 A 
ATOM     85  C   UNL A   1      41.769  27.494  26.183  1.00  0.00     0.198 A 
ATOM     86  F   UNL A   1      42.225  29.456  27.399  1.00  0.00    -0.203 F 
ATOM     87  F   UNL A   1      39.753  24.608  27.034  1.00  0.00    -0.200 F 
ATOM     88  C   UNL A   1      41.146  26.259  26.082  1.00  0.00     0.200 A 
ATOM     89  F   UNL A   1      42.542  27.938  25.182  1.00  0.00    -0.200 F 
ATOM     90  F   UNL A   1      41.337  25.496  24.998  1.00  0.00    -0.200 F 
ENDBRANCH  56  80
BRANCH  68  91
ATOM     91  C   UNL A   1      43.939  27.994  34.583  1.00  0.00     0.064 A 
ATOM     92  C   UNL A   1      45.286  28.382  34.514  1.00  0.00     0.173 A 
ATOM     93  C   UNL A   1      43.635  26.804  35.262  1.00  0.00     0.173 A 
ATOM     94  F   UNL A   1      45.633  29.505  33.866  1.00  0.00    -0.203 F 
ATOM     95  C   UNL A   1      46.288  27.591  35.069  1.00  0.00     0.198 A 
ATOM     96  C   UNL A   1      44.635  26.037  35.850  1.00  0.00     0.198 A 
ATOM     97  F   UNL A   1      42.362  26.392  35.367  1.00  0.00    -0.203 F 
ATOM     98  F   UNL A   1      47.573  27.950  34.937  1.00  0.00    -0.200 F 
ATOM     99  C   UNL A   1      45.961  26.424  35.744  1.00  0.00     0.200 A 
ATOM    100  F   UNL A   1      44.315  24.919  36.517  1.00  0.00    -0.200 F 
ATOM    101  F   UNL A   1      46.927  25.667  36.282  1.00  0.00    -0.200 F 
ENDBRANCH  68  91
ENDBRANCH  42  43
ENDBRANCH  34  37
ENDBRANCH  32  33
ENDBRANCH  31  32
ENDBRANCH   1  31
TORSDOF 13
ENDMDL
MODEL 3
REMARK VINA RESULT:     -10.8      4.997     11.095
REMARK SMILES Cc1ccc(S(=O)(=O)N2CCN(C(=O)[C@H]3CCCC[C@@H]3C(=O)NCCCNC(=O)c3ccc(-c4c5nc(c(-c6c(F)c(F)c(F)c(F)c6F)c6ccc([nH]6)c(-c6c(F)c(F)c(F)c(F)c6F)c6nc(c(-c7c(F)c(F)c(F)c(F)c7F)c7ccc4[nH]7)C=C6)C=C5)cc3)CC2)cc1C
REMARK SMILES IDX 24 1 23 2 21 3 22 4 20 6 15 7 16 8 17 9 19 10 18 11 13 12
REMARK SMILES IDX 9 13 10 14 94 15 11 16 93 17 12 18 14 19 6 20 7 21 8 22 5 23
REMARK SMILES IDX 1 24 2 25 3 26 96 27 4 28 95 29 97 30 25 31 26 32 27 33
REMARK SMILES IDX 28 34 29 36 30 37 31 38 92 39 32 40 91 41 33 42 34 43 35 44
REMARK SMILES IDX 85 45 36 46 90 47 84 48 86 49 37 50 89 51 83 52 82 53 38 55
REMARK SMILES IDX 70 56 50 57 69 58 51 59 54 60 68 61 87 62 52 63 53 64 67 66
REMARK SMILES IDX 88 67 55 68 39 69 40 70 48 71 41 72 42 73 46 74 49 75 43 76
REMARK SMILES IDX 44 77 47 78 45 79 71 80 72 81 80 82 73 83 74 84 78 85 81 86
REMARK SMILES IDX 75 87 76 88 79 89 77 90 56 91 57 92 65 93 58 94 59 95 63 96
REMARK SMILES IDX 66 97 60 98 61 99 64 100 62 101
REMARK H PARENT 23 5 27 35 86 54 54 65
REMARK Flexibility Score: inf
ROOT
ATOM      1  C   UNL A   1      31.002  31.388  25.892  1.00  0.00     0.117 C 
ENDROOT
BRANCH   1   2
ATOM      2  N   UNL A   1      30.529  32.410  24.986  1.00  0.00    -0.356 N 
ATOM      3  C   UNL A   1      29.533  32.338  24.068  1.00  0.00     0.223 C 
ATOM      4  O   UNL A   1      29.339  33.340  23.378  1.00  0.00    -0.275 OA
ATOM      5  H   UNL A   1      30.992  33.276  25.043  1.00  0.00     0.163 HD
BRANCH   3   6
ATOM      6  C   UNL A   1      28.768  31.032  23.863  1.00  0.00     0.091 C 
ATOM      7  C   UNL A   1      29.650  30.027  23.051  1.00  0.00     0.091 C 
ATOM      8  C   UNL A   1      29.701  30.501  21.577  1.00  0.00     0.014 C 
ATOM      9  C   UNL A   1      28.335  30.671  20.933  1.00  0.00     0.001 C 
ATOM     10  C   UNL A   1      27.382  31.139  23.179  1.00  0.00     0.014 C 
ATOM     11  C   UNL A   1      27.473  31.619  21.742  1.00  0.00     0.001 C 
BRANCH   7  12
ATOM     12  C   UNL A   1      29.085  28.629  23.341  1.00  0.00     0.226 C 
ATOM     13  N   UNL A   1      31.383  25.324  24.664  1.00  0.00    -0.194 NA
ATOM     14  C   UNL A   1      30.342  25.159  23.637  1.00  0.00     0.124 C 
ATOM     15  C   UNL A   1      32.048  26.645  24.667  1.00  0.00     0.124 C 
ATOM     16  C   UNL A   1      29.304  26.268  23.756  1.00  0.00     0.136 C 
ATOM     17  C   UNL A   1      31.047  27.808  24.686  1.00  0.00     0.136 C 
ATOM     18  N   UNL A   1      29.901  27.615  23.787  1.00  0.00    -0.340 N 
ATOM     19  O   UNL A   1      27.878  28.404  23.185  1.00  0.00    -0.275 OA
BRANCH  13  20
ATOM     20  S   UNL A   1      31.577  24.205  25.896  1.00  0.00     0.243 S 
ATOM     21  O   UNL A   1      30.490  23.256  25.813  1.00  0.00    -0.207 OA
ATOM     22  O   UNL A   1      31.834  24.957  27.109  1.00  0.00    -0.207 OA
BRANCH  20  23
ATOM     23  C   UNL A   1      33.068  23.293  25.551  1.00  0.00     0.082 A 
ATOM     24  C   UNL A   1      36.684  21.053  24.795  1.00  0.00     0.044 C 
ATOM     25  C   UNL A   1      35.454  21.875  25.054  1.00  0.00    -0.048 A 
ATOM     26  C   UNL A   1      34.211  21.264  24.888  1.00  0.00     0.005 A 
ATOM     27  C   UNL A   1      35.503  23.220  25.475  1.00  0.00    -0.047 A 
ATOM     28  C   UNL A   1      33.041  21.969  25.145  1.00  0.00     0.022 A 
ATOM     29  C   UNL A   1      34.301  23.925  25.705  1.00  0.00     0.025 A 
ATOM     30  C   UNL A   1      36.794  23.951  25.706  1.00  0.00     0.044 C 
ENDBRANCH  20  23
ENDBRANCH  13  20
ENDBRANCH   7  12
ENDBRANCH   3   6
ENDBRANCH   1   2
BRANCH   1  31
ATOM     31  C   UNL A   1      31.431  31.924  27.238  1.00  0.00     0.042 C 
BRANCH  31  32
ATOM     32  C   UNL A   1      32.657  32.810  27.195  1.00  0.00     0.118 C 
BRANCH  32  33
ATOM     33  N   UNL A   1      32.392  34.191  27.570  1.00  0.00    -0.352 N 
ATOM     34  C   UNL A   1      32.966  34.963  28.552  1.00  0.00     0.251 C 
ATOM     35  H   UNL A   1      31.695  34.641  27.040  1.00  0.00     0.163 HD
ATOM     36  O   UNL A   1      32.502  36.070  28.812  1.00  0.00    -0.269 OA
BRANCH  34  37
ATOM     37  C   UNL A   1      34.115  34.444  29.325  1.00  0.00     0.039 A 
ATOM     38  C   UNL A   1      33.877  33.783  30.531  1.00  0.00     0.014 A 
ATOM     39  C   UNL A   1      35.421  34.583  28.855  1.00  0.00     0.014 A 
ATOM     40  C   UNL A   1      34.942  33.200  31.219  1.00  0.00     0.010 A 
ATOM     41  C   UNL A   1      36.455  33.881  29.462  1.00  0.00     0.010 A 
ATOM     42  C   UNL A   1      36.234  33.205  30.667  1.00  0.00    -0.014 A 
BRANCH  42  43
ATOM     43  C   UNL A   1      37.373  32.543  31.354  1.00  0.00     0.031 A 
ATOM     44  C   UNL A   1      38.092  31.399  30.688  1.00  0.00     0.074 A 
ATOM     45  C   UNL A   1      37.729  32.936  32.594  1.00  0.00     0.049 A 
ATOM     46  N   UNL A   1      39.083  30.670  31.136  1.00  0.00    -0.248 NA
ATOM     47  C   UNL A   1      37.611  30.995  29.357  1.00  0.00     0.031 C 
ATOM     48  C   UNL A   1      37.071  33.987  33.372  1.00  0.00     0.029 A 
ATOM     49  N   UNL A   1      38.733  32.493  33.418  1.00  0.00    -0.354 N 
ATOM     50  C   UNL A   1      39.328  29.722  30.151  1.00  0.00     0.074 A 
ATOM     51  C   UNL A   1      38.336  29.914  29.119  1.00  0.00     0.031 C 
ATOM     52  C   UNL A   1      37.714  34.137  34.540  1.00  0.00     0.029 A 
ATOM     53  C   UNL A   1      38.800  33.165  34.615  1.00  0.00     0.049 A 
ATOM     54  H   UNL A   1      39.348  31.765  33.176  1.00  0.00     0.167 HD
ATOM     55  C   UNL A   1      40.314  28.795  30.095  1.00  0.00     0.037 A 
ATOM     56  C   UNL A   1      39.641  33.011  35.654  1.00  0.00     0.037 A 
ATOM     57  C   UNL A   1      41.317  28.624  31.111  1.00  0.00     0.049 A 
ATOM     58  C   UNL A   1      40.727  31.972  35.568  1.00  0.00     0.074 A 
ATOM     59  C   UNL A   1      42.395  27.759  31.122  1.00  0.00     0.029 A 
ATOM     60  N   UNL A   1      41.360  29.334  32.303  1.00  0.00    -0.354 N 
ATOM     61  N   UNL A   1      41.000  31.136  34.596  1.00  0.00    -0.248 NA
ATOM     62  C   UNL A   1      41.630  31.864  36.722  1.00  0.00     0.031 C 
ATOM     63  C   UNL A   1      43.055  27.900  32.346  1.00  0.00     0.029 A 
ATOM     64  C   UNL A   1      42.431  28.904  33.069  1.00  0.00     0.049 A 
ATOM     65  H   UNL A   1      40.723  30.038  32.565  1.00  0.00     0.167 HD
ATOM     66  C   UNL A   1      42.121  30.426  35.004  1.00  0.00     0.074 A 
ATOM     67  C   UNL A   1      42.489  30.944  36.305  1.00  0.00     0.031 C 
ATOM     68  C   UNL A   1      42.787  29.435  34.361  1.00  0.00     0.037 A 
BRANCH  55  69
ATOM     69  C   UNL A   1      40.355  27.898  28.889  1.00  0.00     0.064 A 
ATOM     70  C   UNL A   1      41.081  28.240  27.736  1.00  0.00     0.173 A 
ATOM     71  C   UNL A   1      39.684  26.666  28.895  1.00  0.00     0.173 A 
ATOM     72  F   UNL A   1      41.732  29.411  27.670  1.00  0.00    -0.203 F 
ATOM     73  C   UNL A   1      41.104  27.400  26.625  1.00  0.00     0.198 A 
ATOM     74  C   UNL A   1      39.740  25.811  27.797  1.00  0.00     0.198 A 
ATOM     75  F   UNL A   1      38.978  26.285  29.971  1.00  0.00    -0.203 F 
ATOM     76  F   UNL A   1      41.754  27.776  25.516  1.00  0.00    -0.200 F 
ATOM     77  C   UNL A   1      40.441  26.183  26.660  1.00  0.00     0.200 A 
ATOM     78  F   UNL A   1      39.111  24.628  27.839  1.00  0.00    -0.200 F 
ATOM     79  F   UNL A   1      40.470  25.371  25.594  1.00  0.00    -0.200 F 
ENDBRANCH  55  69
BRANCH  56  80
ATOM     80  C   UNL A   1      39.509  33.880  36.855  1.00  0.00     0.064 A 
ATOM     81  C   UNL A   1      38.775  33.461  37.974  1.00  0.00     0.173 A 
ATOM     82  C   UNL A   1      40.102  35.150  36.907  1.00  0.00     0.173 A 
ATOM     83  F   UNL A   1      38.173  32.262  37.968  1.00  0.00    -0.203 F 
ATOM     84  C   UNL A   1      38.618  34.286  39.086  1.00  0.00     0.198 A 
ATOM     85  C   UNL A   1      39.972  35.962  38.032  1.00  0.00     0.198 A 
ATOM     86  F   UNL A   1      40.821  35.599  35.867  1.00  0.00    -0.203 F 
ATOM     87  F   UNL A   1      37.866  33.881  40.118  1.00  0.00    -0.200 F 
ATOM     88  C   UNL A   1      39.221  35.534  39.116  1.00  0.00     0.200 A 
ATOM     89  F   UNL A   1      40.572  37.160  38.064  1.00  0.00    -0.200 F 
ATOM     90  F   UNL A   1      39.072  36.328  40.185  1.00  0.00    -0.200 F 
ENDBRANCH  56  80
BRANCH  68  91
ATOM     91  C   UNL A   1      44.007  28.875  35.035  1.00  0.00     0.064 A 
ATOM     92  C   UNL A   1      45.278  29.442  34.859  1.00  0.00     0.173 A 
ATOM     93  C   UNL A   1      43.895  27.772  35.897  1.00  0.00     0.173 A 
ATOM     94  F   UNL A   1      45.442  30.490  34.037  1.00  0.00    -0.203 F 
ATOM     95  C   UNL A   1      46.396  28.903  35.490  1.00  0.00     0.198 A 
ATOM     96  C   UNL A   1      45.009  27.260  36.556  1.00  0.00     0.198 A 
ATOM     97  F   UNL A   1      42.701  27.197  36.109  1.00  0.00    -0.203 F 
ATOM     98  F   UNL A   1      47.609  29.423  35.258  1.00  0.00    -0.200 F 
ATOM     99  C   UNL A   1      46.259  27.818  36.344  1.00  0.00     0.200 A 
ATOM    100  F   UNL A   1      44.871  26.224  37.394  1.00  0.00    -0.200 F 
ATOM    101  F   UNL A   1      47.336  27.305  36.954  1.00  0.00    -0.200 F 
ENDBRANCH  68  91
ENDBRANCH  42  43
ENDBRANCH  34  37
ENDBRANCH  32  33
ENDBRANCH  31  32
ENDBRANCH   1  31
TORSDOF 13
ENDMDL
