MODEL 1
REMARK VINA RESULT:     -11.8      0.000      0.000
REMARK SMILES O=C(CCS(=O)(=O)Nc1c(Cl)cc(Br)cc1Cl)NCCCNC(=O)c1ccc(-c2c3nc(c(-c4c(F)c(F)c(F)c(F)c4F)c4ccc([nH]4)c(-c4c(F)c(F)c(F)c(F)c4F)c4nc(c(-c5c(F)c(F)c(F)c(F)c5F)c5ccc2[nH]5)C=C4)C=C3)cc1
REMARK SMILES IDX 19 1 18 2 1 3 2 4 3 6 4 7 5 8 6 9 7 10 8 11 9 13 10 14 16 15
REMARK SMILES IDX 11 16 12 17 15 18 17 19 13 20 14 21 20 22 21 23 22 24 23 25
REMARK SMILES IDX 24 27 25 28 26 29 87 30 27 31 86 32 28 33 29 34 30 35 80 36
REMARK SMILES IDX 31 37 85 38 79 39 81 40 32 41 84 42 78 43 77 44 33 46 65 47
REMARK SMILES IDX 45 48 64 49 46 50 49 51 63 52 82 53 47 54 48 55 62 57 83 58
REMARK SMILES IDX 50 59 34 60 35 61 43 62 36 63 37 64 41 65 44 66 38 67 39 68
REMARK SMILES IDX 42 69 40 70 66 71 67 72 75 73 68 74 69 75 73 76 76 77 70 78
REMARK SMILES IDX 71 79 74 80 72 81 51 82 52 83 60 84 53 85 54 86 58 87 61 88
REMARK SMILES IDX 55 89 56 90 59 91 57 92
REMARK H PARENT 18 5 8 12 22 26 81 45 49 56
REMARK Flexibility Score: inf
ROOT
ATOM      1  C   UNL A   1      32.014  30.142  27.171  1.00  0.00     0.117 C 
ENDROOT
BRANCH   1   2
ATOM      2  N   UNL A   1      32.068  29.093  26.171  1.00  0.00    -0.356 N 
ATOM      3  O   UNL A   1      31.595  27.359  27.587  1.00  0.00    -0.275 OA
ATOM      4  C   UNL A   1      31.599  27.833  26.456  1.00  0.00     0.221 C 
ATOM      5  H   UNL A   1      32.444  29.284  25.281  1.00  0.00     0.163 HD
BRANCH   4   6
ATOM      6  C   UNL A   1      31.044  27.078  25.268  1.00  0.00     0.118 C 
BRANCH   6   7
ATOM      7  C   UNL A   1      30.079  25.942  25.603  1.00  0.00     0.170 C 
BRANCH   7   8
ATOM      8  S   UNL A   1      30.791  24.338  25.927  1.00  0.00     0.233 S 
ATOM      9  O   UNL A   1      30.171  23.862  27.150  1.00  0.00    -0.207 OA
ATOM     10  O   UNL A   1      30.751  23.539  24.723  1.00  0.00    -0.207 OA
BRANCH   8  11
ATOM     11  N   UNL A   1      32.379  24.531  26.361  1.00  0.00    -0.281 N 
ATOM     12  H   UNL A   1      32.572  25.241  27.015  1.00  0.00     0.180 HD
BRANCH  11  13
ATOM     13  C   UNL A   1      33.510  23.767  25.886  1.00  0.00     0.086 A 
ATOM     14  C   UNL A   1      33.975  22.711  26.699  1.00  0.00     0.067 A 
ATOM     15  C   UNL A   1      34.334  24.176  24.821  1.00  0.00     0.067 A 
ATOM     16  Cl  UNL A   1      33.076  22.205  28.091  1.00  0.00    -0.082 Cl
ATOM     17  C   UNL A   1      35.221  22.114  26.485  1.00  0.00     0.038 A 
ATOM     18  C   UNL A   1      35.581  23.577  24.608  1.00  0.00     0.038 A 
ATOM     19  Cl  UNL A   1      34.019  25.521  23.803  1.00  0.00    -0.082 Cl
ATOM     20  C   UNL A   1      36.025  22.564  25.446  1.00  0.00     0.021 A 
ATOM     21  Br  UNL A   1      37.758  21.853  25.204  1.00  0.00    -0.051 Br
ENDBRANCH  11  13
ENDBRANCH   8  11
ENDBRANCH   7   8
ENDBRANCH   6   7
ENDBRANCH   4   6
ENDBRANCH   1   2
BRANCH   1  22
ATOM     22  C   UNL A   1      31.957  31.548  26.640  1.00  0.00     0.042 C 
BRANCH  22  23
ATOM     23  C   UNL A   1      32.975  32.473  27.276  1.00  0.00     0.118 C 
BRANCH  23  24
ATOM     24  N   UNL A   1      32.508  33.832  27.564  1.00  0.00    -0.352 N 
ATOM     25  C   UNL A   1      33.004  34.738  28.482  1.00  0.00     0.251 C 
ATOM     26  H   UNL A   1      31.739  34.141  27.033  1.00  0.00     0.163 HD
ATOM     27  O   UNL A   1      32.475  35.833  28.638  1.00  0.00    -0.269 OA
BRANCH  25  28
ATOM     28  C   UNL A   1      34.151  34.333  29.317  1.00  0.00     0.039 A 
ATOM     29  C   UNL A   1      33.932  33.560  30.458  1.00  0.00     0.014 A 
ATOM     30  C   UNL A   1      35.446  34.583  28.866  1.00  0.00     0.014 A 
ATOM     31  C   UNL A   1      35.017  32.930  31.069  1.00  0.00     0.010 A 
ATOM     32  C   UNL A   1      36.489  33.827  29.368  1.00  0.00     0.010 A 
ATOM     33  C   UNL A   1      36.292  33.004  30.487  1.00  0.00    -0.014 A 
BRANCH  33  34
ATOM     34  C   UNL A   1      37.457  32.276  31.046  1.00  0.00     0.031 A 
ATOM     35  C   UNL A   1      37.959  32.646  32.415  1.00  0.00     0.074 A 
ATOM     36  C   UNL A   1      38.098  31.349  30.308  1.00  0.00     0.049 A 
ATOM     37  N   UNL A   1      39.011  32.209  33.058  1.00  0.00    -0.248 NA
ATOM     38  C   UNL A   1      37.204  33.681  33.144  1.00  0.00     0.031 C 
ATOM     39  C   UNL A   1      37.742  30.950  28.944  1.00  0.00     0.029 A 
ATOM     40  N   UNL A   1      39.188  30.568  30.603  1.00  0.00    -0.354 N 
ATOM     41  C   UNL A   1      39.043  32.926  34.246  1.00  0.00     0.074 A 
ATOM     42  C   UNL A   1      37.973  33.891  34.199  1.00  0.00     0.031 C 
ATOM     43  C   UNL A   1      38.562  29.965  28.543  1.00  0.00     0.029 A 
ATOM     44  C   UNL A   1      39.530  29.693  29.601  1.00  0.00     0.049 A 
ATOM     45  H   UNL A   1      39.680  30.631  31.454  1.00  0.00     0.167 HD
ATOM     46  C   UNL A   1      39.862  32.758  35.309  1.00  0.00     0.037 A 
ATOM     47  C   UNL A   1      40.512  28.771  29.549  1.00  0.00     0.037 A 
ATOM     48  C   UNL A   1      40.893  31.762  35.369  1.00  0.00     0.049 A 
ATOM     49  C   UNL A   1      41.420  28.612  30.740  1.00  0.00     0.074 A 
ATOM     50  C   UNL A   1      41.745  31.469  36.417  1.00  0.00     0.029 A 
ATOM     51  N   UNL A   1      41.205  30.890  34.336  1.00  0.00    -0.354 N 
ATOM     52  N   UNL A   1      41.401  29.250  31.885  1.00  0.00    -0.248 NA
ATOM     53  C   UNL A   1      42.483  27.603  30.634  1.00  0.00     0.031 C 
ATOM     54  C   UNL A   1      42.605  30.449  36.002  1.00  0.00     0.029 A 
ATOM     55  C   UNL A   1      42.253  30.070  34.715  1.00  0.00     0.049 A 
ATOM     56  H   UNL A   1      40.748  30.859  33.464  1.00  0.00     0.167 HD
ATOM     57  C   UNL A   1      42.430  28.709  32.644  1.00  0.00     0.074 A 
ATOM     58  C   UNL A   1      43.041  27.673  31.835  1.00  0.00     0.031 C 
ATOM     59  C   UNL A   1      42.837  29.041  33.893  1.00  0.00     0.037 A 
BRANCH  46  60
ATOM     60  C   UNL A   1      39.646  33.645  36.500  1.00  0.00     0.064 A 
ATOM     61  C   UNL A   1      40.247  34.911  36.587  1.00  0.00     0.173 A 
ATOM     62  C   UNL A   1      38.800  33.247  37.544  1.00  0.00     0.173 A 
ATOM     63  F   UNL A   1      41.082  35.331  35.624  1.00  0.00    -0.203 F 
ATOM     64  C   UNL A   1      40.028  35.735  37.687  1.00  0.00     0.198 A 
ATOM     65  C   UNL A   1      38.555  34.088  38.626  1.00  0.00     0.198 A 
ATOM     66  F   UNL A   1      38.203  32.046  37.511  1.00  0.00    -0.203 F 
ATOM     67  F   UNL A   1      40.652  36.918  37.772  1.00  0.00    -0.200 F 
ATOM     68  C   UNL A   1      39.173  35.327  38.700  1.00  0.00     0.200 A 
ATOM     69  F   UNL A   1      37.720  33.699  39.599  1.00  0.00    -0.200 F 
ATOM     70  F   UNL A   1      38.950  36.128  39.751  1.00  0.00    -0.200 F 
ENDBRANCH  46  60
BRANCH  47  71
ATOM     71  C   UNL A   1      40.652  27.898  28.353  1.00  0.00     0.064 A 
ATOM     72  C   UNL A   1      39.989  26.664  28.286  1.00  0.00     0.173 A 
ATOM     73  C   UNL A   1      41.429  28.277  27.249  1.00  0.00     0.173 A 
ATOM     74  F   UNL A   1      39.249  26.245  29.323  1.00  0.00    -0.203 F 
ATOM     75  C   UNL A   1      40.107  25.840  27.167  1.00  0.00     0.198 A 
ATOM     76  C   UNL A   1      41.523  27.467  26.119  1.00  0.00     0.198 A 
ATOM     77  F   UNL A   1      42.081  29.449  27.258  1.00  0.00    -0.203 F 
ATOM     78  F   UNL A   1      39.490  24.650  27.146  1.00  0.00    -0.200 F 
ATOM     79  C   UNL A   1      40.867  26.246  26.082  1.00  0.00     0.200 A 
ATOM     80  F   UNL A   1      42.246  27.870  25.065  1.00  0.00    -0.200 F 
ATOM     81  F   UNL A   1      40.969  25.460  25.002  1.00  0.00    -0.200 F 
ENDBRANCH  47  71
BRANCH  59  82
ATOM     82  C   UNL A   1      43.985  28.274  34.479  1.00  0.00     0.064 A 
ATOM     83  C   UNL A   1      45.300  28.753  34.398  1.00  0.00     0.173 A 
ATOM     84  C   UNL A   1      43.755  27.096  35.208  1.00  0.00     0.173 A 
ATOM     85  F   UNL A   1      45.571  29.869  33.704  1.00  0.00    -0.203 F 
ATOM     86  C   UNL A   1      46.346  28.075  35.017  1.00  0.00     0.198 A 
ATOM     87  C   UNL A   1      44.798  26.440  35.854  1.00  0.00     0.198 A 
ATOM     88  F   UNL A   1      42.514  26.604  35.324  1.00  0.00    -0.203 F 
ATOM     89  F   UNL A   1      47.600  28.532  34.900  1.00  0.00    -0.200 F 
ATOM     90  C   UNL A   1      46.093  26.927  35.754  1.00  0.00     0.200 A 
ATOM     91  F   UNL A   1      44.549  25.343  36.583  1.00  0.00    -0.200 F 
ATOM     92  F   UNL A   1      47.098  26.289  36.369  1.00  0.00    -0.200 F 
ENDBRANCH  59  82
ENDBRANCH  33  34
ENDBRANCH  25  28
ENDBRANCH  23  24
ENDBRANCH  22  23
ENDBRANCH   1  22
TORSDOF 14
ENDMDL
MODEL 2
REMARK VINA RESULT:     -11.8      1.618      7.790
REMARK SMILES O=C(CCS(=O)(=O)Nc1c(Cl)cc(Br)cc1Cl)NCCCNC(=O)c1ccc(-c2c3nc(c(-c4c(F)c(F)c(F)c(F)c4F)c4ccc([nH]4)c(-c4c(F)c(F)c(F)c(F)c4F)c4nc(c(-c5c(F)c(F)c(F)c(F)c5F)c5ccc2[nH]5)C=C4)C=C3)cc1
REMARK SMILES IDX 19 1 18 2 1 3 2 4 3 6 4 7 5 8 6 9 7 10 8 11 9 13 10 14 16 15
REMARK SMILES IDX 11 16 12 17 15 18 17 19 13 20 14 21 20 22 21 23 22 24 23 25
REMARK SMILES IDX 24 27 25 28 26 29 87 30 27 31 86 32 28 33 29 34 30 35 80 36
REMARK SMILES IDX 31 37 85 38 79 39 81 40 32 41 84 42 78 43 77 44 33 46 65 47
REMARK SMILES IDX 45 48 64 49 46 50 49 51 63 52 82 53 47 54 48 55 62 57 83 58
REMARK SMILES IDX 50 59 34 60 35 61 43 62 36 63 37 64 41 65 44 66 38 67 39 68
REMARK SMILES IDX 42 69 40 70 66 71 67 72 75 73 68 74 69 75 73 76 76 77 70 78
REMARK SMILES IDX 71 79 74 80 72 81 51 82 52 83 60 84 53 85 54 86 58 87 61 88
REMARK SMILES IDX 55 89 56 90 59 91 57 92
REMARK H PARENT 18 5 8 12 22 26 81 45 49 56
REMARK Flexibility Score: inf
ROOT
ATOM      1  C   UNL A   1      31.454  29.351  24.205  1.00  0.00     0.117 C 
ENDROOT
BRANCH   1   2
ATOM      2  N   UNL A   1      30.650  28.161  24.407  1.00  0.00    -0.356 N 
ATOM      3  O   UNL A   1      30.191  27.780  22.198  1.00  0.00    -0.275 OA
ATOM      4  C   UNL A   1      30.313  27.359  23.344  1.00  0.00     0.221 C 
ATOM      5  H   UNL A   1      30.344  27.926  25.313  1.00  0.00     0.163 HD
BRANCH   4   6
ATOM      6  C   UNL A   1      30.141  25.894  23.683  1.00  0.00     0.118 C 
BRANCH   6   7
ATOM      7  C   UNL A   1      29.914  25.583  25.161  1.00  0.00     0.170 C 
BRANCH   7   8
ATOM      8  S   UNL A   1      30.865  24.249  25.867  1.00  0.00     0.233 S 
ATOM      9  O   UNL A   1      30.227  23.922  27.129  1.00  0.00    -0.207 OA
ATOM     10  O   UNL A   1      31.082  23.227  24.867  1.00  0.00    -0.207 OA
BRANCH   8  11
ATOM     11  N   UNL A   1      32.345  24.830  26.334  1.00  0.00    -0.281 N 
ATOM     12  H   UNL A   1      32.351  25.705  26.785  1.00  0.00     0.180 HD
BRANCH  11  13
ATOM     13  C   UNL A   1      33.629  24.190  26.154  1.00  0.00     0.086 A 
ATOM     14  C   UNL A   1      34.406  24.584  25.045  1.00  0.00     0.067 A 
ATOM     15  C   UNL A   1      34.022  23.026  26.840  1.00  0.00     0.067 A 
ATOM     16  Cl  UNL A   1      33.943  25.947  24.079  1.00  0.00    -0.082 Cl
ATOM     17  C   UNL A   1      35.505  23.834  24.614  1.00  0.00     0.038 A 
ATOM     18  C   UNL A   1      35.122  22.275  26.409  1.00  0.00     0.038 A 
ATOM     19  Cl  UNL A   1      33.141  22.305  28.124  1.00  0.00    -0.082 Cl
ATOM     20  C   UNL A   1      35.847  22.671  25.293  1.00  0.00     0.021 A 
ATOM     21  Br  UNL A   1      37.254  21.580  24.666  1.00  0.00    -0.051 Br
ENDBRANCH  11  13
ENDBRANCH   8  11
ENDBRANCH   7   8
ENDBRANCH   6   7
ENDBRANCH   4   6
ENDBRANCH   1   2
BRANCH   1  22
ATOM     22  C   UNL A   1      32.825  29.327  24.823  1.00  0.00     0.042 C 
BRANCH  22  23
ATOM     23  C   UNL A   1      32.822  29.632  26.307  1.00  0.00     0.118 C 
BRANCH  23  24
ATOM     24  N   UNL A   1      32.550  31.025  26.671  1.00  0.00    -0.352 N 
ATOM     25  C   UNL A   1      33.365  31.917  27.341  1.00  0.00     0.251 C 
ATOM     26  H   UNL A   1      31.669  31.373  26.401  1.00  0.00     0.163 HD
ATOM     27  O   UNL A   1      32.977  33.047  27.612  1.00  0.00    -0.269 OA
BRANCH  25  28
ATOM     28  C   UNL A   1      34.696  31.455  27.782  1.00  0.00     0.039 A 
ATOM     29  C   UNL A   1      35.724  32.383  27.956  1.00  0.00     0.014 A 
ATOM     30  C   UNL A   1      34.861  30.129  28.179  1.00  0.00     0.014 A 
ATOM     31  C   UNL A   1      36.872  32.002  28.651  1.00  0.00     0.010 A 
ATOM     32  C   UNL A   1      35.919  29.804  29.009  1.00  0.00     0.010 A 
ATOM     33  C   UNL A   1      36.946  30.730  29.241  1.00  0.00    -0.014 A 
BRANCH  33  34
ATOM     34  C   UNL A   1      38.104  30.312  30.067  1.00  0.00     0.031 A 
ATOM     35  C   UNL A   1      39.115  29.364  29.481  1.00  0.00     0.074 A 
ATOM     36  C   UNL A   1      38.210  30.719  31.348  1.00  0.00     0.049 A 
ATOM     37  N   UNL A   1      40.147  28.798  30.049  1.00  0.00    -0.248 NA
ATOM     38  C   UNL A   1      38.912  28.960  28.078  1.00  0.00     0.031 C 
ATOM     39  C   UNL A   1      37.259  31.588  32.045  1.00  0.00     0.029 A 
ATOM     40  N   UNL A   1      39.169  30.456  32.294  1.00  0.00    -0.354 N 
ATOM     41  C   UNL A   1      40.695  27.969  29.080  1.00  0.00     0.074 A 
ATOM     42  C   UNL A   1      39.835  28.026  27.924  1.00  0.00     0.031 C 
ATOM     43  C   UNL A   1      37.710  31.829  33.287  1.00  0.00     0.029 A 
ATOM     44  C   UNL A   1      38.956  31.096  33.491  1.00  0.00     0.049 A 
ATOM     45  H   UNL A   1      39.938  29.863  32.130  1.00  0.00     0.167 HD
ATOM     46  C   UNL A   1      41.848  27.263  29.129  1.00  0.00     0.037 A 
ATOM     47  C   UNL A   1      39.690  31.094  34.620  1.00  0.00     0.037 A 
ATOM     48  C   UNL A   1      42.725  27.250  30.265  1.00  0.00     0.049 A 
ATOM     49  C   UNL A   1      40.963  30.289  34.657  1.00  0.00     0.074 A 
ATOM     50  C   UNL A   1      43.943  26.613  30.402  1.00  0.00     0.029 A 
ATOM     51  N   UNL A   1      42.478  27.916  31.456  1.00  0.00    -0.354 N 
ATOM     52  N   UNL A   1      41.507  29.560  33.712  1.00  0.00    -0.248 NA
ATOM     53  C   UNL A   1      41.725  30.307  35.912  1.00  0.00     0.031 C 
ATOM     54  C   UNL A   1      44.413  26.855  31.696  1.00  0.00     0.029 A 
ATOM     55  C   UNL A   1      43.513  27.687  32.344  1.00  0.00     0.049 A 
ATOM     56  H   UNL A   1      41.684  28.469  31.642  1.00  0.00     0.167 HD
ATOM     57  C   UNL A   1      42.682  29.053  34.247  1.00  0.00     0.074 A 
ATOM     58  C   UNL A   1      42.783  29.573  35.596  1.00  0.00     0.031 C 
ATOM     59  C   UNL A   1      43.593  28.225  33.679  1.00  0.00     0.037 A 
BRANCH  46  60
ATOM     60  C   UNL A   1      42.237  26.481  27.908  1.00  0.00     0.064 A 
ATOM     61  C   UNL A   1      43.100  27.018  26.941  1.00  0.00     0.173 A 
ATOM     62  C   UNL A   1      41.776  25.170  27.722  1.00  0.00     0.173 A 
ATOM     63  F   UNL A   1      43.554  28.275  27.061  1.00  0.00    -0.203 F 
ATOM     64  C   UNL A   1      43.470  26.279  25.821  1.00  0.00     0.198 A 
ATOM     65  C   UNL A   1      42.175  24.422  26.618  1.00  0.00     0.198 A 
ATOM     66  F   UNL A   1      40.946  24.611  28.616  1.00  0.00    -0.203 F 
ATOM     67  F   UNL A   1      44.257  26.831  24.886  1.00  0.00    -0.200 F 
ATOM     68  C   UNL A   1      43.016  24.978  25.666  1.00  0.00     0.200 A 
ATOM     69  F   UNL A   1      41.746  23.161  26.476  1.00  0.00    -0.200 F 
ATOM     70  F   UNL A   1      43.386  24.262  24.596  1.00  0.00    -0.200 F 
ENDBRANCH  46  60
BRANCH  47  71
ATOM     71  C   UNL A   1      39.268  31.918  35.785  1.00  0.00     0.064 A 
ATOM     72  C   UNL A   1      39.758  33.222  35.955  1.00  0.00     0.173 A 
ATOM     73  C   UNL A   1      38.360  31.437  36.740  1.00  0.00     0.173 A 
ATOM     74  F   UNL A   1      40.644  33.722  35.082  1.00  0.00    -0.203 F 
ATOM     75  C   UNL A   1      39.365  34.006  37.039  1.00  0.00     0.198 A 
ATOM     76  C   UNL A   1      37.946  32.232  37.807  1.00  0.00     0.198 A 
ATOM     77  F   UNL A   1      37.858  30.199  36.624  1.00  0.00    -0.203 F 
ATOM     78  F   UNL A   1      39.877  35.235  37.195  1.00  0.00    -0.200 F 
ATOM     79  C   UNL A   1      38.453  33.513  37.959  1.00  0.00     0.200 A 
ATOM     80  F   UNL A   1      37.052  31.758  38.685  1.00  0.00    -0.200 F 
ATOM     81  F   UNL A   1      38.065  34.272  38.993  1.00  0.00    -0.200 F 
ENDBRANCH  47  71
BRANCH  59  82
ATOM     82  C   UNL A   1      44.789  27.839  34.497  1.00  0.00     0.064 A 
ATOM     83  C   UNL A   1      44.788  26.685  35.293  1.00  0.00     0.173 A 
ATOM     84  C   UNL A   1      45.979  28.579  34.410  1.00  0.00     0.173 A 
ATOM     85  F   UNL A   1      43.671  25.951  35.415  1.00  0.00    -0.203 F 
ATOM     86  C   UNL A   1      45.931  26.291  35.982  1.00  0.00     0.198 A 
ATOM     87  C   UNL A   1      47.129  28.164  35.073  1.00  0.00     0.198 A 
ATOM     88  F   UNL A   1      46.035  29.684  33.652  1.00  0.00    -0.203 F 
ATOM     89  F   UNL A   1      45.898  25.204  36.762  1.00  0.00    -0.200 F 
ATOM     90  C   UNL A   1      47.104  27.024  35.861  1.00  0.00     0.200 A 
ATOM     91  F   UNL A   1      48.267  28.861  34.939  1.00  0.00    -0.200 F 
ATOM     92  F   UNL A   1      48.210  26.630  36.507  1.00  0.00    -0.200 F 
ENDBRANCH  59  82
ENDBRANCH  33  34
ENDBRANCH  25  28
ENDBRANCH  23  24
ENDBRANCH  22  23
ENDBRANCH   1  22
TORSDOF 14
ENDMDL
MODEL 3
REMARK VINA RESULT:     -11.7      1.507      2.364
REMARK SMILES O=C(CCS(=O)(=O)Nc1c(Cl)cc(Br)cc1Cl)NCCCNC(=O)c1ccc(-c2c3nc(c(-c4c(F)c(F)c(F)c(F)c4F)c4ccc([nH]4)c(-c4c(F)c(F)c(F)c(F)c4F)c4nc(c(-c5c(F)c(F)c(F)c(F)c5F)c5ccc2[nH]5)C=C4)C=C3)cc1
REMARK SMILES IDX 19 1 18 2 1 3 2 4 3 6 4 7 5 8 6 9 7 10 8 11 9 13 10 14 16 15
REMARK SMILES IDX 11 16 12 17 15 18 17 19 13 20 14 21 20 22 21 23 22 24 23 25
REMARK SMILES IDX 24 27 25 28 26 29 87 30 27 31 86 32 28 33 29 34 30 35 80 36
REMARK SMILES IDX 31 37 85 38 79 39 81 40 32 41 84 42 78 43 77 44 33 46 65 47
REMARK SMILES IDX 45 48 64 49 46 50 49 51 63 52 82 53 47 54 48 55 62 57 83 58
REMARK SMILES IDX 50 59 34 60 35 61 43 62 36 63 37 64 41 65 44 66 38 67 39 68
REMARK SMILES IDX 42 69 40 70 66 71 67 72 75 73 68 74 69 75 73 76 76 77 70 78
REMARK SMILES IDX 71 79 74 80 72 81 51 82 52 83 60 84 53 85 54 86 58 87 61 88
REMARK SMILES IDX 55 89 56 90 59 91 57 92
REMARK H PARENT 18 5 8 12 22 26 81 45 49 56
REMARK Flexibility Score: inf
ROOT
ATOM      1  C   UNL A   1      32.337  30.355  26.803  1.00  0.00     0.117 C 
ENDROOT
BRANCH   1   2
ATOM      2  N   UNL A   1      33.070  29.930  25.626  1.00  0.00    -0.356 N 
ATOM      3  O   UNL A   1      31.906  27.992  25.279  1.00  0.00    -0.275 OA
ATOM      4  C   UNL A   1      32.599  28.905  24.843  1.00  0.00     0.221 C 
ATOM      5  H   UNL A   1      33.913  30.380  25.387  1.00  0.00     0.163 HD
BRANCH   4   6
ATOM      6  C   UNL A   1      32.964  29.005  23.377  1.00  0.00     0.118 C 
BRANCH   6   7
ATOM      7  C   UNL A   1      33.809  27.857  22.830  1.00  0.00     0.170 C 
BRANCH   7   8
ATOM      8  S   UNL A   1      32.951  26.360  22.375  1.00  0.00     0.233 S 
ATOM      9  O   UNL A   1      31.563  26.735  22.174  1.00  0.00    -0.207 OA
ATOM     10  O   UNL A   1      33.686  25.679  21.332  1.00  0.00    -0.207 OA
BRANCH   8  11
ATOM     11  N   UNL A   1      32.882  25.355  23.691  1.00  0.00    -0.281 N 
ATOM     12  H   UNL A   1      32.677  25.779  24.556  1.00  0.00     0.180 HD
BRANCH  11  13
ATOM     13  C   UNL A   1      33.088  23.925  23.707  1.00  0.00     0.086 A 
ATOM     14  C   UNL A   1      31.952  23.099  23.574  1.00  0.00     0.067 A 
ATOM     15  C   UNL A   1      34.288  23.315  24.116  1.00  0.00     0.067 A 
ATOM     16  Cl  UNL A   1      30.408  23.776  23.171  1.00  0.00    -0.082 Cl
ATOM     17  C   UNL A   1      31.998  21.733  23.872  1.00  0.00     0.038 A 
ATOM     18  C   UNL A   1      34.334  21.948  24.413  1.00  0.00     0.038 A 
ATOM     19  Cl  UNL A   1      35.742  24.158  24.465  1.00  0.00    -0.082 Cl
ATOM     20  C   UNL A   1      33.190  21.169  24.306  1.00  0.00     0.021 A 
ATOM     21  Br  UNL A   1      33.253  19.354  24.822  1.00  0.00    -0.051 Br
ENDBRANCH  11  13
ENDBRANCH   8  11
ENDBRANCH   7   8
ENDBRANCH   6   7
ENDBRANCH   4   6
ENDBRANCH   1   2
BRANCH   1  22
ATOM     22  C   UNL A   1      31.906  31.796  26.821  1.00  0.00     0.042 C 
BRANCH  22  23
ATOM     23  C   UNL A   1      32.938  32.724  27.428  1.00  0.00     0.118 C 
BRANCH  23  24
ATOM     24  N   UNL A   1      32.472  34.079  27.740  1.00  0.00    -0.352 N 
ATOM     25  C   UNL A   1      32.987  34.981  28.650  1.00  0.00     0.251 C 
ATOM     26  H   UNL A   1      31.686  34.386  27.232  1.00  0.00     0.163 HD
ATOM     27  O   UNL A   1      32.456  36.071  28.829  1.00  0.00    -0.269 OA
BRANCH  25  28
ATOM     28  C   UNL A   1      34.160  34.577  29.449  1.00  0.00     0.039 A 
ATOM     29  C   UNL A   1      33.970  33.945  30.679  1.00  0.00     0.014 A 
ATOM     30  C   UNL A   1      35.434  34.678  28.892  1.00  0.00     0.014 A 
ATOM     31  C   UNL A   1      35.048  33.300  31.285  1.00  0.00     0.010 A 
ATOM     32  C   UNL A   1      36.454  33.899  29.406  1.00  0.00     0.010 A 
ATOM     33  C   UNL A   1      36.281  33.214  30.618  1.00  0.00    -0.014 A 
BRANCH  33  34
ATOM     34  C   UNL A   1      37.428  32.460  31.178  1.00  0.00     0.031 A 
ATOM     35  C   UNL A   1      37.941  32.822  32.545  1.00  0.00     0.074 A 
ATOM     36  C   UNL A   1      38.046  31.516  30.442  1.00  0.00     0.049 A 
ATOM     37  N   UNL A   1      38.983  32.362  33.187  1.00  0.00    -0.248 NA
ATOM     38  C   UNL A   1      37.212  33.877  33.272  1.00  0.00     0.031 C 
ATOM     39  C   UNL A   1      37.678  31.122  29.080  1.00  0.00     0.029 A 
ATOM     40  N   UNL A   1      39.117  30.710  30.738  1.00  0.00    -0.354 N 
ATOM     41  C   UNL A   1      39.034  33.081  34.373  1.00  0.00     0.074 A 
ATOM     42  C   UNL A   1      37.987  34.072  34.325  1.00  0.00     0.031 C 
ATOM     43  C   UNL A   1      38.474  30.116  28.680  1.00  0.00     0.029 A 
ATOM     44  C   UNL A   1      39.437  29.824  29.738  1.00  0.00     0.049 A 
ATOM     45  H   UNL A   1      39.612  30.763  31.588  1.00  0.00     0.167 HD
ATOM     46  C   UNL A   1      39.850  32.896  35.436  1.00  0.00     0.037 A 
ATOM     47  C   UNL A   1      40.395  28.878  29.687  1.00  0.00     0.037 A 
ATOM     48  C   UNL A   1      40.857  31.876  35.497  1.00  0.00     0.049 A 
ATOM     49  C   UNL A   1      41.302  28.701  30.877  1.00  0.00     0.074 A 
ATOM     50  C   UNL A   1      41.703  31.566  36.546  1.00  0.00     0.029 A 
ATOM     51  N   UNL A   1      41.146  30.995  34.467  1.00  0.00    -0.354 N 
ATOM     52  N   UNL A   1      41.300  29.343  32.021  1.00  0.00    -0.248 NA
ATOM     53  C   UNL A   1      42.339  27.666  30.773  1.00  0.00     0.031 C 
ATOM     54  C   UNL A   1      42.538  30.524  36.132  1.00  0.00     0.029 A 
ATOM     55  C   UNL A   1      42.175  30.151  34.847  1.00  0.00     0.049 A 
ATOM     56  H   UNL A   1      40.688  30.972  33.595  1.00  0.00     0.167 HD
ATOM     57  C   UNL A   1      42.316  28.779  32.779  1.00  0.00     0.074 A 
ATOM     58  C   UNL A   1      42.901  27.727  31.973  1.00  0.00     0.031 C 
ATOM     59  C   UNL A   1      42.733  29.105  34.027  1.00  0.00     0.037 A 
BRANCH  46  60
ATOM     60  C   UNL A   1      39.657  33.792  36.624  1.00  0.00     0.064 A 
ATOM     61  C   UNL A   1      40.250  35.063  36.686  1.00  0.00     0.173 A 
ATOM     62  C   UNL A   1      38.842  33.397  37.694  1.00  0.00     0.173 A 
ATOM     63  F   UNL A   1      41.056  35.482  35.698  1.00  0.00    -0.203 F 
ATOM     64  C   UNL A   1      40.052  35.895  37.784  1.00  0.00     0.198 A 
ATOM     65  C   UNL A   1      38.618  34.244  38.775  1.00  0.00     0.198 A 
ATOM     66  F   UNL A   1      38.254  32.191  37.686  1.00  0.00    -0.203 F 
ATOM     67  F   UNL A   1      40.668  37.084  37.842  1.00  0.00    -0.200 F 
ATOM     68  C   UNL A   1      39.227  35.489  38.822  1.00  0.00     0.200 A 
ATOM     69  F   UNL A   1      37.811  33.857  39.772  1.00  0.00    -0.200 F 
ATOM     70  F   UNL A   1      39.024  36.297  39.871  1.00  0.00    -0.200 F 
ENDBRANCH  46  60
BRANCH  47  71
ATOM     71  C   UNL A   1      40.513  27.999  28.493  1.00  0.00     0.064 A 
ATOM     72  C   UNL A   1      41.280  28.392  27.387  1.00  0.00     0.173 A 
ATOM     73  C   UNL A   1      39.882  26.747  28.433  1.00  0.00     0.173 A 
ATOM     74  F   UNL A   1      41.887  29.588  27.385  1.00  0.00    -0.203 F 
ATOM     75  C   UNL A   1      41.403  27.573  26.265  1.00  0.00     0.198 A 
ATOM     76  C   UNL A   1      40.029  25.917  27.323  1.00  0.00     0.198 A 
ATOM     77  F   UNL A   1      39.139  26.320  29.465  1.00  0.00    -0.203 F 
ATOM     78  F   UNL A   1      42.115  27.991  25.208  1.00  0.00    -0.200 F 
ATOM     79  C   UNL A   1      40.785  26.333  26.238  1.00  0.00     0.200 A 
ATOM     80  F   UNL A   1      39.443  24.713  27.307  1.00  0.00    -0.200 F 
ATOM     81  F   UNL A   1      40.914  25.542  25.165  1.00  0.00    -0.200 F 
ENDBRANCH  47  71
BRANCH  59  82
ATOM     82  C   UNL A   1      43.863  28.312  34.614  1.00  0.00     0.064 A 
ATOM     83  C   UNL A   1      43.636  27.104  35.287  1.00  0.00     0.173 A 
ATOM     84  C   UNL A   1      45.193  28.718  34.418  1.00  0.00     0.173 A 
ATOM     85  F   UNL A   1      42.382  26.679  35.507  1.00  0.00    -0.203 F 
ATOM     86  C   UNL A   1      44.698  26.336  35.753  1.00  0.00     0.198 A 
ATOM     87  C   UNL A   1      46.253  27.931  34.856  1.00  0.00     0.198 A 
ATOM     88  F   UNL A   1      45.463  29.861  33.770  1.00  0.00    -0.203 F 
ATOM     89  F   UNL A   1      44.458  25.200  36.422  1.00  0.00    -0.200 F 
ATOM     90  C   UNL A   1      46.005  26.744  35.527  1.00  0.00     0.200 A 
ATOM     91  F   UNL A   1      47.515  28.317  34.617  1.00  0.00    -0.200 F 
ATOM     92  F   UNL A   1      47.027  25.991  35.956  1.00  0.00    -0.200 F 
ENDBRANCH  59  82
ENDBRANCH  33  34
ENDBRANCH  25  28
ENDBRANCH  23  24
ENDBRANCH  22  23
ENDBRANCH   1  22
TORSDOF 14
ENDMDL
