MODEL 1
REMARK VINA RESULT:     -12.7      0.000      0.000
REMARK SMILES CCCC[C@H](C(=O)NCCCNC(=O)c1ccc(-c2c3nc(c(-c4c(F)c(F)c(F)c(F)c4F)c4ccc([nH]4)c(-c4c(F)c(F)c(F)c(F)c4F)c4nc(c(-c5c(F)c(F)c(F)c(F)c5F)c5ccc2[nH]5)C=C4)C=C3)cc1)N1C(=O)/C(=C/c2ccc(C)cc2)SC1=S
REMARK SMILES IDX 9 1 8 2 6 3 7 4 5 6 4 7 3 8 2 9 1 10 78 11 79 12 91 13 80 14
REMARK SMILES IDX 81 15 90 16 92 17 82 18 83 19 84 20 89 21 85 22 88 23 86 24
REMARK SMILES IDX 87 25 10 26 11 27 12 28 13 29 14 31 15 32 16 33 77 34 17 35
REMARK SMILES IDX 76 36 18 37 19 38 20 39 70 40 21 41 75 42 69 43 71 44 22 45
REMARK SMILES IDX 74 46 68 47 67 48 23 50 55 51 35 52 54 53 36 54 39 55 53 56
REMARK SMILES IDX 72 57 37 58 38 59 52 61 73 62 40 63 24 64 25 65 33 66 26 67
REMARK SMILES IDX 27 68 31 69 34 70 28 71 29 72 32 73 30 74 56 75 57 76 65 77
REMARK SMILES IDX 58 78 59 79 63 80 66 81 60 82 61 83 64 84 62 85 41 86 42 87
REMARK SMILES IDX 50 88 43 89 44 90 48 91 51 92 45 93 46 94 49 95 47 96
REMARK H PARENT 8 5 12 30 71 49 39 60
REMARK Flexibility Score: inf
ROOT
ATOM      1  C   UNL A   1      36.877  21.141  24.953  1.00  0.00     0.117 C 
ENDROOT
BRANCH   1   2
ATOM      2  N   UNL A   1      36.025  21.174  26.127  1.00  0.00    -0.354 N 
ATOM      3  C   UNL A   1      34.695  21.467  26.227  1.00  0.00     0.243 C 
ATOM      4  O   UNL A   1      34.177  21.327  27.339  1.00  0.00    -0.273 OA
ATOM      5  H   UNL A   1      36.471  20.953  26.975  1.00  0.00     0.163 HD
BRANCH   3   6
ATOM      6  C   UNL A   1      33.888  21.963  24.996  1.00  0.00     0.181 C 
BRANCH   6   7
ATOM      7  C   UNL A   1      32.986  20.896  24.337  1.00  0.00     0.036 C 
BRANCH   7   8
ATOM      8  C   UNL A   1      32.924  19.433  24.837  1.00  0.00     0.002 C 
BRANCH   8   9
ATOM      9  C   UNL A   1      33.339  18.286  23.910  1.00  0.00    -0.003 C 
ATOM     10  C   UNL A   1      34.709  17.716  24.252  1.00  0.00     0.004 C 
ENDBRANCH   8   9
ENDBRANCH   7   8
ENDBRANCH   6   7
BRANCH   6  11
ATOM     11  N   UNL A   1      33.281  23.290  25.338  1.00  0.00    -0.280 N 
ATOM     12  C   UNL A   1      34.061  24.414  25.039  1.00  0.00     0.266 C 
ATOM     13  C   UNL A   1      32.074  23.582  25.942  1.00  0.00     0.149 C 
ATOM     14  O   UNL A   1      35.098  24.414  24.385  1.00  0.00    -0.268 OA
ATOM     15  C   UNL A   1      33.429  25.659  25.560  1.00  0.00     0.081 C 
ATOM     16  S   UNL A   1      32.058  25.243  26.500  1.00  0.00    -0.054 SA
ATOM     17  S   UNL A   1      30.667  22.707  26.098  1.00  0.00    -0.052 S 
ATOM     18  C   UNL A   1      33.828  26.906  25.263  1.00  0.00     0.029 C 
BRANCH  18  19
ATOM     19  C   UNL A   1      33.085  28.100  25.700  1.00  0.00    -0.024 A 
ATOM     20  C   UNL A   1      33.489  28.779  26.855  1.00  0.00     0.008 A 
ATOM     21  C   UNL A   1      32.064  28.646  24.912  1.00  0.00     0.008 A 
ATOM     22  C   UNL A   1      32.921  30.016  27.181  1.00  0.00     0.004 A 
ATOM     23  C   UNL A   1      31.506  29.887  25.233  1.00  0.00     0.004 A 
ATOM     24  C   UNL A   1      31.949  30.593  26.355  1.00  0.00    -0.051 A 
ATOM     25  C   UNL A   1      31.403  31.954  26.673  1.00  0.00     0.044 C 
ENDBRANCH  18  19
ENDBRANCH   6  11
ENDBRANCH   3   6
ENDBRANCH   1   2
BRANCH   1  26
ATOM     26  C   UNL A   1      37.915  20.034  24.983  1.00  0.00     0.042 C 
BRANCH  26  27
ATOM     27  C   UNL A   1      39.185  20.370  25.752  1.00  0.00     0.118 C 
BRANCH  27  28
ATOM     28  N   UNL A   1      40.120  19.258  25.876  1.00  0.00    -0.352 N 
ATOM     29  C   UNL A   1      41.473  19.256  26.135  1.00  0.00     0.251 C 
ATOM     30  H   UNL A   1      39.721  18.366  25.755  1.00  0.00     0.163 HD
ATOM     31  O   UNL A   1      42.103  18.203  26.096  1.00  0.00    -0.269 OA
BRANCH  29  32
ATOM     32  C   UNL A   1      42.180  20.525  26.414  1.00  0.00     0.039 A 
ATOM     33  C   UNL A   1      42.722  21.250  25.349  1.00  0.00     0.014 A 
ATOM     34  C   UNL A   1      42.282  21.019  27.714  1.00  0.00     0.014 A 
ATOM     35  C   UNL A   1      43.265  22.518  25.579  1.00  0.00     0.010 A 
ATOM     36  C   UNL A   1      42.713  22.322  27.925  1.00  0.00     0.010 A 
ATOM     37  C   UNL A   1      43.211  23.089  26.861  1.00  0.00    -0.014 A 
BRANCH  37  38
ATOM     38  C   UNL A   1      43.668  24.479  27.122  1.00  0.00     0.031 A 
ATOM     39  C   UNL A   1      42.694  25.510  27.621  1.00  0.00     0.074 A 
ATOM     40  C   UNL A   1      44.934  24.837  26.827  1.00  0.00     0.049 A 
ATOM     41  N   UNL A   1      42.866  26.795  27.809  1.00  0.00    -0.248 NA
ATOM     42  C   UNL A   1      41.330  25.040  27.913  1.00  0.00     0.031 C 
ATOM     43  C   UNL A   1      45.964  23.947  26.288  1.00  0.00     0.029 A 
ATOM     44  N   UNL A   1      45.567  26.050  26.930  1.00  0.00    -0.354 N 
ATOM     45  C   UNL A   1      41.631  27.284  28.214  1.00  0.00     0.074 A 
ATOM     46  C   UNL A   1      40.703  26.175  28.177  1.00  0.00     0.031 C 
ATOM     47  C   UNL A   1      47.109  24.633  26.147  1.00  0.00     0.029 A 
ATOM     48  C   UNL A   1      46.884  26.020  26.542  1.00  0.00     0.049 A 
ATOM     49  H   UNL A   1      45.119  26.866  27.253  1.00  0.00     0.167 HD
ATOM     50  C   UNL A   1      41.305  28.536  28.616  1.00  0.00     0.037 A 
ATOM     51  C   UNL A   1      47.806  27.001  26.508  1.00  0.00     0.037 A 
ATOM     52  C   UNL A   1      42.236  29.631  28.680  1.00  0.00     0.049 A 
ATOM     53  C   UNL A   1      47.418  28.389  26.943  1.00  0.00     0.074 A 
ATOM     54  C   UNL A   1      42.021  30.924  29.121  1.00  0.00     0.029 A 
ATOM     55  N   UNL A   1      43.565  29.557  28.289  1.00  0.00    -0.354 N 
ATOM     56  N   UNL A   1      46.264  28.826  27.384  1.00  0.00    -0.248 NA
ATOM     57  C   UNL A   1      48.464  29.417  26.877  1.00  0.00     0.031 C 
ATOM     58  C   UNL A   1      43.210  31.644  28.957  1.00  0.00     0.029 A 
ATOM     59  C   UNL A   1      44.179  30.787  28.462  1.00  0.00     0.049 A 
ATOM     60  H   UNL A   1      44.007  28.750  27.939  1.00  0.00     0.167 HD
ATOM     61  C   UNL A   1      46.453  30.169  27.682  1.00  0.00     0.074 A 
ATOM     62  C   UNL A   1      47.837  30.471  27.379  1.00  0.00     0.031 C 
ATOM     63  C   UNL A   1      45.562  31.068  28.166  1.00  0.00     0.037 A 
BRANCH  50  64
ATOM     64  C   UNL A   1      39.877  28.775  29.021  1.00  0.00     0.064 A 
ATOM     65  C   UNL A   1      39.448  28.598  30.347  1.00  0.00     0.173 A 
ATOM     66  C   UNL A   1      38.924  29.180  28.075  1.00  0.00     0.173 A 
ATOM     67  F   UNL A   1      40.316  28.200  31.290  1.00  0.00    -0.203 F 
ATOM     68  C   UNL A   1      38.112  28.768  30.699  1.00  0.00     0.198 A 
ATOM     69  C   UNL A   1      37.594  29.385  28.438  1.00  0.00     0.198 A 
ATOM     70  F   UNL A   1      39.278  29.372  26.796  1.00  0.00    -0.203 F 
ATOM     71  F   UNL A   1      37.715  28.519  31.954  1.00  0.00    -0.200 F 
ATOM     72  C   UNL A   1      37.187  29.165  29.745  1.00  0.00     0.200 A 
ATOM     73  F   UNL A   1      36.704  29.782  27.519  1.00  0.00    -0.200 F 
ATOM     74  F   UNL A   1      35.900  29.323  30.084  1.00  0.00    -0.200 F 
ENDBRANCH  50  64
BRANCH  51  75
ATOM     75  C   UNL A   1      49.201  26.696  26.096  1.00  0.00     0.064 A 
ATOM     76  C   UNL A   1      49.601  26.864  24.763  1.00  0.00     0.173 A 
ATOM     77  C   UNL A   1      50.159  26.238  27.012  1.00  0.00     0.173 A 
ATOM     78  F   UNL A   1      48.716  27.281  23.845  1.00  0.00    -0.203 F 
ATOM     79  C   UNL A   1      50.903  26.572  24.359  1.00  0.00     0.198 A 
ATOM     80  C   UNL A   1      51.467  25.972  26.612  1.00  0.00     0.198 A 
ATOM     81  F   UNL A   1      49.827  26.065  28.300  1.00  0.00    -0.203 F 
ATOM     82  F   UNL A   1      51.247  26.705  23.071  1.00  0.00    -0.200 F 
ATOM     83  C   UNL A   1      51.836  26.132  25.285  1.00  0.00     0.200 A 
ATOM     84  F   UNL A   1      52.370  25.560  27.512  1.00  0.00    -0.200 F 
ATOM     85  F   UNL A   1      53.089  25.858  24.896  1.00  0.00    -0.200 F 
ENDBRANCH  51  75
BRANCH  63  86
ATOM     86  C   UNL A   1      46.065  32.455  28.444  1.00  0.00     0.064 A 
ATOM     87  C   UNL A   1      46.636  32.802  29.676  1.00  0.00     0.173 A 
ATOM     88  C   UNL A   1      46.007  33.441  27.445  1.00  0.00     0.173 A 
ATOM     89  F   UNL A   1      46.700  31.901  30.668  1.00  0.00    -0.203 F 
ATOM     90  C   UNL A   1      47.109  34.091  29.908  1.00  0.00     0.198 A 
ATOM     91  C   UNL A   1      46.509  34.719  27.670  1.00  0.00     0.198 A 
ATOM     92  F   UNL A   1      45.475  33.158  26.246  1.00  0.00    -0.203 F 
ATOM     93  F   UNL A   1      47.607  34.414  31.110  1.00  0.00    -0.200 F 
ATOM     94  C   UNL A   1      47.052  35.046  28.903  1.00  0.00     0.200 A 
ATOM     95  F   UNL A   1      46.465  35.635  26.693  1.00  0.00    -0.200 F 
ATOM     96  F   UNL A   1      47.515  36.283  29.125  1.00  0.00    -0.200 F 
ENDBRANCH  63  86
ENDBRANCH  37  38
ENDBRANCH  29  32
ENDBRANCH  27  28
ENDBRANCH  26  27
ENDBRANCH   1  26
TORSDOF 15
ENDMDL
MODEL 2
REMARK VINA RESULT:     -12.7      0.619      7.214
REMARK SMILES CCCC[C@H](C(=O)NCCCNC(=O)c1ccc(-c2c3nc(c(-c4c(F)c(F)c(F)c(F)c4F)c4ccc([nH]4)c(-c4c(F)c(F)c(F)c(F)c4F)c4nc(c(-c5c(F)c(F)c(F)c(F)c5F)c5ccc2[nH]5)C=C4)C=C3)cc1)N1C(=O)/C(=C/c2ccc(C)cc2)SC1=S
REMARK SMILES IDX 9 1 8 2 6 3 7 4 5 6 4 7 3 8 2 9 1 10 78 11 79 12 91 13 80 14
REMARK SMILES IDX 81 15 90 16 92 17 82 18 83 19 84 20 89 21 85 22 88 23 86 24
REMARK SMILES IDX 87 25 10 26 11 27 12 28 13 29 14 31 15 32 16 33 77 34 17 35
REMARK SMILES IDX 76 36 18 37 19 38 20 39 70 40 21 41 75 42 69 43 71 44 22 45
REMARK SMILES IDX 74 46 68 47 67 48 23 50 55 51 35 52 54 53 36 54 39 55 53 56
REMARK SMILES IDX 72 57 37 58 38 59 52 61 73 62 40 63 24 64 25 65 33 66 26 67
REMARK SMILES IDX 27 68 31 69 34 70 28 71 29 72 32 73 30 74 56 75 57 76 65 77
REMARK SMILES IDX 58 78 59 79 63 80 66 81 60 82 61 83 64 84 62 85 41 86 42 87
REMARK SMILES IDX 50 88 43 89 44 90 48 91 51 92 45 93 46 94 49 95 47 96
REMARK H PARENT 8 5 12 30 71 49 39 60
REMARK Flexibility Score: inf
ROOT
ATOM      1  C   UNL A   1      36.823  20.888  24.883  1.00  0.00     0.117 C 
ENDROOT
BRANCH   1   2
ATOM      2  N   UNL A   1      36.072  21.085  26.109  1.00  0.00    -0.354 N 
ATOM      3  C   UNL A   1      34.774  21.476  26.279  1.00  0.00     0.243 C 
ATOM      4  O   UNL A   1      34.340  21.472  27.435  1.00  0.00    -0.273 OA
ATOM      5  H   UNL A   1      36.571  20.910  26.939  1.00  0.00     0.163 HD
BRANCH   3   6
ATOM      6  C   UNL A   1      33.903  21.913  25.070  1.00  0.00     0.181 C 
BRANCH   6   7
ATOM      7  C   UNL A   1      32.992  20.808  24.492  1.00  0.00     0.036 C 
BRANCH   7   8
ATOM      8  C   UNL A   1      33.074  19.333  24.953  1.00  0.00     0.002 C 
BRANCH   8   9
ATOM      9  C   UNL A   1      33.078  18.204  23.918  1.00  0.00    -0.003 C 
ATOM     10  C   UNL A   1      34.406  17.462  23.856  1.00  0.00     0.004 C 
ENDBRANCH   8   9
ENDBRANCH   7   8
ENDBRANCH   6   7
BRANCH   6  11
ATOM     11  N   UNL A   1      33.288  23.242  25.392  1.00  0.00    -0.280 N 
ATOM     12  C   UNL A   1      34.073  24.365  25.099  1.00  0.00     0.266 C 
ATOM     13  C   UNL A   1      32.071  23.536  25.972  1.00  0.00     0.149 C 
ATOM     14  O   UNL A   1      35.121  24.362  24.464  1.00  0.00    -0.268 OA
ATOM     15  C   UNL A   1      33.429  25.612  25.601  1.00  0.00     0.081 C 
ATOM     16  S   UNL A   1      32.042  25.200  26.518  1.00  0.00    -0.054 SA
ATOM     17  S   UNL A   1      30.662  22.660  26.109  1.00  0.00    -0.052 S 
ATOM     18  C   UNL A   1      33.832  26.858  25.303  1.00  0.00     0.029 C 
BRANCH  18  19
ATOM     19  C   UNL A   1      33.080  28.054  25.718  1.00  0.00    -0.024 A 
ATOM     20  C   UNL A   1      33.486  28.763  26.854  1.00  0.00     0.008 A 
ATOM     21  C   UNL A   1      32.047  28.571  24.926  1.00  0.00     0.008 A 
ATOM     22  C   UNL A   1      32.907  30.002  27.157  1.00  0.00     0.004 A 
ATOM     23  C   UNL A   1      31.478  29.812  25.223  1.00  0.00     0.004 A 
ATOM     24  C   UNL A   1      31.922  30.549  26.325  1.00  0.00    -0.051 A 
ATOM     25  C   UNL A   1      31.364  31.911  26.616  1.00  0.00     0.044 C 
ENDBRANCH  18  19
ENDBRANCH   6  11
ENDBRANCH   3   6
ENDBRANCH   1   2
BRANCH   1  26
ATOM     26  C   UNL A   1      37.897  19.820  24.990  1.00  0.00     0.042 C 
BRANCH  26  27
ATOM     27  C   UNL A   1      39.098  20.206  25.843  1.00  0.00     0.118 C 
BRANCH  27  28
ATOM     28  N   UNL A   1      40.138  19.186  25.905  1.00  0.00    -0.352 N 
ATOM     29  C   UNL A   1      41.495  19.309  26.108  1.00  0.00     0.251 C 
ATOM     30  H   UNL A   1      39.821  18.263  25.781  1.00  0.00     0.163 HD
ATOM     31  O   UNL A   1      42.220  18.322  26.021  1.00  0.00    -0.269 OA
BRANCH  29  32
ATOM     32  C   UNL A   1      42.090  20.635  26.385  1.00  0.00     0.039 A 
ATOM     33  C   UNL A   1      42.432  21.465  25.313  1.00  0.00     0.014 A 
ATOM     34  C   UNL A   1      42.281  21.077  27.694  1.00  0.00     0.014 A 
ATOM     35  C   UNL A   1      42.859  22.774  25.558  1.00  0.00     0.010 A 
ATOM     36  C   UNL A   1      42.592  22.409  27.934  1.00  0.00     0.010 A 
ATOM     37  C   UNL A   1      42.885  23.275  26.870  1.00  0.00    -0.014 A 
BRANCH  37  38
ATOM     38  C   UNL A   1      43.219  24.694  27.161  1.00  0.00     0.031 A 
ATOM     39  C   UNL A   1      44.609  25.208  26.906  1.00  0.00     0.074 A 
ATOM     40  C   UNL A   1      42.300  25.496  27.737  1.00  0.00     0.049 A 
ATOM     41  N   UNL A   1      45.129  26.376  27.190  1.00  0.00    -0.248 NA
ATOM     42  C   UNL A   1      45.554  24.268  26.283  1.00  0.00     0.031 C 
ATOM     43  C   UNL A   1      40.932  25.107  28.084  1.00  0.00     0.029 A 
ATOM     44  N   UNL A   1      42.384  26.805  28.140  1.00  0.00    -0.354 N 
ATOM     45  C   UNL A   1      46.460  26.299  26.802  1.00  0.00     0.074 A 
ATOM     46  C   UNL A   1      46.687  24.950  26.331  1.00  0.00     0.031 C 
ATOM     47  C   UNL A   1      40.294  26.165  28.609  1.00  0.00     0.029 A 
ATOM     48  C   UNL A   1      41.217  27.292  28.678  1.00  0.00     0.049 A 
ATOM     49  H   UNL A   1      43.202  27.345  28.051  1.00  0.00     0.167 HD
ATOM     50  C   UNL A   1      47.402  27.272  26.804  1.00  0.00     0.037 A 
ATOM     51  C   UNL A   1      40.927  28.511  29.172  1.00  0.00     0.037 A 
ATOM     52  C   UNL A   1      47.168  28.621  27.247  1.00  0.00     0.049 A 
ATOM     53  C   UNL A   1      41.994  29.573  29.180  1.00  0.00     0.074 A 
ATOM     54  C   UNL A   1      48.037  29.697  27.242  1.00  0.00     0.029 A 
ATOM     55  N   UNL A   1      45.968  29.079  27.775  1.00  0.00    -0.354 N 
ATOM     56  N   UNL A   1      43.231  29.508  28.753  1.00  0.00    -0.248 NA
ATOM     57  C   UNL A   1      41.619  30.879  29.738  1.00  0.00     0.031 C 
ATOM     58  C   UNL A   1      47.377  30.794  27.807  1.00  0.00     0.029 A 
ATOM     59  C   UNL A   1      46.081  30.416  28.117  1.00  0.00     0.049 A 
ATOM     60  H   UNL A   1      45.157  28.533  27.890  1.00  0.00     0.167 HD
ATOM     61  C   UNL A   1      43.772  30.770  28.956  1.00  0.00     0.074 A 
ATOM     62  C   UNL A   1      42.724  31.583  29.537  1.00  0.00     0.031 C 
ATOM     63  C   UNL A   1      45.023  31.215  28.683  1.00  0.00     0.037 A 
BRANCH  50  64
ATOM     64  C   UNL A   1      48.771  26.902  26.305  1.00  0.00     0.064 A 
ATOM     65  C   UNL A   1      49.135  27.072  24.960  1.00  0.00     0.173 A 
ATOM     66  C   UNL A   1      49.729  26.366  27.178  1.00  0.00     0.173 A 
ATOM     67  F   UNL A   1      48.253  27.569  24.079  1.00  0.00    -0.203 F 
ATOM     68  C   UNL A   1      50.386  26.673  24.497  1.00  0.00     0.198 A 
ATOM     69  C   UNL A   1      50.993  26.001  26.719  1.00  0.00     0.198 A 
ATOM     70  F   UNL A   1      49.440  26.188  28.476  1.00  0.00    -0.203 F 
ATOM     71  F   UNL A   1      50.681  26.776  23.195  1.00  0.00    -0.200 F 
ATOM     72  C   UNL A   1      51.316  26.142  25.379  1.00  0.00     0.200 A 
ATOM     73  F   UNL A   1      51.896  25.501  27.575  1.00  0.00    -0.200 F 
ATOM     74  F   UNL A   1      52.518  25.753  24.932  1.00  0.00    -0.200 F 
ENDBRANCH  50  64
BRANCH  51  75
ATOM     75  C   UNL A   1      39.553  28.810  29.650  1.00  0.00     0.064 A 
ATOM     76  C   UNL A   1      38.596  29.347  28.776  1.00  0.00     0.173 A 
ATOM     77  C   UNL A   1      39.161  28.567  30.974  1.00  0.00     0.173 A 
ATOM     78  F   UNL A   1      38.929  29.616  27.505  1.00  0.00    -0.203 F 
ATOM     79  C   UNL A   1      37.306  29.643  29.212  1.00  0.00     0.198 A 
ATOM     80  C   UNL A   1      37.863  28.838  31.403  1.00  0.00     0.198 A 
ATOM     81  F   UNL A   1      40.037  28.049  31.849  1.00  0.00    -0.203 F 
ATOM     82  F   UNL A   1      36.425  30.192  28.366  1.00  0.00    -0.200 F 
ATOM     83  C   UNL A   1      36.939  29.383  30.524  1.00  0.00     0.200 A 
ATOM     84  F   UNL A   1      37.507  28.573  32.667  1.00  0.00    -0.200 F 
ATOM     85  F   UNL A   1      35.697  29.662  30.940  1.00  0.00    -0.200 F 
ENDBRANCH  51  75
BRANCH  63  86
ATOM     86  C   UNL A   1      45.316  32.661  28.964  1.00  0.00     0.064 A 
ATOM     87  C   UNL A   1      45.898  33.076  30.170  1.00  0.00     0.173 A 
ATOM     88  C   UNL A   1      45.041  33.639  27.995  1.00  0.00     0.173 A 
ATOM     89  F   UNL A   1      46.164  32.181  31.135  1.00  0.00    -0.203 F 
ATOM     90  C   UNL A   1      46.173  34.420  30.406  1.00  0.00     0.198 A 
ATOM     91  C   UNL A   1      45.347  34.977  28.223  1.00  0.00     0.198 A 
ATOM     92  F   UNL A   1      44.489  33.293  26.823  1.00  0.00    -0.203 F 
ATOM     93  F   UNL A   1      46.685  34.801  31.585  1.00  0.00    -0.200 F 
ATOM     94  C   UNL A   1      45.904  35.369  29.430  1.00  0.00     0.200 A 
ATOM     95  F   UNL A   1      45.099  35.889  27.272  1.00  0.00    -0.200 F 
ATOM     96  F   UNL A   1      46.178  36.660  29.656  1.00  0.00    -0.200 F 
ENDBRANCH  63  86
ENDBRANCH  37  38
ENDBRANCH  29  32
ENDBRANCH  27  28
ENDBRANCH  26  27
ENDBRANCH   1  26
TORSDOF 15
ENDMDL
MODEL 3
REMARK VINA RESULT:     -12.6      5.619     11.389
REMARK SMILES CCCC[C@H](C(=O)NCCCNC(=O)c1ccc(-c2c3nc(c(-c4c(F)c(F)c(F)c(F)c4F)c4ccc([nH]4)c(-c4c(F)c(F)c(F)c(F)c4F)c4nc(c(-c5c(F)c(F)c(F)c(F)c5F)c5ccc2[nH]5)C=C4)C=C3)cc1)N1C(=O)/C(=C/c2ccc(C)cc2)SC1=S
REMARK SMILES IDX 9 1 8 2 6 3 7 4 5 6 4 7 3 8 2 9 1 10 78 11 79 12 91 13 80 14
REMARK SMILES IDX 81 15 90 16 92 17 82 18 83 19 84 20 89 21 85 22 88 23 86 24
REMARK SMILES IDX 87 25 10 26 11 27 12 28 13 29 14 31 15 32 16 33 77 34 17 35
REMARK SMILES IDX 76 36 18 37 19 38 20 39 70 40 21 41 75 42 69 43 71 44 22 45
REMARK SMILES IDX 74 46 68 47 67 48 23 50 55 51 35 52 54 53 36 54 39 55 53 56
REMARK SMILES IDX 72 57 37 58 38 59 52 61 73 62 40 63 24 64 25 65 33 66 26 67
REMARK SMILES IDX 27 68 31 69 34 70 28 71 29 72 32 73 30 74 56 75 57 76 65 77
REMARK SMILES IDX 58 78 59 79 63 80 66 81 60 82 61 83 64 84 62 85 41 86 42 87
REMARK SMILES IDX 50 88 43 89 44 90 48 91 51 92 45 93 46 94 49 95 47 96
REMARK H PARENT 8 5 12 30 71 49 39 60
REMARK Flexibility Score: inf
ROOT
ATOM      1  C   UNL A   1      32.057  30.179  26.325  1.00  0.00     0.117 C 
ENDROOT
BRANCH   1   2
ATOM      2  N   UNL A   1      32.619  30.043  24.995  1.00  0.00    -0.354 N 
ATOM      3  C   UNL A   1      32.425  29.059  24.066  1.00  0.00     0.243 C 
ATOM      4  O   UNL A   1      32.949  29.228  22.960  1.00  0.00    -0.273 OA
ATOM      5  H   UNL A   1      33.229  30.765  24.721  1.00  0.00     0.163 HD
BRANCH   3   6
ATOM      6  C   UNL A   1      31.597  27.790  24.403  1.00  0.00     0.181 C 
BRANCH   6   7
ATOM      7  C   UNL A   1      30.168  27.772  23.816  1.00  0.00     0.036 C 
BRANCH   7   8
ATOM      8  C   UNL A   1      29.718  28.732  22.689  1.00  0.00     0.002 C 
BRANCH   8   9
ATOM      9  C   UNL A   1      28.534  29.679  22.913  1.00  0.00    -0.003 C 
ATOM     10  C   UNL A   1      28.950  31.011  23.522  1.00  0.00     0.004 C 
ENDBRANCH   8   9
ENDBRANCH   7   8
ENDBRANCH   6   7
BRANCH   6  11
ATOM     11  N   UNL A   1      32.467  26.590  24.186  1.00  0.00    -0.280 N 
ATOM     12  C   UNL A   1      33.110  26.087  25.324  1.00  0.00     0.266 C 
ATOM     13  C   UNL A   1      32.769  25.916  23.020  1.00  0.00     0.149 C 
ATOM     14  O   UNL A   1      32.894  26.430  26.480  1.00  0.00    -0.268 OA
ATOM     15  C   UNL A   1      34.063  24.999  24.963  1.00  0.00     0.081 C 
ATOM     16  S   UNL A   1      34.162  24.880  23.257  1.00  0.00    -0.054 SA
ATOM     17  S   UNL A   1      31.992  25.830  21.550  1.00  0.00    -0.052 S 
ATOM     18  C   UNL A   1      34.675  24.190  25.844  1.00  0.00     0.029 C 
BRANCH  18  19
ATOM     19  C   UNL A   1      35.503  23.047  25.425  1.00  0.00    -0.024 A 
ATOM     20  C   UNL A   1      36.894  23.189  25.365  1.00  0.00     0.008 A 
ATOM     21  C   UNL A   1      34.939  21.783  25.213  1.00  0.00     0.008 A 
ATOM     22  C   UNL A   1      37.709  22.071  25.157  1.00  0.00     0.004 A 
ATOM     23  C   UNL A   1      35.755  20.666  25.016  1.00  0.00     0.004 A 
ATOM     24  C   UNL A   1      37.147  20.797  25.013  1.00  0.00    -0.051 A 
ATOM     25  C   UNL A   1      38.033  19.595  24.867  1.00  0.00     0.044 C 
ENDBRANCH  18  19
ENDBRANCH   6  11
ENDBRANCH   3   6
ENDBRANCH   1   2
BRANCH   1  26
ATOM     26  C   UNL A   1      31.696  31.608  26.691  1.00  0.00     0.042 C 
BRANCH  26  27
ATOM     27  C   UNL A   1      32.838  32.424  27.280  1.00  0.00     0.118 C 
BRANCH  27  28
ATOM     28  N   UNL A   1      32.491  33.810  27.572  1.00  0.00    -0.352 N 
ATOM     29  C   UNL A   1      33.033  34.691  28.481  1.00  0.00     0.251 C 
ATOM     30  H   UNL A   1      31.752  34.174  27.033  1.00  0.00     0.163 HD
ATOM     31  O   UNL A   1      32.523  35.796  28.644  1.00  0.00    -0.269 OA
BRANCH  29  32
ATOM     32  C   UNL A   1      34.202  34.295  29.298  1.00  0.00     0.039 A 
ATOM     33  C   UNL A   1      33.991  33.722  30.555  1.00  0.00     0.014 A 
ATOM     34  C   UNL A   1      35.501  34.453  28.816  1.00  0.00     0.014 A 
ATOM     35  C   UNL A   1      35.074  33.211  31.275  1.00  0.00     0.010 A 
ATOM     36  C   UNL A   1      36.560  33.843  29.476  1.00  0.00     0.010 A 
ATOM     37  C   UNL A   1      36.361  33.214  30.714  1.00  0.00    -0.014 A 
BRANCH  37  38
ATOM     38  C   UNL A   1      37.517  32.575  31.395  1.00  0.00     0.031 A 
ATOM     39  C   UNL A   1      38.220  31.411  30.752  1.00  0.00     0.074 A 
ATOM     40  C   UNL A   1      37.879  32.981  32.629  1.00  0.00     0.049 A 
ATOM     41  N   UNL A   1      39.174  30.650  31.226  1.00  0.00    -0.248 NA
ATOM     42  C   UNL A   1      37.759  31.025  29.409  1.00  0.00     0.031 C 
ATOM     43  C   UNL A   1      37.248  34.063  33.385  1.00  0.00     0.029 A 
ATOM     44  N   UNL A   1      38.864  32.522  33.467  1.00  0.00    -0.354 N 
ATOM     45  C   UNL A   1      39.408  29.689  30.252  1.00  0.00     0.074 A 
ATOM     46  C   UNL A   1      38.448  29.916  29.194  1.00  0.00     0.031 C 
ATOM     47  C   UNL A   1      37.886  34.212  34.557  1.00  0.00     0.029 A 
ATOM     48  C   UNL A   1      38.941  33.208  34.655  1.00  0.00     0.049 A 
ATOM     49  H   UNL A   1      39.460  31.772  33.240  1.00  0.00     0.167 HD
ATOM     50  C   UNL A   1      40.358  28.723  30.223  1.00  0.00     0.037 A 
ATOM     51  C   UNL A   1      39.769  33.045  35.705  1.00  0.00     0.037 A 
ATOM     52  C   UNL A   1      41.329  28.516  31.264  1.00  0.00     0.049 A 
ATOM     53  C   UNL A   1      40.806  31.955  35.658  1.00  0.00     0.074 A 
ATOM     54  C   UNL A   1      42.366  27.602  31.310  1.00  0.00     0.029 A 
ATOM     55  N   UNL A   1      41.382  29.240  32.447  1.00  0.00    -0.354 N 
ATOM     56  N   UNL A   1      41.059  31.092  34.706  1.00  0.00    -0.248 NA
ATOM     57  C   UNL A   1      41.675  31.821  36.836  1.00  0.00     0.031 C 
ATOM     58  C   UNL A   1      43.019  27.744  32.539  1.00  0.00     0.029 A 
ATOM     59  C   UNL A   1      42.422  28.781  33.238  1.00  0.00     0.049 A 
ATOM     60  H   UNL A   1      40.769  29.972  32.689  1.00  0.00     0.167 HD
ATOM     61  C   UNL A   1      42.136  30.337  35.150  1.00  0.00     0.074 A 
ATOM     62  C   UNL A   1      42.494  30.851  36.456  1.00  0.00     0.031 C 
ATOM     63  C   UNL A   1      42.773  29.313  34.531  1.00  0.00     0.037 A 
BRANCH  50  64
ATOM     64  C   UNL A   1      40.386  27.825  29.018  1.00  0.00     0.064 A 
ATOM     65  C   UNL A   1      41.159  28.134  27.887  1.00  0.00     0.173 A 
ATOM     66  C   UNL A   1      39.627  26.646  28.988  1.00  0.00     0.173 A 
ATOM     67  F   UNL A   1      41.893  29.257  27.858  1.00  0.00    -0.203 F 
ATOM     68  C   UNL A   1      41.132  27.325  26.754  1.00  0.00     0.198 A 
ATOM     69  C   UNL A   1      39.632  25.818  27.867  1.00  0.00     0.198 A 
ATOM     70  F   UNL A   1      38.875  26.296  30.042  1.00  0.00    -0.203 F 
ATOM     71  F   UNL A   1      41.820  27.682  25.662  1.00  0.00    -0.200 F 
ATOM     72  C   UNL A   1      40.372  26.165  26.747  1.00  0.00     0.200 A 
ATOM     73  F   UNL A   1      38.908  24.691  27.866  1.00  0.00    -0.200 F 
ATOM     74  F   UNL A   1      40.344  25.389  25.655  1.00  0.00    -0.200 F 
ENDBRANCH  50  64
BRANCH  51  75
ATOM     75  C   UNL A   1      39.687  33.968  36.866  1.00  0.00     0.064 A 
ATOM     76  C   UNL A   1      38.897  33.643  37.978  1.00  0.00     0.173 A 
ATOM     77  C   UNL A   1      40.390  35.180  36.898  1.00  0.00     0.173 A 
ATOM     78  F   UNL A   1      38.189  32.503  37.987  1.00  0.00    -0.203 F 
ATOM     79  C   UNL A   1      38.801  34.503  39.070  1.00  0.00     0.198 A 
ATOM     80  C   UNL A   1      40.315  36.028  38.002  1.00  0.00     0.198 A 
ATOM     81  F   UNL A   1      41.164  35.535  35.861  1.00  0.00    -0.203 F 
ATOM     82  F   UNL A   1      38.008  34.186  40.102  1.00  0.00    -0.200 F 
ATOM     83  C   UNL A   1      39.515  35.692  39.084  1.00  0.00     0.200 A 
ATOM     84  F   UNL A   1      41.017  37.168  38.018  1.00  0.00    -0.200 F 
ATOM     85  F   UNL A   1      39.428  36.515  40.137  1.00  0.00    -0.200 F 
ENDBRANCH  51  75
BRANCH  63  86
ATOM     86  C   UNL A   1      43.953  28.709  35.236  1.00  0.00     0.064 A 
ATOM     87  C   UNL A   1      45.257  29.178  35.029  1.00  0.00     0.173 A 
ATOM     88  C   UNL A   1      43.767  27.668  36.160  1.00  0.00     0.173 A 
ATOM     89  F   UNL A   1      45.490  30.159  34.143  1.00  0.00    -0.203 F 
ATOM     90  C   UNL A   1      46.336  28.612  35.703  1.00  0.00     0.198 A 
ATOM     91  C   UNL A   1      44.844  27.127  36.855  1.00  0.00     0.198 A 
ATOM     92  F   UNL A   1      42.537  27.188  36.399  1.00  0.00    -0.203 F 
ATOM     93  F   UNL A   1      47.581  29.043  35.453  1.00  0.00    -0.200 F 
ATOM     94  C   UNL A   1      46.128  27.592  36.620  1.00  0.00     0.200 A 
ATOM     95  F   UNL A   1      44.638  26.152  37.751  1.00  0.00    -0.200 F 
ATOM     96  F   UNL A   1      47.167  27.055  37.274  1.00  0.00    -0.200 F 
ENDBRANCH  63  86
ENDBRANCH  37  38
ENDBRANCH  29  32
ENDBRANCH  27  28
ENDBRANCH  26  27
ENDBRANCH   1  26
TORSDOF 15
ENDMDL
