MODEL 1
REMARK VINA RESULT:     -10.1      0.000      0.000
REMARK SMILES O=C(C[C@@H]1CN(c2cc(C(F)(F)F)ccn2)CCO1)NCCCNC(=O)c1ccc(-c2c3nc(c(-c4c(F)c(F)c(F)c(F)c4F)c4ccc([nH]4)c(-c4c(F)c(F)c(F)c(F)c4F)c4nc(c(-c5c(F)c(F)c(F)c(F)c5F)c5ccc2[nH]5)C=C4)C=C3)cc1
REMARK SMILES IDX 21 1 20 2 1 3 2 4 3 6 4 7 5 8 19 9 6 10 18 11 17 12 7 13
REMARK SMILES IDX 8 14 16 15 9 16 15 17 14 18 10 19 11 20 12 21 13 22 22 23
REMARK SMILES IDX 23 24 24 25 25 26 26 28 27 29 28 30 89 31 29 32 88 33 30 34
REMARK SMILES IDX 31 35 32 36 82 37 33 38 87 39 81 40 83 41 34 42 86 43 80 44
REMARK SMILES IDX 79 45 35 47 67 48 47 49 66 50 48 51 51 52 65 53 84 54 49 55
REMARK SMILES IDX 50 56 64 58 85 59 52 60 36 61 37 62 45 63 38 64 39 65 43 66
REMARK SMILES IDX 46 67 40 68 41 69 44 70 42 71 68 72 69 73 77 74 70 75 71 76
REMARK SMILES IDX 75 77 78 78 72 79 73 80 76 81 74 82 53 83 54 84 62 85 55 86
REMARK SMILES IDX 56 87 60 88 63 89 57 90 58 91 61 92 59 93
REMARK H PARENT 20 5 24 27 83 46 51 57
REMARK Flexibility Score: inf
ROOT
ATOM      1  C   UNL A   1      34.232  34.381  30.194  1.00  0.00     0.117 C 
ENDROOT
BRANCH   1   2
ATOM      2  N   UNL A   1      34.984  34.633  31.400  1.00  0.00    -0.356 N 
ATOM      3  O   UNL A   1      33.354  34.044  32.903  1.00  0.00    -0.275 OA
ATOM      4  C   UNL A   1      34.509  34.388  32.665  1.00  0.00     0.222 C 
ATOM      5  H   UNL A   1      35.892  35.003  31.310  1.00  0.00     0.163 HD
BRANCH   4   6
ATOM      6  C   UNL A   1      35.491  34.711  33.775  1.00  0.00     0.133 C 
BRANCH   6   7
ATOM      7  C   UNL A   1      36.904  34.112  33.663  1.00  0.00     0.147 C 
ATOM      8  C   UNL A   1      36.858  32.591  33.956  1.00  0.00     0.150 C 
ATOM      9  O   UNL A   1      37.836  34.753  34.566  1.00  0.00    -0.374 OA
ATOM     10  N   UNL A   1      38.217  32.060  33.919  1.00  0.00    -0.352 N 
ATOM     11  C   UNL A   1      39.164  34.213  34.422  1.00  0.00     0.182 C 
ATOM     12  C   UNL A   1      39.182  32.724  34.789  1.00  0.00     0.146 C 
BRANCH  10  13
ATOM     13  C   UNL A   1      38.485  30.798  33.454  1.00  0.00     0.129 A 
ATOM     14  C   UNL A   1      39.790  30.323  33.502  1.00  0.00     0.060 A 
ATOM     15  N   UNL A   1      37.469  30.008  33.060  1.00  0.00    -0.239 NA
ATOM     16  C   UNL A   1      40.069  28.993  33.173  1.00  0.00     0.061 A 
ATOM     17  C   UNL A   1      37.751  28.740  32.686  1.00  0.00     0.114 A 
ATOM     18  C   UNL A   1      39.019  28.190  32.731  1.00  0.00     0.033 A 
BRANCH  16  19
ATOM     19  C   UNL A   1      41.455  28.441  33.333  1.00  0.00     0.416 C 
ATOM     20  F   UNL A   1      41.921  27.869  32.189  1.00  0.00    -0.166 F 
ATOM     21  F   UNL A   1      42.360  29.398  33.673  1.00  0.00    -0.166 F 
ATOM     22  F   UNL A   1      41.549  27.479  34.294  1.00  0.00    -0.166 F 
ENDBRANCH  16  19
ENDBRANCH  10  13
ENDBRANCH   6   7
ENDBRANCH   4   6
ENDBRANCH   1   2
BRANCH   1  23
ATOM     23  C   UNL A   1      34.407  32.961  29.673  1.00  0.00     0.042 C 
BRANCH  23  24
ATOM     24  C   UNL A   1      34.319  32.805  28.155  1.00  0.00     0.118 C 
BRANCH  24  25
ATOM     25  N   UNL A   1      33.680  31.570  27.727  1.00  0.00    -0.352 N 
ATOM     26  C   UNL A   1      34.179  30.301  27.586  1.00  0.00     0.251 C 
ATOM     27  H   UNL A   1      32.725  31.660  27.500  1.00  0.00     0.163 HD
ATOM     28  O   UNL A   1      33.452  29.422  27.115  1.00  0.00    -0.269 OA
BRANCH  26  29
ATOM     29  C   UNL A   1      35.574  29.960  27.952  1.00  0.00     0.039 A 
ATOM     30  C   UNL A   1      36.561  30.068  26.964  1.00  0.00     0.014 A 
ATOM     31  C   UNL A   1      35.924  29.492  29.221  1.00  0.00     0.014 A 
ATOM     32  C   UNL A   1      37.894  29.771  27.263  1.00  0.00     0.010 A 
ATOM     33  C   UNL A   1      37.266  29.262  29.539  1.00  0.00     0.010 A 
ATOM     34  C   UNL A   1      38.265  29.396  28.565  1.00  0.00    -0.014 A 
BRANCH  34  35
ATOM     35  C   UNL A   1      39.694  29.162  28.905  1.00  0.00     0.031 A 
ATOM     36  C   UNL A   1      40.481  30.181  29.682  1.00  0.00     0.074 A 
ATOM     37  C   UNL A   1      40.300  28.036  28.482  1.00  0.00     0.049 A 
ATOM     38  N   UNL A   1      41.731  30.141  30.073  1.00  0.00    -0.248 NA
ATOM     39  C   UNL A   1      39.780  31.421  30.050  1.00  0.00     0.031 C 
ATOM     40  C   UNL A   1      39.670  26.993  27.669  1.00  0.00     0.029 A 
ATOM     41  N   UNL A   1      41.580  27.578  28.675  1.00  0.00    -0.354 N 
ATOM     42  C   UNL A   1      41.968  31.347  30.719  1.00  0.00     0.074 A 
ATOM     43  C   UNL A   1      40.747  32.120  30.627  1.00  0.00     0.031 C 
ATOM     44  C   UNL A   1      40.556  26.005  27.460  1.00  0.00     0.029 A 
ATOM     45  C   UNL A   1      41.820  26.354  28.099  1.00  0.00     0.049 A 
ATOM     46  H   UNL A   1      42.261  28.080  29.178  1.00  0.00     0.167 HD
ATOM     47  C   UNL A   1      43.091  31.764  31.352  1.00  0.00     0.037 A 
ATOM     48  C   UNL A   1      42.931  25.593  28.096  1.00  0.00     0.037 A 
ATOM     49  C   UNL A   1      44.299  30.988  31.470  1.00  0.00     0.049 A 
ATOM     50  C   UNL A   1      44.153  26.065  28.833  1.00  0.00     0.074 A 
ATOM     51  C   UNL A   1      45.466  31.302  32.142  1.00  0.00     0.029 A 
ATOM     52  N   UNL A   1      44.492  29.739  30.899  1.00  0.00    -0.354 N 
ATOM     53  N   UNL A   1      44.339  27.174  29.505  1.00  0.00    -0.248 NA
ATOM     54  C   UNL A   1      45.318  25.169  28.821  1.00  0.00     0.031 C 
ATOM     55  C   UNL A   1      46.381  30.260  31.949  1.00  0.00     0.029 A 
ATOM     56  C   UNL A   1      45.766  29.276  31.193  1.00  0.00     0.049 A 
ATOM     57  H   UNL A   1      43.825  29.252  30.364  1.00  0.00     0.167 HD
ATOM     58  C   UNL A   1      45.626  27.100  30.016  1.00  0.00     0.074 A 
ATOM     59  C   UNL A   1      46.171  25.827  29.593  1.00  0.00     0.031 C 
ATOM     60  C   UNL A   1      46.296  28.006  30.770  1.00  0.00     0.037 A 
BRANCH  47  61
ATOM     61  C   UNL A   1      43.065  33.127  31.981  1.00  0.00     0.064 A 
ATOM     62  C   UNL A   1      43.316  34.285  31.230  1.00  0.00     0.173 A 
ATOM     63  C   UNL A   1      42.747  33.282  33.339  1.00  0.00     0.173 A 
ATOM     64  F   UNL A   1      43.634  34.192  29.930  1.00  0.00    -0.203 F 
ATOM     65  C   UNL A   1      43.276  35.546  31.821  1.00  0.00     0.198 A 
ATOM     66  C   UNL A   1      42.681  34.546  33.920  1.00  0.00     0.198 A 
ATOM     67  F   UNL A   1      42.491  32.208  34.100  1.00  0.00    -0.203 F 
ATOM     68  F   UNL A   1      43.564  36.634  31.094  1.00  0.00    -0.200 F 
ATOM     69  C   UNL A   1      42.952  35.675  33.164  1.00  0.00     0.200 A 
ATOM     70  F   UNL A   1      42.356  34.670  35.215  1.00  0.00    -0.200 F 
ATOM     71  F   UNL A   1      42.909  36.889  33.729  1.00  0.00    -0.200 F 
ENDBRANCH  47  61
BRANCH  48  72
ATOM     72  C   UNL A   1      42.922  24.277  27.406  1.00  0.00     0.064 A 
ATOM     73  C   UNL A   1      43.276  24.175  26.053  1.00  0.00     0.173 A 
ATOM     74  C   UNL A   1      42.558  23.103  28.078  1.00  0.00     0.173 A 
ATOM     75  F   UNL A   1      43.611  25.276  25.364  1.00  0.00    -0.203 F 
ATOM     76  C   UNL A   1      43.246  22.948  25.394  1.00  0.00     0.198 A 
ATOM     77  C   UNL A   1      42.554  21.873  27.423  1.00  0.00     0.198 A 
ATOM     78  F   UNL A   1      42.216  23.149  29.373  1.00  0.00    -0.203 F 
ATOM     79  F   UNL A   1      43.546  22.885  24.088  1.00  0.00    -0.200 F 
ATOM     80  C   UNL A   1      42.890  21.798  26.080  1.00  0.00     0.200 A 
ATOM     81  F   UNL A   1      42.220  20.761  28.093  1.00  0.00    -0.200 F 
ATOM     82  F   UNL A   1      42.864  20.618  25.446  1.00  0.00    -0.200 F 
ENDBRANCH  48  72
BRANCH  60  83
ATOM     83  C   UNL A   1      47.684  27.638  31.208  1.00  0.00     0.064 A 
ATOM     84  C   UNL A   1      47.917  26.940  32.403  1.00  0.00     0.173 A 
ATOM     85  C   UNL A   1      48.792  27.975  30.416  1.00  0.00     0.173 A 
ATOM     86  F   UNL A   1      46.892  26.610  33.202  1.00  0.00    -0.203 F 
ATOM     87  C   UNL A   1      49.212  26.621  32.803  1.00  0.00     0.198 A 
ATOM     88  C   UNL A   1      50.082  27.630  30.807  1.00  0.00     0.198 A 
ATOM     89  F   UNL A   1      48.622  28.636  29.262  1.00  0.00    -0.203 F 
ATOM     90  F   UNL A   1      49.415  26.002  33.975  1.00  0.00    -0.200 F 
ATOM     91  C   UNL A   1      50.292  26.962  32.004  1.00  0.00     0.200 A 
ATOM     92  F   UNL A   1      51.125  27.950  30.028  1.00  0.00    -0.200 F 
ATOM     93  F   UNL A   1      51.538  26.655  32.392  1.00  0.00    -0.200 F 
ENDBRANCH  60  83
ENDBRANCH  34  35
ENDBRANCH  26  29
ENDBRANCH  24  25
ENDBRANCH  23  24
ENDBRANCH   1  23
TORSDOF 13
ENDMDL
MODEL 2
REMARK VINA RESULT:      -9.9      4.080      7.428
REMARK SMILES O=C(C[C@@H]1CN(c2cc(C(F)(F)F)ccn2)CCO1)NCCCNC(=O)c1ccc(-c2c3nc(c(-c4c(F)c(F)c(F)c(F)c4F)c4ccc([nH]4)c(-c4c(F)c(F)c(F)c(F)c4F)c4nc(c(-c5c(F)c(F)c(F)c(F)c5F)c5ccc2[nH]5)C=C4)C=C3)cc1
REMARK SMILES IDX 21 1 20 2 1 3 2 4 3 6 4 7 5 8 19 9 6 10 18 11 17 12 7 13
REMARK SMILES IDX 8 14 16 15 9 16 15 17 14 18 10 19 11 20 12 21 13 22 22 23
REMARK SMILES IDX 23 24 24 25 25 26 26 28 27 29 28 30 89 31 29 32 88 33 30 34
REMARK SMILES IDX 31 35 32 36 82 37 33 38 87 39 81 40 83 41 34 42 86 43 80 44
REMARK SMILES IDX 79 45 35 47 67 48 47 49 66 50 48 51 51 52 65 53 84 54 49 55
REMARK SMILES IDX 50 56 64 58 85 59 52 60 36 61 37 62 45 63 38 64 39 65 43 66
REMARK SMILES IDX 46 67 40 68 41 69 44 70 42 71 68 72 69 73 77 74 70 75 71 76
REMARK SMILES IDX 75 77 78 78 72 79 73 80 76 81 74 82 53 83 54 84 62 85 55 86
REMARK SMILES IDX 56 87 60 88 63 89 57 90 58 91 61 92 59 93
REMARK H PARENT 20 5 24 27 83 46 51 57
REMARK Flexibility Score: inf
ROOT
ATOM      1  C   UNL A   1      31.315  30.618  25.700  1.00  0.00     0.117 C 
ENDROOT
BRANCH   1   2
ATOM      2  N   UNL A   1      32.021  29.417  26.080  1.00  0.00    -0.356 N 
ATOM      3  O   UNL A   1      33.311  29.212  24.194  1.00  0.00    -0.275 OA
ATOM      4  C   UNL A   1      33.009  28.837  25.324  1.00  0.00     0.222 C 
ATOM      5  H   UNL A   1      31.777  28.987  26.932  1.00  0.00     0.163 HD
BRANCH   4   6
ATOM      6  C   UNL A   1      33.620  27.592  25.941  1.00  0.00     0.133 C 
BRANCH   6   7
ATOM      7  C   UNL A   1      32.733  26.337  26.021  1.00  0.00     0.147 C 
ATOM      8  C   UNL A   1      33.255  25.258  25.040  1.00  0.00     0.150 C 
ATOM      9  O   UNL A   1      31.348  26.635  25.725  1.00  0.00    -0.374 OA
ATOM     10  N   UNL A   1      32.355  24.109  25.078  1.00  0.00    -0.352 N 
ATOM     11  C   UNL A   1      30.520  25.461  25.845  1.00  0.00     0.182 C 
ATOM     12  C   UNL A   1      30.947  24.396  24.827  1.00  0.00     0.146 C 
BRANCH  10  13
ATOM     13  C   UNL A   1      32.819  22.826  24.931  1.00  0.00     0.129 A 
ATOM     14  C   UNL A   1      34.190  22.605  24.876  1.00  0.00     0.060 A 
ATOM     15  N   UNL A   1      31.948  21.800  24.951  1.00  0.00    -0.239 NA
ATOM     16  C   UNL A   1      34.695  21.302  24.874  1.00  0.00     0.061 A 
ATOM     17  C   UNL A   1      32.438  20.542  24.890  1.00  0.00     0.114 A 
ATOM     18  C   UNL A   1      33.787  20.244  24.858  1.00  0.00     0.033 A 
BRANCH  16  19
ATOM     19  C   UNL A   1      36.175  21.056  24.931  1.00  0.00     0.416 C 
ATOM     20  F   UNL A   1      36.832  21.604  23.873  1.00  0.00    -0.166 F 
ATOM     21  F   UNL A   1      36.747  21.583  26.047  1.00  0.00    -0.166 F 
ATOM     22  F   UNL A   1      36.506  19.734  24.929  1.00  0.00    -0.166 F 
ENDBRANCH  16  19
ENDBRANCH  10  13
ENDBRANCH   6   7
ENDBRANCH   4   6
ENDBRANCH   1   2
BRANCH   1  23
ATOM     23  C   UNL A   1      31.319  31.677  26.794  1.00  0.00     0.042 C 
BRANCH  23  24
ATOM     24  C   UNL A   1      32.606  32.494  26.908  1.00  0.00     0.118 C 
BRANCH  24  25
ATOM     25  N   UNL A   1      32.407  33.833  27.445  1.00  0.00    -0.352 N 
ATOM     26  C   UNL A   1      33.085  34.521  28.417  1.00  0.00     0.251 C 
ATOM     27  H   UNL A   1      31.659  34.329  27.040  1.00  0.00     0.163 HD
ATOM     28  O   UNL A   1      32.666  35.629  28.765  1.00  0.00    -0.269 OA
BRANCH  26  29
ATOM     29  C   UNL A   1      34.285  33.964  29.084  1.00  0.00     0.039 A 
ATOM     30  C   UNL A   1      34.102  32.950  30.032  1.00  0.00     0.014 A 
ATOM     31  C   UNL A   1      35.574  34.446  28.836  1.00  0.00     0.014 A 
ATOM     32  C   UNL A   1      35.204  32.382  30.679  1.00  0.00     0.010 A 
ATOM     33  C   UNL A   1      36.680  33.831  29.431  1.00  0.00     0.010 A 
ATOM     34  C   UNL A   1      36.508  32.795  30.359  1.00  0.00    -0.014 A 
BRANCH  34  35
ATOM     35  C   UNL A   1      37.684  32.133  30.984  1.00  0.00     0.031 A 
ATOM     36  C   UNL A   1      38.140  32.511  32.367  1.00  0.00     0.074 A 
ATOM     37  C   UNL A   1      38.371  31.207  30.287  1.00  0.00     0.049 A 
ATOM     38  N   UNL A   1      39.139  32.036  33.069  1.00  0.00    -0.248 NA
ATOM     39  C   UNL A   1      37.392  33.581  33.043  1.00  0.00     0.031 C 
ATOM     40  C   UNL A   1      38.074  30.791  28.916  1.00  0.00     0.029 A 
ATOM     41  N   UNL A   1      39.461  30.447  30.635  1.00  0.00    -0.354 N 
ATOM     42  C   UNL A   1      39.145  32.752  34.258  1.00  0.00     0.074 A 
ATOM     43  C   UNL A   1      38.081  33.729  34.165  1.00  0.00     0.031 C 
ATOM     44  C   UNL A   1      38.939  29.831  28.550  1.00  0.00     0.029 A 
ATOM     45  C   UNL A   1      39.866  29.582  29.649  1.00  0.00     0.049 A 
ATOM     46  H   UNL A   1      39.909  30.517  31.509  1.00  0.00     0.167 HD
ATOM     47  C   UNL A   1      39.947  32.596  35.339  1.00  0.00     0.037 A 
ATOM     48  C   UNL A   1      40.868  28.681  29.635  1.00  0.00     0.037 A 
ATOM     49  C   UNL A   1      40.990  31.607  35.446  1.00  0.00     0.049 A 
ATOM     50  C   UNL A   1      41.723  28.506  30.859  1.00  0.00     0.074 A 
ATOM     51  C   UNL A   1      41.815  31.335  36.524  1.00  0.00     0.029 A 
ATOM     52  N   UNL A   1      41.350  30.728  34.436  1.00  0.00    -0.354 N 
ATOM     53  N   UNL A   1      41.668  29.138  32.005  1.00  0.00    -0.248 NA
ATOM     54  C   UNL A   1      42.772  27.479  30.789  1.00  0.00     0.031 C 
ATOM     55  C   UNL A   1      42.699  30.314  36.154  1.00  0.00     0.029 A 
ATOM     56  C   UNL A   1      42.395  29.921  34.862  1.00  0.00     0.049 A 
ATOM     57  H   UNL A   1      40.928  30.682  33.549  1.00  0.00     0.167 HD
ATOM     58  C   UNL A   1      42.653  28.571  32.800  1.00  0.00     0.074 A 
ATOM     59  C   UNL A   1      43.279  27.530  32.012  1.00  0.00     0.031 C 
ATOM     60  C   UNL A   1      43.007  28.886  34.071  1.00  0.00     0.037 A 
BRANCH  47  61
ATOM     61  C   UNL A   1      39.723  33.514  36.505  1.00  0.00     0.064 A 
ATOM     62  C   UNL A   1      40.370  34.755  36.597  1.00  0.00     0.173 A 
ATOM     63  C   UNL A   1      38.821  33.168  37.524  1.00  0.00     0.173 A 
ATOM     64  F   UNL A   1      41.249  35.129  35.654  1.00  0.00    -0.203 F 
ATOM     65  C   UNL A   1      40.145  35.605  37.677  1.00  0.00     0.198 A 
ATOM     66  C   UNL A   1      38.577  34.032  38.589  1.00  0.00     0.198 A 
ATOM     67  F   UNL A   1      38.170  31.996  37.481  1.00  0.00    -0.203 F 
ATOM     68  F   UNL A   1      40.808  36.765  37.765  1.00  0.00    -0.200 F 
ATOM     69  C   UNL A   1      39.243  35.245  38.668  1.00  0.00     0.200 A 
ATOM     70  F   UNL A   1      37.697  33.688  39.540  1.00  0.00    -0.200 F 
ATOM     71  F   UNL A   1      39.022  36.066  39.704  1.00  0.00    -0.200 F 
ENDBRANCH  47  61
BRANCH  48  72
ATOM     72  C   UNL A   1      41.086  27.839  28.430  1.00  0.00     0.064 A 
ATOM     73  C   UNL A   1      42.023  28.210  27.457  1.00  0.00     0.173 A 
ATOM     74  C   UNL A   1      40.362  26.656  28.226  1.00  0.00     0.173 A 
ATOM     75  F   UNL A   1      42.722  29.345  27.599  1.00  0.00    -0.203 F 
ATOM     76  C   UNL A   1      42.215  27.438  26.313  1.00  0.00     0.198 A 
ATOM     77  C   UNL A   1      40.574  25.871  27.093  1.00  0.00     0.198 A 
ATOM     78  F   UNL A   1      39.457  26.257  29.131  1.00  0.00    -0.203 F 
ATOM     79  F   UNL A   1      43.086  27.839  25.375  1.00  0.00    -0.200 F 
ATOM     80  C   UNL A   1      41.494  26.267  26.135  1.00  0.00     0.200 A 
ATOM     81  F   UNL A   1      39.884  24.735  26.931  1.00  0.00    -0.200 F 
ATOM     82  F   UNL A   1      41.681  25.524  25.036  1.00  0.00    -0.200 F 
ENDBRANCH  48  72
BRANCH  60  83
ATOM     83  C   UNL A   1      44.104  28.073  34.696  1.00  0.00     0.064 A 
ATOM     84  C   UNL A   1      45.447  28.474  34.628  1.00  0.00     0.173 A 
ATOM     85  C   UNL A   1      43.805  26.887  35.384  1.00  0.00     0.173 A 
ATOM     86  F   UNL A   1      45.784  29.592  33.968  1.00  0.00    -0.203 F 
ATOM     87  C   UNL A   1      46.453  27.700  35.198  1.00  0.00     0.198 A 
ATOM     88  C   UNL A   1      44.812  26.131  35.976  1.00  0.00     0.198 A 
ATOM     89  F   UNL A   1      42.537  26.464  35.482  1.00  0.00    -0.203 F 
ATOM     90  F   UNL A   1      47.735  28.074  35.074  1.00  0.00    -0.200 F 
ATOM     91  C   UNL A   1      46.136  26.532  35.875  1.00  0.00     0.200 A 
ATOM     92  F   UNL A   1      44.502  25.008  36.639  1.00  0.00    -0.200 F 
ATOM     93  F   UNL A   1      47.106  25.788  36.423  1.00  0.00    -0.200 F 
ENDBRANCH  60  83
ENDBRANCH  34  35
ENDBRANCH  26  29
ENDBRANCH  24  25
ENDBRANCH  23  24
ENDBRANCH   1  23
TORSDOF 13
ENDMDL
MODEL 3
REMARK VINA RESULT:      -9.9      4.406      7.645
REMARK SMILES O=C(C[C@@H]1CN(c2cc(C(F)(F)F)ccn2)CCO1)NCCCNC(=O)c1ccc(-c2c3nc(c(-c4c(F)c(F)c(F)c(F)c4F)c4ccc([nH]4)c(-c4c(F)c(F)c(F)c(F)c4F)c4nc(c(-c5c(F)c(F)c(F)c(F)c5F)c5ccc2[nH]5)C=C4)C=C3)cc1
REMARK SMILES IDX 21 1 20 2 1 3 2 4 3 6 4 7 5 8 19 9 6 10 18 11 17 12 7 13
REMARK SMILES IDX 8 14 16 15 9 16 15 17 14 18 10 19 11 20 12 21 13 22 22 23
REMARK SMILES IDX 23 24 24 25 25 26 26 28 27 29 28 30 89 31 29 32 88 33 30 34
REMARK SMILES IDX 31 35 32 36 82 37 33 38 87 39 81 40 83 41 34 42 86 43 80 44
REMARK SMILES IDX 79 45 35 47 67 48 47 49 66 50 48 51 51 52 65 53 84 54 49 55
REMARK SMILES IDX 50 56 64 58 85 59 52 60 36 61 37 62 45 63 38 64 39 65 43 66
REMARK SMILES IDX 46 67 40 68 41 69 44 70 42 71 68 72 69 73 77 74 70 75 71 76
REMARK SMILES IDX 75 77 78 78 72 79 73 80 76 81 74 82 53 83 54 84 62 85 55 86
REMARK SMILES IDX 56 87 60 88 63 89 57 90 58 91 61 92 59 93
REMARK H PARENT 20 5 24 27 83 46 51 57
REMARK Flexibility Score: inf
ROOT
ATOM      1  C   UNL A   1      31.654  29.100  24.177  1.00  0.00     0.117 C 
ENDROOT
BRANCH   1   2
ATOM      2  N   UNL A   1      31.612  27.698  23.834  1.00  0.00    -0.356 N 
ATOM      3  O   UNL A   1      30.281  27.879  21.974  1.00  0.00    -0.275 OA
ATOM      4  C   UNL A   1      30.977  27.199  22.724  1.00  0.00     0.222 C 
ATOM      5  H   UNL A   1      32.064  27.062  24.434  1.00  0.00     0.163 HD
BRANCH   4   6
ATOM      6  C   UNL A   1      31.089  25.695  22.562  1.00  0.00     0.133 C 
BRANCH   6   7
ATOM      7  C   UNL A   1      31.448  24.876  23.815  1.00  0.00     0.147 C 
ATOM      8  C   UNL A   1      31.554  23.374  23.451  1.00  0.00     0.150 C 
ATOM      9  O   UNL A   1      30.477  25.053  24.873  1.00  0.00    -0.374 OA
ATOM     10  N   UNL A   1      31.820  22.610  24.667  1.00  0.00    -0.352 N 
ATOM     11  C   UNL A   1      30.845  24.316  26.054  1.00  0.00     0.182 C 
ATOM     12  C   UNL A   1      30.877  22.811  25.762  1.00  0.00     0.146 C 
BRANCH  10  13
ATOM     13  C   UNL A   1      32.612  21.491  24.656  1.00  0.00     0.129 A 
ATOM     14  C   UNL A   1      33.993  21.640  24.687  1.00  0.00     0.060 A 
ATOM     15  N   UNL A   1      32.040  20.274  24.722  1.00  0.00    -0.239 NA
ATOM     16  C   UNL A   1      34.820  20.521  24.823  1.00  0.00     0.061 A 
ATOM     17  C   UNL A   1      32.845  19.191  24.795  1.00  0.00     0.114 A 
ATOM     18  C   UNL A   1      34.225  19.262  24.855  1.00  0.00     0.033 A 
BRANCH  16  19
ATOM     19  C   UNL A   1      36.305  20.683  24.974  1.00  0.00     0.416 C 
ATOM     20  F   UNL A   1      36.642  21.340  26.118  1.00  0.00    -0.166 F 
ATOM     21  F   UNL A   1      36.957  19.490  25.016  1.00  0.00    -0.166 F 
ATOM     22  F   UNL A   1      36.880  21.388  23.959  1.00  0.00    -0.166 F 
ENDBRANCH  16  19
ENDBRANCH  10  13
ENDBRANCH   6   7
ENDBRANCH   4   6
ENDBRANCH   1   2
BRANCH   1  23
ATOM     23  C   UNL A   1      32.792  29.442  25.130  1.00  0.00     0.042 C 
BRANCH  23  24
ATOM     24  C   UNL A   1      32.362  29.885  26.528  1.00  0.00     0.118 C 
BRANCH  24  25
ATOM     25  N   UNL A   1      32.374  31.329  26.717  1.00  0.00    -0.352 N 
ATOM     26  C   UNL A   1      33.254  32.142  27.382  1.00  0.00     0.251 C 
ATOM     27  H   UNL A   1      31.622  31.803  26.292  1.00  0.00     0.163 HD
ATOM     28  O   UNL A   1      32.999  33.346  27.478  1.00  0.00    -0.269 OA
BRANCH  26  29
ATOM     29  C   UNL A   1      34.485  31.614  28.017  1.00  0.00     0.039 A 
ATOM     30  C   UNL A   1      35.553  32.497  28.219  1.00  0.00     0.014 A 
ATOM     31  C   UNL A   1      34.631  30.270  28.371  1.00  0.00     0.014 A 
ATOM     32  C   UNL A   1      36.731  32.051  28.826  1.00  0.00     0.010 A 
ATOM     33  C   UNL A   1      35.781  29.841  29.040  1.00  0.00     0.010 A 
ATOM     34  C   UNL A   1      36.844  30.725  29.273  1.00  0.00    -0.014 A 
BRANCH  34  35
ATOM     35  C   UNL A   1      38.063  30.272  29.995  1.00  0.00     0.031 A 
ATOM     36  C   UNL A   1      38.339  30.719  31.404  1.00  0.00     0.074 A 
ATOM     37  C   UNL A   1      38.948  29.476  29.365  1.00  0.00     0.049 A 
ATOM     38  N   UNL A   1      39.345  30.419  32.187  1.00  0.00    -0.248 NA
ATOM     39  C   UNL A   1      37.369  31.646  32.008  1.00  0.00     0.031 C 
ATOM     40  C   UNL A   1      38.834  29.018  27.979  1.00  0.00     0.029 A 
ATOM     41  N   UNL A   1      40.121  28.912  29.804  1.00  0.00    -0.354 N 
ATOM     42  C   UNL A   1      39.137  31.124  33.365  1.00  0.00     0.074 A 
ATOM     43  C   UNL A   1      37.934  31.906  33.178  1.00  0.00     0.031 C 
ATOM     44  C   UNL A   1      39.875  28.219  27.693  1.00  0.00     0.029 A 
ATOM     45  C   UNL A   1      40.743  28.129  28.863  1.00  0.00     0.049 A 
ATOM     46  H   UNL A   1      40.481  29.055  30.709  1.00  0.00     0.167 HD
ATOM     47  C   UNL A   1      39.867  31.104  34.506  1.00  0.00     0.037 A 
ATOM     48  C   UNL A   1      41.880  27.411  28.936  1.00  0.00     0.037 A 
ATOM     49  C   UNL A   1      41.050  30.307  34.706  1.00  0.00     0.049 A 
ATOM     50  C   UNL A   1      42.653  27.381  30.225  1.00  0.00     0.074 A 
ATOM     51  C   UNL A   1      41.822  30.176  35.847  1.00  0.00     0.029 A 
ATOM     52  N   UNL A   1      41.632  29.502  33.737  1.00  0.00    -0.354 N 
ATOM     53  N   UNL A   1      42.403  27.993  31.356  1.00  0.00    -0.248 NA
ATOM     54  C   UNL A   1      43.864  26.547  30.249  1.00  0.00     0.031 C 
ATOM     55  C   UNL A   1      42.893  29.320  35.559  1.00  0.00     0.029 A 
ATOM     56  C   UNL A   1      42.762  28.884  34.251  1.00  0.00     0.049 A 
ATOM     57  H   UNL A   1      41.294  29.387  32.820  1.00  0.00     0.167 HD
ATOM     58  C   UNL A   1      43.405  27.600  32.232  1.00  0.00     0.074 A 
ATOM     59  C   UNL A   1      44.258  26.682  31.507  1.00  0.00     0.031 C 
ATOM     60  C   UNL A   1      43.600  27.968  33.522  1.00  0.00     0.037 A 
BRANCH  47  61
ATOM     61  C   UNL A   1      39.400  31.969  35.641  1.00  0.00     0.064 A 
ATOM     62  C   UNL A   1      38.471  31.504  36.583  1.00  0.00     0.173 A 
ATOM     63  C   UNL A   1      39.918  33.262  35.814  1.00  0.00     0.173 A 
ATOM     64  F   UNL A   1      37.939  30.278  36.458  1.00  0.00    -0.203 F 
ATOM     65  C   UNL A   1      38.055  32.310  37.640  1.00  0.00     0.198 A 
ATOM     66  C   UNL A   1      39.521  34.056  36.888  1.00  0.00     0.198 A 
ATOM     67  F   UNL A   1      40.815  33.753  34.946  1.00  0.00    -0.203 F 
ATOM     68  F   UNL A   1      37.133  31.860  38.501  1.00  0.00    -0.200 F 
ATOM     69  C   UNL A   1      38.586  33.582  37.795  1.00  0.00     0.200 A 
ATOM     70  F   UNL A   1      40.044  35.280  37.043  1.00  0.00    -0.200 F 
ATOM     71  F   UNL A   1      38.190  34.354  38.816  1.00  0.00    -0.200 F 
ENDBRANCH  47  61
BRANCH  48  72
ATOM     72  C   UNL A   1      42.331  26.620  27.763  1.00  0.00     0.064 A 
ATOM     73  C   UNL A   1      43.274  27.142  26.867  1.00  0.00     0.173 A 
ATOM     74  C   UNL A   1      41.827  25.337  27.510  1.00  0.00     0.173 A 
ATOM     75  F   UNL A   1      43.767  28.374  27.056  1.00  0.00    -0.203 F 
ATOM     76  C   UNL A   1      43.682  26.415  25.750  1.00  0.00     0.198 A 
ATOM     77  C   UNL A   1      42.256  24.601  26.407  1.00  0.00     0.198 A 
ATOM     78  F   UNL A   1      40.926  24.793  28.341  1.00  0.00    -0.203 F 
ATOM     79  F   UNL A   1      44.553  26.955  24.885  1.00  0.00    -0.200 F 
ATOM     80  C   UNL A   1      43.178  25.144  25.525  1.00  0.00     0.200 A 
ATOM     81  F   UNL A   1      41.775  23.368  26.198  1.00  0.00    -0.200 F 
ATOM     82  F   UNL A   1      43.573  24.446  24.451  1.00  0.00    -0.200 F 
ENDBRANCH  48  72
BRANCH  60  83
ATOM     83  C   UNL A   1      44.766  27.353  34.240  1.00  0.00     0.064 A 
ATOM     84  C   UNL A   1      46.025  27.971  34.262  1.00  0.00     0.173 A 
ATOM     85  C   UNL A   1      44.617  26.137  34.925  1.00  0.00     0.173 A 
ATOM     86  F   UNL A   1      46.222  29.125  33.609  1.00  0.00    -0.203 F 
ATOM     87  C   UNL A   1      47.101  27.377  34.918  1.00  0.00     0.198 A 
ATOM     88  C   UNL A   1      45.688  25.562  35.602  1.00  0.00     0.198 A 
ATOM     89  F   UNL A   1      43.432  25.509  34.938  1.00  0.00    -0.203 F 
ATOM     90  F   UNL A   1      48.308  27.958  34.881  1.00  0.00    -0.200 F 
ATOM     91  C   UNL A   1      46.931  26.177  35.591  1.00  0.00     0.200 A 
ATOM     92  F   UNL A   1      45.519  24.406  36.261  1.00  0.00    -0.200 F 
ATOM     93  F   UNL A   1      47.967  25.607  36.221  1.00  0.00    -0.200 F 
ENDBRANCH  60  83
ENDBRANCH  34  35
ENDBRANCH  26  29
ENDBRANCH  24  25
ENDBRANCH  23  24
ENDBRANCH   1  23
TORSDOF 13
ENDMDL
