MODEL 1
REMARK VINA RESULT:     -13.5      0.000      0.000
REMARK SMILES O=C(NCCCNC(=O)c1ccc(-c2c3nc(c(-c4c(F)c(F)c(F)c(F)c4F)c4ccc([nH]4)c(-c4c(F)c(F)c(F)c(F)c4F)c4nc(c(-c5c(F)c(F)c(F)c(F)c5F)c5ccc2[nH]5)C=C4)C=C3)cc1)C1=Cc2cc(Cl)cc(Cl)c2O[C@@H]1C(F)(F)F
REMARK SMILES IDX 5 1 4 2 3 3 1 4 2 5 73 7 74 8 84 9 75 10 83 11 76 12 82 13
REMARK SMILES IDX 77 14 80 15 78 16 79 17 81 18 85 19 86 20 87 21 88 22 6 23
REMARK SMILES IDX 7 24 8 25 9 27 10 28 11 29 72 30 12 31 71 32 13 33 14 34
REMARK SMILES IDX 15 35 65 36 16 37 70 38 64 39 66 40 17 41 69 42 63 43 62 44
REMARK SMILES IDX 18 46 50 47 30 48 49 49 31 50 34 51 48 52 67 53 32 54 33 55
REMARK SMILES IDX 47 57 68 58 35 59 19 60 20 61 28 62 21 63 22 64 26 65 29 66
REMARK SMILES IDX 23 67 24 68 27 69 25 70 51 71 52 72 60 73 53 74 54 75 58 76
REMARK SMILES IDX 61 77 55 78 56 79 59 80 57 81 36 82 37 83 45 84 38 85 39 86
REMARK SMILES IDX 43 87 46 88 40 89 41 90 44 91 42 92
REMARK H PARENT 3 6 7 26 66 45 34 56
REMARK Flexibility Score: inf
ROOT
ATOM      1  C   UNL A   1      31.768  28.432  26.871  1.00  0.00     0.042 C 
ENDROOT
BRANCH   1   2
ATOM      2  C   UNL A   1      31.423  27.189  26.056  1.00  0.00     0.118 C 
BRANCH   2   3
ATOM      3  N   UNL A   1      31.282  25.979  26.867  1.00  0.00    -0.352 N 
ATOM      4  O   UNL A   1      31.777  23.908  27.617  1.00  0.00    -0.270 OA
ATOM      5  C   UNL A   1      31.789  24.711  26.693  1.00  0.00     0.251 C 
ATOM      6  H   UNL A   1      30.731  26.091  27.675  1.00  0.00     0.163 HD
BRANCH   5   7
ATOM      7  C   UNL A   1      32.475  24.406  25.417  1.00  0.00     0.067 C 
ATOM      8  C   UNL A   1      33.716  24.830  25.135  1.00  0.00     0.025 C 
ATOM      9  C   UNL A   1      31.873  23.319  24.584  1.00  0.00     0.314 C 
ATOM     10  C   UNL A   1      34.635  23.695  24.923  1.00  0.00     0.020 A 
ATOM     11  O   UNL A   1      32.768  22.193  24.436  1.00  0.00    -0.474 OA
ATOM     12  C   UNL A   1      35.976  23.820  25.322  1.00  0.00     0.032 A 
ATOM     13  C   UNL A   1      34.108  22.411  24.664  1.00  0.00     0.146 A 
ATOM     14  C   UNL A   1      36.763  22.678  25.496  1.00  0.00     0.043 A 
ATOM     15  C   UNL A   1      34.923  21.279  24.817  1.00  0.00     0.085 A 
ATOM     16  Cl  UNL A   1      38.357  22.830  26.129  1.00  0.00    -0.084 Cl
ATOM     17  C   UNL A   1      36.242  21.409  25.250  1.00  0.00     0.045 A 
ATOM     18  Cl  UNL A   1      34.277  19.687  24.626  1.00  0.00    -0.080 Cl
BRANCH   9  19
ATOM     19  C   UNL A   1      31.455  23.875  23.205  1.00  0.00     0.429 C 
ATOM     20  F   UNL A   1      31.306  25.219  23.243  1.00  0.00    -0.167 F 
ATOM     21  F   UNL A   1      32.376  23.609  22.249  1.00  0.00    -0.167 F 
ATOM     22  F   UNL A   1      30.278  23.355  22.777  1.00  0.00    -0.167 F 
ENDBRANCH   9  19
ENDBRANCH   5   7
ENDBRANCH   2   3
ENDBRANCH   1   2
BRANCH   1  23
ATOM     23  C   UNL A   1      32.546  29.465  26.064  1.00  0.00     0.118 C 
BRANCH  23  24
ATOM     24  N   UNL A   1      32.347  30.838  26.521  1.00  0.00    -0.352 N 
ATOM     25  C   UNL A   1      33.133  31.695  27.272  1.00  0.00     0.251 C 
ATOM     26  H   UNL A   1      31.489  31.230  26.240  1.00  0.00     0.163 HD
ATOM     27  O   UNL A   1      32.683  32.763  27.626  1.00  0.00    -0.269 OA
BRANCH  25  28
ATOM     28  C   UNL A   1      34.499  31.293  27.695  1.00  0.00     0.039 A 
ATOM     29  C   UNL A   1      35.488  32.279  27.802  1.00  0.00     0.014 A 
ATOM     30  C   UNL A   1      34.812  29.973  28.002  1.00  0.00     0.014 A 
ATOM     31  C   UNL A   1      36.733  31.961  28.354  1.00  0.00     0.010 A 
ATOM     32  C   UNL A   1      35.999  29.682  28.664  1.00  0.00     0.010 A 
ATOM     33  C   UNL A   1      36.965  30.678  28.873  1.00  0.00    -0.014 A 
BRANCH  33  34
ATOM     34  C   UNL A   1      38.173  30.351  29.679  1.00  0.00     0.031 A 
ATOM     35  C   UNL A   1      39.202  29.391  29.145  1.00  0.00     0.074 A 
ATOM     36  C   UNL A   1      38.275  30.810  30.944  1.00  0.00     0.049 A 
ATOM     37  N   UNL A   1      40.195  28.809  29.766  1.00  0.00    -0.248 NA
ATOM     38  C   UNL A   1      39.065  28.997  27.733  1.00  0.00     0.031 C 
ATOM     39  C   UNL A   1      37.320  31.704  31.605  1.00  0.00     0.029 A 
ATOM     40  N   UNL A   1      39.218  30.566  31.914  1.00  0.00    -0.354 N 
ATOM     41  C   UNL A   1      40.777  27.958  28.836  1.00  0.00     0.074 A 
ATOM     42  C   UNL A   1      39.997  28.061  27.622  1.00  0.00     0.031 C 
ATOM     43  C   UNL A   1      37.737  31.951  32.856  1.00  0.00     0.029 A 
ATOM     44  C   UNL A   1      38.953  31.189  33.110  1.00  0.00     0.049 A 
ATOM     45  H   UNL A   1      40.009  29.999  31.765  1.00  0.00     0.167 HD
ATOM     46  C   UNL A   1      41.877  27.180  28.972  1.00  0.00     0.037 A 
ATOM     47  C   UNL A   1      39.602  31.131  34.290  1.00  0.00     0.037 A 
ATOM     48  C   UNL A   1      42.683  27.123  30.163  1.00  0.00     0.049 A 
ATOM     49  C   UNL A   1      40.820  30.258  34.413  1.00  0.00     0.074 A 
ATOM     50  C   UNL A   1      43.865  26.432  30.371  1.00  0.00     0.029 A 
ATOM     51  N   UNL A   1      42.395  27.790  31.343  1.00  0.00    -0.354 N 
ATOM     52  N   UNL A   1      41.389  29.499  33.509  1.00  0.00    -0.248 NA
ATOM     53  C   UNL A   1      41.482  30.227  35.725  1.00  0.00     0.031 C 
ATOM     54  C   UNL A   1      44.273  26.653  31.691  1.00  0.00     0.029 A 
ATOM     55  C   UNL A   1      43.365  27.511  32.291  1.00  0.00     0.049 A 
ATOM     56  H   UNL A   1      41.617  28.376  31.486  1.00  0.00     0.167 HD
ATOM     57  C   UNL A   1      42.480  28.913  34.135  1.00  0.00     0.074 A 
ATOM     58  C   UNL A   1      42.508  29.422  35.491  1.00  0.00     0.031 C 
ATOM     59  C   UNL A   1      43.375  28.029  33.635  1.00  0.00     0.037 A 
BRANCH  46  60
ATOM     60  C   UNL A   1      42.288  26.339  27.799  1.00  0.00     0.064 A 
ATOM     61  C   UNL A   1      43.292  26.757  26.914  1.00  0.00     0.173 A 
ATOM     62  C   UNL A   1      41.707  25.080  27.586  1.00  0.00     0.173 A 
ATOM     63  F   UNL A   1      43.871  27.958  27.069  1.00  0.00    -0.203 F 
ATOM     64  C   UNL A   1      43.682  25.958  25.843  1.00  0.00     0.198 A 
ATOM     65  C   UNL A   1      42.119  24.271  26.530  1.00  0.00     0.198 A 
ATOM     66  F   UNL A   1      40.746  24.629  28.406  1.00  0.00    -0.203 F 
ATOM     67  F   UNL A   1      44.612  26.399  24.984  1.00  0.00    -0.200 F 
ATOM     68  C   UNL A   1      43.101  24.713  25.656  1.00  0.00     0.200 A 
ATOM     69  F   UNL A   1      41.566  23.062  26.357  1.00  0.00    -0.200 F 
ATOM     70  F   UNL A   1      43.485  23.941  24.630  1.00  0.00    -0.200 F 
ENDBRANCH  46  60
BRANCH  47  71
ATOM     71  C   UNL A   1      39.115  31.921  35.450  1.00  0.00     0.064 A 
ATOM     72  C   UNL A   1      39.492  33.262  35.611  1.00  0.00     0.173 A 
ATOM     73  C   UNL A   1      38.282  31.356  36.427  1.00  0.00     0.173 A 
ATOM     74  F   UNL A   1      40.306  33.840  34.716  1.00  0.00    -0.203 F 
ATOM     75  C   UNL A   1      39.072  34.001  36.716  1.00  0.00     0.198 A 
ATOM     76  C   UNL A   1      37.840  32.105  37.517  1.00  0.00     0.198 A 
ATOM     77  F   UNL A   1      37.889  30.078  36.319  1.00  0.00    -0.203 F 
ATOM     78  F   UNL A   1      39.487  35.265  36.870  1.00  0.00    -0.200 F 
ATOM     79  C   UNL A   1      38.242  33.423  37.665  1.00  0.00     0.200 A 
ATOM     80  F   UNL A   1      37.027  31.546  38.424  1.00  0.00    -0.200 F 
ATOM     81  F   UNL A   1      37.839  34.134  38.727  1.00  0.00    -0.200 F 
ENDBRANCH  47  71
BRANCH  59  82
ATOM     82  C   UNL A   1      44.466  27.564  34.551  1.00  0.00     0.064 A 
ATOM     83  C   UNL A   1      44.325  26.401  35.321  1.00  0.00     0.173 A 
ATOM     84  C   UNL A   1      45.681  28.260  34.625  1.00  0.00     0.173 A 
ATOM     85  F   UNL A   1      43.174  25.712  35.298  1.00  0.00    -0.203 F 
ATOM     86  C   UNL A   1      45.357  25.959  36.144  1.00  0.00     0.198 A 
ATOM     87  C   UNL A   1      46.721  27.801  35.427  1.00  0.00     0.198 A 
ATOM     88  F   UNL A   1      45.865  29.377  33.903  1.00  0.00    -0.203 F 
ATOM     89  F   UNL A   1      45.187  24.865  36.899  1.00  0.00    -0.200 F 
ATOM     90  C   UNL A   1      46.557  26.654  36.189  1.00  0.00     0.200 A 
ATOM     91  F   UNL A   1      47.884  28.467  35.462  1.00  0.00    -0.200 F 
ATOM     92  F   UNL A   1      47.553  26.221  36.974  1.00  0.00    -0.200 F 
ENDBRANCH  59  82
ENDBRANCH  33  34
ENDBRANCH  25  28
ENDBRANCH  23  24
ENDBRANCH   1  23
TORSDOF 11
ENDMDL
MODEL 2
REMARK VINA RESULT:     -13.5      1.893      2.691
REMARK SMILES O=C(NCCCNC(=O)c1ccc(-c2c3nc(c(-c4c(F)c(F)c(F)c(F)c4F)c4ccc([nH]4)c(-c4c(F)c(F)c(F)c(F)c4F)c4nc(c(-c5c(F)c(F)c(F)c(F)c5F)c5ccc2[nH]5)C=C4)C=C3)cc1)C1=Cc2cc(Cl)cc(Cl)c2O[C@@H]1C(F)(F)F
REMARK SMILES IDX 5 1 4 2 3 3 1 4 2 5 73 7 74 8 84 9 75 10 83 11 76 12 82 13
REMARK SMILES IDX 77 14 80 15 78 16 79 17 81 18 85 19 86 20 87 21 88 22 6 23
REMARK SMILES IDX 7 24 8 25 9 27 10 28 11 29 72 30 12 31 71 32 13 33 14 34
REMARK SMILES IDX 15 35 65 36 16 37 70 38 64 39 66 40 17 41 69 42 63 43 62 44
REMARK SMILES IDX 18 46 50 47 30 48 49 49 31 50 34 51 48 52 67 53 32 54 33 55
REMARK SMILES IDX 47 57 68 58 35 59 19 60 20 61 28 62 21 63 22 64 26 65 29 66
REMARK SMILES IDX 23 67 24 68 27 69 25 70 51 71 52 72 60 73 53 74 54 75 58 76
REMARK SMILES IDX 61 77 55 78 56 79 59 80 57 81 36 82 37 83 45 84 38 85 39 86
REMARK SMILES IDX 43 87 46 88 40 89 41 90 44 91 42 92
REMARK H PARENT 3 6 7 26 66 45 34 56
REMARK Flexibility Score: inf
ROOT
ATOM      1  C   UNL A   1      31.824  28.473  26.506  1.00  0.00     0.042 C 
ENDROOT
BRANCH   1   2
ATOM      2  C   UNL A   1      32.547  27.131  26.439  1.00  0.00     0.118 C 
BRANCH   2   3
ATOM      3  N   UNL A   1      31.801  26.034  27.056  1.00  0.00    -0.352 N 
ATOM      4  O   UNL A   1      30.759  24.035  27.175  1.00  0.00    -0.270 OA
ATOM      5  C   UNL A   1      31.089  24.998  26.495  1.00  0.00     0.251 C 
ATOM      6  H   UNL A   1      31.810  26.036  28.041  1.00  0.00     0.163 HD
BRANCH   5   7
ATOM      7  C   UNL A   1      30.869  25.018  25.031  1.00  0.00     0.067 C 
ATOM      8  C   UNL A   1      29.835  25.649  24.457  1.00  0.00     0.025 C 
ATOM      9  C   UNL A   1      32.028  24.602  24.181  1.00  0.00     0.314 C 
ATOM     10  C   UNL A   1      30.294  26.718  23.550  1.00  0.00     0.020 A 
ATOM     11  O   UNL A   1      32.499  25.681  23.342  1.00  0.00    -0.474 OA
ATOM     12  C   UNL A   1      29.523  27.887  23.428  1.00  0.00     0.032 A 
ATOM     13  C   UNL A   1      31.634  26.725  23.103  1.00  0.00     0.146 A 
ATOM     14  C   UNL A   1      30.095  29.049  22.903  1.00  0.00     0.043 A 
ATOM     15  C   UNL A   1      32.180  27.895  22.553  1.00  0.00     0.085 A 
ATOM     16  Cl  UNL A   1      29.189  30.514  22.895  1.00  0.00    -0.084 Cl
ATOM     17  C   UNL A   1      31.419  29.060  22.469  1.00  0.00     0.045 A 
ATOM     18  Cl  UNL A   1      33.848  27.972  22.108  1.00  0.00    -0.080 Cl
BRANCH   9  19
ATOM     19  C   UNL A   1      31.648  23.369  23.331  1.00  0.00     0.429 C 
ATOM     20  F   UNL A   1      32.471  23.236  22.265  1.00  0.00    -0.167 F 
ATOM     21  F   UNL A   1      31.734  22.218  24.039  1.00  0.00    -0.167 F 
ATOM     22  F   UNL A   1      30.382  23.445  22.852  1.00  0.00    -0.167 F 
ENDBRANCH   9  19
ENDBRANCH   5   7
ENDBRANCH   2   3
ENDBRANCH   1   2
BRANCH   1  23
ATOM     23  C   UNL A   1      32.614  29.598  25.846  1.00  0.00     0.118 C 
BRANCH  23  24
ATOM     24  N   UNL A   1      32.354  30.914  26.423  1.00  0.00    -0.352 N 
ATOM     25  C   UNL A   1      33.094  31.727  27.264  1.00  0.00     0.251 C 
ATOM     26  H   UNL A   1      31.485  31.297  26.163  1.00  0.00     0.163 HD
ATOM     27  O   UNL A   1      32.596  32.740  27.706  1.00  0.00    -0.269 OA
BRANCH  25  28
ATOM     28  C   UNL A   1      34.468  31.341  27.673  1.00  0.00     0.039 A 
ATOM     29  C   UNL A   1      35.443  32.340  27.783  1.00  0.00     0.014 A 
ATOM     30  C   UNL A   1      34.802  30.023  27.965  1.00  0.00     0.014 A 
ATOM     31  C   UNL A   1      36.697  32.034  28.323  1.00  0.00     0.010 A 
ATOM     32  C   UNL A   1      35.998  29.742  28.616  1.00  0.00     0.010 A 
ATOM     33  C   UNL A   1      36.951  30.749  28.828  1.00  0.00    -0.014 A 
BRANCH  33  34
ATOM     34  C   UNL A   1      38.169  30.431  29.622  1.00  0.00     0.031 A 
ATOM     35  C   UNL A   1      39.191  29.466  29.086  1.00  0.00     0.074 A 
ATOM     36  C   UNL A   1      38.287  30.904  30.881  1.00  0.00     0.049 A 
ATOM     37  N   UNL A   1      40.193  28.891  29.701  1.00  0.00    -0.248 NA
ATOM     38  C   UNL A   1      39.037  29.057  27.680  1.00  0.00     0.031 C 
ATOM     39  C   UNL A   1      37.340  31.805  31.544  1.00  0.00     0.029 A 
ATOM     40  N   UNL A   1      39.242  30.671  31.841  1.00  0.00    -0.354 N 
ATOM     41  C   UNL A   1      40.762  28.030  28.773  1.00  0.00     0.074 A 
ATOM     42  C   UNL A   1      39.967  28.119  27.568  1.00  0.00     0.031 C 
ATOM     43  C   UNL A   1      37.772  32.066  32.787  1.00  0.00     0.029 A 
ATOM     44  C   UNL A   1      38.992  31.307  33.034  1.00  0.00     0.049 A 
ATOM     45  H   UNL A   1      40.031  30.103  31.688  1.00  0.00     0.167 HD
ATOM     46  C   UNL A   1      41.865  27.254  28.904  1.00  0.00     0.037 A 
ATOM     47  C   UNL A   1      39.655  31.262  34.206  1.00  0.00     0.037 A 
ATOM     48  C   UNL A   1      42.686  27.210  30.085  1.00  0.00     0.049 A 
ATOM     49  C   UNL A   1      40.876  30.391  34.323  1.00  0.00     0.074 A 
ATOM     50  C   UNL A   1      43.870  26.522  30.286  1.00  0.00     0.029 A 
ATOM     51  N   UNL A   1      42.413  27.890  31.261  1.00  0.00    -0.354 N 
ATOM     52  N   UNL A   1      41.433  29.622  33.420  1.00  0.00    -0.248 NA
ATOM     53  C   UNL A   1      41.554  30.375  35.627  1.00  0.00     0.031 C 
ATOM     54  C   UNL A   1      44.295  26.757  31.597  1.00  0.00     0.029 A 
ATOM     55  C   UNL A   1      43.394  27.621  32.200  1.00  0.00     0.049 A 
ATOM     56  H   UNL A   1      41.636  28.477  31.407  1.00  0.00     0.167 HD
ATOM     57  C   UNL A   1      42.532  29.044  34.039  1.00  0.00     0.074 A 
ATOM     58  C   UNL A   1      42.577  29.567  35.389  1.00  0.00     0.031 C 
ATOM     59  C   UNL A   1      43.421  28.154  33.537  1.00  0.00     0.037 A 
BRANCH  46  60
ATOM     60  C   UNL A   1      42.261  26.400  27.735  1.00  0.00     0.064 A 
ATOM     61  C   UNL A   1      43.233  26.821  26.816  1.00  0.00     0.173 A 
ATOM     62  C   UNL A   1      41.700  25.126  27.559  1.00  0.00     0.173 A 
ATOM     63  F   UNL A   1      43.792  28.036  26.934  1.00  0.00    -0.203 F 
ATOM     64  C   UNL A   1      43.610  26.011  25.749  1.00  0.00     0.198 A 
ATOM     65  C   UNL A   1      42.101  24.306  26.507  1.00  0.00     0.198 A 
ATOM     66  F   UNL A   1      40.770  24.671  28.412  1.00  0.00    -0.203 F 
ATOM     67  F   UNL A   1      44.508  26.455  24.858  1.00  0.00    -0.200 F 
ATOM     68  C   UNL A   1      43.050  24.752  25.599  1.00  0.00     0.200 A 
ATOM     69  F   UNL A   1      41.567  23.084  26.370  1.00  0.00    -0.200 F 
ATOM     70  F   UNL A   1      43.422  23.969  24.577  1.00  0.00    -0.200 F 
ENDBRANCH  46  60
BRANCH  47  71
ATOM     71  C   UNL A   1      39.183  32.065  35.363  1.00  0.00     0.064 A 
ATOM     72  C   UNL A   1      39.529  33.418  35.485  1.00  0.00     0.173 A 
ATOM     73  C   UNL A   1      38.394  31.501  36.377  1.00  0.00     0.173 A 
ATOM     74  F   UNL A   1      40.301  33.997  34.553  1.00  0.00    -0.203 F 
ATOM     75  C   UNL A   1      39.123  34.170  36.586  1.00  0.00     0.198 A 
ATOM     76  C   UNL A   1      37.965  32.262  37.463  1.00  0.00     0.198 A 
ATOM     77  F   UNL A   1      38.031  30.211  36.308  1.00  0.00    -0.203 F 
ATOM     78  F   UNL A   1      39.510  35.448  36.700  1.00  0.00    -0.200 F 
ATOM     79  C   UNL A   1      38.338  33.593  37.572  1.00  0.00     0.200 A 
ATOM     80  F   UNL A   1      37.195  31.703  38.407  1.00  0.00    -0.200 F 
ATOM     81  F   UNL A   1      37.948  34.316  38.629  1.00  0.00    -0.200 F 
ENDBRANCH  47  71
BRANCH  59  82
ATOM     82  C   UNL A   1      44.524  27.700  34.445  1.00  0.00     0.064 A 
ATOM     83  C   UNL A   1      44.395  26.541  35.224  1.00  0.00     0.173 A 
ATOM     84  C   UNL A   1      45.737  28.401  34.500  1.00  0.00     0.173 A 
ATOM     85  F   UNL A   1      43.247  25.848  35.219  1.00  0.00    -0.203 F 
ATOM     86  C   UNL A   1      45.438  26.109  36.039  1.00  0.00     0.198 A 
ATOM     87  C   UNL A   1      46.787  27.951  35.295  1.00  0.00     0.198 A 
ATOM     88  F   UNL A   1      45.909  29.513  33.769  1.00  0.00    -0.203 F 
ATOM     89  F   UNL A   1      45.281  25.020  36.804  1.00  0.00    -0.200 F 
ATOM     90  C   UNL A   1      46.636  26.809  36.066  1.00  0.00     0.200 A 
ATOM     91  F   UNL A   1      47.948  28.622  35.312  1.00  0.00    -0.200 F 
ATOM     92  F   UNL A   1      47.642  26.385  36.843  1.00  0.00    -0.200 F 
ENDBRANCH  59  82
ENDBRANCH  33  34
ENDBRANCH  25  28
ENDBRANCH  23  24
ENDBRANCH   1  23
TORSDOF 11
ENDMDL
MODEL 3
REMARK VINA RESULT:     -13.4      1.896      3.140
REMARK SMILES O=C(NCCCNC(=O)c1ccc(-c2c3nc(c(-c4c(F)c(F)c(F)c(F)c4F)c4ccc([nH]4)c(-c4c(F)c(F)c(F)c(F)c4F)c4nc(c(-c5c(F)c(F)c(F)c(F)c5F)c5ccc2[nH]5)C=C4)C=C3)cc1)C1=Cc2cc(Cl)cc(Cl)c2O[C@@H]1C(F)(F)F
REMARK SMILES IDX 5 1 4 2 3 3 1 4 2 5 73 7 74 8 84 9 75 10 83 11 76 12 82 13
REMARK SMILES IDX 77 14 80 15 78 16 79 17 81 18 85 19 86 20 87 21 88 22 6 23
REMARK SMILES IDX 7 24 8 25 9 27 10 28 11 29 72 30 12 31 71 32 13 33 14 34
REMARK SMILES IDX 15 35 65 36 16 37 70 38 64 39 66 40 17 41 69 42 63 43 62 44
REMARK SMILES IDX 18 46 50 47 30 48 49 49 31 50 34 51 48 52 67 53 32 54 33 55
REMARK SMILES IDX 47 57 68 58 35 59 19 60 20 61 28 62 21 63 22 64 26 65 29 66
REMARK SMILES IDX 23 67 24 68 27 69 25 70 51 71 52 72 60 73 53 74 54 75 58 76
REMARK SMILES IDX 61 77 55 78 56 79 59 80 57 81 36 82 37 83 45 84 38 85 39 86
REMARK SMILES IDX 43 87 46 88 40 89 41 90 44 91 42 92
REMARK H PARENT 3 6 7 26 66 45 34 56
REMARK Flexibility Score: inf
ROOT
ATOM      1  C   UNL A   1      31.889  28.479  26.627  1.00  0.00     0.042 C 
ENDROOT
BRANCH   1   2
ATOM      2  C   UNL A   1      32.558  27.116  26.486  1.00  0.00     0.118 C 
BRANCH   2   3
ATOM      3  N   UNL A   1      31.779  26.020  27.066  1.00  0.00    -0.352 N 
ATOM      4  O   UNL A   1      30.701  24.037  27.126  1.00  0.00    -0.270 OA
ATOM      5  C   UNL A   1      31.064  25.006  26.471  1.00  0.00     0.251 C 
ATOM      6  H   UNL A   1      31.763  26.007  28.051  1.00  0.00     0.163 HD
BRANCH   5   7
ATOM      7  C   UNL A   1      30.882  25.054  25.002  1.00  0.00     0.067 C 
ATOM      8  C   UNL A   1      29.854  25.684  24.414  1.00  0.00     0.025 C 
ATOM      9  C   UNL A   1      32.067  24.670  24.173  1.00  0.00     0.314 C 
ATOM     10  C   UNL A   1      30.323  26.778  23.542  1.00  0.00     0.020 A 
ATOM     11  O   UNL A   1      32.545  25.772  23.370  1.00  0.00    -0.474 OA
ATOM     12  C   UNL A   1      29.541  27.939  23.424  1.00  0.00     0.032 A 
ATOM     13  C   UNL A   1      31.673  26.810  23.130  1.00  0.00     0.146 A 
ATOM     14  C   UNL A   1      30.111  29.119  22.938  1.00  0.00     0.043 A 
ATOM     15  C   UNL A   1      32.218  27.997  22.618  1.00  0.00     0.085 A 
ATOM     16  Cl  UNL A   1      29.187  30.573  22.937  1.00  0.00    -0.084 Cl
ATOM     17  C   UNL A   1      31.445  29.155  22.539  1.00  0.00     0.045 A 
ATOM     18  Cl  UNL A   1      33.896  28.104  22.218  1.00  0.00    -0.080 Cl
BRANCH   9  19
ATOM     19  C   UNL A   1      31.724  23.451  23.289  1.00  0.00     0.429 C 
ATOM     20  F   UNL A   1      32.445  23.457  22.144  1.00  0.00    -0.167 F 
ATOM     21  F   UNL A   1      31.991  22.279  23.914  1.00  0.00    -0.167 F 
ATOM     22  F   UNL A   1      30.415  23.422  22.938  1.00  0.00    -0.167 F 
ENDBRANCH   9  19
ENDBRANCH   5   7
ENDBRANCH   2   3
ENDBRANCH   1   2
BRANCH   1  23
ATOM     23  C   UNL A   1      32.656  29.585  25.907  1.00  0.00     0.118 C 
BRANCH  23  24
ATOM     24  N   UNL A   1      32.411  30.918  26.451  1.00  0.00    -0.352 N 
ATOM     25  C   UNL A   1      33.159  31.741  27.275  1.00  0.00     0.251 C 
ATOM     26  H   UNL A   1      31.548  31.306  26.179  1.00  0.00     0.163 HD
ATOM     27  O   UNL A   1      32.674  32.772  27.690  1.00  0.00    -0.269 OA
BRANCH  25  28
ATOM     28  C   UNL A   1      34.527  31.347  27.698  1.00  0.00     0.039 A 
ATOM     29  C   UNL A   1      35.512  32.337  27.802  1.00  0.00     0.014 A 
ATOM     30  C   UNL A   1      34.846  30.029  28.009  1.00  0.00     0.014 A 
ATOM     31  C   UNL A   1      36.758  32.026  28.355  1.00  0.00     0.010 A 
ATOM     32  C   UNL A   1      36.035  29.745  28.672  1.00  0.00     0.010 A 
ATOM     33  C   UNL A   1      36.996  30.746  28.878  1.00  0.00    -0.014 A 
BRANCH  33  34
ATOM     34  C   UNL A   1      38.206  30.426  29.684  1.00  0.00     0.031 A 
ATOM     35  C   UNL A   1      39.234  29.462  29.157  1.00  0.00     0.074 A 
ATOM     36  C   UNL A   1      38.310  30.897  30.945  1.00  0.00     0.049 A 
ATOM     37  N   UNL A   1      40.229  28.886  29.781  1.00  0.00    -0.248 NA
ATOM     38  C   UNL A   1      39.094  29.055  27.748  1.00  0.00     0.031 C 
ATOM     39  C   UNL A   1      37.356  31.796  31.599  1.00  0.00     0.029 A 
ATOM     40  N   UNL A   1      39.255  30.661  31.915  1.00  0.00    -0.354 N 
ATOM     41  C   UNL A   1      40.808  28.026  28.857  1.00  0.00     0.074 A 
ATOM     42  C   UNL A   1      40.026  28.118  27.644  1.00  0.00     0.031 C 
ATOM     43  C   UNL A   1      37.775  32.055  32.847  1.00  0.00     0.029 A 
ATOM     44  C   UNL A   1      38.992  31.295  33.106  1.00  0.00     0.049 A 
ATOM     45  H   UNL A   1      40.045  30.093  31.769  1.00  0.00     0.167 HD
ATOM     46  C   UNL A   1      41.909  27.250  28.999  1.00  0.00     0.037 A 
ATOM     47  C   UNL A   1      39.643  31.248  34.285  1.00  0.00     0.037 A 
ATOM     48  C   UNL A   1      42.717  27.203  30.188  1.00  0.00     0.049 A 
ATOM     49  C   UNL A   1      40.862  30.376  34.413  1.00  0.00     0.074 A 
ATOM     50  C   UNL A   1      43.899  26.515  30.401  1.00  0.00     0.029 A 
ATOM     51  N   UNL A   1      42.432  27.881  31.363  1.00  0.00    -0.354 N 
ATOM     52  N   UNL A   1      41.429  29.609  33.515  1.00  0.00    -0.248 NA
ATOM     53  C   UNL A   1      41.526  30.357  35.725  1.00  0.00     0.031 C 
ATOM     54  C   UNL A   1      44.310  26.748  31.717  1.00  0.00     0.029 A 
ATOM     55  C   UNL A   1      43.403  27.610  32.312  1.00  0.00     0.049 A 
ATOM     56  H   UNL A   1      41.653  28.468  31.502  1.00  0.00     0.167 HD
ATOM     57  C   UNL A   1      42.521  29.029  34.145  1.00  0.00     0.074 A 
ATOM     58  C   UNL A   1      42.552  29.550  35.496  1.00  0.00     0.031 C 
ATOM     59  C   UNL A   1      43.416  28.141  33.651  1.00  0.00     0.037 A 
BRANCH  46  60
ATOM     60  C   UNL A   1      42.317  26.398  27.833  1.00  0.00     0.064 A 
ATOM     61  C   UNL A   1      41.742  25.139  27.608  1.00  0.00     0.173 A 
ATOM     62  C   UNL A   1      43.257  26.866  26.902  1.00  0.00     0.173 A 
ATOM     63  F   UNL A   1      40.847  24.641  28.474  1.00  0.00    -0.203 F 
ATOM     64  C   UNL A   1      42.111  24.368  26.509  1.00  0.00     0.198 A 
ATOM     65  C   UNL A   1      43.603  26.105  25.789  1.00  0.00     0.198 A 
ATOM     66  F   UNL A   1      43.834  28.066  27.066  1.00  0.00    -0.203 F 
ATOM     67  F   UNL A   1      41.581  23.148  26.340  1.00  0.00    -0.200 F 
ATOM     68  C   UNL A   1      43.035  24.854  25.597  1.00  0.00     0.200 A 
ATOM     69  F   UNL A   1      44.487  26.581  24.900  1.00  0.00    -0.200 F 
ATOM     70  F   UNL A   1      43.382  24.114  24.534  1.00  0.00    -0.200 F 
ENDBRANCH  46  60
BRANCH  47  71
ATOM     71  C   UNL A   1      39.158  32.048  35.439  1.00  0.00     0.064 A 
ATOM     72  C   UNL A   1      39.496  33.403  35.562  1.00  0.00     0.173 A 
ATOM     73  C   UNL A   1      38.367  31.480  36.448  1.00  0.00     0.173 A 
ATOM     74  F   UNL A   1      40.271  33.986  34.635  1.00  0.00    -0.203 F 
ATOM     75  C   UNL A   1      39.079  34.154  36.660  1.00  0.00     0.198 A 
ATOM     76  C   UNL A   1      37.926  32.239  37.531  1.00  0.00     0.198 A 
ATOM     77  F   UNL A   1      38.012  30.188  36.377  1.00  0.00    -0.203 F 
ATOM     78  F   UNL A   1      39.457  35.433  36.776  1.00  0.00    -0.200 F 
ATOM     79  C   UNL A   1      38.290  33.572  37.641  1.00  0.00     0.200 A 
ATOM     80  F   UNL A   1      37.153  31.676  38.469  1.00  0.00    -0.200 F 
ATOM     81  F   UNL A   1      37.889  34.293  38.696  1.00  0.00    -0.200 F 
ENDBRANCH  47  71
BRANCH  59  82
ATOM     82  C   UNL A   1      44.509  27.684  34.569  1.00  0.00     0.064 A 
ATOM     83  C   UNL A   1      45.704  28.408  34.695  1.00  0.00     0.173 A 
ATOM     84  C   UNL A   1      44.342  26.543  35.365  1.00  0.00     0.173 A 
ATOM     85  F   UNL A   1      45.917  29.495  33.940  1.00  0.00    -0.203 F 
ATOM     86  C   UNL A   1      46.699  27.994  35.575  1.00  0.00     0.198 A 
ATOM     87  C   UNL A   1      45.327  26.147  36.264  1.00  0.00     0.198 A 
ATOM     88  F   UNL A   1      43.214  25.821  35.284  1.00  0.00    -0.203 F 
ATOM     89  F   UNL A   1      47.849  28.678  35.653  1.00  0.00    -0.200 F 
ATOM     90  C   UNL A   1      46.506  26.870  36.366  1.00  0.00     0.200 A 
ATOM     91  F   UNL A   1      45.135  25.068  37.035  1.00  0.00    -0.200 F 
ATOM     92  F   UNL A   1      47.462  26.479  37.220  1.00  0.00    -0.200 F 
ENDBRANCH  59  82
ENDBRANCH  33  34
ENDBRANCH  25  28
ENDBRANCH  23  24
ENDBRANCH   1  23
TORSDOF 11
ENDMDL
