MODEL 1
REMARK VINA RESULT:     -11.9      0.000      0.000
REMARK SMILES NNS(=O)(=O)c1ccc(O)c(C(=O)NCCCNC(=O)c2ccc(-c3c4nc(c(-c5c(F)c(F)c(F)c(F)c5F)c5ccc([nH]5)c(-c5c(F)c(F)c(F)c(F)c5F)c5nc(c(-c6c(F)c(F)c(F)c(F)c6F)c6ccc3[nH]6)C=C5)C=C4)cc2)c1
REMARK SMILES IDX 15 1 14 2 12 3 13 4 11 6 6 7 7 8 84 9 8 10 9 11 3 12 4 13
REMARK SMILES IDX 5 14 2 15 1 17 10 20 16 22 17 23 18 24 19 25 20 27 21 28
REMARK SMILES IDX 22 29 83 30 23 31 82 32 24 33 25 34 26 35 76 36 27 37 81 38
REMARK SMILES IDX 75 39 77 40 28 41 80 42 74 43 73 44 29 46 61 47 41 48 60 49
REMARK SMILES IDX 42 50 45 51 59 52 78 53 43 54 44 55 58 57 79 58 46 59 30 60
REMARK SMILES IDX 31 61 39 62 32 63 33 64 37 65 40 66 34 67 35 68 38 69 36 70
REMARK SMILES IDX 62 71 63 72 71 73 64 74 65 75 69 76 72 77 66 78 67 79 70 80
REMARK SMILES IDX 68 81 47 82 48 83 56 84 49 85 50 86 54 87 57 88 51 89 52 90
REMARK SMILES IDX 55 91 53 92
REMARK H PARENT 14 5 2 16 1 18 1 19 10 21 18 26 77 45 45 56
REMARK Flexibility Score: inf
ROOT
ATOM      1  C   UNL A   1      37.409  21.017  24.561  1.00  0.00     0.118 C 
ENDROOT
BRANCH   1   2
ATOM      2  N   UNL A   1      36.549  21.427  25.650  1.00  0.00    -0.352 N 
ATOM      3  C   UNL A   1      35.198  21.353  25.849  1.00  0.00     0.255 C 
ATOM      4  O   UNL A   1      34.788  21.858  26.898  1.00  0.00    -0.269 OA
ATOM      5  H   UNL A   1      37.035  21.844  26.398  1.00  0.00     0.163 HD
BRANCH   3   6
ATOM      6  C   UNL A   1      34.213  20.648  24.967  1.00  0.00     0.082 A 
ATOM      7  C   UNL A   1      33.541  18.441  24.156  1.00  0.00     0.084 A 
ATOM      8  C   UNL A   1      32.524  19.001  23.390  1.00  0.00     0.025 A 
ATOM      9  C   UNL A   1      34.384  19.248  24.926  1.00  0.00     0.039 A 
ATOM     10  C   UNL A   1      32.324  20.376  23.437  1.00  0.00     0.048 A 
ATOM     11  C   UNL A   1      33.139  21.188  24.242  1.00  0.00     0.128 A 
BRANCH   7  12
ATOM     12  S   UNL A   1      33.743  16.678  24.186  1.00  0.00     0.253 S 
ATOM     13  O   UNL A   1      34.090  16.229  22.858  1.00  0.00    -0.206 OA
ATOM     14  O   UNL A   1      32.606  16.124  24.894  1.00  0.00    -0.206 OA
BRANCH  12  15
ATOM     15  N   UNL A   1      35.121  16.483  25.221  1.00  0.00    -0.150 NA
ATOM     16  H   UNL A   1      35.849  17.136  24.930  1.00  0.00     0.160 HD
BRANCH  15  17
ATOM     17  N   UNL A   1      35.639  15.166  25.164  1.00  0.00    -0.257 NA
ATOM     18  H   UNL A   1      35.399  14.670  26.022  1.00  0.00     0.138 HD
ATOM     19  H   UNL A   1      36.654  15.205  25.065  1.00  0.00     0.138 HD
ENDBRANCH  15  17
ENDBRANCH  12  15
ENDBRANCH   7  12
BRANCH  11  20
ATOM     20  O   UNL A   1      32.783  22.501  24.329  1.00  0.00    -0.507 OA
ATOM     21  H   UNL A   1      32.104  22.839  23.778  1.00  0.00     0.293 HD
ENDBRANCH  11  20
ENDBRANCH   3   6
ENDBRANCH   1   2
BRANCH   1  22
ATOM     22  C   UNL A   1      38.232  19.790  24.959  1.00  0.00     0.042 C 
BRANCH  22  23
ATOM     23  C   UNL A   1      39.189  20.056  26.114  1.00  0.00     0.118 C 
BRANCH  23  24
ATOM     24  N   UNL A   1      40.332  19.154  26.084  1.00  0.00    -0.352 N 
ATOM     25  C   UNL A   1      41.673  19.430  26.069  1.00  0.00     0.251 C 
ATOM     26  H   UNL A   1      40.104  18.196  26.073  1.00  0.00     0.163 HD
ATOM     27  O   UNL A   1      42.471  18.544  25.778  1.00  0.00    -0.269 OA
BRANCH  25  28
ATOM     28  C   UNL A   1      42.169  20.786  26.393  1.00  0.00     0.039 A 
ATOM     29  C   UNL A   1      42.336  21.707  25.355  1.00  0.00     0.014 A 
ATOM     30  C   UNL A   1      42.518  21.137  27.701  1.00  0.00     0.014 A 
ATOM     31  C   UNL A   1      42.806  22.990  25.636  1.00  0.00     0.010 A 
ATOM     32  C   UNL A   1      42.907  22.441  27.991  1.00  0.00     0.010 A 
ATOM     33  C   UNL A   1      43.067  23.378  26.960  1.00  0.00    -0.014 A 
BRANCH  33  34
ATOM     34  C   UNL A   1      43.514  24.756  27.283  1.00  0.00     0.031 A 
ATOM     35  C   UNL A   1      42.546  25.749  27.865  1.00  0.00     0.074 A 
ATOM     36  C   UNL A   1      44.779  25.125  27.002  1.00  0.00     0.049 A 
ATOM     37  N   UNL A   1      42.730  27.012  28.157  1.00  0.00    -0.248 NA
ATOM     38  C   UNL A   1      41.182  25.265  28.132  1.00  0.00     0.031 C 
ATOM     39  C   UNL A   1      45.797  24.262  26.401  1.00  0.00     0.029 A 
ATOM     40  N   UNL A   1      45.422  26.324  27.177  1.00  0.00    -0.354 N 
ATOM     41  C   UNL A   1      41.509  27.472  28.632  1.00  0.00     0.074 A 
ATOM     42  C   UNL A   1      40.574  26.372  28.531  1.00  0.00     0.031 C 
ATOM     43  C   UNL A   1      46.942  24.950  26.282  1.00  0.00     0.029 A 
ATOM     44  C   UNL A   1      46.729  26.314  26.753  1.00  0.00     0.049 A 
ATOM     45  H   UNL A   1      44.988  27.117  27.567  1.00  0.00     0.167 HD
ATOM     46  C   UNL A   1      41.201  28.692  29.132  1.00  0.00     0.037 A 
ATOM     47  C   UNL A   1      47.647  27.299  26.738  1.00  0.00     0.037 A 
ATOM     48  C   UNL A   1      42.140  29.780  29.238  1.00  0.00     0.049 A 
ATOM     49  C   UNL A   1      47.267  28.658  27.265  1.00  0.00     0.074 A 
ATOM     50  C   UNL A   1      41.941  31.043  29.766  1.00  0.00     0.029 A 
ATOM     51  N   UNL A   1      43.455  29.731  28.799  1.00  0.00    -0.354 N 
ATOM     52  N   UNL A   1      46.129  29.061  27.774  1.00  0.00    -0.248 NA
ATOM     53  C   UNL A   1      48.305  29.696  27.220  1.00  0.00     0.031 C 
ATOM     54  C   UNL A   1      43.120  31.778  29.596  1.00  0.00     0.029 A 
ATOM     55  C   UNL A   1      44.073  30.952  29.022  1.00  0.00     0.049 A 
ATOM     56  H   UNL A   1      43.887  28.946  28.391  1.00  0.00     0.167 HD
ATOM     57  C   UNL A   1      46.323  30.387  28.141  1.00  0.00     0.074 A 
ATOM     58  C   UNL A   1      47.695  30.712  27.812  1.00  0.00     0.031 C 
ATOM     59  C   UNL A   1      45.445  31.255  28.700  1.00  0.00     0.037 A 
BRANCH  46  60
ATOM     60  C   UNL A   1      39.793  28.918  29.605  1.00  0.00     0.064 A 
ATOM     61  C   UNL A   1      39.413  28.671  30.935  1.00  0.00     0.173 A 
ATOM     62  C   UNL A   1      38.816  29.419  28.730  1.00  0.00     0.173 A 
ATOM     63  F   UNL A   1      40.304  28.182  31.812  1.00  0.00    -0.203 F 
ATOM     64  C   UNL A   1      38.105  28.886  31.361  1.00  0.00     0.198 A 
ATOM     65  C   UNL A   1      37.518  29.667  29.170  1.00  0.00     0.198 A 
ATOM     66  F   UNL A   1      39.123  29.679  27.451  1.00  0.00    -0.203 F 
ATOM     67  F   UNL A   1      37.756  28.592  32.620  1.00  0.00    -0.200 F 
ATOM     68  C   UNL A   1      37.161  29.391  30.481  1.00  0.00     0.200 A 
ATOM     69  F   UNL A   1      36.611  30.170  28.322  1.00  0.00    -0.200 F 
ATOM     70  F   UNL A   1      35.905  29.607  30.895  1.00  0.00    -0.200 F 
ENDBRANCH  46  60
BRANCH  47  71
ATOM     71  C   UNL A   1      49.018  27.038  26.222  1.00  0.00     0.064 A 
ATOM     72  C   UNL A   1      49.312  27.179  24.859  1.00  0.00     0.173 A 
ATOM     73  C   UNL A   1      50.054  26.626  27.072  1.00  0.00     0.173 A 
ATOM     74  F   UNL A   1      48.351  27.553  24.002  1.00  0.00    -0.203 F 
ATOM     75  C   UNL A   1      50.581  26.887  24.361  1.00  0.00     0.198 A 
ATOM     76  C   UNL A   1      51.332  26.368  26.580  1.00  0.00     0.198 A 
ATOM     77  F   UNL A   1      49.829  26.483  28.387  1.00  0.00    -0.203 F 
ATOM     78  F   UNL A   1      50.818  26.974  23.046  1.00  0.00    -0.200 F 
ATOM     79  C   UNL A   1      51.591  26.486  25.223  1.00  0.00     0.200 A 
ATOM     80  F   UNL A   1      52.308  25.999  27.418  1.00  0.00    -0.200 F 
ATOM     81  F   UNL A   1      52.810  26.206  24.744  1.00  0.00    -0.200 F 
ENDBRANCH  47  71
BRANCH  59  82
ATOM     82  C   UNL A   1      45.955  32.628  29.035  1.00  0.00     0.064 A 
ATOM     83  C   UNL A   1      46.571  32.910  30.264  1.00  0.00     0.173 A 
ATOM     84  C   UNL A   1      45.857  33.668  28.097  1.00  0.00     0.173 A 
ATOM     85  F   UNL A   1      46.675  31.956  31.200  1.00  0.00    -0.203 F 
ATOM     86  C   UNL A   1      47.041  34.189  30.552  1.00  0.00     0.198 A 
ATOM     87  C   UNL A   1      46.361  34.935  28.374  1.00  0.00     0.198 A 
ATOM     88  F   UNL A   1      45.284  33.451  26.903  1.00  0.00    -0.203 F 
ATOM     89  F   UNL A   1      47.573  34.450  31.753  1.00  0.00    -0.200 F 
ATOM     90  C   UNL A   1      46.943  35.198  29.605  1.00  0.00     0.200 A 
ATOM     91  F   UNL A   1      46.281  35.903  27.451  1.00  0.00    -0.200 F 
ATOM     92  F   UNL A   1      47.403  36.425  29.881  1.00  0.00    -0.200 F 
ENDBRANCH  59  82
ENDBRANCH  33  34
ENDBRANCH  25  28
ENDBRANCH  23  24
ENDBRANCH  22  23
ENDBRANCH   1  22
TORSDOF 14
ENDMDL
MODEL 2
REMARK VINA RESULT:     -11.9      6.982     12.030
REMARK SMILES NNS(=O)(=O)c1ccc(O)c(C(=O)NCCCNC(=O)c2ccc(-c3c4nc(c(-c5c(F)c(F)c(F)c(F)c5F)c5ccc([nH]5)c(-c5c(F)c(F)c(F)c(F)c5F)c5nc(c(-c6c(F)c(F)c(F)c(F)c6F)c6ccc3[nH]6)C=C5)C=C4)cc2)c1
REMARK SMILES IDX 15 1 14 2 12 3 13 4 11 6 6 7 7 8 84 9 8 10 9 11 3 12 4 13
REMARK SMILES IDX 5 14 2 15 1 17 10 20 16 22 17 23 18 24 19 25 20 27 21 28
REMARK SMILES IDX 22 29 83 30 23 31 82 32 24 33 25 34 26 35 76 36 27 37 81 38
REMARK SMILES IDX 75 39 77 40 28 41 80 42 74 43 73 44 29 46 61 47 41 48 60 49
REMARK SMILES IDX 42 50 45 51 59 52 78 53 43 54 44 55 58 57 79 58 46 59 30 60
REMARK SMILES IDX 31 61 39 62 32 63 33 64 37 65 40 66 34 67 35 68 38 69 36 70
REMARK SMILES IDX 62 71 63 72 71 73 64 74 65 75 69 76 72 77 66 78 67 79 70 80
REMARK SMILES IDX 68 81 47 82 48 83 56 84 49 85 50 86 54 87 57 88 51 89 52 90
REMARK SMILES IDX 55 91 53 92
REMARK H PARENT 14 5 2 16 1 18 1 19 10 21 18 26 77 45 45 56
REMARK Flexibility Score: inf
ROOT
ATOM      1  C   UNL A   1      31.671  30.508  26.905  1.00  0.00     0.118 C 
ENDROOT
BRANCH   1   2
ATOM      2  N   UNL A   1      32.557  30.042  25.860  1.00  0.00    -0.352 N 
ATOM      3  C   UNL A   1      32.345  29.353  24.698  1.00  0.00     0.255 C 
ATOM      4  O   UNL A   1      33.361  29.073  24.054  1.00  0.00    -0.269 OA
ATOM      5  H   UNL A   1      33.503  30.267  26.018  1.00  0.00     0.163 HD
BRANCH   3   6
ATOM      6  C   UNL A   1      31.013  29.000  24.111  1.00  0.00     0.082 A 
ATOM      7  C   UNL A   1      28.963  29.962  23.187  1.00  0.00     0.084 A 
ATOM      8  C   UNL A   1      28.429  28.694  22.978  1.00  0.00     0.025 A 
ATOM      9  C   UNL A   1      30.230  30.119  23.755  1.00  0.00     0.039 A 
ATOM     10  C   UNL A   1      29.194  27.579  23.298  1.00  0.00     0.048 A 
ATOM     11  C   UNL A   1      30.486  27.729  23.829  1.00  0.00     0.128 A 
BRANCH   7  12
ATOM     12  S   UNL A   1      28.039  31.393  22.687  1.00  0.00     0.253 S 
ATOM     13  O   UNL A   1      26.972  31.610  23.636  1.00  0.00    -0.206 OA
ATOM     14  O   UNL A   1      27.770  31.261  21.269  1.00  0.00    -0.206 OA
BRANCH  12  15
ATOM     15  N   UNL A   1      29.209  32.663  22.858  1.00  0.00    -0.150 NA
ATOM     16  H   UNL A   1      29.783  32.476  23.680  1.00  0.00     0.160 HD
BRANCH  15  17
ATOM     17  N   UNL A   1      28.591  33.928  23.010  1.00  0.00    -0.257 NA
ATOM     18  H   UNL A   1      28.248  34.026  23.965  1.00  0.00     0.138 HD
ATOM     19  H   UNL A   1      27.810  34.005  22.358  1.00  0.00     0.138 HD
ENDBRANCH  15  17
ENDBRANCH  12  15
ENDBRANCH   7  12
BRANCH  11  20
ATOM     20  O   UNL A   1      31.209  26.585  23.986  1.00  0.00    -0.507 OA
ATOM     21  H   UNL A   1      31.406  26.269  24.846  1.00  0.00     0.293 HD
ENDBRANCH  11  20
ENDBRANCH   3   6
ENDBRANCH   1   2
BRANCH   1  22
ATOM     22  C   UNL A   1      31.486  32.024  26.816  1.00  0.00     0.042 C 
BRANCH  22  23
ATOM     23  C   UNL A   1      32.785  32.800  26.986  1.00  0.00     0.118 C 
BRANCH  23  24
ATOM     24  N   UNL A   1      32.550  34.130  27.530  1.00  0.00    -0.352 N 
ATOM     25  C   UNL A   1      33.078  34.735  28.640  1.00  0.00     0.251 C 
ATOM     26  H   UNL A   1      31.912  34.680  27.020  1.00  0.00     0.163 HD
ATOM     27  O   UNL A   1      32.557  35.757  29.079  1.00  0.00    -0.269 OA
BRANCH  25  28
ATOM     28  C   UNL A   1      34.264  34.167  29.318  1.00  0.00     0.039 A 
ATOM     29  C   UNL A   1      34.070  33.321  30.414  1.00  0.00     0.014 A 
ATOM     30  C   UNL A   1      35.560  34.502  28.915  1.00  0.00     0.014 A 
ATOM     31  C   UNL A   1      35.173  32.776  31.073  1.00  0.00     0.010 A 
ATOM     32  C   UNL A   1      36.655  33.893  29.519  1.00  0.00     0.010 A 
ATOM     33  C   UNL A   1      36.475  33.033  30.611  1.00  0.00    -0.014 A 
BRANCH  33  34
ATOM     34  C   UNL A   1      37.656  32.417  31.265  1.00  0.00     0.031 A 
ATOM     35  C   UNL A   1      38.402  31.302  30.585  1.00  0.00     0.074 A 
ATOM     36  C   UNL A   1      38.023  32.829  32.494  1.00  0.00     0.049 A 
ATOM     37  N   UNL A   1      39.417  30.598  31.019  1.00  0.00    -0.248 NA
ATOM     38  C   UNL A   1      37.928  30.908  29.249  1.00  0.00     0.031 C 
ATOM     39  C   UNL A   1      37.354  33.874  33.269  1.00  0.00     0.029 A 
ATOM     40  N   UNL A   1      39.045  32.412  33.311  1.00  0.00    -0.354 N 
ATOM     41  C   UNL A   1      39.696  29.678  30.017  1.00  0.00     0.074 A 
ATOM     42  C   UNL A   1      38.706  29.870  28.980  1.00  0.00     0.031 C 
ATOM     43  C   UNL A   1      37.997  34.037  34.435  1.00  0.00     0.029 A 
ATOM     44  C   UNL A   1      39.093  33.078  34.512  1.00  0.00     0.049 A 
ATOM     45  H   UNL A   1      39.680  31.705  33.060  1.00  0.00     0.167 HD
ATOM     46  C   UNL A   1      40.703  28.775  29.955  1.00  0.00     0.037 A 
ATOM     47  C   UNL A   1      39.923  32.921  35.561  1.00  0.00     0.037 A 
ATOM     48  C   UNL A   1      41.691  28.597  30.988  1.00  0.00     0.049 A 
ATOM     49  C   UNL A   1      41.011  31.882  35.481  1.00  0.00     0.074 A 
ATOM     50  C   UNL A   1      42.775  27.738  31.006  1.00  0.00     0.029 A 
ATOM     51  N   UNL A   1      41.708  29.289  32.190  1.00  0.00    -0.354 N 
ATOM     52  N   UNL A   1      41.306  31.064  34.500  1.00  0.00    -0.248 NA
ATOM     53  C   UNL A   1      41.884  31.750  36.654  1.00  0.00     0.031 C 
ATOM     54  C   UNL A   1      43.416  27.870  32.242  1.00  0.00     0.029 A 
ATOM     55  C   UNL A   1      42.771  28.858  32.969  1.00  0.00     0.049 A 
ATOM     56  H   UNL A   1      41.062  29.984  32.452  1.00  0.00     0.167 HD
ATOM     57  C   UNL A   1      42.418  30.347  34.922  1.00  0.00     0.074 A 
ATOM     58  C   UNL A   1      42.754  30.840  36.241  1.00  0.00     0.031 C 
ATOM     59  C   UNL A   1      43.098  29.368  34.276  1.00  0.00     0.037 A 
BRANCH  46  60
ATOM     60  C   UNL A   1      40.788  27.909  28.729  1.00  0.00     0.064 A 
ATOM     61  C   UNL A   1      40.071  26.707  28.624  1.00  0.00     0.173 A 
ATOM     62  C   UNL A   1      41.569  28.301  27.631  1.00  0.00     0.173 A 
ATOM     63  F   UNL A   1      39.316  26.278  29.649  1.00  0.00    -0.203 F 
ATOM     64  C   UNL A   1      40.157  25.915  27.482  1.00  0.00     0.198 A 
ATOM     65  C   UNL A   1      41.625  27.524  26.476  1.00  0.00     0.198 A 
ATOM     66  F   UNL A   1      42.270  29.443  27.672  1.00  0.00    -0.203 F 
ATOM     67  F   UNL A   1      39.506  24.746  27.429  1.00  0.00    -0.200 F 
ATOM     68  C   UNL A   1      40.927  26.328  26.406  1.00  0.00     0.200 A 
ATOM     69  F   UNL A   1      42.356  27.933  25.430  1.00  0.00    -0.200 F 
ATOM     70  F   UNL A   1      41.001  25.570  25.304  1.00  0.00    -0.200 F 
ENDBRANCH  46  60
BRANCH  47  71
ATOM     71  C   UNL A   1      39.773  33.775  36.769  1.00  0.00     0.064 A 
ATOM     72  C   UNL A   1      38.968  33.367  37.843  1.00  0.00     0.173 A 
ATOM     73  C   UNL A   1      40.412  35.019  36.871  1.00  0.00     0.173 A 
ATOM     74  F   UNL A   1      38.322  32.194  37.787  1.00  0.00    -0.203 F 
ATOM     75  C   UNL A   1      38.783  34.185  38.956  1.00  0.00     0.198 A 
ATOM     76  C   UNL A   1      40.254  35.821  38.000  1.00  0.00     0.198 A 
ATOM     77  F   UNL A   1      41.201  35.454  35.877  1.00  0.00    -0.203 F 
ATOM     78  F   UNL A   1      37.962  33.797  39.940  1.00  0.00    -0.200 F 
ATOM     79  C   UNL A   1      39.430  35.409  39.035  1.00  0.00     0.200 A 
ATOM     80  F   UNL A   1      40.896  36.993  38.080  1.00  0.00    -0.200 F 
ATOM     81  F   UNL A   1      39.252  36.194  40.106  1.00  0.00    -0.200 F 
ENDBRANCH  47  71
BRANCH  59  82
ATOM     82  C   UNL A   1      44.305  28.799  34.967  1.00  0.00     0.064 A 
ATOM     83  C   UNL A   1      45.580  29.365  34.820  1.00  0.00     0.173 A 
ATOM     84  C   UNL A   1      44.174  27.690  35.818  1.00  0.00     0.173 A 
ATOM     85  F   UNL A   1      45.761  30.417  34.007  1.00  0.00    -0.203 F 
ATOM     86  C   UNL A   1      46.684  28.824  35.474  1.00  0.00     0.198 A 
ATOM     87  C   UNL A   1      45.273  27.173  36.498  1.00  0.00     0.198 A 
ATOM     88  F   UNL A   1      42.977  27.113  36.001  1.00  0.00    -0.203 F 
ATOM     89  F   UNL A   1      47.901  29.346  35.273  1.00  0.00    -0.200 F 
ATOM     90  C   UNL A   1      46.529  27.734  36.318  1.00  0.00     0.200 A 
ATOM     91  F   UNL A   1      45.118  26.132  37.326  1.00  0.00    -0.200 F 
ATOM     92  F   UNL A   1      47.591  27.220  36.952  1.00  0.00    -0.200 F 
ENDBRANCH  59  82
ENDBRANCH  33  34
ENDBRANCH  25  28
ENDBRANCH  23  24
ENDBRANCH  22  23
ENDBRANCH   1  22
TORSDOF 14
ENDMDL
MODEL 3
REMARK VINA RESULT:     -11.9      0.084      1.641
REMARK SMILES NNS(=O)(=O)c1ccc(O)c(C(=O)NCCCNC(=O)c2ccc(-c3c4nc(c(-c5c(F)c(F)c(F)c(F)c5F)c5ccc([nH]5)c(-c5c(F)c(F)c(F)c(F)c5F)c5nc(c(-c6c(F)c(F)c(F)c(F)c6F)c6ccc3[nH]6)C=C5)C=C4)cc2)c1
REMARK SMILES IDX 15 1 14 2 12 3 13 4 11 6 6 7 7 8 84 9 8 10 9 11 3 12 4 13
REMARK SMILES IDX 5 14 2 15 1 17 10 20 16 22 17 23 18 24 19 25 20 27 21 28
REMARK SMILES IDX 22 29 83 30 23 31 82 32 24 33 25 34 26 35 76 36 27 37 81 38
REMARK SMILES IDX 75 39 77 40 28 41 80 42 74 43 73 44 29 46 61 47 41 48 60 49
REMARK SMILES IDX 42 50 45 51 59 52 78 53 43 54 44 55 58 57 79 58 46 59 30 60
REMARK SMILES IDX 31 61 39 62 32 63 33 64 37 65 40 66 34 67 35 68 38 69 36 70
REMARK SMILES IDX 62 71 63 72 71 73 64 74 65 75 69 76 72 77 66 78 67 79 70 80
REMARK SMILES IDX 68 81 47 82 48 83 56 84 49 85 50 86 54 87 57 88 51 89 52 90
REMARK SMILES IDX 55 91 53 92
REMARK H PARENT 14 5 2 16 1 18 1 19 10 21 18 26 77 45 45 56
REMARK Flexibility Score: inf
ROOT
ATOM      1  C   UNL A   1      37.406  21.035  24.566  1.00  0.00     0.118 C 
ENDROOT
BRANCH   1   2
ATOM      2  N   UNL A   1      36.546  21.441  25.658  1.00  0.00    -0.352 N 
ATOM      3  C   UNL A   1      35.195  21.363  25.858  1.00  0.00     0.255 C 
ATOM      4  O   UNL A   1      34.785  21.864  26.909  1.00  0.00    -0.269 OA
ATOM      5  H   UNL A   1      37.032  21.857  26.406  1.00  0.00     0.163 HD
BRANCH   3   6
ATOM      6  C   UNL A   1      34.212  20.657  24.976  1.00  0.00     0.082 A 
ATOM      7  C   UNL A   1      33.540  18.449  24.166  1.00  0.00     0.084 A 
ATOM      8  C   UNL A   1      32.524  19.009  23.399  1.00  0.00     0.025 A 
ATOM      9  C   UNL A   1      34.382  19.257  24.936  1.00  0.00     0.039 A 
ATOM     10  C   UNL A   1      32.323  20.383  23.445  1.00  0.00     0.048 A 
ATOM     11  C   UNL A   1      33.138  21.196  24.250  1.00  0.00     0.128 A 
BRANCH   7  12
ATOM     12  S   UNL A   1      33.742  16.686  24.198  1.00  0.00     0.253 S 
ATOM     13  O   UNL A   1      34.079  16.234  22.868  1.00  0.00    -0.206 OA
ATOM     14  O   UNL A   1      32.610  16.133  24.915  1.00  0.00    -0.206 OA
BRANCH  12  15
ATOM     15  N   UNL A   1      35.128  16.493  25.224  1.00  0.00    -0.150 NA
ATOM     16  H   UNL A   1      35.859  17.134  24.917  1.00  0.00     0.160 HD
BRANCH  15  17
ATOM     17  N   UNL A   1      35.632  15.170  25.182  1.00  0.00    -0.257 NA
ATOM     18  H   UNL A   1      36.139  15.028  24.309  1.00  0.00     0.138 HD
ATOM     19  H   UNL A   1      34.856  14.510  25.237  1.00  0.00     0.138 HD
ENDBRANCH  15  17
ENDBRANCH  12  15
ENDBRANCH   7  12
BRANCH  11  20
ATOM     20  O   UNL A   1      32.782  22.509  24.336  1.00  0.00    -0.507 OA
ATOM     21  H   UNL A   1      32.017  22.756  24.818  1.00  0.00     0.293 HD
ENDBRANCH  11  20
ENDBRANCH   3   6
ENDBRANCH   1   2
BRANCH   1  22
ATOM     22  C   UNL A   1      38.227  19.806  24.959  1.00  0.00     0.042 C 
BRANCH  22  23
ATOM     23  C   UNL A   1      39.182  20.065  26.117  1.00  0.00     0.118 C 
BRANCH  23  24
ATOM     24  N   UNL A   1      40.329  19.169  26.079  1.00  0.00    -0.352 N 
ATOM     25  C   UNL A   1      41.670  19.451  26.057  1.00  0.00     0.251 C 
ATOM     26  H   UNL A   1      40.106  18.209  26.067  1.00  0.00     0.163 HD
ATOM     27  O   UNL A   1      42.471  18.570  25.760  1.00  0.00    -0.269 OA
BRANCH  25  28
ATOM     28  C   UNL A   1      42.160  20.808  26.383  1.00  0.00     0.039 A 
ATOM     29  C   UNL A   1      42.377  21.713  25.340  1.00  0.00     0.014 A 
ATOM     30  C   UNL A   1      42.456  21.176  27.699  1.00  0.00     0.014 A 
ATOM     31  C   UNL A   1      42.844  22.997  25.621  1.00  0.00     0.010 A 
ATOM     32  C   UNL A   1      42.842  22.482  27.986  1.00  0.00     0.010 A 
ATOM     33  C   UNL A   1      43.051  23.403  26.950  1.00  0.00    -0.014 A 
BRANCH  33  34
ATOM     34  C   UNL A   1      43.493  24.783  27.272  1.00  0.00     0.031 A 
ATOM     35  C   UNL A   1      42.525  25.770  27.861  1.00  0.00     0.074 A 
ATOM     36  C   UNL A   1      44.754  25.159  26.983  1.00  0.00     0.049 A 
ATOM     37  N   UNL A   1      42.704  27.034  28.154  1.00  0.00    -0.248 NA
ATOM     38  C   UNL A   1      41.165  25.279  28.137  1.00  0.00     0.031 C 
ATOM     39  C   UNL A   1      45.772  24.302  26.374  1.00  0.00     0.029 A 
ATOM     40  N   UNL A   1      45.392  26.361  27.155  1.00  0.00    -0.354 N 
ATOM     41  C   UNL A   1      41.483  27.487  28.637  1.00  0.00     0.074 A 
ATOM     42  C   UNL A   1      40.554  26.382  28.542  1.00  0.00     0.031 C 
ATOM     43  C   UNL A   1      46.913  24.995  26.248  1.00  0.00     0.029 A 
ATOM     44  C   UNL A   1      46.697  26.357  26.722  1.00  0.00     0.049 A 
ATOM     45  H   UNL A   1      44.957  27.150  27.549  1.00  0.00     0.167 HD
ATOM     46  C   UNL A   1      41.173  28.705  29.141  1.00  0.00     0.037 A 
ATOM     47  C   UNL A   1      47.610  27.347  26.702  1.00  0.00     0.037 A 
ATOM     48  C   UNL A   1      42.107  29.797  29.242  1.00  0.00     0.049 A 
ATOM     49  C   UNL A   1      47.226  28.704  27.233  1.00  0.00     0.074 A 
ATOM     50  C   UNL A   1      41.905  31.059  29.774  1.00  0.00     0.029 A 
ATOM     51  N   UNL A   1      43.420  29.756  28.795  1.00  0.00    -0.354 N 
ATOM     52  N   UNL A   1      46.089  29.100  27.750  1.00  0.00    -0.248 NA
ATOM     53  C   UNL A   1      48.259  29.747  27.183  1.00  0.00     0.031 C 
ATOM     54  C   UNL A   1      43.079  31.799  29.597  1.00  0.00     0.029 A 
ATOM     55  C   UNL A   1      44.033  30.980  29.015  1.00  0.00     0.049 A 
ATOM     56  H   UNL A   1      43.852  28.973  28.382  1.00  0.00     0.167 HD
ATOM     57  C   UNL A   1      46.279  30.427  28.119  1.00  0.00     0.074 A 
ATOM     58  C   UNL A   1      47.647  30.759  27.781  1.00  0.00     0.031 C 
ATOM     59  C   UNL A   1      45.400  31.290  28.684  1.00  0.00     0.037 A 
BRANCH  46  60
ATOM     60  C   UNL A   1      39.766  28.923  29.624  1.00  0.00     0.064 A 
ATOM     61  C   UNL A   1      39.399  28.680  30.958  1.00  0.00     0.173 A 
ATOM     62  C   UNL A   1      38.780  29.413  28.755  1.00  0.00     0.173 A 
ATOM     63  F   UNL A   1      40.300  28.201  31.830  1.00  0.00    -0.203 F 
ATOM     64  C   UNL A   1      38.093  28.888  31.393  1.00  0.00     0.198 A 
ATOM     65  C   UNL A   1      37.483  29.653  29.203  1.00  0.00     0.198 A 
ATOM     66  F   UNL A   1      39.075  29.669  27.472  1.00  0.00    -0.203 F 
ATOM     67  F   UNL A   1      37.756  28.596  32.656  1.00  0.00    -0.200 F 
ATOM     68  C   UNL A   1      37.138  29.382  30.518  1.00  0.00     0.200 A 
ATOM     69  F   UNL A   1      36.566  30.146  28.359  1.00  0.00    -0.200 F 
ATOM     70  F   UNL A   1      35.884  29.591  30.940  1.00  0.00    -0.200 F 
ENDBRANCH  46  60
BRANCH  47  71
ATOM     71  C   UNL A   1      48.978  27.094  26.177  1.00  0.00     0.064 A 
ATOM     72  C   UNL A   1      50.021  26.723  27.038  1.00  0.00     0.173 A 
ATOM     73  C   UNL A   1      49.278  27.233  24.815  1.00  0.00     0.173 A 
ATOM     74  F   UNL A   1      49.790  26.592  28.352  1.00  0.00    -0.203 F 
ATOM     75  C   UNL A   1      51.316  26.533  26.561  1.00  0.00     0.198 A 
ATOM     76  C   UNL A   1      50.566  27.010  24.333  1.00  0.00     0.198 A 
ATOM     77  F   UNL A   1      48.316  27.579  23.946  1.00  0.00    -0.203 F 
ATOM     78  F   UNL A   1      52.305  26.237  27.414  1.00  0.00    -0.200 F 
ATOM     79  C   UNL A   1      51.587  26.672  25.208  1.00  0.00     0.200 A 
ATOM     80  F   UNL A   1      50.818  27.127  23.023  1.00  0.00    -0.200 F 
ATOM     81  F   UNL A   1      52.832  26.490  24.749  1.00  0.00    -0.200 F 
ENDBRANCH  47  71
BRANCH  59  82
ATOM     82  C   UNL A   1      45.906  32.665  29.018  1.00  0.00     0.064 A 
ATOM     83  C   UNL A   1      45.778  33.739  28.124  1.00  0.00     0.173 A 
ATOM     84  C   UNL A   1      46.494  32.918  30.267  1.00  0.00     0.173 A 
ATOM     85  F   UNL A   1      45.236  33.547  26.912  1.00  0.00    -0.203 F 
ATOM     86  C   UNL A   1      46.249  35.007  28.456  1.00  0.00     0.198 A 
ATOM     87  C   UNL A   1      46.931  34.194  30.610  1.00  0.00     0.198 A 
ATOM     88  F   UNL A   1      46.635  31.929  31.163  1.00  0.00    -0.203 F 
ATOM     89  F   UNL A   1      46.168  36.003  27.565  1.00  0.00    -0.200 F 
ATOM     90  C   UNL A   1      46.817  35.235  29.700  1.00  0.00     0.200 A 
ATOM     91  F   UNL A   1      47.464  34.416  31.819  1.00  0.00    -0.200 F 
ATOM     92  F   UNL A   1      47.262  36.458  30.021  1.00  0.00    -0.200 F 
ENDBRANCH  59  82
ENDBRANCH  33  34
ENDBRANCH  25  28
ENDBRANCH  23  24
ENDBRANCH  22  23
ENDBRANCH   1  22
TORSDOF 14
ENDMDL
