MODEL 1
REMARK VINA RESULT:     -12.0      0.000      0.000
REMARK SMILES O=C(C[C@@H]1C=CS(=O)(=O)C1)NCCCNC(=O)c1ccc(-c2c3nc(c(-c4c(F)c(F)c(F)c(F)c4F)c4ccc([nH]4)c(-c4c(F)c(F)c(F)c(F)c4F)c4nc(c(-c5c(F)c(F)c(F)c(F)c5F)c5ccc2[nH]5)C=C4)C=C3)cc1
REMARK SMILES IDX 13 1 12 2 11 3 1 4 2 5 3 7 4 8 5 9 10 10 6 11 7 12 8 13 9 14
REMARK SMILES IDX 14 15 15 16 16 17 17 19 18 20 19 21 80 22 20 23 79 24 21 25
REMARK SMILES IDX 22 26 23 27 73 28 24 29 78 30 72 31 74 32 25 33 77 34 71 35
REMARK SMILES IDX 70 36 26 38 58 39 38 40 57 41 39 42 42 43 56 44 75 45 40 46
REMARK SMILES IDX 41 47 55 49 76 50 43 51 27 52 28 53 36 54 29 55 30 56 34 57
REMARK SMILES IDX 37 58 31 59 32 60 35 61 33 62 59 63 60 64 68 65 61 66 62 67
REMARK SMILES IDX 66 68 69 69 63 70 64 71 67 72 65 73 44 74 45 75 53 76 46 77
REMARK SMILES IDX 47 78 51 79 54 80 48 81 49 82 52 83 50 84
REMARK H PARENT 11 6 15 18 74 37 42 48
REMARK Flexibility Score: inf
ROOT
ATOM      1  C   UNL A   1      37.953  19.866  24.934  1.00  0.00     0.042 C 
ENDROOT
BRANCH   1   2
ATOM      2  C   UNL A   1      36.848  20.912  24.911  1.00  0.00     0.117 C 
BRANCH   2   3
ATOM      3  N   UNL A   1      35.628  20.449  25.542  1.00  0.00    -0.356 N 
ATOM      4  O   UNL A   1      34.204  21.664  24.213  1.00  0.00    -0.275 OA
ATOM      5  C   UNL A   1      34.384  20.824  25.088  1.00  0.00     0.220 C 
ATOM      6  H   UNL A   1      35.692  19.847  26.318  1.00  0.00     0.163 HD
BRANCH   5   7
ATOM      7  C   UNL A   1      33.230  20.127  25.782  1.00  0.00     0.108 C 
BRANCH   7   8
ATOM      8  C   UNL A   1      32.543  18.979  25.008  1.00  0.00     0.037 C 
ATOM      9  C   UNL A   1      32.372  17.672  25.749  1.00  0.00    -0.010 C 
ATOM     10  C   UNL A   1      33.305  18.621  23.717  1.00  0.00     0.150 C 
ATOM     11  C   UNL A   1      33.192  16.672  25.399  1.00  0.00     0.102 C 
ATOM     12  S   UNL A   1      34.237  17.140  24.102  1.00  0.00     0.171 S 
ATOM     13  O   UNL A   1      34.097  16.203  23.005  1.00  0.00    -0.224 OA
ATOM     14  O   UNL A   1      35.528  17.525  24.626  1.00  0.00    -0.224 OA
ENDBRANCH   7   8
ENDBRANCH   5   7
ENDBRANCH   2   3
ENDBRANCH   1   2
BRANCH   1  15
ATOM     15  C   UNL A   1      39.167  20.241  25.778  1.00  0.00     0.118 C 
BRANCH  15  16
ATOM     16  N   UNL A   1      40.161  19.181  25.872  1.00  0.00    -0.352 N 
ATOM     17  C   UNL A   1      41.512  19.256  26.117  1.00  0.00     0.251 C 
ATOM     18  H   UNL A   1      39.811  18.270  25.739  1.00  0.00     0.163 HD
ATOM     19  O   UNL A   1      42.198  18.242  26.046  1.00  0.00    -0.269 OA
BRANCH  17  20
ATOM     20  C   UNL A   1      42.149  20.553  26.432  1.00  0.00     0.039 A 
ATOM     21  C   UNL A   1      42.630  21.334  25.376  1.00  0.00     0.014 A 
ATOM     22  C   UNL A   1      42.278  21.002  27.749  1.00  0.00     0.014 A 
ATOM     23  C   UNL A   1      43.162  22.600  25.634  1.00  0.00     0.010 A 
ATOM     24  C   UNL A   1      42.747  22.291  27.998  1.00  0.00     0.010 A 
ATOM     25  C   UNL A   1      43.183  23.107  26.942  1.00  0.00    -0.014 A 
BRANCH  25  26
ATOM     26  C   UNL A   1      43.621  24.499  27.221  1.00  0.00     0.031 A 
ATOM     27  C   UNL A   1      42.646  25.517  27.739  1.00  0.00     0.074 A 
ATOM     28  C   UNL A   1      44.886  24.864  26.934  1.00  0.00     0.049 A 
ATOM     29  N   UNL A   1      42.822  26.796  27.958  1.00  0.00    -0.248 NA
ATOM     30  C   UNL A   1      41.284  25.040  28.026  1.00  0.00     0.031 C 
ATOM     31  C   UNL A   1      45.916  23.982  26.384  1.00  0.00     0.029 A 
ATOM     32  N   UNL A   1      45.515  26.079  27.050  1.00  0.00    -0.354 N 
ATOM     33  C   UNL A   1      41.596  27.278  28.394  1.00  0.00     0.074 A 
ATOM     34  C   UNL A   1      40.670  26.165  28.366  1.00  0.00     0.031 C 
ATOM     35  C   UNL A   1      47.052  24.678  26.225  1.00  0.00     0.029 A 
ATOM     36  C   UNL A   1      46.821  26.064  26.624  1.00  0.00     0.049 A 
ATOM     37  H   UNL A   1      45.074  26.884  27.404  1.00  0.00     0.167 HD
ATOM     38  C   UNL A   1      41.276  28.531  28.799  1.00  0.00     0.037 A 
ATOM     39  C   UNL A   1      47.728  27.057  26.551  1.00  0.00     0.037 A 
ATOM     40  C   UNL A   1      42.203  29.632  28.850  1.00  0.00     0.049 A 
ATOM     41  C   UNL A   1      47.344  28.439  26.999  1.00  0.00     0.074 A 
ATOM     42  C   UNL A   1      41.989  30.920  29.308  1.00  0.00     0.029 A 
ATOM     43  N   UNL A   1      43.522  29.573  28.424  1.00  0.00    -0.354 N 
ATOM     44  N   UNL A   1      46.199  28.868  27.471  1.00  0.00    -0.248 NA
ATOM     45  C   UNL A   1      48.382  29.477  26.907  1.00  0.00     0.031 C 
ATOM     46  C   UNL A   1      43.164  31.654  29.119  1.00  0.00     0.029 A 
ATOM     47  C   UNL A   1      44.126  30.811  28.586  1.00  0.00     0.049 A 
ATOM     48  H   UNL A   1      43.964  28.772  28.060  1.00  0.00     0.167 HD
ATOM     49  C   UNL A   1      46.383  30.215  27.752  1.00  0.00     0.074 A 
ATOM     50  C   UNL A   1      47.755  30.529  27.414  1.00  0.00     0.031 C 
ATOM     51  C   UNL A   1      45.493  31.111  28.246  1.00  0.00     0.037 A 
BRANCH  38  52
ATOM     52  C   UNL A   1      39.858  28.783  29.224  1.00  0.00     0.064 A 
ATOM     53  C   UNL A   1      38.881  29.209  28.311  1.00  0.00     0.173 A 
ATOM     54  C   UNL A   1      39.461  28.554  30.550  1.00  0.00     0.173 A 
ATOM     55  F   UNL A   1      39.213  29.452  27.034  1.00  0.00    -0.203 F 
ATOM     56  C   UNL A   1      37.567  29.421  28.716  1.00  0.00     0.198 A 
ATOM     57  C   UNL A   1      38.139  28.740  30.945  1.00  0.00     0.198 A 
ATOM     58  F   UNL A   1      40.354  28.140  31.462  1.00  0.00    -0.203 F 
ATOM     59  F   UNL A   1      36.661  29.871  27.836  1.00  0.00    -0.200 F 
ATOM     60  C   UNL A   1      37.195  29.180  30.030  1.00  0.00     0.200 A 
ATOM     61  F   UNL A   1      37.779  28.494  32.212  1.00  0.00    -0.200 F 
ATOM     62  F   UNL A   1      35.927  29.377  30.416  1.00  0.00    -0.200 F 
ENDBRANCH  38  52
BRANCH  39  63
ATOM     63  C   UNL A   1      49.098  26.774  26.048  1.00  0.00     0.064 A 
ATOM     64  C   UNL A   1      49.426  26.988  24.702  1.00  0.00     0.173 A 
ATOM     65  C   UNL A   1      50.101  26.283  26.896  1.00  0.00     0.173 A 
ATOM     66  F   UNL A   1      48.494  27.436  23.849  1.00  0.00    -0.203 F 
ATOM     67  C   UNL A   1      50.702  26.705  24.220  1.00  0.00     0.198 A 
ATOM     68  C   UNL A   1      51.384  26.025  26.418  1.00  0.00     0.198 A 
ATOM     69  F   UNL A   1      49.836  26.064  28.193  1.00  0.00    -0.203 F 
ATOM     70  F   UNL A   1      50.978  26.878  22.921  1.00  0.00    -0.200 F 
ATOM     71  C   UNL A   1      51.681  26.230  25.079  1.00  0.00     0.200 A 
ATOM     72  F   UNL A   1      52.330  25.578  27.255  1.00  0.00    -0.200 F 
ATOM     73  F   UNL A   1      52.909  25.962  24.616  1.00  0.00    -0.200 F 
ENDBRANCH  39  63
BRANCH  51  74
ATOM     74  C   UNL A   1      45.984  32.509  28.475  1.00  0.00     0.064 A 
ATOM     75  C   UNL A   1      46.567  32.893  29.691  1.00  0.00     0.173 A 
ATOM     76  C   UNL A   1      45.900  33.469  27.454  1.00  0.00     0.173 A 
ATOM     77  F   UNL A   1      46.655  32.018  30.704  1.00  0.00    -0.203 F 
ATOM     78  C   UNL A   1      47.027  34.193  29.886  1.00  0.00     0.198 A 
ATOM     79  C   UNL A   1      46.387  34.759  27.641  1.00  0.00     0.198 A 
ATOM     80  F   UNL A   1      45.356  33.150  26.270  1.00  0.00    -0.203 F 
ATOM     81  F   UNL A   1      47.539  34.551  31.071  1.00  0.00    -0.200 F 
ATOM     82  C   UNL A   1      46.943  35.122  28.859  1.00  0.00     0.200 A 
ATOM     83  F   UNL A   1      46.316  35.652  26.645  1.00  0.00    -0.200 F 
ATOM     84  F   UNL A   1      47.391  36.371  29.045  1.00  0.00    -0.200 F 
ENDBRANCH  51  74
ENDBRANCH  25  26
ENDBRANCH  17  20
ENDBRANCH  15  16
ENDBRANCH   1  15
TORSDOF 11
ENDMDL
MODEL 2
REMARK VINA RESULT:     -11.9      7.259     12.378
REMARK SMILES O=C(C[C@@H]1C=CS(=O)(=O)C1)NCCCNC(=O)c1ccc(-c2c3nc(c(-c4c(F)c(F)c(F)c(F)c4F)c4ccc([nH]4)c(-c4c(F)c(F)c(F)c(F)c4F)c4nc(c(-c5c(F)c(F)c(F)c(F)c5F)c5ccc2[nH]5)C=C4)C=C3)cc1
REMARK SMILES IDX 13 1 12 2 11 3 1 4 2 5 3 7 4 8 5 9 10 10 6 11 7 12 8 13 9 14
REMARK SMILES IDX 14 15 15 16 16 17 17 19 18 20 19 21 80 22 20 23 79 24 21 25
REMARK SMILES IDX 22 26 23 27 73 28 24 29 78 30 72 31 74 32 25 33 77 34 71 35
REMARK SMILES IDX 70 36 26 38 58 39 38 40 57 41 39 42 42 43 56 44 75 45 40 46
REMARK SMILES IDX 41 47 55 49 76 50 43 51 27 52 28 53 36 54 29 55 30 56 34 57
REMARK SMILES IDX 37 58 31 59 32 60 35 61 33 62 59 63 60 64 68 65 61 66 62 67
REMARK SMILES IDX 66 68 69 69 63 70 64 71 67 72 65 73 44 74 45 75 53 76 46 77
REMARK SMILES IDX 47 78 51 79 54 80 48 81 49 82 52 83 50 84
REMARK H PARENT 11 6 15 18 74 37 42 48
REMARK Flexibility Score: inf
ROOT
ATOM      1  C   UNL A   1      31.509  31.956  26.625  1.00  0.00     0.042 C 
ENDROOT
BRANCH   1   2
ATOM      2  C   UNL A   1      31.794  30.513  26.233  1.00  0.00     0.117 C 
BRANCH   2   3
ATOM      3  N   UNL A   1      31.634  30.279  24.812  1.00  0.00    -0.356 N 
ATOM      4  O   UNL A   1      31.068  28.063  25.003  1.00  0.00    -0.275 OA
ATOM      5  C   UNL A   1      31.215  29.066  24.314  1.00  0.00     0.220 C 
ATOM      6  H   UNL A   1      31.831  31.011  24.183  1.00  0.00     0.163 HD
BRANCH   5   7
ATOM      7  C   UNL A   1      30.971  29.056  22.817  1.00  0.00     0.108 C 
BRANCH   7   8
ATOM      8  C   UNL A   1      29.508  29.239  22.350  1.00  0.00     0.037 C 
ATOM      9  C   UNL A   1      29.261  30.309  21.311  1.00  0.00    -0.010 C 
ATOM     10  C   UNL A   1      28.571  29.584  23.523  1.00  0.00     0.150 C 
ATOM     11  C   UNL A   1      28.682  31.439  21.738  1.00  0.00     0.102 C 
ATOM     12  S   UNL A   1      28.304  31.354  23.424  1.00  0.00     0.171 S 
ATOM     13  O   UNL A   1      26.893  31.623  23.619  1.00  0.00    -0.224 OA
ATOM     14  O   UNL A   1      29.329  32.023  24.192  1.00  0.00    -0.224 OA
ENDBRANCH   7   8
ENDBRANCH   5   7
ENDBRANCH   2   3
ENDBRANCH   1   2
BRANCH   1  15
ATOM     15  C   UNL A   1      32.675  32.674  27.297  1.00  0.00     0.118 C 
BRANCH  15  16
ATOM     16  N   UNL A   1      32.385  34.059  27.642  1.00  0.00    -0.352 N 
ATOM     17  C   UNL A   1      32.989  34.886  28.558  1.00  0.00     0.251 C 
ATOM     18  H   UNL A   1      31.641  34.465  27.140  1.00  0.00     0.163 HD
ATOM     19  O   UNL A   1      32.518  35.998  28.776  1.00  0.00    -0.269 OA
BRANCH  17  20
ATOM     20  C   UNL A   1      34.182  34.435  29.309  1.00  0.00     0.039 A 
ATOM     21  C   UNL A   1      33.995  33.830  30.555  1.00  0.00     0.014 A 
ATOM     22  C   UNL A   1      35.471  34.605  28.799  1.00  0.00     0.014 A 
ATOM     23  C   UNL A   1      35.094  33.319  31.252  1.00  0.00     0.010 A 
ATOM     24  C   UNL A   1      36.558  34.036  29.462  1.00  0.00     0.010 A 
ATOM     25  C   UNL A   1      36.378  33.378  30.689  1.00  0.00    -0.014 A 
BRANCH  25  26
ATOM     26  C   UNL A   1      37.538  32.725  31.350  1.00  0.00     0.031 A 
ATOM     27  C   UNL A   1      38.244  31.574  30.691  1.00  0.00     0.074 A 
ATOM     28  C   UNL A   1      37.908  33.124  32.582  1.00  0.00     0.049 A 
ATOM     29  N   UNL A   1      39.215  30.826  31.150  1.00  0.00    -0.248 NA
ATOM     30  C   UNL A   1      37.780  31.198  29.346  1.00  0.00     0.031 C 
ATOM     31  C   UNL A   1      37.275  34.198  33.349  1.00  0.00     0.029 A 
ATOM     32  N   UNL A   1      38.896  32.659  33.415  1.00  0.00    -0.354 N 
ATOM     33  C   UNL A   1      39.469  29.885  30.162  1.00  0.00     0.074 A 
ATOM     34  C   UNL A   1      38.520  30.127  29.095  1.00  0.00     0.031 C 
ATOM     35  C   UNL A   1      37.898  34.322  34.530  1.00  0.00     0.029 A 
ATOM     36  C   UNL A   1      38.949  33.312  34.623  1.00  0.00     0.049 A 
ATOM     37  H   UNL A   1      39.509  31.929  33.171  1.00  0.00     0.167 HD
ATOM     38  C   UNL A   1      40.419  28.920  30.138  1.00  0.00     0.037 A 
ATOM     39  C   UNL A   1      39.745  33.112  35.690  1.00  0.00     0.037 A 
ATOM     40  C   UNL A   1      41.379  28.696  31.188  1.00  0.00     0.049 A 
ATOM     41  C   UNL A   1      40.786  32.028  35.640  1.00  0.00     0.074 A 
ATOM     42  C   UNL A   1      42.421  27.786  31.225  1.00  0.00     0.029 A 
ATOM     43  N   UNL A   1      41.410  29.388  32.390  1.00  0.00    -0.354 N 
ATOM     44  N   UNL A   1      41.059  31.188  34.672  1.00  0.00    -0.248 NA
ATOM     45  C   UNL A   1      41.632  31.868  36.831  1.00  0.00     0.031 C 
ATOM     46  C   UNL A   1      43.056  27.897  32.467  1.00  0.00     0.029 A 
ATOM     47  C   UNL A   1      42.438  28.907  33.185  1.00  0.00     0.049 A 
ATOM     48  H   UNL A   1      40.792  30.112  32.642  1.00  0.00     0.167 HD
ATOM     49  C   UNL A   1      42.119  30.416  35.126  1.00  0.00     0.074 A 
ATOM     50  C   UNL A   1      42.452  30.899  36.450  1.00  0.00     0.031 C 
ATOM     51  C   UNL A   1      42.760  29.397  34.501  1.00  0.00     0.037 A 
BRANCH  38  52
ATOM     52  C   UNL A   1      40.473  28.028  28.931  1.00  0.00     0.064 A 
ATOM     53  C   UNL A   1      39.744  26.831  28.869  1.00  0.00     0.173 A 
ATOM     54  C   UNL A   1      41.229  28.396  27.807  1.00  0.00     0.173 A 
ATOM     55  F   UNL A   1      39.015  26.430  29.921  1.00  0.00    -0.203 F 
ATOM     56  C   UNL A   1      39.789  26.023  27.736  1.00  0.00     0.198 A 
ATOM     57  C   UNL A   1      41.249  27.599  26.665  1.00  0.00     0.198 A 
ATOM     58  F   UNL A   1      41.940  29.534  27.812  1.00  0.00    -0.203 F 
ATOM     59  F   UNL A   1      39.120  24.862  27.716  1.00  0.00    -0.200 F 
ATOM     60  C   UNL A   1      40.536  26.411  26.633  1.00  0.00     0.200 A 
ATOM     61  F   UNL A   1      41.961  27.981  25.596  1.00  0.00    -0.200 F 
ATOM     62  F   UNL A   1      40.572  25.635  25.541  1.00  0.00    -0.200 F 
ENDBRANCH  38  52
BRANCH  39  63
ATOM     63  C   UNL A   1      39.600  33.971  36.894  1.00  0.00     0.064 A 
ATOM     64  C   UNL A   1      38.824  33.554  37.984  1.00  0.00     0.173 A 
ATOM     65  C   UNL A   1      40.227  35.222  36.978  1.00  0.00     0.173 A 
ATOM     66  F   UNL A   1      38.187  32.375  37.940  1.00  0.00    -0.203 F 
ATOM     67  C   UNL A   1      38.667  34.364  39.107  1.00  0.00     0.198 A 
ATOM     68  C   UNL A   1      40.091  36.020  38.113  1.00  0.00     0.198 A 
ATOM     69  F   UNL A   1      40.983  35.666  35.962  1.00  0.00    -0.203 F 
ATOM     70  F   UNL A   1      37.886  33.960  40.117  1.00  0.00    -0.200 F 
ATOM     71  C   UNL A   1      39.305  35.593  39.173  1.00  0.00     0.200 A 
ATOM     72  F   UNL A   1      40.720  37.201  38.177  1.00  0.00    -0.200 F 
ATOM     73  F   UNL A   1      39.158  36.370  40.254  1.00  0.00    -0.200 F 
ENDBRANCH  39  63
BRANCH  51  74
ATOM     74  C   UNL A   1      43.901  28.754  35.232  1.00  0.00     0.064 A 
ATOM     75  C   UNL A   1      43.703  27.653  36.078  1.00  0.00     0.173 A 
ATOM     76  C   UNL A   1      45.212  29.222  35.056  1.00  0.00     0.173 A 
ATOM     77  F   UNL A   1      42.466  27.179  36.292  1.00  0.00    -0.203 F 
ATOM     78  C   UNL A   1      44.774  27.059  36.742  1.00  0.00     0.198 A 
ATOM     79  C   UNL A   1      46.284  28.608  35.698  1.00  0.00     0.198 A 
ATOM     80  F   UNL A   1      45.455  30.267  34.252  1.00  0.00    -0.203 F 
ATOM     81  F   UNL A   1      44.557  26.038  37.582  1.00  0.00    -0.200 F 
ATOM     82  C   UNL A   1      46.063  27.533  36.546  1.00  0.00     0.200 A 
ATOM     83  F   UNL A   1      47.530  29.058  35.499  1.00  0.00    -0.200 F 
ATOM     84  F   UNL A   1      47.093  26.957  37.181  1.00  0.00    -0.200 F 
ENDBRANCH  51  74
ENDBRANCH  25  26
ENDBRANCH  17  20
ENDBRANCH  15  16
ENDBRANCH   1  15
TORSDOF 11
ENDMDL
MODEL 3
REMARK VINA RESULT:     -11.7      0.407      7.713
REMARK SMILES O=C(C[C@@H]1C=CS(=O)(=O)C1)NCCCNC(=O)c1ccc(-c2c3nc(c(-c4c(F)c(F)c(F)c(F)c4F)c4ccc([nH]4)c(-c4c(F)c(F)c(F)c(F)c4F)c4nc(c(-c5c(F)c(F)c(F)c(F)c5F)c5ccc2[nH]5)C=C4)C=C3)cc1
REMARK SMILES IDX 13 1 12 2 11 3 1 4 2 5 3 7 4 8 5 9 10 10 6 11 7 12 8 13 9 14
REMARK SMILES IDX 14 15 15 16 16 17 17 19 18 20 19 21 80 22 20 23 79 24 21 25
REMARK SMILES IDX 22 26 23 27 73 28 24 29 78 30 72 31 74 32 25 33 77 34 71 35
REMARK SMILES IDX 70 36 26 38 58 39 38 40 57 41 39 42 42 43 56 44 75 45 40 46
REMARK SMILES IDX 41 47 55 49 76 50 43 51 27 52 28 53 36 54 29 55 30 56 34 57
REMARK SMILES IDX 37 58 31 59 32 60 35 61 33 62 59 63 60 64 68 65 61 66 62 67
REMARK SMILES IDX 66 68 69 69 63 70 64 71 67 72 65 73 44 74 45 75 53 76 46 77
REMARK SMILES IDX 47 78 51 79 54 80 48 81 49 82 52 83 50 84
REMARK H PARENT 11 6 15 18 74 37 42 48
REMARK Flexibility Score: inf
ROOT
ATOM      1  C   UNL A   1      38.080  19.753  24.795  1.00  0.00     0.042 C 
ENDROOT
BRANCH   1   2
ATOM      2  C   UNL A   1      36.958  20.777  24.699  1.00  0.00     0.117 C 
BRANCH   2   3
ATOM      3  N   UNL A   1      35.753  20.348  25.380  1.00  0.00    -0.356 N 
ATOM      4  O   UNL A   1      34.332  21.744  24.239  1.00  0.00    -0.275 OA
ATOM      5  C   UNL A   1      34.510  20.834  25.040  1.00  0.00     0.220 C 
ATOM      6  H   UNL A   1      35.825  19.689  26.108  1.00  0.00     0.163 HD
BRANCH   5   7
ATOM      7  C   UNL A   1      33.359  20.164  25.765  1.00  0.00     0.108 C 
BRANCH   7   8
ATOM      8  C   UNL A   1      32.615  19.044  25.003  1.00  0.00     0.037 C 
ATOM      9  C   UNL A   1      32.401  17.747  25.749  1.00  0.00    -0.010 C 
ATOM     10  C   UNL A   1      33.344  18.652  23.703  1.00  0.00     0.150 C 
ATOM     11  C   UNL A   1      33.175  16.714  25.391  1.00  0.00     0.102 C 
ATOM     12  S   UNL A   1      34.221  17.136  24.079  1.00  0.00     0.171 S 
ATOM     13  O   UNL A   1      34.028  16.203  22.986  1.00  0.00    -0.224 OA
ATOM     14  O   UNL A   1      35.533  17.469  24.584  1.00  0.00    -0.224 OA
ENDBRANCH   7   8
ENDBRANCH   5   7
ENDBRANCH   2   3
ENDBRANCH   1   2
BRANCH   1  15
ATOM     15  C   UNL A   1      39.144  20.071  25.842  1.00  0.00     0.118 C 
BRANCH  15  16
ATOM     16  N   UNL A   1      40.212  19.083  25.906  1.00  0.00    -0.352 N 
ATOM     17  C   UNL A   1      41.562  19.254  26.097  1.00  0.00     0.251 C 
ATOM     18  H   UNL A   1      39.921  18.149  25.796  1.00  0.00     0.163 HD
ATOM     19  O   UNL A   1      42.314  18.288  26.008  1.00  0.00    -0.269 OA
BRANCH  17  20
ATOM     20  C   UNL A   1      42.121  20.595  26.374  1.00  0.00     0.039 A 
ATOM     21  C   UNL A   1      42.535  21.381  25.294  1.00  0.00     0.014 A 
ATOM     22  C   UNL A   1      42.240  21.081  27.678  1.00  0.00     0.014 A 
ATOM     23  C   UNL A   1      42.990  22.683  25.516  1.00  0.00     0.010 A 
ATOM     24  C   UNL A   1      42.629  22.402  27.892  1.00  0.00     0.010 A 
ATOM     25  C   UNL A   1      42.997  23.220  26.812  1.00  0.00    -0.014 A 
BRANCH  25  26
ATOM     26  C   UNL A   1      43.350  24.643  27.055  1.00  0.00     0.031 A 
ATOM     27  C   UNL A   1      44.747  25.137  26.804  1.00  0.00     0.074 A 
ATOM     28  C   UNL A   1      42.426  25.473  27.575  1.00  0.00     0.049 A 
ATOM     29  N   UNL A   1      45.261  26.317  27.039  1.00  0.00    -0.248 NA
ATOM     30  C   UNL A   1      45.698  24.168  26.238  1.00  0.00     0.031 C 
ATOM     31  C   UNL A   1      41.049  25.105  27.906  1.00  0.00     0.029 A 
ATOM     32  N   UNL A   1      42.511  26.797  27.932  1.00  0.00    -0.354 N 
ATOM     33  C   UNL A   1      46.595  26.230  26.664  1.00  0.00     0.074 A 
ATOM     34  C   UNL A   1      46.823  24.869  26.227  1.00  0.00     0.031 C 
ATOM     35  C   UNL A   1      40.413  26.178  28.402  1.00  0.00     0.029 A 
ATOM     36  C   UNL A   1      41.347  27.299  28.461  1.00  0.00     0.049 A 
ATOM     37  H   UNL A   1      43.327  27.335  27.820  1.00  0.00     0.167 HD
ATOM     38  C   UNL A   1      47.538  27.203  26.665  1.00  0.00     0.037 A 
ATOM     39  C   UNL A   1      41.066  28.522  28.951  1.00  0.00     0.037 A 
ATOM     40  C   UNL A   1      47.305  28.563  27.075  1.00  0.00     0.049 A 
ATOM     41  C   UNL A   1      42.134  29.580  28.947  1.00  0.00     0.074 A 
ATOM     42  C   UNL A   1      48.180  29.635  27.049  1.00  0.00     0.029 A 
ATOM     43  N   UNL A   1      46.107  29.038  27.591  1.00  0.00    -0.354 N 
ATOM     44  N   UNL A   1      43.372  29.503  28.528  1.00  0.00    -0.248 NA
ATOM     45  C   UNL A   1      41.761  30.897  29.483  1.00  0.00     0.031 C 
ATOM     46  C   UNL A   1      47.527  30.748  27.590  1.00  0.00     0.029 A 
ATOM     47  C   UNL A   1      46.230  30.381  27.910  1.00  0.00     0.049 A 
ATOM     48  H   UNL A   1      45.292  28.500  27.714  1.00  0.00     0.167 HD
ATOM     49  C   UNL A   1      43.921  30.763  28.728  1.00  0.00     0.074 A 
ATOM     50  C   UNL A   1      42.874  31.590  29.291  1.00  0.00     0.031 C 
ATOM     51  C   UNL A   1      45.180  31.195  28.469  1.00  0.00     0.037 A 
BRANCH  38  52
ATOM     52  C   UNL A   1      48.918  26.833  26.202  1.00  0.00     0.064 A 
ATOM     53  C   UNL A   1      49.313  26.995  24.865  1.00  0.00     0.173 A 
ATOM     54  C   UNL A   1      49.869  26.352  27.114  1.00  0.00     0.173 A 
ATOM     55  F   UNL A   1      48.438  27.441  23.953  1.00  0.00    -0.203 F 
ATOM     56  C   UNL A   1      50.601  26.664  24.454  1.00  0.00     0.198 A 
ATOM     57  C   UNL A   1      51.166  26.048  26.705  1.00  0.00     0.198 A 
ATOM     58  F   UNL A   1      49.545  26.184  28.406  1.00  0.00    -0.203 F 
ATOM     59  F   UNL A   1      50.943  26.784  23.165  1.00  0.00    -0.200 F 
ATOM     60  C   UNL A   1      51.528  26.199  25.375  1.00  0.00     0.200 A 
ATOM     61  F   UNL A   1      52.063  25.610  27.598  1.00  0.00    -0.200 F 
ATOM     62  F   UNL A   1      52.770  25.888  24.979  1.00  0.00    -0.200 F 
ENDBRANCH  38  52
BRANCH  39  63
ATOM     63  C   UNL A   1      39.705  28.816  29.470  1.00  0.00     0.064 A 
ATOM     64  C   UNL A   1      39.368  28.535  30.801  1.00  0.00     0.173 A 
ATOM     65  C   UNL A   1      38.716  29.380  28.651  1.00  0.00     0.173 A 
ATOM     66  F   UNL A   1      40.274  27.975  31.616  1.00  0.00    -0.203 F 
ATOM     67  C   UNL A   1      38.088  28.789  31.289  1.00  0.00     0.198 A 
ATOM     68  C   UNL A   1      37.445  29.659  29.147  1.00  0.00     0.198 A 
ATOM     69  F   UNL A   1      38.990  29.671  27.370  1.00  0.00    -0.203 F 
ATOM     70  F   UNL A   1      37.780  28.471  32.553  1.00  0.00    -0.200 F 
ATOM     71  C   UNL A   1      37.130  29.357  30.463  1.00  0.00     0.200 A 
ATOM     72  F   UNL A   1      36.525  30.219  28.349  1.00  0.00    -0.200 F 
ATOM     73  F   UNL A   1      35.900  29.606  30.933  1.00  0.00    -0.200 F 
ENDBRANCH  39  63
BRANCH  51  74
ATOM     74  C   UNL A   1      45.487  32.632  28.766  1.00  0.00     0.064 A 
ATOM     75  C   UNL A   1      46.038  33.026  29.994  1.00  0.00     0.173 A 
ATOM     76  C   UNL A   1      45.259  33.623  27.800  1.00  0.00     0.173 A 
ATOM     77  F   UNL A   1      46.260  32.118  30.958  1.00  0.00    -0.203 F 
ATOM     78  C   UNL A   1      46.328  34.363  30.253  1.00  0.00     0.198 A 
ATOM     79  C   UNL A   1      45.576  34.955  28.050  1.00  0.00     0.198 A 
ATOM     80  F   UNL A   1      44.739  33.298  26.607  1.00  0.00    -0.203 F 
ATOM     81  F   UNL A   1      46.811  34.723  31.450  1.00  0.00    -0.200 F 
ATOM     82  C   UNL A   1      46.103  35.325  29.279  1.00  0.00     0.200 A 
ATOM     83  F   UNL A   1      45.370  35.882  27.104  1.00  0.00    -0.200 F 
ATOM     84  F   UNL A   1      46.387  36.610  29.527  1.00  0.00    -0.200 F 
ENDBRANCH  51  74
ENDBRANCH  25  26
ENDBRANCH  17  20
ENDBRANCH  15  16
ENDBRANCH   1  15
TORSDOF 11
ENDMDL
