MODEL 1
REMARK VINA RESULT:     -11.4      0.000      0.000
REMARK SMILES CCN(C(=O)c1nc(C(C)(C)C)n[nH]1)[C@@H](C)CC(=O)NCCCNC(=O)c1ccc(-c2c3nc(c(-c4c(F)c(F)c(F)c(F)c4F)c4ccc([nH]4)c(-c4c(F)c(F)c(F)c(F)c4F)c4nc(c(-c5c(F)c(F)c(F)c(F)c5F)c5ccc2[nH]5)C=C4)C=C3)cc1
REMARK SMILES IDX 18 1 19 2 20 3 17 5 15 6 16 7 3 8 2 9 1 10 4 11 5 12 6 13
REMARK SMILES IDX 7 14 14 15 8 16 13 17 9 19 10 20 11 21 12 22 21 23 22 24
REMARK SMILES IDX 23 25 24 26 25 27 26 29 27 30 28 31 89 32 29 33 88 34 30 35
REMARK SMILES IDX 31 36 32 37 82 38 33 39 87 40 81 41 83 42 34 43 86 44 80 45
REMARK SMILES IDX 79 46 35 48 67 49 47 50 66 51 48 52 51 53 65 54 84 55 49 56
REMARK SMILES IDX 50 57 64 59 85 60 52 61 36 62 37 63 45 64 38 65 39 66 43 67
REMARK SMILES IDX 46 68 40 69 41 70 44 71 42 72 68 73 69 74 77 75 70 76 71 77
REMARK SMILES IDX 75 78 78 79 72 80 73 81 76 82 74 83 53 84 54 85 62 86 55 87
REMARK SMILES IDX 56 88 60 89 63 90 57 91 58 92 61 93 59 94
REMARK H PARENT 20 4 14 18 24 28 83 47 51 58
REMARK Flexibility Score: inf
ROOT
ATOM      1  C   UNL A   1      35.173  21.702  26.208  1.00  0.00     0.222 C 
ATOM      2  O   UNL A   1      34.462  21.469  27.188  1.00  0.00    -0.275 OA
ATOM      3  N   UNL A   1      35.932  20.685  25.709  1.00  0.00    -0.356 N 
ATOM      4  H   UNL A   1      35.778  19.808  26.130  1.00  0.00     0.163 HD
ENDROOT
BRANCH   1   5
ATOM      5  C   UNL A   1      35.170  23.075  25.561  1.00  0.00     0.124 C 
BRANCH   5   6
ATOM      6  C   UNL A   1      34.276  23.137  24.311  1.00  0.00     0.091 C 
ATOM      7  C   UNL A   1      34.326  24.490  23.590  1.00  0.00     0.031 C 
BRANCH   6   8
ATOM      8  N   UNL A   1      32.875  22.688  24.523  1.00  0.00    -0.333 N 
BRANCH   8   9
ATOM      9  C   UNL A   1      31.857  23.551  25.160  1.00  0.00     0.117 C 
ATOM     10  C   UNL A   1      31.975  23.966  26.618  1.00  0.00     0.027 C 
ENDBRANCH   8   9
BRANCH   8  11
ATOM     11  C   UNL A   1      32.488  21.493  23.846  1.00  0.00     0.291 C 
ATOM     12  O   UNL A   1      31.968  21.536  22.728  1.00  0.00    -0.265 OA
BRANCH  11  13
ATOM     13  C   UNL A   1      32.796  20.191  24.412  1.00  0.00     0.214 A 
ATOM     14  N   UNL A   1      33.501  19.202  23.902  1.00  0.00    -0.207 NA
ATOM     15  N   UNL A   1      32.281  19.774  25.607  1.00  0.00    -0.255 N 
ATOM     16  C   UNL A   1      33.325  18.172  24.788  1.00  0.00     0.156 A 
ATOM     17  N   UNL A   1      32.560  18.481  25.840  1.00  0.00    -0.158 NA
ATOM     18  H   UNL A   1      31.769  20.350  26.221  1.00  0.00     0.192 HD
BRANCH  16  19
ATOM     19  C   UNL A   1      33.896  16.800  24.524  1.00  0.00     0.024 C 
ATOM     20  C   UNL A   1      35.264  16.599  25.201  1.00  0.00     0.019 C 
ATOM     21  C   UNL A   1      32.925  15.730  25.053  1.00  0.00     0.019 C 
ATOM     22  C   UNL A   1      34.084  16.595  23.009  1.00  0.00     0.019 C 
ENDBRANCH  16  19
ENDBRANCH  11  13
ENDBRANCH   8  11
ENDBRANCH   6   8
ENDBRANCH   5   6
ENDBRANCH   1   5
BRANCH   3  23
ATOM     23  C   UNL A   1      36.934  20.687  24.654  1.00  0.00     0.117 C 
BRANCH  23  24
ATOM     24  C   UNL A   1      38.009  19.634  24.911  1.00  0.00     0.042 C 
BRANCH  24  25
ATOM     25  C   UNL A   1      39.016  20.002  25.995  1.00  0.00     0.118 C 
BRANCH  25  26
ATOM     26  N   UNL A   1      40.216  19.184  25.937  1.00  0.00    -0.352 N 
ATOM     27  C   UNL A   1      41.552  19.501  26.023  1.00  0.00     0.251 C 
ATOM     28  H   UNL A   1      40.041  18.223  25.814  1.00  0.00     0.163 HD
ATOM     29  O   UNL A   1      42.369  18.623  25.745  1.00  0.00    -0.269 OA
BRANCH  27  30
ATOM     30  C   UNL A   1      42.052  20.848  26.412  1.00  0.00     0.039 A 
ATOM     31  C   UNL A   1      42.232  21.799  25.397  1.00  0.00     0.014 A 
ATOM     32  C   UNL A   1      42.437  21.181  27.713  1.00  0.00     0.014 A 
ATOM     33  C   UNL A   1      42.714  23.081  25.689  1.00  0.00     0.010 A 
ATOM     34  C   UNL A   1      42.864  22.480  28.019  1.00  0.00     0.010 A 
ATOM     35  C   UNL A   1      43.006  23.444  27.011  1.00  0.00    -0.014 A 
BRANCH  35  36
ATOM     36  C   UNL A   1      43.470  24.819  27.343  1.00  0.00     0.031 A 
ATOM     37  C   UNL A   1      42.531  25.814  27.957  1.00  0.00     0.074 A 
ATOM     38  C   UNL A   1      44.732  25.193  27.052  1.00  0.00     0.049 A 
ATOM     39  N   UNL A   1      42.739  27.073  28.247  1.00  0.00    -0.248 NA
ATOM     40  C   UNL A   1      41.173  25.341  28.263  1.00  0.00     0.031 C 
ATOM     41  C   UNL A   1      45.721  24.335  26.413  1.00  0.00     0.029 A 
ATOM     42  N   UNL A   1      45.399  26.378  27.241  1.00  0.00    -0.354 N 
ATOM     43  C   UNL A   1      41.531  27.553  28.733  1.00  0.00     0.074 A 
ATOM     44  C   UNL A   1      40.591  26.453  28.691  1.00  0.00     0.031 C 
ATOM     45  C   UNL A   1      46.878  25.002  26.284  1.00  0.00     0.029 A 
ATOM     46  C   UNL A   1      46.700  26.354  26.798  1.00  0.00     0.049 A 
ATOM     47  H   UNL A   1      44.983  27.170  27.654  1.00  0.00     0.167 HD
ATOM     48  C   UNL A   1      41.240  28.799  29.174  1.00  0.00     0.037 A 
ATOM     49  C   UNL A   1      47.642  27.316  26.795  1.00  0.00     0.037 A 
ATOM     50  C   UNL A   1      42.185  29.880  29.258  1.00  0.00     0.049 A 
ATOM     51  C   UNL A   1      47.298  28.676  27.331  1.00  0.00     0.074 A 
ATOM     52  C   UNL A   1      41.996  31.153  29.766  1.00  0.00     0.029 A 
ATOM     53  N   UNL A   1      43.501  29.814  28.823  1.00  0.00    -0.354 N 
ATOM     54  N   UNL A   1      46.166  29.100  27.839  1.00  0.00    -0.248 NA
ATOM     55  C   UNL A   1      48.354  29.697  27.284  1.00  0.00     0.031 C 
ATOM     56  C   UNL A   1      43.187  31.870  29.608  1.00  0.00     0.029 A 
ATOM     57  C   UNL A   1      44.127  31.033  29.029  1.00  0.00     0.049 A 
ATOM     58  H   UNL A   1      43.926  29.019  28.427  1.00  0.00     0.167 HD
ATOM     59  C   UNL A   1      46.372  30.431  28.166  1.00  0.00     0.074 A 
ATOM     60  C   UNL A   1      47.747  30.739  27.833  1.00  0.00     0.031 C 
ATOM     61  C   UNL A   1      45.493  31.324  28.682  1.00  0.00     0.037 A 
BRANCH  48  62
ATOM     62  C   UNL A   1      39.826  29.071  29.590  1.00  0.00     0.064 A 
ATOM     63  C   UNL A   1      38.855  29.486  28.669  1.00  0.00     0.173 A 
ATOM     64  C   UNL A   1      39.431  28.865  30.920  1.00  0.00     0.173 A 
ATOM     65  F   UNL A   1      39.190  29.708  27.389  1.00  0.00    -0.203 F 
ATOM     66  C   UNL A   1      37.539  29.700  29.068  1.00  0.00     0.198 A 
ATOM     67  C   UNL A   1      38.110  29.060  31.312  1.00  0.00     0.198 A 
ATOM     68  F   UNL A   1      40.326  28.466  31.838  1.00  0.00    -0.203 F 
ATOM     69  F   UNL A   1      36.631  30.125  28.179  1.00  0.00    -0.200 F 
ATOM     70  C   UNL A   1      37.166  29.481  30.387  1.00  0.00     0.200 A 
ATOM     71  F   UNL A   1      37.750  28.842  32.584  1.00  0.00    -0.200 F 
ATOM     72  F   UNL A   1      35.897  29.680  30.768  1.00  0.00    -0.200 F 
ENDBRANCH  48  62
BRANCH  49  73
ATOM     73  C   UNL A   1      49.001  27.033  26.263  1.00  0.00     0.064 A 
ATOM     74  C   UNL A   1      49.284  27.189  24.899  1.00  0.00     0.173 A 
ATOM     75  C   UNL A   1      50.034  26.580  27.096  1.00  0.00     0.173 A 
ATOM     76  F   UNL A   1      48.320  27.594  24.058  1.00  0.00    -0.203 F 
ATOM     77  C   UNL A   1      50.543  26.887  24.385  1.00  0.00     0.198 A 
ATOM     78  C   UNL A   1      51.300  26.303  26.585  1.00  0.00     0.198 A 
ATOM     79  F   UNL A   1      49.814  26.411  28.408  1.00  0.00    -0.203 F 
ATOM     80  F   UNL A   1      50.773  27.000  23.069  1.00  0.00    -0.200 F 
ATOM     81  C   UNL A   1      51.551  26.448  25.229  1.00  0.00     0.200 A 
ATOM     82  F   UNL A   1      52.274  25.885  27.405  1.00  0.00    -0.200 F 
ATOM     83  F   UNL A   1      52.761  26.154  24.734  1.00  0.00    -0.200 F 
ENDBRANCH  49  73
BRANCH  61  84
ATOM     84  C   UNL A   1      45.992  32.718  28.904  1.00  0.00     0.064 A 
ATOM     85  C   UNL A   1      45.876  33.696  27.905  1.00  0.00     0.173 A 
ATOM     86  C   UNL A   1      46.557  33.090  30.131  1.00  0.00     0.173 A 
ATOM     87  F   UNL A   1      45.358  33.380  26.709  1.00  0.00    -0.203 F 
ATOM     88  C   UNL A   1      46.323  34.995  28.124  1.00  0.00     0.198 A 
ATOM     89  C   UNL A   1      46.985  34.396  30.353  1.00  0.00     0.198 A 
ATOM     90  F   UNL A   1      46.689  32.189  31.116  1.00  0.00    -0.203 F 
ATOM     91  F   UNL A   1      46.236  35.905  27.144  1.00  0.00    -0.200 F 
ATOM     92  C   UNL A   1      46.872  35.346  29.349  1.00  0.00     0.200 A 
ATOM     93  F   UNL A   1      47.508  34.736  31.540  1.00  0.00    -0.200 F 
ATOM     94  F   UNL A   1      47.298  36.598  29.559  1.00  0.00    -0.200 F 
ENDBRANCH  61  84
ENDBRANCH  35  36
ENDBRANCH  27  30
ENDBRANCH  25  26
ENDBRANCH  24  25
ENDBRANCH  23  24
ENDBRANCH   3  23
TORSDOF 16
ENDMDL
MODEL 2
REMARK VINA RESULT:     -11.3      4.574      9.732
REMARK SMILES CCN(C(=O)c1nc(C(C)(C)C)n[nH]1)[C@@H](C)CC(=O)NCCCNC(=O)c1ccc(-c2c3nc(c(-c4c(F)c(F)c(F)c(F)c4F)c4ccc([nH]4)c(-c4c(F)c(F)c(F)c(F)c4F)c4nc(c(-c5c(F)c(F)c(F)c(F)c5F)c5ccc2[nH]5)C=C4)C=C3)cc1
REMARK SMILES IDX 18 1 19 2 20 3 17 5 15 6 16 7 3 8 2 9 1 10 4 11 5 12 6 13
REMARK SMILES IDX 7 14 14 15 8 16 13 17 9 19 10 20 11 21 12 22 21 23 22 24
REMARK SMILES IDX 23 25 24 26 25 27 26 29 27 30 28 31 89 32 29 33 88 34 30 35
REMARK SMILES IDX 31 36 32 37 82 38 33 39 87 40 81 41 83 42 34 43 86 44 80 45
REMARK SMILES IDX 79 46 35 48 67 49 47 50 66 51 48 52 51 53 65 54 84 55 49 56
REMARK SMILES IDX 50 57 64 59 85 60 52 61 36 62 37 63 45 64 38 65 39 66 43 67
REMARK SMILES IDX 46 68 40 69 41 70 44 71 42 72 68 73 69 74 77 75 70 76 71 77
REMARK SMILES IDX 75 78 78 79 72 80 73 81 76 82 74 83 53 84 54 85 62 86 55 87
REMARK SMILES IDX 56 88 60 89 63 90 57 91 58 92 61 93 59 94
REMARK H PARENT 20 4 14 18 24 28 83 47 51 58
REMARK Flexibility Score: inf
ROOT
ATOM      1  C   UNL A   1      31.410  24.429  26.393  1.00  0.00     0.222 C 
ATOM      2  O   UNL A   1      31.273  23.494  27.183  1.00  0.00    -0.275 OA
ATOM      3  N   UNL A   1      31.144  25.690  26.839  1.00  0.00    -0.356 N 
ATOM      4  H   UNL A   1      30.945  25.756  27.801  1.00  0.00     0.163 HD
ENDROOT
BRANCH   1   5
ATOM      5  C   UNL A   1      31.895  24.179  24.976  1.00  0.00     0.124 C 
BRANCH   5   6
ATOM      6  C   UNL A   1      33.389  24.498  24.799  1.00  0.00     0.091 C 
ATOM      7  C   UNL A   1      33.658  25.622  23.790  1.00  0.00     0.031 C 
BRANCH   6   8
ATOM      8  N   UNL A   1      34.253  23.318  24.537  1.00  0.00    -0.333 N 
BRANCH   8   9
ATOM      9  C   UNL A   1      35.170  23.253  23.379  1.00  0.00     0.117 C 
ATOM     10  C   UNL A   1      36.621  22.826  23.542  1.00  0.00     0.027 C 
ENDBRANCH   8   9
BRANCH   8  11
ATOM     11  C   UNL A   1      34.356  22.365  25.594  1.00  0.00     0.291 C 
ATOM     12  O   UNL A   1      34.863  22.670  26.677  1.00  0.00    -0.265 OA
BRANCH  11  13
ATOM     13  C   UNL A   1      33.768  21.044  25.457  1.00  0.00     0.214 A 
ATOM     14  N   UNL A   1      34.287  19.945  24.949  1.00  0.00    -0.207 NA
ATOM     15  N   UNL A   1      32.469  20.784  25.795  1.00  0.00    -0.255 N 
ATOM     16  C   UNL A   1      33.242  19.059  24.927  1.00  0.00     0.156 A 
ATOM     17  N   UNL A   1      32.100  19.549  25.420  1.00  0.00    -0.158 NA
ATOM     18  H   UNL A   1      31.878  21.424  26.255  1.00  0.00     0.192 HD
BRANCH  16  19
ATOM     19  C   UNL A   1      33.388  17.685  24.320  1.00  0.00     0.024 C 
ATOM     20  C   UNL A   1      32.631  16.611  25.122  1.00  0.00     0.019 C 
ATOM     21  C   UNL A   1      32.841  17.700  22.882  1.00  0.00     0.019 C 
ATOM     22  C   UNL A   1      34.875  17.285  24.282  1.00  0.00     0.019 C 
ENDBRANCH  16  19
ENDBRANCH  11  13
ENDBRANCH   8  11
ENDBRANCH   6   8
ENDBRANCH   5   6
ENDBRANCH   1   5
BRANCH   3  23
ATOM     23  C   UNL A   1      31.107  26.955  26.120  1.00  0.00     0.117 C 
BRANCH  23  24
ATOM     24  C   UNL A   1      32.011  27.993  26.783  1.00  0.00     0.042 C 
BRANCH  24  25
ATOM     25  C   UNL A   1      32.776  28.885  25.812  1.00  0.00     0.118 C 
BRANCH  25  26
ATOM     26  N   UNL A   1      32.496  30.296  26.018  1.00  0.00    -0.352 N 
ATOM     27  C   UNL A   1      33.068  31.239  26.840  1.00  0.00     0.251 C 
ATOM     28  H   UNL A   1      31.760  30.644  25.464  1.00  0.00     0.163 HD
ATOM     29  O   UNL A   1      32.499  32.325  26.951  1.00  0.00    -0.269 OA
BRANCH  27  30
ATOM     30  C   UNL A   1      34.320  31.004  27.611  1.00  0.00     0.039 A 
ATOM     31  C   UNL A   1      34.447  29.788  28.299  1.00  0.00     0.014 A 
ATOM     32  C   UNL A   1      35.325  31.962  27.758  1.00  0.00     0.014 A 
ATOM     33  C   UNL A   1      35.591  29.507  29.057  1.00  0.00     0.010 A 
ATOM     34  C   UNL A   1      36.497  31.663  28.466  1.00  0.00     0.010 A 
ATOM     35  C   UNL A   1      36.642  30.431  29.123  1.00  0.00    -0.014 A 
BRANCH  35  36
ATOM     36  C   UNL A   1      37.886  30.125  29.881  1.00  0.00     0.031 A 
ATOM     37  C   UNL A   1      38.935  29.228  29.296  1.00  0.00     0.074 A 
ATOM     38  C   UNL A   1      38.056  30.620  31.123  1.00  0.00     0.049 A 
ATOM     39  N   UNL A   1      40.045  28.795  29.839  1.00  0.00    -0.248 NA
ATOM     40  C   UNL A   1      38.698  28.732  27.933  1.00  0.00     0.031 C 
ATOM     41  C   UNL A   1      37.090  31.460  31.817  1.00  0.00     0.029 A 
ATOM     42  N   UNL A   1      39.083  30.487  32.025  1.00  0.00    -0.354 N 
ATOM     43  C   UNL A   1      40.618  27.948  28.902  1.00  0.00     0.074 A 
ATOM     44  C   UNL A   1      39.731  27.919  27.758  1.00  0.00     0.031 C 
ATOM     45  C   UNL A   1      37.571  31.797  33.023  1.00  0.00     0.029 A 
ATOM     46  C   UNL A   1      38.869  31.161  33.204  1.00  0.00     0.049 A 
ATOM     47  H   UNL A   1      39.895  29.960  31.844  1.00  0.00     0.167 HD
ATOM     48  C   UNL A   1      41.780  27.260  28.992  1.00  0.00     0.037 A 
ATOM     49  C   UNL A   1      39.628  31.247  34.314  1.00  0.00     0.037 A 
ATOM     50  C   UNL A   1      42.685  27.323  30.109  1.00  0.00     0.049 A 
ATOM     51  C   UNL A   1      40.933  30.505  34.364  1.00  0.00     0.074 A 
ATOM     52  C   UNL A   1      43.923  26.720  30.251  1.00  0.00     0.029 A 
ATOM     53  N   UNL A   1      42.449  28.033  31.277  1.00  0.00    -0.354 N 
ATOM     54  N   UNL A   1      41.489  29.750  33.448  1.00  0.00    -0.248 NA
ATOM     55  C   UNL A   1      41.712  30.613  35.606  1.00  0.00     0.031 C 
ATOM     56  C   UNL A   1      44.422  27.038  31.520  1.00  0.00     0.029 A 
ATOM     57  C   UNL A   1      43.508  27.863  32.155  1.00  0.00     0.049 A 
ATOM     58  H   UNL A   1      41.648  28.577  31.456  1.00  0.00     0.167 HD
ATOM     59  C   UNL A   1      42.675  29.293  34.000  1.00  0.00     0.074 A 
ATOM     60  C   UNL A   1      42.779  29.881  35.319  1.00  0.00     0.031 C 
ATOM     61  C   UNL A   1      43.589  28.448  33.467  1.00  0.00     0.037 A 
BRANCH  48  62
ATOM     62  C   UNL A   1      42.140  26.358  27.850  1.00  0.00     0.064 A 
ATOM     63  C   UNL A   1      41.580  25.080  27.717  1.00  0.00     0.173 A 
ATOM     64  C   UNL A   1      43.019  26.803  26.851  1.00  0.00     0.173 A 
ATOM     65  F   UNL A   1      40.745  24.609  28.655  1.00  0.00    -0.203 F 
ATOM     66  C   UNL A   1      41.900  24.271  26.631  1.00  0.00     0.198 A 
ATOM     67  C   UNL A   1      43.320  25.999  25.756  1.00  0.00     0.198 A 
ATOM     68  F   UNL A   1      43.578  28.020  26.934  1.00  0.00    -0.203 F 
ATOM     69  F   UNL A   1      41.378  23.041  26.537  1.00  0.00    -0.200 F 
ATOM     70  C   UNL A   1      42.764  24.733  25.648  1.00  0.00     0.200 A 
ATOM     71  F   UNL A   1      44.150  26.449  24.804  1.00  0.00    -0.200 F 
ATOM     72  F   UNL A   1      43.065  23.956  24.599  1.00  0.00    -0.200 F 
ENDBRANCH  48  62
BRANCH  49  73
ATOM     73  C   UNL A   1      39.175  32.062  35.471  1.00  0.00     0.064 A 
ATOM     74  C   UNL A   1      39.559  33.404  35.597  1.00  0.00     0.173 A 
ATOM     75  C   UNL A   1      38.373  31.515  36.483  1.00  0.00     0.173 A 
ATOM     76  F   UNL A   1      40.348  33.964  34.667  1.00  0.00    -0.203 F 
ATOM     77  C   UNL A   1      39.172  34.164  36.698  1.00  0.00     0.198 A 
ATOM     78  C   UNL A   1      37.966  32.283  37.572  1.00  0.00     0.198 A 
ATOM     79  F   UNL A   1      37.982  30.235  36.412  1.00  0.00    -0.203 F 
ATOM     80  F   UNL A   1      39.592  35.431  36.818  1.00  0.00    -0.200 F 
ATOM     81  C   UNL A   1      38.372  33.604  37.684  1.00  0.00     0.200 A 
ATOM     82  F   UNL A   1      37.187  31.740  38.518  1.00  0.00    -0.200 F 
ATOM     83  F   UNL A   1      38.004  34.334  38.745  1.00  0.00    -0.200 F 
ENDBRANCH  49  73
BRANCH  61  84
ATOM     84  C   UNL A   1      44.772  28.101  34.318  1.00  0.00     0.064 A 
ATOM     85  C   UNL A   1      45.931  28.890  34.302  1.00  0.00     0.173 A 
ATOM     86  C   UNL A   1      44.736  26.996  35.179  1.00  0.00     0.173 A 
ATOM     87  F   UNL A   1      46.017  29.947  33.480  1.00  0.00    -0.203 F 
ATOM     88  C   UNL A   1      47.020  28.575  35.109  1.00  0.00     0.198 A 
ATOM     89  C   UNL A   1      45.819  26.695  35.999  1.00  0.00     0.198 A 
ATOM     90  F   UNL A   1      43.648  26.212  35.229  1.00  0.00    -0.203 F 
ATOM     91  F   UNL A   1      48.132  29.320  35.052  1.00  0.00    -0.200 F 
ATOM     92  C   UNL A   1      46.961  27.481  35.961  1.00  0.00     0.200 A 
ATOM     93  F   UNL A   1      45.758  25.644  36.828  1.00  0.00    -0.200 F 
ATOM     94  F   UNL A   1      48.009  27.182  36.740  1.00  0.00    -0.200 F 
ENDBRANCH  61  84
ENDBRANCH  35  36
ENDBRANCH  27  30
ENDBRANCH  25  26
ENDBRANCH  24  25
ENDBRANCH  23  24
ENDBRANCH   3  23
TORSDOF 16
ENDMDL
MODEL 3
REMARK VINA RESULT:     -11.2      0.444      7.410
REMARK SMILES CCN(C(=O)c1nc(C(C)(C)C)n[nH]1)[C@@H](C)CC(=O)NCCCNC(=O)c1ccc(-c2c3nc(c(-c4c(F)c(F)c(F)c(F)c4F)c4ccc([nH]4)c(-c4c(F)c(F)c(F)c(F)c4F)c4nc(c(-c5c(F)c(F)c(F)c(F)c5F)c5ccc2[nH]5)C=C4)C=C3)cc1
REMARK SMILES IDX 18 1 19 2 20 3 17 5 15 6 16 7 3 8 2 9 1 10 4 11 5 12 6 13
REMARK SMILES IDX 7 14 14 15 8 16 13 17 9 19 10 20 11 21 12 22 21 23 22 24
REMARK SMILES IDX 23 25 24 26 25 27 26 29 27 30 28 31 89 32 29 33 88 34 30 35
REMARK SMILES IDX 31 36 32 37 82 38 33 39 87 40 81 41 83 42 34 43 86 44 80 45
REMARK SMILES IDX 79 46 35 48 67 49 47 50 66 51 48 52 51 53 65 54 84 55 49 56
REMARK SMILES IDX 50 57 64 59 85 60 52 61 36 62 37 63 45 64 38 65 39 66 43 67
REMARK SMILES IDX 46 68 40 69 41 70 44 71 42 72 68 73 69 74 77 75 70 76 71 77
REMARK SMILES IDX 75 78 78 79 72 80 73 81 76 82 74 83 53 84 54 85 62 86 55 87
REMARK SMILES IDX 56 88 60 89 63 90 57 91 58 92 61 93 59 94
REMARK H PARENT 20 4 14 18 24 28 83 47 51 58
REMARK Flexibility Score: inf
ROOT
ATOM      1  C   UNL A   1      35.217  21.725  26.163  1.00  0.00     0.222 C 
ATOM      2  O   UNL A   1      34.522  21.608  27.174  1.00  0.00    -0.275 OA
ATOM      3  N   UNL A   1      35.891  20.626  25.717  1.00  0.00    -0.356 N 
ATOM      4  H   UNL A   1      35.689  19.792  26.200  1.00  0.00     0.163 HD
ENDROOT
BRANCH   1   5
ATOM      5  C   UNL A   1      35.290  23.049  25.424  1.00  0.00     0.124 C 
BRANCH   5   6
ATOM      6  C   UNL A   1      34.327  23.108  24.226  1.00  0.00     0.091 C 
ATOM      7  C   UNL A   1      34.331  24.463  23.506  1.00  0.00     0.031 C 
BRANCH   6   8
ATOM      8  N   UNL A   1      32.942  22.652  24.513  1.00  0.00    -0.333 N 
BRANCH   8   9
ATOM      9  C   UNL A   1      31.964  23.501  25.227  1.00  0.00     0.117 C 
ATOM     10  C   UNL A   1      30.969  22.904  26.210  1.00  0.00     0.027 C 
ENDBRANCH   8   9
BRANCH   8  11
ATOM     11  C   UNL A   1      32.516  21.470  23.838  1.00  0.00     0.291 C 
ATOM     12  O   UNL A   1      31.979  21.530  22.729  1.00  0.00    -0.265 OA
BRANCH  11  13
ATOM     13  C   UNL A   1      32.802  20.159  24.394  1.00  0.00     0.214 A 
ATOM     14  N   UNL A   1      33.489  19.162  23.876  1.00  0.00    -0.207 NA
ATOM     15  N   UNL A   1      32.282  19.742  25.587  1.00  0.00    -0.255 N 
ATOM     16  C   UNL A   1      33.297  18.128  24.755  1.00  0.00     0.156 A 
ATOM     17  N   UNL A   1      32.538  18.443  25.811  1.00  0.00    -0.158 NA
ATOM     18  H   UNL A   1      31.780  20.322  26.206  1.00  0.00     0.192 HD
BRANCH  16  19
ATOM     19  C   UNL A   1      33.844  16.748  24.481  1.00  0.00     0.024 C 
ATOM     20  C   UNL A   1      32.912  15.639  25.001  1.00  0.00     0.019 C 
ATOM     21  C   UNL A   1      34.028  16.562  22.964  1.00  0.00     0.019 C 
ATOM     22  C   UNL A   1      35.210  16.581  25.172  1.00  0.00     0.019 C 
ENDBRANCH  16  19
ENDBRANCH  11  13
ENDBRANCH   8  11
ENDBRANCH   6   8
ENDBRANCH   5   6
ENDBRANCH   1   5
BRANCH   3  23
ATOM     23  C   UNL A   1      36.859  20.488  24.639  1.00  0.00     0.117 C 
BRANCH  23  24
ATOM     24  C   UNL A   1      37.945  19.476  24.999  1.00  0.00     0.042 C 
BRANCH  24  25
ATOM     25  C   UNL A   1      38.950  19.962  26.038  1.00  0.00     0.118 C 
BRANCH  25  26
ATOM     26  N   UNL A   1      40.189  19.203  26.006  1.00  0.00    -0.352 N 
ATOM     27  C   UNL A   1      41.507  19.588  26.086  1.00  0.00     0.251 C 
ATOM     28  H   UNL A   1      40.062  18.231  25.912  1.00  0.00     0.163 HD
ATOM     29  O   UNL A   1      42.368  18.743  25.837  1.00  0.00    -0.269 OA
BRANCH  27  30
ATOM     30  C   UNL A   1      41.939  20.969  26.436  1.00  0.00     0.039 A 
ATOM     31  C   UNL A   1      42.077  21.896  25.392  1.00  0.00     0.014 A 
ATOM     32  C   UNL A   1      42.301  21.359  27.727  1.00  0.00     0.014 A 
ATOM     33  C   UNL A   1      42.495  23.209  25.647  1.00  0.00     0.010 A 
ATOM     34  C   UNL A   1      42.663  22.686  27.995  1.00  0.00     0.010 A 
ATOM     35  C   UNL A   1      42.763  23.625  26.957  1.00  0.00    -0.014 A 
BRANCH  35  36
ATOM     36  C   UNL A   1      43.158  25.030  27.250  1.00  0.00     0.031 A 
ATOM     37  C   UNL A   1      44.546  25.512  26.948  1.00  0.00     0.074 A 
ATOM     38  C   UNL A   1      42.278  25.870  27.831  1.00  0.00     0.049 A 
ATOM     39  N   UNL A   1      45.087  26.677  27.199  1.00  0.00    -0.248 NA
ATOM     40  C   UNL A   1      45.453  24.554  26.301  1.00  0.00     0.031 C 
ATOM     41  C   UNL A   1      40.921  25.507  28.217  1.00  0.00     0.029 A 
ATOM     42  N   UNL A   1      42.386  27.185  28.209  1.00  0.00    -0.354 N 
ATOM     43  C   UNL A   1      46.404  26.580  26.778  1.00  0.00     0.074 A 
ATOM     44  C   UNL A   1      46.587  25.241  26.262  1.00  0.00     0.031 C 
ATOM     45  C   UNL A   1      40.305  26.573  28.750  1.00  0.00     0.029 A 
ATOM     46  C   UNL A   1      41.241  27.689  28.780  1.00  0.00     0.049 A 
ATOM     47  H   UNL A   1      43.205  27.717  28.083  1.00  0.00     0.167 HD
ATOM     48  C   UNL A   1      47.370  27.528  26.819  1.00  0.00     0.037 A 
ATOM     49  C   UNL A   1      40.978  28.910  29.285  1.00  0.00     0.037 A 
ATOM     50  C   UNL A   1      47.178  28.874  27.290  1.00  0.00     0.049 A 
ATOM     51  C   UNL A   1      42.060  29.952  29.275  1.00  0.00     0.074 A 
ATOM     52  C   UNL A   1      48.080  29.923  27.294  1.00  0.00     0.029 A 
ATOM     53  N   UNL A   1      46.000  29.357  27.840  1.00  0.00    -0.354 N 
ATOM     54  N   UNL A   1      43.287  29.862  28.823  1.00  0.00    -0.248 NA
ATOM     55  C   UNL A   1      41.728  31.260  29.858  1.00  0.00     0.031 C 
ATOM     56  C   UNL A   1      47.460  31.033  27.878  1.00  0.00     0.029 A 
ATOM     57  C   UNL A   1      46.161  30.683  28.209  1.00  0.00     0.049 A 
ATOM     58  H   UNL A   1      45.172  28.836  27.951  1.00  0.00     0.167 HD
ATOM     59  C   UNL A   1      43.872  31.095  29.069  1.00  0.00     0.074 A 
ATOM     60  C   UNL A   1      42.858  31.929  29.678  1.00  0.00     0.031 C 
ATOM     61  C   UNL A   1      45.143  31.494  28.824  1.00  0.00     0.037 A 
BRANCH  48  62
ATOM     62  C   UNL A   1      48.740  27.138  26.352  1.00  0.00     0.064 A 
ATOM     63  C   UNL A   1      49.692  26.604  27.231  1.00  0.00     0.173 A 
ATOM     64  C   UNL A   1      49.084  27.258  24.998  1.00  0.00     0.173 A 
ATOM     65  F   UNL A   1      49.412  26.483  28.537  1.00  0.00    -0.203 F 
ATOM     66  C   UNL A   1      50.947  26.215  26.772  1.00  0.00     0.198 A 
ATOM     67  C   UNL A   1      50.332  26.849  24.539  1.00  0.00     0.198 A 
ATOM     68  F   UNL A   1      48.204  27.763  24.119  1.00  0.00    -0.203 F 
ATOM     69  F   UNL A   1      51.854  25.734  27.633  1.00  0.00    -0.200 F 
ATOM     70  C   UNL A   1      51.264  26.332  25.426  1.00  0.00     0.200 A 
ATOM     71  F   UNL A   1      50.634  26.957  23.237  1.00  0.00    -0.200 F 
ATOM     72  F   UNL A   1      52.470  25.951  24.985  1.00  0.00    -0.200 F 
ENDBRANCH  48  62
BRANCH  49  73
ATOM     73  C   UNL A   1      39.636  29.216  29.845  1.00  0.00     0.064 A 
ATOM     74  C   UNL A   1      38.600  29.672  29.017  1.00  0.00     0.173 A 
ATOM     75  C   UNL A   1      39.366  29.084  31.214  1.00  0.00     0.173 A 
ATOM     76  F   UNL A   1      38.818  29.840  27.704  1.00  0.00    -0.203 F 
ATOM     77  C   UNL A   1      37.351  30.000  29.539  1.00  0.00     0.198 A 
ATOM     78  C   UNL A   1      38.108  29.388  31.732  1.00  0.00     0.198 A 
ATOM     79  F   UNL A   1      40.323  28.655  32.049  1.00  0.00    -0.203 F 
ATOM     80  F   UNL A   1      36.393  30.479  28.733  1.00  0.00    -0.200 F 
ATOM     81  C   UNL A   1      37.105  29.854  30.897  1.00  0.00     0.200 A 
ATOM     82  F   UNL A   1      37.873  29.239  33.043  1.00  0.00    -0.200 F 
ATOM     83  F   UNL A   1      35.905  30.173  31.400  1.00  0.00    -0.200 F 
ENDBRANCH  49  73
BRANCH  61  84
ATOM     84  C   UNL A   1      45.508  32.889  29.230  1.00  0.00     0.064 A 
ATOM     85  C   UNL A   1      46.069  33.153  30.487  1.00  0.00     0.173 A 
ATOM     86  C   UNL A   1      45.329  33.962  28.346  1.00  0.00     0.173 A 
ATOM     87  F   UNL A   1      46.241  32.160  31.372  1.00  0.00    -0.203 F 
ATOM     88  C   UNL A   1      46.424  34.449  30.852  1.00  0.00     0.198 A 
ATOM     89  C   UNL A   1      45.704  35.253  28.707  1.00  0.00     0.198 A 
ATOM     90  F   UNL A   1      44.796  33.757  27.132  1.00  0.00    -0.203 F 
ATOM     91  F   UNL A   1      46.925  34.685  32.072  1.00  0.00    -0.200 F 
ATOM     92  C   UNL A   1      46.247  35.496  29.959  1.00  0.00     0.200 A 
ATOM     93  F   UNL A   1      45.539  36.263  27.841  1.00  0.00    -0.200 F 
ATOM     94  F   UNL A   1      46.593  36.742  30.311  1.00  0.00    -0.200 F 
ENDBRANCH  61  84
ENDBRANCH  35  36
ENDBRANCH  27  30
ENDBRANCH  25  26
ENDBRANCH  24  25
ENDBRANCH  23  24
ENDBRANCH   3  23
TORSDOF 16
ENDMDL
