MODEL 1
REMARK VINA RESULT:     -13.2      0.000      0.000
REMARK SMILES Cc1cccc(CS[C@@H]2CC[C@]([NH3+])(C(=O)NCCCNC(=O)c3ccc(-c4c5nc(c(-c6c(F)c(F)c(F)c(F)c6F)c6ccc([nH]6)c(-c6c(F)c(F)c(F)c(F)c6F)c6nc(c(-c7c(F)c(F)c(F)c(F)c7F)c7ccc4[nH]7)C=C6)C=C5)cc3)C2)c1
REMARK SMILES IDX 17 1 16 2 14 3 15 4 12 6 9 7 10 8 86 9 11 10 8 11 7 12 6 13
REMARK SMILES IDX 1 14 2 15 3 16 87 17 4 18 5 19 13 20 18 24 19 25 20 26 21 27
REMARK SMILES IDX 22 29 23 30 24 31 85 32 25 33 84 34 26 35 27 36 28 37 78 38
REMARK SMILES IDX 29 39 83 40 77 41 79 42 30 43 82 44 76 45 75 46 31 48 63 49
REMARK SMILES IDX 43 50 62 51 44 52 47 53 61 54 80 55 45 56 46 57 60 59 81 60
REMARK SMILES IDX 48 61 32 62 33 63 41 64 34 65 35 66 39 67 42 68 36 69 37 70
REMARK SMILES IDX 40 71 38 72 64 73 65 74 73 75 66 76 67 77 71 78 74 79 68 80
REMARK SMILES IDX 69 81 72 82 70 83 49 84 50 85 58 86 51 87 52 88 56 89 59 90
REMARK SMILES IDX 53 91 54 92 57 93 55 94
REMARK H PARENT 16 5 13 21 13 22 13 23 20 28 79 47 47 58
REMARK Flexibility Score: inf
ROOT
ATOM      1  C   UNL A   1      37.379  21.513  24.724  1.00  0.00     0.118 C 
ENDROOT
BRANCH   1   2
ATOM      2  N   UNL A   1      36.612  20.281  24.661  1.00  0.00    -0.351 N 
ATOM      3  C   UNL A   1      35.324  19.991  24.992  1.00  0.00     0.281 C 
ATOM      4  O   UNL A   1      34.981  18.812  24.835  1.00  0.00    -0.268 OA
ATOM      5  H   UNL A   1      37.119  19.511  24.315  1.00  0.00     0.163 HD
BRANCH   3   6
ATOM      6  C   UNL A   1      34.345  21.012  25.644  1.00  0.00     0.175 C 
ATOM      7  C   UNL A   1      33.315  23.203  25.210  1.00  0.00     0.054 C 
ATOM      8  C   UNL A   1      34.042  23.265  26.553  1.00  0.00     0.022 C 
ATOM      9  C   UNL A   1      33.765  21.914  24.525  1.00  0.00     0.093 C 
ATOM     10  C   UNL A   1      34.954  22.044  26.592  1.00  0.00     0.080 C 
BRANCH   7  11
ATOM     11  S   UNL A   1      33.395  24.754  24.239  1.00  0.00    -0.154 SA
BRANCH  11  12
ATOM     12  C   UNL A   1      34.313  25.920  25.304  1.00  0.00     0.105 C 
BRANCH  12  13
ATOM     13  C   UNL A   1      33.491  26.961  26.018  1.00  0.00    -0.038 A 
ATOM     14  C   UNL A   1      33.867  30.561  27.249  1.00  0.00     0.044 C 
ATOM     15  C   UNL A   1      33.278  29.217  26.938  1.00  0.00    -0.051 A 
ATOM     16  C   UNL A   1      31.961  28.930  27.311  1.00  0.00     0.003 A 
ATOM     17  C   UNL A   1      34.032  28.230  26.287  1.00  0.00     0.008 A 
ATOM     18  C   UNL A   1      31.401  27.686  27.024  1.00  0.00     0.001 A 
ATOM     19  C   UNL A   1      32.157  26.711  26.372  1.00  0.00     0.004 A 
ENDBRANCH  12  13
ENDBRANCH  11  12
ENDBRANCH   7  11
BRANCH   6  20
ATOM     20  N   UNL A   1      33.266  20.260  26.325  1.00  0.00    -0.345 N 
ATOM     21  H   UNL A   1      32.847  20.846  27.047  1.00  0.00     0.345 HD
ATOM     22  H   UNL A   1      33.655  19.420  26.753  1.00  0.00     0.345 HD
ATOM     23  H   UNL A   1      32.554  19.998  25.644  1.00  0.00     0.345 HD
ENDBRANCH   6  20
ENDBRANCH   3   6
ENDBRANCH   1   2
BRANCH   1  24
ATOM     24  C   UNL A   1      38.506  21.448  25.749  1.00  0.00     0.042 C 
BRANCH  24  25
ATOM     25  C   UNL A   1      38.955  22.833  26.199  1.00  0.00     0.118 C 
BRANCH  25  26
ATOM     26  N   UNL A   1      40.402  22.989  26.344  1.00  0.00    -0.352 N 
ATOM     27  C   UNL A   1      41.118  24.155  26.586  1.00  0.00     0.251 C 
ATOM     28  H   UNL A   1      40.934  22.166  26.259  1.00  0.00     0.163 HD
ATOM     29  O   UNL A   1      42.331  24.147  26.690  1.00  0.00    -0.269 OA
BRANCH  27  30
ATOM     30  C   UNL A   1      40.346  25.395  26.833  1.00  0.00     0.039 A 
ATOM     31  C   UNL A   1      40.778  26.569  26.207  1.00  0.00     0.014 A 
ATOM     32  C   UNL A   1      39.447  25.436  27.893  1.00  0.00     0.014 A 
ATOM     33  C   UNL A   1      40.523  27.788  26.825  1.00  0.00     0.010 A 
ATOM     34  C   UNL A   1      39.284  26.634  28.562  1.00  0.00     0.010 A 
ATOM     35  C   UNL A   1      39.898  27.795  28.074  1.00  0.00    -0.014 A 
BRANCH  35  36
ATOM     36  C   UNL A   1      39.990  28.925  28.998  1.00  0.00     0.031 A 
ATOM     37  C   UNL A   1      38.962  29.985  29.001  1.00  0.00     0.074 A 
ATOM     38  C   UNL A   1      40.982  28.956  29.916  1.00  0.00     0.049 A 
ATOM     39  N   UNL A   1      39.113  31.155  29.528  1.00  0.00    -0.248 NA
ATOM     40  C   UNL A   1      37.681  29.820  28.332  1.00  0.00     0.031 C 
ATOM     41  C   UNL A   1      41.091  29.833  31.079  1.00  0.00     0.029 A 
ATOM     42  N   UNL A   1      42.238  28.326  29.841  1.00  0.00    -0.354 N 
ATOM     43  C   UNL A   1      37.892  31.791  29.513  1.00  0.00     0.074 A 
ATOM     44  C   UNL A   1      37.064  30.952  28.680  1.00  0.00     0.031 C 
ATOM     45  C   UNL A   1      42.386  29.949  31.409  1.00  0.00     0.029 A 
ATOM     46  C   UNL A   1      43.152  29.260  30.389  1.00  0.00     0.049 A 
ATOM     47  H   UNL A   1      42.438  27.430  29.485  1.00  0.00     0.167 HD
ATOM     48  C   UNL A   1      37.709  32.888  30.308  1.00  0.00     0.037 A 
ATOM     49  C   UNL A   1      44.126  29.822  29.616  1.00  0.00     0.037 A 
ATOM     50  C   UNL A   1      38.984  33.357  30.863  1.00  0.00     0.049 A 
ATOM     51  C   UNL A   1      44.049  31.331  29.492  1.00  0.00     0.074 A 
ATOM     52  C   UNL A   1      39.611  33.261  32.095  1.00  0.00     0.029 A 
ATOM     53  N   UNL A   1      39.946  33.832  29.987  1.00  0.00    -0.354 N 
ATOM     54  N   UNL A   1      43.092  32.064  29.987  1.00  0.00    -0.248 NA
ATOM     55  C   UNL A   1      44.994  32.114  28.691  1.00  0.00     0.031 C 
ATOM     56  C   UNL A   1      40.975  33.643  31.931  1.00  0.00     0.029 A 
ATOM     57  C   UNL A   1      41.173  33.973  30.605  1.00  0.00     0.049 A 
ATOM     58  H   UNL A   1      39.776  34.043  29.040  1.00  0.00     0.167 HD
ATOM     59  C   UNL A   1      43.234  33.348  29.538  1.00  0.00     0.074 A 
ATOM     60  C   UNL A   1      44.441  33.336  28.735  1.00  0.00     0.031 C 
ATOM     61  C   UNL A   1      42.332  34.332  29.805  1.00  0.00     0.037 A 
BRANCH  48  62
ATOM     62  C   UNL A   1      36.357  33.406  30.778  1.00  0.00     0.064 A 
ATOM     63  C   UNL A   1      35.485  34.053  29.871  1.00  0.00     0.173 A 
ATOM     64  C   UNL A   1      35.883  33.385  32.105  1.00  0.00     0.173 A 
ATOM     65  F   UNL A   1      35.728  34.067  28.554  1.00  0.00    -0.203 F 
ATOM     66  C   UNL A   1      34.322  34.717  30.278  1.00  0.00     0.198 A 
ATOM     67  C   UNL A   1      34.745  34.085  32.521  1.00  0.00     0.198 A 
ATOM     68  F   UNL A   1      36.453  32.639  33.049  1.00  0.00    -0.203 F 
ATOM     69  F   UNL A   1      33.550  35.325  29.367  1.00  0.00    -0.200 F 
ATOM     70  C   UNL A   1      33.970  34.764  31.610  1.00  0.00     0.200 A 
ATOM     71  F   UNL A   1      34.407  34.082  33.819  1.00  0.00    -0.200 F 
ATOM     72  F   UNL A   1      32.879  35.430  32.009  1.00  0.00    -0.200 F 
ENDBRANCH  48  62
BRANCH  49  73
ATOM     73  C   UNL A   1      44.621  28.913  28.547  1.00  0.00     0.064 A 
ATOM     74  C   UNL A   1      45.430  27.819  28.913  1.00  0.00     0.173 A 
ATOM     75  C   UNL A   1      44.049  28.895  27.272  1.00  0.00     0.173 A 
ATOM     76  F   UNL A   1      46.000  27.781  30.129  1.00  0.00    -0.203 F 
ATOM     77  C   UNL A   1      45.561  26.707  28.087  1.00  0.00     0.198 A 
ATOM     78  C   UNL A   1      44.202  27.788  26.435  1.00  0.00     0.198 A 
ATOM     79  F   UNL A   1      43.245  29.890  26.871  1.00  0.00    -0.203 F 
ATOM     80  F   UNL A   1      46.236  25.631  28.517  1.00  0.00    -0.200 F 
ATOM     81  C   UNL A   1      44.927  26.683  26.857  1.00  0.00     0.200 A 
ATOM     82  F   UNL A   1      43.560  27.752  25.259  1.00  0.00    -0.200 F 
ATOM     83  F   UNL A   1      44.973  25.580  26.098  1.00  0.00    -0.200 F 
ENDBRANCH  49  73
BRANCH  61  84
ATOM     84  C   UNL A   1      42.503  35.730  29.309  1.00  0.00     0.064 A 
ATOM     85  C   UNL A   1      41.914  36.165  28.112  1.00  0.00     0.173 A 
ATOM     86  C   UNL A   1      43.353  36.640  29.965  1.00  0.00     0.173 A 
ATOM     87  F   UNL A   1      41.109  35.351  27.412  1.00  0.00    -0.203 F 
ATOM     88  C   UNL A   1      42.147  37.447  27.611  1.00  0.00     0.198 A 
ATOM     89  C   UNL A   1      43.618  37.902  29.440  1.00  0.00     0.198 A 
ATOM     90  F   UNL A   1      43.925  36.328  31.139  1.00  0.00    -0.203 F 
ATOM     91  F   UNL A   1      41.535  37.843  26.487  1.00  0.00    -0.200 F 
ATOM     92  C   UNL A   1      43.010  38.308  28.267  1.00  0.00     0.200 A 
ATOM     93  F   UNL A   1      44.463  38.724  30.079  1.00  0.00    -0.200 F 
ATOM     94  F   UNL A   1      43.251  39.530  27.772  1.00  0.00    -0.200 F 
ENDBRANCH  61  84
ENDBRANCH  35  36
ENDBRANCH  27  30
ENDBRANCH  25  26
ENDBRANCH  24  25
ENDBRANCH   1  24
TORSDOF 14
ENDMDL
MODEL 2
REMARK VINA RESULT:     -13.2      4.342     10.478
REMARK SMILES Cc1cccc(CS[C@@H]2CC[C@]([NH3+])(C(=O)NCCCNC(=O)c3ccc(-c4c5nc(c(-c6c(F)c(F)c(F)c(F)c6F)c6ccc([nH]6)c(-c6c(F)c(F)c(F)c(F)c6F)c6nc(c(-c7c(F)c(F)c(F)c(F)c7F)c7ccc4[nH]7)C=C6)C=C5)cc3)C2)c1
REMARK SMILES IDX 17 1 16 2 14 3 15 4 12 6 9 7 10 8 86 9 11 10 8 11 7 12 6 13
REMARK SMILES IDX 1 14 2 15 3 16 87 17 4 18 5 19 13 20 18 24 19 25 20 26 21 27
REMARK SMILES IDX 22 29 23 30 24 31 85 32 25 33 84 34 26 35 27 36 28 37 78 38
REMARK SMILES IDX 29 39 83 40 77 41 79 42 30 43 82 44 76 45 75 46 31 48 63 49
REMARK SMILES IDX 43 50 62 51 44 52 47 53 61 54 80 55 45 56 46 57 60 59 81 60
REMARK SMILES IDX 48 61 32 62 33 63 41 64 34 65 35 66 39 67 42 68 36 69 37 70
REMARK SMILES IDX 40 71 38 72 64 73 65 74 73 75 66 76 67 77 71 78 74 79 68 80
REMARK SMILES IDX 69 81 72 82 70 83 49 84 50 85 58 86 51 87 52 88 56 89 59 90
REMARK SMILES IDX 53 91 54 92 57 93 55 94
REMARK H PARENT 16 5 13 21 13 22 13 23 20 28 79 47 47 58
REMARK Flexibility Score: inf
ROOT
ATOM      1  C   UNL A   1      32.295  29.785  26.072  1.00  0.00     0.118 C 
ENDROOT
BRANCH   1   2
ATOM      2  N   UNL A   1      31.137  30.328  25.383  1.00  0.00    -0.351 N 
ATOM      3  C   UNL A   1      30.616  30.087  24.149  1.00  0.00     0.281 C 
ATOM      4  O   UNL A   1      29.611  30.747  23.851  1.00  0.00    -0.268 OA
ATOM      5  H   UNL A   1      30.635  30.993  25.906  1.00  0.00     0.163 HD
BRANCH   3   6
ATOM      6  C   UNL A   1      31.276  29.146  23.097  1.00  0.00     0.175 C 
ATOM      7  C   UNL A   1      31.657  26.757  22.657  1.00  0.00     0.054 C 
ATOM      8  C   UNL A   1      33.006  27.475  22.643  1.00  0.00     0.022 C 
ATOM      9  C   UNL A   1      30.640  27.740  23.236  1.00  0.00     0.093 C 
ATOM     10  C   UNL A   1      32.760  28.838  23.279  1.00  0.00     0.080 C 
BRANCH   7  11
ATOM     11  S   UNL A   1      31.709  25.070  23.370  1.00  0.00    -0.154 SA
BRANCH  11  12
ATOM     12  C   UNL A   1      32.990  25.156  24.668  1.00  0.00     0.105 C 
BRANCH  12  13
ATOM     13  C   UNL A   1      34.268  24.405  24.396  1.00  0.00    -0.038 A 
ATOM     14  C   UNL A   1      37.605  23.705  26.126  1.00  0.00     0.044 C 
ATOM     15  C   UNL A   1      36.492  23.692  25.120  1.00  0.00    -0.051 A 
ATOM     16  C   UNL A   1      36.642  22.978  23.926  1.00  0.00     0.003 A 
ATOM     17  C   UNL A   1      35.301  24.396  25.349  1.00  0.00     0.008 A 
ATOM     18  C   UNL A   1      35.613  22.955  22.984  1.00  0.00     0.001 A 
ATOM     19  C   UNL A   1      34.430  23.655  23.222  1.00  0.00     0.004 A 
ENDBRANCH  12  13
ENDBRANCH  11  12
ENDBRANCH   7  11
BRANCH   6  20
ATOM     20  N   UNL A   1      31.028  29.703  21.746  1.00  0.00    -0.345 N 
ATOM     21  H   UNL A   1      30.076  29.481  21.456  1.00  0.00     0.345 HD
ATOM     22  H   UNL A   1      31.689  29.296  21.084  1.00  0.00     0.345 HD
ATOM     23  H   UNL A   1      31.149  30.716  21.770  1.00  0.00     0.345 HD
ENDBRANCH   6  20
ENDBRANCH   3   6
ENDBRANCH   1   2
BRANCH   1  24
ATOM     24  C   UNL A   1      33.040  30.840  26.882  1.00  0.00     0.042 C 
BRANCH  24  25
ATOM     25  C   UNL A   1      34.139  30.233  27.745  1.00  0.00     0.118 C 
BRANCH  25  26
ATOM     26  N   UNL A   1      34.806  31.178  28.640  1.00  0.00    -0.352 N 
ATOM     27  C   UNL A   1      36.013  31.018  29.311  1.00  0.00     0.251 C 
ATOM     28  H   UNL A   1      34.342  32.034  28.786  1.00  0.00     0.163 HD
ATOM     29  O   UNL A   1      36.462  31.891  30.029  1.00  0.00    -0.269 OA
BRANCH  27  30
ATOM     30  C   UNL A   1      36.797  29.793  29.029  1.00  0.00     0.039 A 
ATOM     31  C   UNL A   1      37.104  28.953  30.103  1.00  0.00     0.014 A 
ATOM     32  C   UNL A   1      37.462  29.676  27.813  1.00  0.00     0.014 A 
ATOM     33  C   UNL A   1      38.266  28.190  30.043  1.00  0.00     0.010 A 
ATOM     34  C   UNL A   1      38.668  29.002  27.794  1.00  0.00     0.010 A 
ATOM     35  C   UNL A   1      39.111  28.332  28.942  1.00  0.00    -0.014 A 
BRANCH  35  36
ATOM     36  C   UNL A   1      40.524  27.956  28.975  1.00  0.00     0.031 A 
ATOM     37  C   UNL A   1      40.969  26.640  28.474  1.00  0.00     0.074 A 
ATOM     38  C   UNL A   1      41.443  28.856  29.392  1.00  0.00     0.049 A 
ATOM     39  N   UNL A   1      42.107  26.094  28.749  1.00  0.00    -0.248 NA
ATOM     40  C   UNL A   1      40.110  25.793  27.661  1.00  0.00     0.031 C 
ATOM     41  C   UNL A   1      42.895  28.777  29.248  1.00  0.00     0.029 A 
ATOM     42  N   UNL A   1      41.242  29.948  30.257  1.00  0.00    -0.354 N 
ATOM     43  C   UNL A   1      42.248  24.977  27.956  1.00  0.00     0.074 A 
ATOM     44  C   UNL A   1      40.943  24.791  27.368  1.00  0.00     0.031 C 
ATOM     45  C   UNL A   1      43.462  29.519  30.210  1.00  0.00     0.029 A 
ATOM     46  C   UNL A   1      42.397  29.986  31.077  1.00  0.00     0.049 A 
ATOM     47  H   UNL A   1      40.466  30.553  30.285  1.00  0.00     0.167 HD
ATOM     48  C   UNL A   1      43.490  24.425  27.810  1.00  0.00     0.037 A 
ATOM     49  C   UNL A   1      42.312  29.756  32.419  1.00  0.00     0.037 A 
ATOM     50  C   UNL A   1      44.440  24.997  28.770  1.00  0.00     0.049 A 
ATOM     51  C   UNL A   1      43.102  28.560  32.912  1.00  0.00     0.074 A 
ATOM     52  C   UNL A   1      45.460  25.932  28.701  1.00  0.00     0.029 A 
ATOM     53  N   UNL A   1      44.219  24.779  30.121  1.00  0.00    -0.354 N 
ATOM     54  N   UNL A   1      43.748  27.734  32.139  1.00  0.00    -0.248 NA
ATOM     55  C   UNL A   1      43.121  28.142  34.316  1.00  0.00     0.031 C 
ATOM     56  C   UNL A   1      45.815  26.304  30.032  1.00  0.00     0.029 A 
ATOM     57  C   UNL A   1      45.014  25.593  30.905  1.00  0.00     0.049 A 
ATOM     58  H   UNL A   1      43.575  24.125  30.478  1.00  0.00     0.167 HD
ATOM     59  C   UNL A   1      44.192  26.677  32.885  1.00  0.00     0.074 A 
ATOM     60  C   UNL A   1      43.783  26.976  34.244  1.00  0.00     0.031 C 
ATOM     61  C   UNL A   1      44.820  25.597  32.344  1.00  0.00     0.037 A 
BRANCH  48  62
ATOM     62  C   UNL A   1      43.914  23.535  26.650  1.00  0.00     0.064 A 
ATOM     63  C   UNL A   1      43.431  22.209  26.553  1.00  0.00     0.173 A 
ATOM     64  C   UNL A   1      44.849  23.874  25.652  1.00  0.00     0.173 A 
ATOM     65  F   UNL A   1      42.458  21.757  27.353  1.00  0.00    -0.203 F 
ATOM     66  C   UNL A   1      43.929  21.285  25.626  1.00  0.00     0.198 A 
ATOM     67  C   UNL A   1      45.379  22.942  24.753  1.00  0.00     0.198 A 
ATOM     68  F   UNL A   1      45.245  25.130  25.449  1.00  0.00    -0.203 F 
ATOM     69  F   UNL A   1      43.438  20.038  25.600  1.00  0.00    -0.200 F 
ATOM     70  C   UNL A   1      44.931  21.641  24.749  1.00  0.00     0.200 A 
ATOM     71  F   UNL A   1      46.327  23.327  23.886  1.00  0.00    -0.200 F 
ATOM     72  F   UNL A   1      45.436  20.751  23.886  1.00  0.00    -0.200 F 
ENDBRANCH  48  62
BRANCH  49  73
ATOM     73  C   UNL A   1      41.027  30.218  33.009  1.00  0.00     0.064 A 
ATOM     74  C   UNL A   1      40.804  31.604  33.140  1.00  0.00     0.173 A 
ATOM     75  C   UNL A   1      39.918  29.373  33.116  1.00  0.00     0.173 A 
ATOM     76  F   UNL A   1      41.832  32.463  33.040  1.00  0.00    -0.203 F 
ATOM     77  C   UNL A   1      39.518  32.123  33.253  1.00  0.00     0.198 A 
ATOM     78  C   UNL A   1      38.632  29.896  33.253  1.00  0.00     0.198 A 
ATOM     79  F   UNL A   1      40.055  28.048  32.972  1.00  0.00    -0.203 F 
ATOM     80  F   UNL A   1      39.331  33.451  33.249  1.00  0.00    -0.200 F 
ATOM     81  C   UNL A   1      38.430  31.269  33.285  1.00  0.00     0.200 A 
ATOM     82  F   UNL A   1      37.577  29.070  33.251  1.00  0.00    -0.200 F 
ATOM     83  F   UNL A   1      37.185  31.764  33.300  1.00  0.00    -0.200 F 
ENDBRANCH  49  73
BRANCH  61  84
ATOM     84  C   UNL A   1      45.300  24.453  33.175  1.00  0.00     0.064 A 
ATOM     85  C   UNL A   1      44.503  23.321  33.403  1.00  0.00     0.173 A 
ATOM     86  C   UNL A   1      46.532  24.508  33.854  1.00  0.00     0.173 A 
ATOM     87  F   UNL A   1      43.304  23.201  32.812  1.00  0.00    -0.203 F 
ATOM     88  C   UNL A   1      44.923  22.293  34.247  1.00  0.00     0.198 A 
ATOM     89  C   UNL A   1      46.929  23.501  34.730  1.00  0.00     0.198 A 
ATOM     90  F   UNL A   1      47.382  25.529  33.662  1.00  0.00    -0.203 F 
ATOM     91  F   UNL A   1      44.153  21.208  34.409  1.00  0.00    -0.200 F 
ATOM     92  C   UNL A   1      46.128  22.391  34.921  1.00  0.00     0.200 A 
ATOM     93  F   UNL A   1      48.094  23.611  35.385  1.00  0.00    -0.200 F 
ATOM     94  F   UNL A   1      46.520  21.413  35.751  1.00  0.00    -0.200 F 
ENDBRANCH  61  84
ENDBRANCH  35  36
ENDBRANCH  27  30
ENDBRANCH  25  26
ENDBRANCH  24  25
ENDBRANCH   1  24
TORSDOF 14
ENDMDL
MODEL 3
REMARK VINA RESULT:     -13.0      3.693     10.104
REMARK SMILES Cc1cccc(CS[C@@H]2CC[C@]([NH3+])(C(=O)NCCCNC(=O)c3ccc(-c4c5nc(c(-c6c(F)c(F)c(F)c(F)c6F)c6ccc([nH]6)c(-c6c(F)c(F)c(F)c(F)c6F)c6nc(c(-c7c(F)c(F)c(F)c(F)c7F)c7ccc4[nH]7)C=C6)C=C5)cc3)C2)c1
REMARK SMILES IDX 17 1 16 2 14 3 15 4 12 6 9 7 10 8 86 9 11 10 8 11 7 12 6 13
REMARK SMILES IDX 1 14 2 15 3 16 87 17 4 18 5 19 13 20 18 24 19 25 20 26 21 27
REMARK SMILES IDX 22 29 23 30 24 31 85 32 25 33 84 34 26 35 27 36 28 37 78 38
REMARK SMILES IDX 29 39 83 40 77 41 79 42 30 43 82 44 76 45 75 46 31 48 63 49
REMARK SMILES IDX 43 50 62 51 44 52 47 53 61 54 80 55 45 56 46 57 60 59 81 60
REMARK SMILES IDX 48 61 32 62 33 63 41 64 34 65 35 66 39 67 42 68 36 69 37 70
REMARK SMILES IDX 40 71 38 72 64 73 65 74 73 75 66 76 67 77 71 78 74 79 68 80
REMARK SMILES IDX 69 81 72 82 70 83 49 84 50 85 58 86 51 87 52 88 56 89 59 90
REMARK SMILES IDX 53 91 54 92 57 93 55 94
REMARK H PARENT 16 5 13 21 13 22 13 23 20 28 79 47 47 58
REMARK Flexibility Score: inf
ROOT
ATOM      1  C   UNL A   1      31.783  30.377  25.949  1.00  0.00     0.118 C 
ENDROOT
BRANCH   1   2
ATOM      2  N   UNL A   1      32.704  29.847  24.960  1.00  0.00    -0.351 N 
ATOM      3  C   UNL A   1      33.012  28.573  24.593  1.00  0.00     0.281 C 
ATOM      4  O   UNL A   1      33.876  28.461  23.712  1.00  0.00    -0.268 OA
ATOM      5  H   UNL A   1      33.199  30.537  24.461  1.00  0.00     0.163 HD
BRANCH   3   6
ATOM      6  C   UNL A   1      32.435  27.305  25.291  1.00  0.00     0.175 C 
ATOM      7  C   UNL A   1      31.693  25.020  24.769  1.00  0.00     0.054 C 
ATOM      8  C   UNL A   1      30.555  25.749  25.482  1.00  0.00     0.022 C 
ATOM      9  C   UNL A   1      32.726  26.079  24.389  1.00  0.00     0.093 C 
ATOM     10  C   UNL A   1      30.917  27.230  25.441  1.00  0.00     0.080 C 
BRANCH   7  11
ATOM     11  S   UNL A   1      31.141  23.862  23.460  1.00  0.00    -0.154 SA
BRANCH  11  12
ATOM     12  C   UNL A   1      32.681  23.329  22.636  1.00  0.00     0.105 C 
BRANCH  12  13
ATOM     13  C   UNL A   1      33.593  22.436  23.438  1.00  0.00    -0.038 A 
ATOM     14  C   UNL A   1      37.251  22.328  24.544  1.00  0.00     0.044 C 
ATOM     15  C   UNL A   1      35.804  21.972  24.374  1.00  0.00    -0.051 A 
ATOM     16  C   UNL A   1      35.299  20.808  24.964  1.00  0.00     0.003 A 
ATOM     17  C   UNL A   1      34.943  22.782  23.620  1.00  0.00     0.008 A 
ATOM     18  C   UNL A   1      33.955  20.469  24.818  1.00  0.00     0.001 A 
ATOM     19  C   UNL A   1      33.105  21.282  24.069  1.00  0.00     0.004 A 
ENDBRANCH  12  13
ENDBRANCH  11  12
ENDBRANCH   7  11
BRANCH   6  20
ATOM     20  N   UNL A   1      33.092  27.155  26.610  1.00  0.00    -0.345 N 
ATOM     21  H   UNL A   1      32.671  26.373  27.112  1.00  0.00     0.345 HD
ATOM     22  H   UNL A   1      32.969  28.011  27.150  1.00  0.00     0.345 HD
ATOM     23  H   UNL A   1      34.087  26.977  26.475  1.00  0.00     0.345 HD
ENDBRANCH   6  20
ENDBRANCH   3   6
ENDBRANCH   1   2
BRANCH   1  24
ATOM     24  C   UNL A   1      32.441  31.396  26.873  1.00  0.00     0.042 C 
BRANCH  24  25
ATOM     25  C   UNL A   1      33.625  30.806  27.629  1.00  0.00     0.118 C 
BRANCH  25  26
ATOM     26  N   UNL A   1      34.273  31.725  28.565  1.00  0.00    -0.352 N 
ATOM     27  C   UNL A   1      35.445  31.531  29.285  1.00  0.00     0.251 C 
ATOM     28  H   UNL A   1      33.820  32.588  28.703  1.00  0.00     0.163 HD
ATOM     29  O   UNL A   1      35.881  32.385  30.034  1.00  0.00    -0.269 OA
BRANCH  27  30
ATOM     30  C   UNL A   1      36.216  30.294  29.019  1.00  0.00     0.039 A 
ATOM     31  C   UNL A   1      36.573  29.500  30.113  1.00  0.00     0.014 A 
ATOM     32  C   UNL A   1      36.824  30.124  27.780  1.00  0.00     0.014 A 
ATOM     33  C   UNL A   1      37.730  28.733  30.032  1.00  0.00     0.010 A 
ATOM     34  C   UNL A   1      38.028  29.448  27.734  1.00  0.00     0.010 A 
ATOM     35  C   UNL A   1      38.524  28.827  28.888  1.00  0.00    -0.014 A 
BRANCH  35  36
ATOM     36  C   UNL A   1      39.937  28.450  28.872  1.00  0.00     0.031 A 
ATOM     37  C   UNL A   1      40.350  27.078  28.514  1.00  0.00     0.074 A 
ATOM     38  C   UNL A   1      40.880  29.390  29.107  1.00  0.00     0.049 A 
ATOM     39  N   UNL A   1      41.507  26.566  28.778  1.00  0.00    -0.248 NA
ATOM     40  C   UNL A   1      39.441  26.140  27.876  1.00  0.00     0.031 C 
ATOM     41  C   UNL A   1      42.319  29.285  28.875  1.00  0.00     0.029 A 
ATOM     42  N   UNL A   1      40.735  30.585  29.837  1.00  0.00    -0.354 N 
ATOM     43  C   UNL A   1      41.597  25.356  28.126  1.00  0.00     0.074 A 
ATOM     44  C   UNL A   1      40.255  25.104  27.657  1.00  0.00     0.031 C 
ATOM     45  C   UNL A   1      42.949  30.141  29.693  1.00  0.00     0.029 A 
ATOM     46  C   UNL A   1      41.944  30.721  30.564  1.00  0.00     0.049 A 
ATOM     47  H   UNL A   1      39.962  31.193  29.841  1.00  0.00     0.167 HD
ATOM     48  C   UNL A   1      42.827  24.782  27.966  1.00  0.00     0.037 A 
ATOM     49  C   UNL A   1      41.952  30.664  31.927  1.00  0.00     0.037 A 
ATOM     50  C   UNL A   1      43.839  25.467  28.779  1.00  0.00     0.049 A 
ATOM     51  C   UNL A   1      42.777  29.537  32.513  1.00  0.00     0.074 A 
ATOM     52  C   UNL A   1      44.849  26.380  28.521  1.00  0.00     0.029 A 
ATOM     53  N   UNL A   1      43.713  25.424  30.158  1.00  0.00    -0.354 N 
ATOM     54  N   UNL A   1      43.372  28.615  31.810  1.00  0.00    -0.248 NA
ATOM     55  C   UNL A   1      42.894  29.301  33.955  1.00  0.00     0.031 C 
ATOM     56  C   UNL A   1      45.293  26.916  29.766  1.00  0.00     0.029 A 
ATOM     57  C   UNL A   1      44.556  26.327  30.775  1.00  0.00     0.049 A 
ATOM     58  H   UNL A   1      43.097  24.825  30.639  1.00  0.00     0.167 HD
ATOM     59  C   UNL A   1      43.869  27.659  32.653  1.00  0.00     0.074 A 
ATOM     60  C   UNL A   1      43.553  28.132  33.987  1.00  0.00     0.031 C 
ATOM     61  C   UNL A   1      44.462  26.516  32.212  1.00  0.00     0.037 A 
BRANCH  48  62
ATOM     62  C   UNL A   1      43.174  23.749  26.903  1.00  0.00     0.064 A 
ATOM     63  C   UNL A   1      42.804  22.394  27.076  1.00  0.00     0.173 A 
ATOM     64  C   UNL A   1      43.934  23.987  25.741  1.00  0.00     0.173 A 
ATOM     65  F   UNL A   1      41.989  22.011  28.067  1.00  0.00    -0.203 F 
ATOM     66  C   UNL A   1      43.257  21.371  26.235  1.00  0.00     0.198 A 
ATOM     67  C   UNL A   1      44.424  22.962  24.925  1.00  0.00     0.198 A 
ATOM     68  F   UNL A   1      44.185  25.218  25.299  1.00  0.00    -0.203 F 
ATOM     69  F   UNL A   1      42.881  20.105  26.467  1.00  0.00    -0.200 F 
ATOM     70  C   UNL A   1      44.097  21.650  25.179  1.00  0.00     0.200 A 
ATOM     71  F   UNL A   1      45.210  23.267  23.883  1.00  0.00    -0.200 F 
ATOM     72  F   UNL A   1      44.563  20.670  24.395  1.00  0.00    -0.200 F 
ENDBRANCH  48  62
BRANCH  49  73
ATOM     73  C   UNL A   1      40.709  31.206  32.540  1.00  0.00     0.064 A 
ATOM     74  C   UNL A   1      40.508  32.601  32.540  1.00  0.00     0.173 A 
ATOM     75  C   UNL A   1      39.600  30.394  32.798  1.00  0.00     0.173 A 
ATOM     76  F   UNL A   1      41.537  33.428  32.292  1.00  0.00    -0.203 F 
ATOM     77  C   UNL A   1      39.236  33.150  32.673  1.00  0.00     0.198 A 
ATOM     78  C   UNL A   1      38.329  30.949  32.955  1.00  0.00     0.198 A 
ATOM     79  F   UNL A   1      39.715  29.059  32.784  1.00  0.00    -0.203 F 
ATOM     80  F   UNL A   1      39.063  34.473  32.543  1.00  0.00    -0.200 F 
ATOM     81  C   UNL A   1      38.144  32.321  32.857  1.00  0.00     0.200 A 
ATOM     82  F   UNL A   1      37.268  30.143  33.100  1.00  0.00    -0.200 F 
ATOM     83  F   UNL A   1      36.907  32.835  32.892  1.00  0.00    -0.200 F 
ENDBRANCH  49  73
BRANCH  61  84
ATOM     84  C   UNL A   1      45.001  25.484  33.147  1.00  0.00     0.064 A 
ATOM     85  C   UNL A   1      46.376  25.216  33.237  1.00  0.00     0.173 A 
ATOM     86  C   UNL A   1      44.144  24.661  33.901  1.00  0.00     0.173 A 
ATOM     87  F   UNL A   1      47.260  25.938  32.532  1.00  0.00    -0.203 F 
ATOM     88  C   UNL A   1      46.866  24.194  34.051  1.00  0.00     0.198 A 
ATOM     89  C   UNL A   1      44.633  23.614  34.679  1.00  0.00     0.198 A 
ATOM     90  F   UNL A   1      42.819  24.872  33.915  1.00  0.00    -0.203 F 
ATOM     91  F   UNL A   1      48.187  23.992  34.143  1.00  0.00    -0.200 F 
ATOM     92  C   UNL A   1      45.993  23.384  34.758  1.00  0.00     0.200 A 
ATOM     93  F   UNL A   1      43.778  22.831  35.352  1.00  0.00    -0.200 F 
ATOM     94  F   UNL A   1      46.464  22.388  35.521  1.00  0.00    -0.200 F 
ENDBRANCH  61  84
ENDBRANCH  35  36
ENDBRANCH  27  30
ENDBRANCH  25  26
ENDBRANCH  24  25
ENDBRANCH   1  24
TORSDOF 14
ENDMDL
