MODEL 1
REMARK VINA RESULT:     -12.4      0.000      0.000
REMARK SMILES C=CCOc1ccccc1/C=C1\SC(=S)N(CC(=O)NCCCNC(=O)c2ccc(-c3c4nc(c(-c5c(F)c(F)c(F)c(F)c5F)c5ccc([nH]5)c(-c5c(F)c(F)c(F)c(F)c5F)c5nc(c(-c6c(F)c(F)c(F)c(F)c6F)c6ccc3[nH]6)C=C5)C=C4)cc2)C1=O
REMARK SMILES IDX 18 1 19 2 20 3 17 5 16 6 11 7 12 8 13 9 90 10 14 11 91 12
REMARK SMILES IDX 15 13 10 14 5 15 6 16 7 17 9 18 8 19 4 20 3 21 2 22 1 23
REMARK SMILES IDX 21 24 22 25 23 26 24 27 25 28 26 30 27 31 28 32 89 33 29 34
REMARK SMILES IDX 88 35 30 36 31 37 32 38 82 39 33 40 87 41 81 42 83 43 34 44
REMARK SMILES IDX 86 45 80 46 79 47 35 49 67 50 47 51 66 52 48 53 51 54 65 55
REMARK SMILES IDX 84 56 49 57 50 58 64 60 85 61 52 62 36 63 37 64 45 65 38 66
REMARK SMILES IDX 39 67 43 68 46 69 40 70 41 71 44 72 42 73 68 74 69 75 77 76
REMARK SMILES IDX 70 77 71 78 75 79 78 80 72 81 73 82 76 83 74 84 53 85 54 86
REMARK SMILES IDX 62 87 55 88 56 89 60 90 63 91 57 92 58 93 61 94 59 95
REMARK H PARENT 20 4 24 29 83 48 51 59
REMARK Flexibility Score: inf
ROOT
ATOM      1  C   UNL A   1      32.193  28.761  26.894  1.00  0.00     0.240 C 
ATOM      2  O   UNL A   1      33.057  28.297  27.642  1.00  0.00    -0.273 OA
ATOM      3  N   UNL A   1      32.014  30.113  26.921  1.00  0.00    -0.354 N 
ATOM      4  H   UNL A   1      32.406  30.566  27.703  1.00  0.00     0.163 HD
ENDROOT
BRANCH   1   5
ATOM      5  C   UNL A   1      31.501  27.870  25.856  1.00  0.00     0.227 C 
BRANCH   5   6
ATOM      6  N   UNL A   1      32.328  26.788  25.331  1.00  0.00    -0.283 N 
ATOM      7  C   UNL A   1      33.638  23.520  26.070  1.00  0.00     0.033 C 
ATOM      8  C   UNL A   1      33.306  24.652  25.434  1.00  0.00     0.081 C 
ATOM      9  S   UNL A   1      33.986  25.331  24.013  1.00  0.00    -0.054 SA
ATOM     10  C   UNL A   1      32.309  25.584  26.016  1.00  0.00     0.266 C 
ATOM     11  C   UNL A   1      33.247  26.897  24.310  1.00  0.00     0.148 C 
ATOM     12  O   UNL A   1      31.600  25.314  26.975  1.00  0.00    -0.268 OA
ATOM     13  S   UNL A   1      33.670  28.251  23.433  1.00  0.00    -0.052 S 
BRANCH   7  14
ATOM     14  C   UNL A   1      34.784  22.660  25.753  1.00  0.00     0.018 A 
ATOM     15  C   UNL A   1      34.635  21.380  25.189  1.00  0.00     0.127 A 
ATOM     16  C   UNL A   1      35.751  20.587  24.919  1.00  0.00     0.047 A 
ATOM     17  C   UNL A   1      37.030  21.091  25.148  1.00  0.00     0.004 A 
ATOM     18  C   UNL A   1      36.075  23.165  25.952  1.00  0.00     0.012 A 
ATOM     19  C   UNL A   1      37.193  22.383  25.652  1.00  0.00     0.001 A 
BRANCH  15  20
ATOM     20  O   UNL A   1      33.395  20.831  24.970  1.00  0.00    -0.489 OA
BRANCH  20  21
ATOM     21  C   UNL A   1      33.466  19.451  24.591  1.00  0.00     0.257 C 
BRANCH  21  22
ATOM     22  C   UNL A   1      32.523  19.200  23.449  1.00  0.00     0.006 C 
ATOM     23  C   UNL A   1      32.469  18.060  22.748  1.00  0.00     0.007 C 
ENDBRANCH  21  22
ENDBRANCH  20  21
ENDBRANCH  15  20
ENDBRANCH   7  14
ENDBRANCH   5   6
ENDBRANCH   1   5
BRANCH   3  24
ATOM     24  C   UNL A   1      31.340  30.988  25.985  1.00  0.00     0.117 C 
BRANCH  24  25
ATOM     25  C   UNL A   1      31.220  32.420  26.491  1.00  0.00     0.042 C 
BRANCH  25  26
ATOM     26  C   UNL A   1      32.423  32.900  27.295  1.00  0.00     0.118 C 
BRANCH  26  27
ATOM     27  N   UNL A   1      32.322  34.304  27.661  1.00  0.00    -0.352 N 
ATOM     28  C   UNL A   1      32.995  35.024  28.615  1.00  0.00     0.251 C 
ATOM     29  H   UNL A   1      31.665  34.820  27.140  1.00  0.00     0.163 HD
ATOM     30  O   UNL A   1      32.611  36.156  28.899  1.00  0.00    -0.269 OA
BRANCH  28  31
ATOM     31  C   UNL A   1      34.167  34.453  29.313  1.00  0.00     0.039 A 
ATOM     32  C   UNL A   1      33.975  33.841  30.555  1.00  0.00     0.014 A 
ATOM     33  C   UNL A   1      35.455  34.555  28.780  1.00  0.00     0.014 A 
ATOM     34  C   UNL A   1      35.061  33.281  31.233  1.00  0.00     0.010 A 
ATOM     35  C   UNL A   1      36.523  33.928  29.416  1.00  0.00     0.010 A 
ATOM     36  C   UNL A   1      36.339  33.290  30.652  1.00  0.00    -0.014 A 
BRANCH  36  37
ATOM     37  C   UNL A   1      37.494  32.640  31.324  1.00  0.00     0.031 A 
ATOM     38  C   UNL A   1      38.203  31.489  30.665  1.00  0.00     0.074 A 
ATOM     39  C   UNL A   1      37.861  33.043  32.556  1.00  0.00     0.049 A 
ATOM     40  N   UNL A   1      39.177  30.744  31.124  1.00  0.00    -0.248 NA
ATOM     41  C   UNL A   1      37.739  31.106  29.322  1.00  0.00     0.031 C 
ATOM     42  C   UNL A   1      37.223  34.119  33.317  1.00  0.00     0.029 A 
ATOM     43  N   UNL A   1      38.851  32.589  33.389  1.00  0.00    -0.354 N 
ATOM     44  C   UNL A   1      39.430  29.800  30.137  1.00  0.00     0.074 A 
ATOM     45  C   UNL A   1      38.472  30.031  29.077  1.00  0.00     0.031 C 
ATOM     46  C   UNL A   1      37.850  34.255  34.495  1.00  0.00     0.029 A 
ATOM     47  C   UNL A   1      38.906  33.250  34.591  1.00  0.00     0.049 A 
ATOM     48  H   UNL A   1      39.464  31.856  33.149  1.00  0.00     0.167 HD
ATOM     49  C   UNL A   1      40.386  28.841  30.109  1.00  0.00     0.037 A 
ATOM     50  C   UNL A   1      39.709  33.062  35.655  1.00  0.00     0.037 A 
ATOM     51  C   UNL A   1      41.352  28.631  31.155  1.00  0.00     0.049 A 
ATOM     52  C   UNL A   1      40.758  31.984  35.601  1.00  0.00     0.074 A 
ATOM     53  C   UNL A   1      42.399  27.727  31.195  1.00  0.00     0.029 A 
ATOM     54  N   UNL A   1      41.386  29.333  32.351  1.00  0.00    -0.354 N 
ATOM     55  N   UNL A   1      41.030  31.141  34.635  1.00  0.00    -0.248 NA
ATOM     56  C   UNL A   1      41.615  31.836  36.786  1.00  0.00     0.031 C 
ATOM     57  C   UNL A   1      43.034  27.846  32.434  1.00  0.00     0.029 A 
ATOM     58  C   UNL A   1      42.420  28.863  33.146  1.00  0.00     0.049 A 
ATOM     59  H   UNL A   1      40.766  30.057  32.599  1.00  0.00     0.167 HD
ATOM     60  C   UNL A   1      42.104  30.384  35.081  1.00  0.00     0.074 A 
ATOM     61  C   UNL A   1      42.445  30.877  36.398  1.00  0.00     0.031 C 
ATOM     62  C   UNL A   1      42.750  29.370  34.454  1.00  0.00     0.037 A 
BRANCH  49  63
ATOM     63  C   UNL A   1      40.439  27.946  28.903  1.00  0.00     0.064 A 
ATOM     64  C   UNL A   1      39.711  26.747  28.843  1.00  0.00     0.173 A 
ATOM     65  C   UNL A   1      41.194  28.310  27.779  1.00  0.00     0.173 A 
ATOM     66  F   UNL A   1      38.980  26.347  29.894  1.00  0.00    -0.203 F 
ATOM     67  C   UNL A   1      39.764  25.932  27.715  1.00  0.00     0.198 A 
ATOM     68  C   UNL A   1      41.219  27.509  26.640  1.00  0.00     0.198 A 
ATOM     69  F   UNL A   1      41.904  29.449  27.779  1.00  0.00    -0.203 F 
ATOM     70  F   UNL A   1      39.101  24.767  27.701  1.00  0.00    -0.200 F 
ATOM     71  C   UNL A   1      40.510  26.317  26.612  1.00  0.00     0.200 A 
ATOM     72  F   UNL A   1      41.929  27.889  25.569  1.00  0.00    -0.200 F 
ATOM     73  F   UNL A   1      40.553  25.536  25.524  1.00  0.00    -0.200 F 
ENDBRANCH  49  63
BRANCH  50  74
ATOM     74  C   UNL A   1      39.567  33.928  36.855  1.00  0.00     0.064 A 
ATOM     75  C   UNL A   1      38.789  33.520  37.949  1.00  0.00     0.173 A 
ATOM     76  C   UNL A   1      40.199  35.177  36.934  1.00  0.00     0.173 A 
ATOM     77  F   UNL A   1      38.148  32.343  37.911  1.00  0.00    -0.203 F 
ATOM     78  C   UNL A   1      38.631  34.339  39.064  1.00  0.00     0.198 A 
ATOM     79  C   UNL A   1      40.063  35.982  38.063  1.00  0.00     0.198 A 
ATOM     80  F   UNL A   1      40.958  35.613  35.917  1.00  0.00    -0.203 F 
ATOM     81  F   UNL A   1      37.841  33.946  40.074  1.00  0.00    -0.200 F 
ATOM     82  C   UNL A   1      39.273  35.566  39.124  1.00  0.00     0.200 A 
ATOM     83  F   UNL A   1      40.697  37.162  38.122  1.00  0.00    -0.200 F 
ATOM     84  F   UNL A   1      39.122  36.353  40.198  1.00  0.00    -0.200 F 
ENDBRANCH  50  74
BRANCH  62  85
ATOM     85  C   UNL A   1      43.916  28.748  35.169  1.00  0.00     0.064 A 
ATOM     86  C   UNL A   1      45.221  29.238  35.015  1.00  0.00     0.173 A 
ATOM     87  C   UNL A   1      43.717  27.676  36.051  1.00  0.00     0.173 A 
ATOM     88  F   UNL A   1      45.466  30.253  34.172  1.00  0.00    -0.203 F 
ATOM     89  C   UNL A   1      46.287  28.660  35.698  1.00  0.00     0.198 A 
ATOM     90  C   UNL A   1      44.780  27.121  36.757  1.00  0.00     0.198 A 
ATOM     91  F   UNL A   1      42.487  27.174  36.239  1.00  0.00    -0.203 F 
ATOM     92  F   UNL A   1      47.532  29.113  35.499  1.00  0.00    -0.200 F 
ATOM     93  C   UNL A   1      46.065  27.608  36.575  1.00  0.00     0.200 A 
ATOM     94  F   UNL A   1      44.561  26.114  37.614  1.00  0.00    -0.200 F 
ATOM     95  F   UNL A   1      47.091  27.059  37.238  1.00  0.00    -0.200 F 
ENDBRANCH  62  85
ENDBRANCH  36  37
ENDBRANCH  28  31
ENDBRANCH  26  27
ENDBRANCH  25  26
ENDBRANCH  24  25
ENDBRANCH   3  24
TORSDOF 15
ENDMDL
MODEL 2
REMARK VINA RESULT:     -12.2      5.417     10.910
REMARK SMILES C=CCOc1ccccc1/C=C1\SC(=S)N(CC(=O)NCCCNC(=O)c2ccc(-c3c4nc(c(-c5c(F)c(F)c(F)c(F)c5F)c5ccc([nH]5)c(-c5c(F)c(F)c(F)c(F)c5F)c5nc(c(-c6c(F)c(F)c(F)c(F)c6F)c6ccc3[nH]6)C=C5)C=C4)cc2)C1=O
REMARK SMILES IDX 18 1 19 2 20 3 17 5 16 6 11 7 12 8 13 9 90 10 14 11 91 12
REMARK SMILES IDX 15 13 10 14 5 15 6 16 7 17 9 18 8 19 4 20 3 21 2 22 1 23
REMARK SMILES IDX 21 24 22 25 23 26 24 27 25 28 26 30 27 31 28 32 89 33 29 34
REMARK SMILES IDX 88 35 30 36 31 37 32 38 82 39 33 40 87 41 81 42 83 43 34 44
REMARK SMILES IDX 86 45 80 46 79 47 35 49 67 50 47 51 66 52 48 53 51 54 65 55
REMARK SMILES IDX 84 56 49 57 50 58 64 60 85 61 52 62 36 63 37 64 45 65 38 66
REMARK SMILES IDX 39 67 43 68 46 69 40 70 41 71 44 72 42 73 68 74 69 75 77 76
REMARK SMILES IDX 70 77 71 78 75 79 78 80 72 81 73 82 76 83 74 84 53 85 54 86
REMARK SMILES IDX 62 87 55 88 56 89 60 90 63 91 57 92 58 93 61 94 59 95
REMARK H PARENT 20 4 24 29 83 48 51 59
REMARK Flexibility Score: inf
ROOT
ATOM      1  C   UNL A   1      34.715  21.517  26.130  1.00  0.00     0.240 C 
ATOM      2  O   UNL A   1      34.249  21.455  27.272  1.00  0.00    -0.273 OA
ATOM      3  N   UNL A   1      35.994  21.079  25.961  1.00  0.00    -0.354 N 
ATOM      4  H   UNL A   1      36.513  20.987  26.793  1.00  0.00     0.163 HD
ENDROOT
BRANCH   1   5
ATOM      5  C   UNL A   1      33.819  21.891  24.944  1.00  0.00     0.227 C 
BRANCH   5   6
ATOM      6  N   UNL A   1      33.212  23.216  25.030  1.00  0.00    -0.283 N 
ATOM      7  C   UNL A   1      33.937  26.740  25.063  1.00  0.00     0.033 C 
ATOM      8  C   UNL A   1      33.290  25.566  25.027  1.00  0.00     0.081 C 
ATOM      9  S   UNL A   1      31.651  25.224  25.402  1.00  0.00    -0.054 SA
ATOM     10  C   UNL A   1      34.023  24.305  24.755  1.00  0.00     0.266 C 
ATOM     11  C   UNL A   1      31.952  23.497  25.511  1.00  0.00     0.148 C 
ATOM     12  O   UNL A   1      35.181  24.259  24.367  1.00  0.00    -0.268 OA
ATOM     13  S   UNL A   1      30.815  22.442  26.125  1.00  0.00    -0.052 S 
BRANCH   7  14
ATOM     14  C   UNL A   1      33.397  28.003  25.581  1.00  0.00     0.018 A 
ATOM     15  C   UNL A   1      32.482  28.788  24.855  1.00  0.00     0.127 A 
ATOM     16  C   UNL A   1      32.007  29.991  25.376  1.00  0.00     0.047 A 
ATOM     17  C   UNL A   1      32.389  30.390  26.656  1.00  0.00     0.004 A 
ATOM     18  C   UNL A   1      33.750  28.401  26.876  1.00  0.00     0.012 A 
ATOM     19  C   UNL A   1      33.249  29.591  27.410  1.00  0.00     0.001 A 
BRANCH  15  20
ATOM     20  O   UNL A   1      32.098  28.448  23.580  1.00  0.00    -0.489 OA
BRANCH  20  21
ATOM     21  C   UNL A   1      30.848  29.042  23.209  1.00  0.00     0.257 C 
BRANCH  21  22
ATOM     22  C   UNL A   1      29.906  27.969  22.744  1.00  0.00     0.006 C 
ATOM     23  C   UNL A   1      28.966  27.400  23.512  1.00  0.00     0.007 C 
ENDBRANCH  21  22
ENDBRANCH  20  21
ENDBRANCH  15  20
ENDBRANCH   7  14
ENDBRANCH   5   6
ENDBRANCH   1   5
BRANCH   3  24
ATOM     24  C   UNL A   1      36.711  20.725  24.754  1.00  0.00     0.117 C 
BRANCH  24  25
ATOM     25  C   UNL A   1      37.787  19.672  24.989  1.00  0.00     0.042 C 
BRANCH  25  26
ATOM     26  C   UNL A   1      38.961  20.156  25.833  1.00  0.00     0.118 C 
BRANCH  26  27
ATOM     27  N   UNL A   1      40.056  19.200  25.862  1.00  0.00    -0.352 N 
ATOM     28  C   UNL A   1      41.406  19.400  26.005  1.00  0.00     0.251 C 
ATOM     29  H   UNL A   1      39.786  18.259  25.764  1.00  0.00     0.163 HD
ATOM     30  O   UNL A   1      42.179  18.468  25.796  1.00  0.00    -0.269 OA
BRANCH  28  31
ATOM     31  C   UNL A   1      41.943  20.722  26.392  1.00  0.00     0.039 A 
ATOM     32  C   UNL A   1      42.246  21.644  25.386  1.00  0.00     0.014 A 
ATOM     33  C   UNL A   1      42.193  21.045  27.729  1.00  0.00     0.014 A 
ATOM     34  C   UNL A   1      42.743  22.906  25.722  1.00  0.00     0.010 A 
ATOM     35  C   UNL A   1      42.611  22.329  28.069  1.00  0.00     0.010 A 
ATOM     36  C   UNL A   1      42.897  23.271  27.069  1.00  0.00    -0.014 A 
BRANCH  36  37
ATOM     37  C   UNL A   1      43.358  24.631  27.450  1.00  0.00     0.031 A 
ATOM     38  C   UNL A   1      42.363  25.677  27.872  1.00  0.00     0.074 A 
ATOM     39  C   UNL A   1      44.665  24.943  27.351  1.00  0.00     0.049 A 
ATOM     40  N   UNL A   1      42.561  26.937  28.166  1.00  0.00    -0.248 NA
ATOM     41  C   UNL A   1      40.955  25.258  27.950  1.00  0.00     0.031 C 
ATOM     42  C   UNL A   1      45.720  24.028  26.912  1.00  0.00     0.029 A 
ATOM     43  N   UNL A   1      45.326  26.118  27.603  1.00  0.00    -0.354 N 
ATOM     44  C   UNL A   1      41.305  27.462  28.446  1.00  0.00     0.074 A 
ATOM     45  C   UNL A   1      40.346  26.399  28.236  1.00  0.00     0.031 C 
ATOM     46  C   UNL A   1      46.898  24.670  26.945  1.00  0.00     0.029 A 
ATOM     47  C   UNL A   1      46.677  26.050  27.366  1.00  0.00     0.049 A 
ATOM     48  H   UNL A   1      44.876  26.933  27.923  1.00  0.00     0.167 HD
ATOM     49  C   UNL A   1      40.984  28.711  28.861  1.00  0.00     0.037 A 
ATOM     50  C   UNL A   1      47.629  26.997  27.466  1.00  0.00     0.037 A 
ATOM     51  C   UNL A   1      41.945  29.758  29.091  1.00  0.00     0.049 A 
ATOM     52  C   UNL A   1      47.244  28.380  27.921  1.00  0.00     0.074 A 
ATOM     53  C   UNL A   1      41.727  31.039  29.570  1.00  0.00     0.029 A 
ATOM     54  N   UNL A   1      43.307  29.647  28.856  1.00  0.00    -0.354 N 
ATOM     55  N   UNL A   1      46.064  28.846  28.246  1.00  0.00    -0.248 NA
ATOM     56  C   UNL A   1      48.329  29.366  28.027  1.00  0.00     0.031 C 
ATOM     57  C   UNL A   1      42.949  31.718  29.575  1.00  0.00     0.029 A 
ATOM     58  C   UNL A   1      43.938  30.845  29.154  1.00  0.00     0.049 A 
ATOM     59  H   UNL A   1      43.759  28.837  28.524  1.00  0.00     0.167 HD
ATOM     60  C   UNL A   1      46.264  30.166  28.622  1.00  0.00     0.074 A 
ATOM     61  C   UNL A   1      47.684  30.424  28.499  1.00  0.00     0.031 C 
ATOM     62  C   UNL A   1      45.354  31.083  29.032  1.00  0.00     0.037 A 
BRANCH  49  63
ATOM     63  C   UNL A   1      39.531  29.015  29.096  1.00  0.00     0.064 A 
ATOM     64  C   UNL A   1      38.946  28.880  30.364  1.00  0.00     0.173 A 
ATOM     65  C   UNL A   1      38.724  29.484  28.049  1.00  0.00     0.173 A 
ATOM     66  F   UNL A   1      39.671  28.426  31.398  1.00  0.00    -0.203 F 
ATOM     67  C   UNL A   1      37.600  29.174  30.568  1.00  0.00     0.198 A 
ATOM     68  C   UNL A   1      37.387  29.808  28.264  1.00  0.00     0.198 A 
ATOM     69  F   UNL A   1      39.234  29.637  26.818  1.00  0.00    -0.203 F 
ATOM     70  F   UNL A   1      37.052  28.988  31.777  1.00  0.00    -0.200 F 
ATOM     71  C   UNL A   1      36.824  29.645  29.520  1.00  0.00     0.200 A 
ATOM     72  F   UNL A   1      36.641  30.276  27.253  1.00  0.00    -0.200 F 
ATOM     73  F   UNL A   1      35.531  29.935  29.720  1.00  0.00    -0.200 F 
ENDBRANCH  49  63
BRANCH  50  74
ATOM     74  C   UNL A   1      49.043  26.665  27.149  1.00  0.00     0.064 A 
ATOM     75  C   UNL A   1      49.512  26.696  25.828  1.00  0.00     0.173 A 
ATOM     76  C   UNL A   1      49.953  26.308  28.156  1.00  0.00     0.173 A 
ATOM     77  F   UNL A   1      48.674  27.010  24.829  1.00  0.00    -0.203 F 
ATOM     78  C   UNL A   1      50.828  26.359  25.523  1.00  0.00     0.198 A 
ATOM     79  C   UNL A   1      51.278  26.000  27.851  1.00  0.00     0.198 A 
ATOM     80  F   UNL A   1      49.557  26.267  29.436  1.00  0.00    -0.203 F 
ATOM     81  F   UNL A   1      51.235  26.349  24.246  1.00  0.00    -0.200 F 
ATOM     82  C   UNL A   1      51.711  26.018  26.535  1.00  0.00     0.200 A 
ATOM     83  F   UNL A   1      52.131  25.684  28.835  1.00  0.00    -0.200 F 
ATOM     84  F   UNL A   1      52.979  25.697  26.241  1.00  0.00    -0.200 F 
ENDBRANCH  50  74
BRANCH  62  85
ATOM     85  C   UNL A   1      45.868  32.442  29.413  1.00  0.00     0.064 A 
ATOM     86  C   UNL A   1      46.313  32.723  30.713  1.00  0.00     0.173 A 
ATOM     87  C   UNL A   1      45.954  33.463  28.454  1.00  0.00     0.173 A 
ATOM     88  F   UNL A   1      46.238  31.786  31.670  1.00  0.00    -0.203 F 
ATOM     89  C   UNL A   1      46.801  33.984  31.045  1.00  0.00     0.198 A 
ATOM     90  C   UNL A   1      46.472  34.712  28.781  1.00  0.00     0.198 A 
ATOM     91  F   UNL A   1      45.548  33.244  27.195  1.00  0.00    -0.203 F 
ATOM     92  F   UNL A   1      47.176  34.245  32.305  1.00  0.00    -0.200 F 
ATOM     93  C   UNL A   1      46.889  34.975  30.077  1.00  0.00     0.200 A 
ATOM     94  F   UNL A   1      46.570  35.663  27.842  1.00  0.00    -0.200 F 
ATOM     95  F   UNL A   1      47.368  36.184  30.397  1.00  0.00    -0.200 F 
ENDBRANCH  62  85
ENDBRANCH  36  37
ENDBRANCH  28  31
ENDBRANCH  26  27
ENDBRANCH  25  26
ENDBRANCH  24  25
ENDBRANCH   3  24
TORSDOF 15
ENDMDL
MODEL 3
REMARK VINA RESULT:     -12.1      0.593      7.336
REMARK SMILES C=CCOc1ccccc1/C=C1\SC(=S)N(CC(=O)NCCCNC(=O)c2ccc(-c3c4nc(c(-c5c(F)c(F)c(F)c(F)c5F)c5ccc([nH]5)c(-c5c(F)c(F)c(F)c(F)c5F)c5nc(c(-c6c(F)c(F)c(F)c(F)c6F)c6ccc3[nH]6)C=C5)C=C4)cc2)C1=O
REMARK SMILES IDX 18 1 19 2 20 3 17 5 16 6 11 7 12 8 13 9 90 10 14 11 91 12
REMARK SMILES IDX 15 13 10 14 5 15 6 16 7 17 9 18 8 19 4 20 3 21 2 22 1 23
REMARK SMILES IDX 21 24 22 25 23 26 24 27 25 28 26 30 27 31 28 32 89 33 29 34
REMARK SMILES IDX 88 35 30 36 31 37 32 38 82 39 33 40 87 41 81 42 83 43 34 44
REMARK SMILES IDX 86 45 80 46 79 47 35 49 67 50 47 51 66 52 48 53 51 54 65 55
REMARK SMILES IDX 84 56 49 57 50 58 64 60 85 61 52 62 36 63 37 64 45 65 38 66
REMARK SMILES IDX 39 67 43 68 46 69 40 70 41 71 44 72 42 73 68 74 69 75 77 76
REMARK SMILES IDX 70 77 71 78 75 79 78 80 72 81 73 82 76 83 74 84 53 85 54 86
REMARK SMILES IDX 62 87 55 88 56 89 60 90 63 91 57 92 58 93 61 94 59 95
REMARK H PARENT 20 4 24 29 83 48 51 59
REMARK Flexibility Score: inf
ROOT
ATOM      1  C   UNL A   1      32.094  28.757  26.869  1.00  0.00     0.240 C 
ATOM      2  O   UNL A   1      32.949  28.313  27.640  1.00  0.00    -0.273 OA
ATOM      3  N   UNL A   1      31.871  30.102  26.903  1.00  0.00    -0.354 N 
ATOM      4  H   UNL A   1      32.224  30.559  27.701  1.00  0.00     0.163 HD
ENDROOT
BRANCH   1   5
ATOM      5  C   UNL A   1      31.465  27.855  25.802  1.00  0.00     0.227 C 
BRANCH   5   6
ATOM      6  N   UNL A   1      32.340  26.801  25.298  1.00  0.00    -0.283 N 
ATOM      7  C   UNL A   1      33.778  23.600  26.093  1.00  0.00     0.033 C 
ATOM      8  C   UNL A   1      33.404  24.709  25.439  1.00  0.00     0.081 C 
ATOM      9  S   UNL A   1      34.067  25.396  24.013  1.00  0.00    -0.054 SA
ATOM     10  C   UNL A   1      32.365  25.607  26.000  1.00  0.00     0.266 C 
ATOM     11  C   UNL A   1      33.261  26.934  24.282  1.00  0.00     0.148 C 
ATOM     12  O   UNL A   1      31.661  25.321  26.957  1.00  0.00    -0.268 OA
ATOM     13  S   UNL A   1      33.635  28.292  23.389  1.00  0.00    -0.052 S 
BRANCH   7  14
ATOM     14  C   UNL A   1      34.962  22.785  25.797  1.00  0.00     0.018 A 
ATOM     15  C   UNL A   1      34.869  21.471  25.302  1.00  0.00     0.127 A 
ATOM     16  C   UNL A   1      36.019  20.723  25.050  1.00  0.00     0.047 A 
ATOM     17  C   UNL A   1      37.275  21.303  25.226  1.00  0.00     0.004 A 
ATOM     18  C   UNL A   1      36.228  23.365  25.943  1.00  0.00     0.012 A 
ATOM     19  C   UNL A   1      37.379  22.626  25.660  1.00  0.00     0.001 A 
BRANCH  15  20
ATOM     20  O   UNL A   1      33.655  20.849  25.138  1.00  0.00    -0.489 OA
BRANCH  20  21
ATOM     21  C   UNL A   1      33.786  19.522  24.613  1.00  0.00     0.257 C 
BRANCH  21  22
ATOM     22  C   UNL A   1      32.652  19.247  23.668  1.00  0.00     0.006 C 
ATOM     23  C   UNL A   1      32.482  18.096  23.003  1.00  0.00     0.007 C 
ENDBRANCH  21  22
ENDBRANCH  20  21
ENDBRANCH  15  20
ENDBRANCH   7  14
ENDBRANCH   5   6
ENDBRANCH   1   5
BRANCH   3  24
ATOM     24  C   UNL A   1      31.199  30.964  25.953  1.00  0.00     0.117 C 
BRANCH  24  25
ATOM     25  C   UNL A   1      31.228  32.433  26.361  1.00  0.00     0.042 C 
BRANCH  25  26
ATOM     26  C   UNL A   1      32.474  32.839  27.141  1.00  0.00     0.118 C 
BRANCH  26  27
ATOM     27  N   UNL A   1      32.413  34.216  27.606  1.00  0.00    -0.352 N 
ATOM     28  C   UNL A   1      33.104  34.845  28.610  1.00  0.00     0.251 C 
ATOM     29  H   UNL A   1      31.773  34.786  27.124  1.00  0.00     0.163 HD
ATOM     30  O   UNL A   1      32.753  35.965  28.974  1.00  0.00    -0.269 OA
BRANCH  28  31
ATOM     31  C   UNL A   1      34.257  34.191  29.267  1.00  0.00     0.039 A 
ATOM     32  C   UNL A   1      34.012  33.268  30.288  1.00  0.00     0.014 A 
ATOM     33  C   UNL A   1      35.572  34.511  28.920  1.00  0.00     0.014 A 
ATOM     34  C   UNL A   1      35.079  32.625  30.918  1.00  0.00     0.010 A 
ATOM     35  C   UNL A   1      36.632  33.812  29.491  1.00  0.00     0.010 A 
ATOM     36  C   UNL A   1      36.398  32.867  30.501  1.00  0.00    -0.014 A 
BRANCH  36  37
ATOM     37  C   UNL A   1      37.543  32.142  31.110  1.00  0.00     0.031 A 
ATOM     38  C   UNL A   1      38.035  32.518  32.480  1.00  0.00     0.074 A 
ATOM     39  C   UNL A   1      38.180  31.189  30.402  1.00  0.00     0.049 A 
ATOM     40  N   UNL A   1      39.064  32.058  33.147  1.00  0.00    -0.248 NA
ATOM     41  C   UNL A   1      37.287  33.571  33.186  1.00  0.00     0.031 C 
ATOM     42  C   UNL A   1      37.825  30.766  29.047  1.00  0.00     0.029 A 
ATOM     43  N   UNL A   1      39.267  30.415  30.719  1.00  0.00    -0.354 N 
ATOM     44  C   UNL A   1      39.095  32.774  34.337  1.00  0.00     0.074 A 
ATOM     45  C   UNL A   1      38.015  33.735  34.281  1.00  0.00     0.031 C 
ATOM     46  C   UNL A   1      38.664  29.794  28.657  1.00  0.00     0.029 A 
ATOM     47  C   UNL A   1      39.641  29.555  29.715  1.00  0.00     0.049 A 
ATOM     48  H   UNL A   1      39.735  30.469  31.584  1.00  0.00     0.167 HD
ATOM     49  C   UNL A   1      39.934  32.627  35.390  1.00  0.00     0.037 A 
ATOM     50  C   UNL A   1      40.663  28.681  29.652  1.00  0.00     0.037 A 
ATOM     51  C   UNL A   1      40.992  31.653  35.452  1.00  0.00     0.049 A 
ATOM     52  C   UNL A   1      41.587  28.544  30.832  1.00  0.00     0.074 A 
ATOM     53  C   UNL A   1      41.858  31.384  36.497  1.00  0.00     0.029 A 
ATOM     54  N   UNL A   1      41.330  30.788  34.421  1.00  0.00    -0.354 N 
ATOM     55  N   UNL A   1      41.566  29.179  31.978  1.00  0.00    -0.248 NA
ATOM     56  C   UNL A   1      42.674  27.563  30.710  1.00  0.00     0.031 C 
ATOM     57  C   UNL A   1      42.753  30.393  36.081  1.00  0.00     0.029 A 
ATOM     58  C   UNL A   1      42.410  30.003  34.797  1.00  0.00     0.049 A 
ATOM     59  H   UNL A   1      40.872  30.739  33.551  1.00  0.00     0.167 HD
ATOM     60  C   UNL A   1      42.614  28.658  32.722  1.00  0.00     0.074 A 
ATOM     61  C   UNL A   1      43.243  27.642  31.905  1.00  0.00     0.031 C 
ATOM     62  C   UNL A   1      43.020  28.991  33.973  1.00  0.00     0.037 A 
BRANCH  49  63
ATOM     63  C   UNL A   1      39.742  33.542  36.567  1.00  0.00     0.064 A 
ATOM     64  C   UNL A   1      40.396  34.781  36.652  1.00  0.00     0.173 A 
ATOM     65  C   UNL A   1      38.863  33.193  37.603  1.00  0.00     0.173 A 
ATOM     66  F   UNL A   1      41.254  35.159  35.692  1.00  0.00    -0.203 F 
ATOM     67  C   UNL A   1      40.200  35.622  37.744  1.00  0.00     0.198 A 
ATOM     68  C   UNL A   1      38.645  34.051  38.679  1.00  0.00     0.198 A 
ATOM     69  F   UNL A   1      38.208  32.023  37.569  1.00  0.00    -0.203 F 
ATOM     70  F   UNL A   1      40.875  36.777  37.828  1.00  0.00    -0.200 F 
ATOM     71  C   UNL A   1      39.320  35.260  38.753  1.00  0.00     0.200 A 
ATOM     72  F   UNL A   1      37.783  33.706  39.645  1.00  0.00    -0.200 F 
ATOM     73  F   UNL A   1      39.126  36.074  39.799  1.00  0.00    -0.200 F 
ENDBRANCH  49  63
BRANCH  50  74
ATOM     74  C   UNL A   1      40.855  27.851  28.433  1.00  0.00     0.064 A 
ATOM     75  C   UNL A   1      41.667  28.295  27.380  1.00  0.00     0.173 A 
ATOM     76  C   UNL A   1      40.231  26.602  28.294  1.00  0.00     0.173 A 
ATOM     77  F   UNL A   1      42.267  29.493  27.457  1.00  0.00    -0.203 F 
ATOM     78  C   UNL A   1      41.828  27.534  26.225  1.00  0.00     0.198 A 
ATOM     79  C   UNL A   1      40.418  25.829  27.150  1.00  0.00     0.198 A 
ATOM     80  F   UNL A   1      39.448  26.129  29.274  1.00  0.00    -0.203 F 
ATOM     81  F   UNL A   1      42.570  28.006  25.212  1.00  0.00    -0.200 F 
ATOM     82  C   UNL A   1      41.209  26.299  26.113  1.00  0.00     0.200 A 
ATOM     83  F   UNL A   1      39.828  24.629  27.052  1.00  0.00    -0.200 F 
ATOM     84  F   UNL A   1      41.367  25.566  25.003  1.00  0.00    -0.200 F 
ENDBRANCH  50  74
BRANCH  62  85
ATOM     85  C   UNL A   1      44.177  28.225  34.549  1.00  0.00     0.064 A 
ATOM     86  C   UNL A   1      45.496  28.687  34.436  1.00  0.00     0.173 A 
ATOM     87  C   UNL A   1      43.956  27.036  35.259  1.00  0.00     0.173 A 
ATOM     88  F   UNL A   1      45.761  29.812  33.754  1.00  0.00    -0.203 F 
ATOM     89  C   UNL A   1      46.554  27.973  34.991  1.00  0.00     0.198 A 
ATOM     90  C   UNL A   1      45.013  26.341  35.841  1.00  0.00     0.198 A 
ATOM     91  F   UNL A   1      42.712  26.554  35.403  1.00  0.00    -0.203 F 
ATOM     92  F   UNL A   1      47.811  28.408  34.829  1.00  0.00    -0.200 F 
ATOM     93  C   UNL A   1      46.311  26.805  35.700  1.00  0.00     0.200 A 
ATOM     94  F   UNL A   1      44.774  25.221  36.537  1.00  0.00    -0.200 F 
ATOM     95  F   UNL A   1      47.330  26.125  36.241  1.00  0.00    -0.200 F 
ENDBRANCH  62  85
ENDBRANCH  36  37
ENDBRANCH  28  31
ENDBRANCH  26  27
ENDBRANCH  25  26
ENDBRANCH  24  25
ENDBRANCH   3  24
TORSDOF 15
ENDMDL
