MODEL 1
REMARK VINA RESULT:     -13.2      0.000      0.000
REMARK SMILES O=C(NCCCNC(=O)c1c(S(=O)(=O)N2CCCCC2)sc2c1CC[NH2+]C2)c1ccc(-c2c3nc(c(-c4c(F)c(F)c(F)c(F)c4F)c4ccc([nH]4)c(-c4c(F)c(F)c(F)c(F)c4F)c4nc(c(-c5c(F)c(F)c(F)c(F)c5F)c5ccc2[nH]5)C=C4)C=C3)cc1
REMARK SMILES IDX 5 1 4 2 3 3 1 4 2 5 28 7 29 8 90 9 30 10 89 11 31 12 32 13
REMARK SMILES IDX 33 14 83 15 34 16 88 17 82 18 84 19 35 20 87 21 81 22 80 23
REMARK SMILES IDX 36 25 68 26 48 27 67 28 49 29 52 30 66 31 85 32 50 33 51 34
REMARK SMILES IDX 65 36 86 37 53 38 37 39 38 40 46 41 39 42 40 43 44 44 47 45
REMARK SMILES IDX 41 46 42 47 45 48 43 49 69 50 70 51 78 52 71 53 72 54 76 55
REMARK SMILES IDX 79 56 73 57 74 58 77 59 75 60 54 61 55 62 63 63 56 64 57 65
REMARK SMILES IDX 61 66 64 67 58 68 59 69 62 70 60 71 6 72 7 73 8 74 9 76
REMARK SMILES IDX 10 77 11 78 23 79 21 80 22 81 24 82 27 83 25 84 26 85 12 88
REMARK SMILES IDX 13 89 14 90 15 91 16 92 20 93 17 94 19 95 18 96
REMARK H PARENT 3 6 84 24 52 35 7 75 26 86 26 87
REMARK Flexibility Score: inf
ROOT
ATOM      1  C   UNL A   1      36.157  22.125  25.761  1.00  0.00     0.042 C 
ENDROOT
BRANCH   1   2
ATOM      2  C   UNL A   1      37.392  22.165  24.861  1.00  0.00     0.118 C 
BRANCH   2   3
ATOM      3  N   UNL A   1      38.591  21.542  25.388  1.00  0.00    -0.352 N 
ATOM      4  O   UNL A   1      40.200  20.896  26.753  1.00  0.00    -0.269 OA
ATOM      5  C   UNL A   1      39.481  21.831  26.386  1.00  0.00     0.251 C 
ATOM      6  H   UNL A   1      38.821  20.711  24.911  1.00  0.00     0.163 HD
BRANCH   5   7
ATOM      7  C   UNL A   1      39.699  23.168  27.003  1.00  0.00     0.039 A 
ATOM      8  C   UNL A   1      38.933  24.309  26.773  1.00  0.00     0.014 A 
ATOM      9  C   UNL A   1      40.829  23.283  27.838  1.00  0.00     0.014 A 
ATOM     10  C   UNL A   1      39.337  25.547  27.278  1.00  0.00     0.010 A 
ATOM     11  C   UNL A   1      41.227  24.509  28.363  1.00  0.00     0.010 A 
ATOM     12  C   UNL A   1      40.500  25.653  28.049  1.00  0.00    -0.014 A 
BRANCH  12  13
ATOM     13  C   UNL A   1      40.838  26.955  28.628  1.00  0.00     0.031 A 
ATOM     14  C   UNL A   1      42.097  27.574  28.113  1.00  0.00     0.074 A 
ATOM     15  C   UNL A   1      40.017  27.659  29.435  1.00  0.00     0.049 A 
ATOM     16  N   UNL A   1      43.122  27.999  28.780  1.00  0.00    -0.248 NA
ATOM     17  C   UNL A   1      42.253  27.675  26.653  1.00  0.00     0.031 C 
ATOM     18  C   UNL A   1      38.628  27.358  29.786  1.00  0.00     0.029 A 
ATOM     19  N   UNL A   1      40.233  28.870  30.035  1.00  0.00    -0.354 N 
ATOM     20  C   UNL A   1      43.992  28.561  27.843  1.00  0.00     0.074 A 
ATOM     21  C   UNL A   1      43.460  28.233  26.548  1.00  0.00     0.031 C 
ATOM     22  C   UNL A   1      38.065  28.449  30.353  1.00  0.00     0.029 A 
ATOM     23  C   UNL A   1      39.081  29.475  30.519  1.00  0.00     0.049 A 
ATOM     24  H   UNL A   1      41.125  29.276  30.114  1.00  0.00     0.167 HD
ATOM     25  C   UNL A   1      44.983  29.421  28.208  1.00  0.00     0.037 A 
ATOM     26  C   UNL A   1      38.954  30.750  30.964  1.00  0.00     0.037 A 
ATOM     27  C   UNL A   1      45.329  29.263  29.597  1.00  0.00     0.049 A 
ATOM     28  C   UNL A   1      40.307  31.259  31.291  1.00  0.00     0.074 A 
ATOM     29  C   UNL A   1      45.809  28.225  30.372  1.00  0.00     0.029 A 
ATOM     30  N   UNL A   1      44.912  30.216  30.491  1.00  0.00    -0.354 N 
ATOM     31  N   UNL A   1      41.025  30.851  32.299  1.00  0.00    -0.248 NA
ATOM     32  C   UNL A   1      41.035  31.971  30.252  1.00  0.00     0.031 C 
ATOM     33  C   UNL A   1      45.196  28.401  31.648  1.00  0.00     0.029 A 
ATOM     34  C   UNL A   1      44.414  29.552  31.578  1.00  0.00     0.049 A 
ATOM     35  H   UNL A   1      44.962  31.192  30.371  1.00  0.00     0.167 HD
ATOM     36  C   UNL A   1      42.327  30.864  31.826  1.00  0.00     0.074 A 
ATOM     37  C   UNL A   1      42.284  31.665  30.608  1.00  0.00     0.031 C 
ATOM     38  C   UNL A   1      43.257  29.994  32.314  1.00  0.00     0.037 A 
BRANCH  25  39
ATOM     39  C   UNL A   1      45.383  30.652  27.418  1.00  0.00     0.064 A 
ATOM     40  C   UNL A   1      46.752  30.881  27.157  1.00  0.00     0.173 A 
ATOM     41  C   UNL A   1      44.538  31.762  27.204  1.00  0.00     0.173 A 
ATOM     42  F   UNL A   1      47.654  29.899  27.311  1.00  0.00    -0.203 F 
ATOM     43  C   UNL A   1      47.247  32.151  26.845  1.00  0.00     0.198 A 
ATOM     44  C   UNL A   1      45.029  33.016  26.839  1.00  0.00     0.198 A 
ATOM     45  F   UNL A   1      43.223  31.719  27.439  1.00  0.00    -0.203 F 
ATOM     46  F   UNL A   1      48.570  32.346  26.762  1.00  0.00    -0.200 F 
ATOM     47  C   UNL A   1      46.386  33.221  26.702  1.00  0.00     0.200 A 
ATOM     48  F   UNL A   1      44.179  34.043  26.710  1.00  0.00    -0.200 F 
ATOM     49  F   UNL A   1      46.862  34.453  26.483  1.00  0.00    -0.200 F 
ENDBRANCH  25  39
BRANCH  26  50
ATOM     50  C   UNL A   1      37.784  31.655  30.871  1.00  0.00     0.064 A 
ATOM     51  C   UNL A   1      37.345  32.159  29.635  1.00  0.00     0.173 A 
ATOM     52  C   UNL A   1      36.905  31.817  31.960  1.00  0.00     0.173 A 
ATOM     53  F   UNL A   1      38.099  32.003  28.537  1.00  0.00    -0.203 F 
ATOM     54  C   UNL A   1      36.094  32.768  29.493  1.00  0.00     0.198 A 
ATOM     55  C   UNL A   1      35.661  32.434  31.819  1.00  0.00     0.198 A 
ATOM     56  F   UNL A   1      37.193  31.293  33.159  1.00  0.00    -0.203 F 
ATOM     57  F   UNL A   1      35.683  33.180  28.286  1.00  0.00    -0.200 F 
ATOM     58  C   UNL A   1      35.250  32.898  30.584  1.00  0.00     0.200 A 
ATOM     59  F   UNL A   1      34.838  32.518  32.874  1.00  0.00    -0.200 F 
ATOM     60  F   UNL A   1      34.027  33.426  30.436  1.00  0.00    -0.200 F 
ENDBRANCH  26  50
BRANCH  38  61
ATOM     61  C   UNL A   1      42.925  29.246  33.572  1.00  0.00     0.064 A 
ATOM     62  C   UNL A   1      42.154  28.071  33.604  1.00  0.00     0.173 A 
ATOM     63  C   UNL A   1      43.527  29.659  34.768  1.00  0.00     0.173 A 
ATOM     64  F   UNL A   1      41.635  27.554  32.484  1.00  0.00    -0.203 F 
ATOM     65  C   UNL A   1      41.957  27.372  34.793  1.00  0.00     0.198 A 
ATOM     66  C   UNL A   1      43.360  28.938  35.946  1.00  0.00     0.198 A 
ATOM     67  F   UNL A   1      44.323  30.742  34.782  1.00  0.00    -0.203 F 
ATOM     68  F   UNL A   1      41.208  26.260  34.803  1.00  0.00    -0.200 F 
ATOM     69  C   UNL A   1      42.566  27.802  35.960  1.00  0.00     0.200 A 
ATOM     70  F   UNL A   1      43.994  29.327  37.061  1.00  0.00    -0.200 F 
ATOM     71  F   UNL A   1      42.413  27.104  37.095  1.00  0.00    -0.200 F 
ENDBRANCH  38  61
ENDBRANCH  12  13
ENDBRANCH   5   7
ENDBRANCH   2   3
ENDBRANCH   1   2
BRANCH   1  72
ATOM     72  C   UNL A   1      35.318  23.395  25.813  1.00  0.00     0.118 C 
BRANCH  72  73
ATOM     73  N   UNL A   1      34.112  23.309  26.613  1.00  0.00    -0.352 N 
ATOM     74  C   UNL A   1      32.911  22.695  26.357  1.00  0.00     0.253 C 
ATOM     75  H   UNL A   1      34.163  23.766  27.483  1.00  0.00     0.163 HD
ATOM     76  O   UNL A   1      32.041  22.755  27.224  1.00  0.00    -0.269 OA
BRANCH  74  77
ATOM     77  C   UNL A   1      32.623  22.114  25.046  1.00  0.00     0.074 A 
ATOM     78  C   UNL A   1      32.476  22.823  23.850  1.00  0.00     0.148 A 
ATOM     79  C   UNL A   1      32.637  20.682  24.790  1.00  0.00    -0.009 A 
ATOM     80  S   UNL A   1      32.153  21.760  22.540  1.00  0.00    -0.120 S 
ATOM     81  C   UNL A   1      32.364  20.381  23.473  1.00  0.00     0.064 A 
ATOM     82  C   UNL A   1      32.904  19.564  25.764  1.00  0.00     0.099 C 
ATOM     83  C   UNL A   1      32.323  19.006  22.879  1.00  0.00     0.308 C 
ATOM     84  C   UNL A   1      33.129  18.221  25.022  1.00  0.00     0.265 C 
ATOM     85  N   UNL A   1      32.160  17.988  23.930  1.00  0.00    -0.342 N 
ATOM     86  H   UNL A   1      31.213  18.037  24.305  1.00  0.00     0.346 HD
ATOM     87  H   UNL A   1      32.328  17.064  23.529  1.00  0.00     0.346 HD
BRANCH  78  88
ATOM     88  S   UNL A   1      32.640  24.569  23.416  1.00  0.00     0.253 S 
ATOM     89  O   UNL A   1      33.959  24.689  22.829  1.00  0.00    -0.206 OA
ATOM     90  O   UNL A   1      31.448  24.853  22.653  1.00  0.00    -0.206 OA
BRANCH  88  91
ATOM     91  N   UNL A   1      32.652  25.582  24.806  1.00  0.00    -0.197 NA
ATOM     92  C   UNL A   1      33.711  26.618  24.815  1.00  0.00     0.102 C 
ATOM     93  C   UNL A   1      31.305  25.883  25.362  1.00  0.00     0.102 C 
ATOM     94  C   UNL A   1      33.617  27.574  25.992  1.00  0.00     0.017 C 
ATOM     95  C   UNL A   1      31.301  26.912  26.481  1.00  0.00     0.017 C 
ATOM     96  C   UNL A   1      32.202  28.091  26.170  1.00  0.00     0.003 C 
ENDBRANCH  88  91
ENDBRANCH  78  88
ENDBRANCH  74  77
ENDBRANCH  72  73
ENDBRANCH   1  72
TORSDOF 12
ENDMDL
MODEL 2
REMARK VINA RESULT:     -13.2      3.015      8.015
REMARK SMILES O=C(NCCCNC(=O)c1c(S(=O)(=O)N2CCCCC2)sc2c1CC[NH2+]C2)c1ccc(-c2c3nc(c(-c4c(F)c(F)c(F)c(F)c4F)c4ccc([nH]4)c(-c4c(F)c(F)c(F)c(F)c4F)c4nc(c(-c5c(F)c(F)c(F)c(F)c5F)c5ccc2[nH]5)C=C4)C=C3)cc1
REMARK SMILES IDX 5 1 4 2 3 3 1 4 2 5 28 7 29 8 90 9 30 10 89 11 31 12 32 13
REMARK SMILES IDX 33 14 83 15 34 16 88 17 82 18 84 19 35 20 87 21 81 22 80 23
REMARK SMILES IDX 36 25 68 26 48 27 67 28 49 29 52 30 66 31 85 32 50 33 51 34
REMARK SMILES IDX 65 36 86 37 53 38 37 39 38 40 46 41 39 42 40 43 44 44 47 45
REMARK SMILES IDX 41 46 42 47 45 48 43 49 69 50 70 51 78 52 71 53 72 54 76 55
REMARK SMILES IDX 79 56 73 57 74 58 77 59 75 60 54 61 55 62 63 63 56 64 57 65
REMARK SMILES IDX 61 66 64 67 58 68 59 69 62 70 60 71 6 72 7 73 8 74 9 76
REMARK SMILES IDX 10 77 11 78 23 79 21 80 22 81 24 82 27 83 25 84 26 85 12 88
REMARK SMILES IDX 13 89 14 90 15 91 16 92 20 93 17 94 19 95 18 96
REMARK H PARENT 3 6 84 24 52 35 7 75 26 86 26 87
REMARK Flexibility Score: inf
ROOT
ATOM      1  C   UNL A   1      32.139  28.955  27.270  1.00  0.00     0.042 C 
ENDROOT
BRANCH   1   2
ATOM      2  C   UNL A   1      33.279  29.896  26.881  1.00  0.00     0.118 C 
BRANCH   2   3
ATOM      3  N   UNL A   1      33.576  30.966  27.814  1.00  0.00    -0.352 N 
ATOM      4  O   UNL A   1      34.594  32.615  28.870  1.00  0.00    -0.269 OA
ATOM      5  C   UNL A   1      34.713  31.496  28.361  1.00  0.00     0.251 C 
ATOM      6  H   UNL A   1      32.762  31.422  28.132  1.00  0.00     0.163 HD
BRANCH   5   7
ATOM      7  C   UNL A   1      36.036  30.818  28.453  1.00  0.00     0.039 A 
ATOM      8  C   UNL A   1      36.287  29.475  28.183  1.00  0.00     0.014 A 
ATOM      9  C   UNL A   1      37.101  31.612  28.925  1.00  0.00     0.014 A 
ATOM     10  C   UNL A   1      37.534  28.916  28.469  1.00  0.00     0.010 A 
ATOM     11  C   UNL A   1      38.354  31.067  29.193  1.00  0.00     0.010 A 
ATOM     12  C   UNL A   1      38.560  29.705  29.001  1.00  0.00    -0.014 A 
BRANCH  12  13
ATOM     13  C   UNL A   1      39.876  29.096  29.206  1.00  0.00     0.031 A 
ATOM     14  C   UNL A   1      40.295  28.949  30.632  1.00  0.00     0.074 A 
ATOM     15  C   UNL A   1      40.610  28.536  28.222  1.00  0.00     0.049 A 
ATOM     16  N   UNL A   1      41.378  29.368  31.206  1.00  0.00    -0.248 NA
ATOM     17  C   UNL A   1      39.349  28.296  31.552  1.00  0.00     0.031 C 
ATOM     18  C   UNL A   1      40.219  28.306  26.830  1.00  0.00     0.029 A 
ATOM     19  N   UNL A   1      41.845  27.953  28.297  1.00  0.00    -0.354 N 
ATOM     20  C   UNL A   1      41.326  28.905  32.522  1.00  0.00     0.074 A 
ATOM     21  C   UNL A   1      40.011  28.353  32.708  1.00  0.00     0.031 C 
ATOM     22  C   UNL A   1      41.099  27.454  26.255  1.00  0.00     0.029 A 
ATOM     23  C   UNL A   1      42.176  27.181  27.191  1.00  0.00     0.049 A 
ATOM     24  H   UNL A   1      42.446  28.070  29.067  1.00  0.00     0.167 HD
ATOM     25  C   UNL A   1      42.440  28.838  33.304  1.00  0.00     0.037 A 
ATOM     26  C   UNL A   1      43.223  26.327  27.075  1.00  0.00     0.037 A 
ATOM     27  C   UNL A   1      43.468  29.727  32.828  1.00  0.00     0.049 A 
ATOM     28  C   UNL A   1      44.218  26.677  28.115  1.00  0.00     0.074 A 
ATOM     29  C   UNL A   1      43.567  31.091  32.634  1.00  0.00     0.029 A 
ATOM     30  N   UNL A   1      44.550  29.191  32.178  1.00  0.00    -0.354 N 
ATOM     31  N   UNL A   1      44.945  27.759  28.106  1.00  0.00    -0.248 NA
ATOM     32  C   UNL A   1      44.136  25.990  29.395  1.00  0.00     0.031 C 
ATOM     33  C   UNL A   1      44.394  31.242  31.482  1.00  0.00     0.029 A 
ATOM     34  C   UNL A   1      44.774  29.965  31.073  1.00  0.00     0.049 A 
ATOM     35  H   UNL A   1      45.068  28.400  32.454  1.00  0.00     0.167 HD
ATOM     36  C   UNL A   1      45.045  28.121  29.440  1.00  0.00     0.074 A 
ATOM     37  C   UNL A   1      44.628  26.941  30.189  1.00  0.00     0.031 C 
ATOM     38  C   UNL A   1      45.187  29.429  29.801  1.00  0.00     0.037 A 
BRANCH  25  39
ATOM     39  C   UNL A   1      42.740  27.709  34.271  1.00  0.00     0.064 A 
ATOM     40  C   UNL A   1      43.209  26.478  33.759  1.00  0.00     0.173 A 
ATOM     41  C   UNL A   1      42.279  27.666  35.604  1.00  0.00     0.173 A 
ATOM     42  F   UNL A   1      43.685  26.392  32.507  1.00  0.00    -0.203 F 
ATOM     43  C   UNL A   1      43.095  25.283  34.476  1.00  0.00     0.198 A 
ATOM     44  C   UNL A   1      42.217  26.480  36.337  1.00  0.00     0.198 A 
ATOM     45  F   UNL A   1      41.772  28.738  36.221  1.00  0.00    -0.203 F 
ATOM     46  F   UNL A   1      43.408  24.122  33.886  1.00  0.00    -0.200 F 
ATOM     47  C   UNL A   1      42.583  25.283  35.759  1.00  0.00     0.200 A 
ATOM     48  F   UNL A   1      41.713  26.500  37.578  1.00  0.00    -0.200 F 
ATOM     49  F   UNL A   1      42.397  24.133  36.418  1.00  0.00    -0.200 F 
ENDBRANCH  25  39
BRANCH  26  50
ATOM     50  C   UNL A   1      43.308  25.059  26.312  1.00  0.00     0.064 A 
ATOM     51  C   UNL A   1      44.259  24.880  25.293  1.00  0.00     0.173 A 
ATOM     52  C   UNL A   1      42.642  23.900  26.756  1.00  0.00     0.173 A 
ATOM     53  F   UNL A   1      44.973  25.924  24.847  1.00  0.00    -0.203 F 
ATOM     54  C   UNL A   1      44.542  23.616  24.768  1.00  0.00     0.198 A 
ATOM     55  C   UNL A   1      42.919  22.640  26.224  1.00  0.00     0.198 A 
ATOM     56  F   UNL A   1      41.782  23.952  27.783  1.00  0.00    -0.203 F 
ATOM     57  F   UNL A   1      45.502  23.475  23.842  1.00  0.00    -0.200 F 
ATOM     58  C   UNL A   1      43.878  22.495  25.239  1.00  0.00     0.200 A 
ATOM     59  F   UNL A   1      42.297  21.560  26.717  1.00  0.00    -0.200 F 
ATOM     60  F   UNL A   1      44.193  21.276  24.780  1.00  0.00    -0.200 F 
ENDBRANCH  26  50
BRANCH  38  61
ATOM     61  C   UNL A   1      45.539  30.418  28.728  1.00  0.00     0.064 A 
ATOM     62  C   UNL A   1      44.593  31.033  27.889  1.00  0.00     0.173 A 
ATOM     63  C   UNL A   1      46.866  30.860  28.643  1.00  0.00     0.173 A 
ATOM     64  F   UNL A   1      43.290  30.741  27.985  1.00  0.00    -0.203 F 
ATOM     65  C   UNL A   1      44.973  32.011  26.973  1.00  0.00     0.198 A 
ATOM     66  C   UNL A   1      47.235  31.865  27.754  1.00  0.00     0.198 A 
ATOM     67  F   UNL A   1      47.799  30.350  29.463  1.00  0.00    -0.203 F 
ATOM     68  F   UNL A   1      44.057  32.575  26.173  1.00  0.00    -0.200 F 
ATOM     69  C   UNL A   1      46.292  32.431  26.912  1.00  0.00     0.200 A 
ATOM     70  F   UNL A   1      48.501  32.306  27.736  1.00  0.00    -0.200 F 
ATOM     71  F   UNL A   1      46.649  33.405  26.061  1.00  0.00    -0.200 F 
ENDBRANCH  38  61
ENDBRANCH  12  13
ENDBRANCH   5   7
ENDBRANCH   2   3
ENDBRANCH   1   2
BRANCH   1  72
ATOM     72  C   UNL A   1      32.423  27.464  27.153  1.00  0.00     0.118 C 
BRANCH  72  73
ATOM     73  N   UNL A   1      31.281  26.640  26.810  1.00  0.00    -0.352 N 
ATOM     74  C   UNL A   1      31.212  25.431  26.163  1.00  0.00     0.253 C 
ATOM     75  H   UNL A   1      30.411  27.007  27.089  1.00  0.00     0.163 HD
ATOM     76  O   UNL A   1      30.102  24.924  26.012  1.00  0.00    -0.269 OA
BRANCH  74  77
ATOM     77  C   UNL A   1      32.397  24.835  25.547  1.00  0.00     0.074 A 
ATOM     78  C   UNL A   1      33.107  25.357  24.461  1.00  0.00     0.148 A 
ATOM     79  C   UNL A   1      33.104  23.699  26.118  1.00  0.00    -0.009 A 
ATOM     80  S   UNL A   1      34.440  24.352  24.057  1.00  0.00    -0.120 S 
ATOM     81  C   UNL A   1      34.206  23.337  25.372  1.00  0.00     0.064 A 
ATOM     82  C   UNL A   1      32.770  22.926  27.366  1.00  0.00     0.099 C 
ATOM     83  C   UNL A   1      35.156  22.225  25.697  1.00  0.00     0.308 C 
ATOM     84  C   UNL A   1      33.945  22.001  27.780  1.00  0.00     0.265 C 
ATOM     85  N   UNL A   1      34.546  21.275  26.642  1.00  0.00    -0.342 N 
ATOM     86  H   UNL A   1      33.820  20.742  26.163  1.00  0.00     0.346 HD
ATOM     87  H   UNL A   1      35.267  20.644  26.993  1.00  0.00     0.346 HD
BRANCH  78  88
ATOM     88  S   UNL A   1      32.950  26.874  23.493  1.00  0.00     0.253 S 
ATOM     89  O   UNL A   1      33.938  27.777  24.045  1.00  0.00    -0.206 OA
ATOM     90  O   UNL A   1      33.024  26.423  22.123  1.00  0.00    -0.206 OA
BRANCH  88  91
ATOM     91  N   UNL A   1      31.429  27.640  23.733  1.00  0.00    -0.197 NA
ATOM     92  C   UNL A   1      31.467  29.121  23.725  1.00  0.00     0.102 C 
ATOM     93  C   UNL A   1      30.273  26.918  23.137  1.00  0.00     0.102 C 
ATOM     94  C   UNL A   1      30.095  29.766  23.813  1.00  0.00     0.017 C 
ATOM     95  C   UNL A   1      28.956  27.676  23.198  1.00  0.00     0.017 C 
ATOM     96  C   UNL A   1      29.126  29.136  22.829  1.00  0.00     0.003 C 
ENDBRANCH  88  91
ENDBRANCH  78  88
ENDBRANCH  74  77
ENDBRANCH  72  73
ENDBRANCH   1  72
TORSDOF 12
ENDMDL
MODEL 3
REMARK VINA RESULT:     -13.1      3.191      8.577
REMARK SMILES O=C(NCCCNC(=O)c1c(S(=O)(=O)N2CCCCC2)sc2c1CC[NH2+]C2)c1ccc(-c2c3nc(c(-c4c(F)c(F)c(F)c(F)c4F)c4ccc([nH]4)c(-c4c(F)c(F)c(F)c(F)c4F)c4nc(c(-c5c(F)c(F)c(F)c(F)c5F)c5ccc2[nH]5)C=C4)C=C3)cc1
REMARK SMILES IDX 5 1 4 2 3 3 1 4 2 5 28 7 29 8 90 9 30 10 89 11 31 12 32 13
REMARK SMILES IDX 33 14 83 15 34 16 88 17 82 18 84 19 35 20 87 21 81 22 80 23
REMARK SMILES IDX 36 25 68 26 48 27 67 28 49 29 52 30 66 31 85 32 50 33 51 34
REMARK SMILES IDX 65 36 86 37 53 38 37 39 38 40 46 41 39 42 40 43 44 44 47 45
REMARK SMILES IDX 41 46 42 47 45 48 43 49 69 50 70 51 78 52 71 53 72 54 76 55
REMARK SMILES IDX 79 56 73 57 74 58 77 59 75 60 54 61 55 62 63 63 56 64 57 65
REMARK SMILES IDX 61 66 64 67 58 68 59 69 62 70 60 71 6 72 7 73 8 74 9 76
REMARK SMILES IDX 10 77 11 78 23 79 21 80 22 81 24 82 27 83 25 84 26 85 12 88
REMARK SMILES IDX 13 89 14 90 15 91 16 92 20 93 17 94 19 95 18 96
REMARK H PARENT 3 6 84 24 52 35 7 75 26 86 26 87
REMARK Flexibility Score: inf
ROOT
ATOM      1  C   UNL A   1      33.299  30.032  27.148  1.00  0.00     0.042 C 
ENDROOT
BRANCH   1   2
ATOM      2  C   UNL A   1      34.092  31.297  27.477  1.00  0.00     0.118 C 
BRANCH   2   3
ATOM      3  N   UNL A   1      34.017  31.764  28.848  1.00  0.00    -0.352 N 
ATOM      4  O   UNL A   1      34.521  32.697  30.783  1.00  0.00    -0.269 OA
ATOM      5  C   UNL A   1      34.919  31.991  29.851  1.00  0.00     0.251 C 
ATOM      6  H   UNL A   1      33.093  31.965  29.124  1.00  0.00     0.163 HD
BRANCH   5   7
ATOM      7  C   UNL A   1      36.288  31.411  29.943  1.00  0.00     0.039 A 
ATOM      8  C   UNL A   1      37.483  32.128  29.919  1.00  0.00     0.014 A 
ATOM      9  C   UNL A   1      36.357  30.004  29.988  1.00  0.00     0.014 A 
ATOM     10  C   UNL A   1      38.707  31.460  29.842  1.00  0.00     0.010 A 
ATOM     11  C   UNL A   1      37.574  29.331  29.932  1.00  0.00     0.010 A 
ATOM     12  C   UNL A   1      38.752  30.062  29.819  1.00  0.00    -0.014 A 
BRANCH  12  13
ATOM     13  C   UNL A   1      40.061  29.405  29.823  1.00  0.00     0.031 A 
ATOM     14  C   UNL A   1      40.689  29.241  31.169  1.00  0.00     0.074 A 
ATOM     15  C   UNL A   1      40.615  28.819  28.740  1.00  0.00     0.049 A 
ATOM     16  N   UNL A   1      41.861  29.619  31.567  1.00  0.00    -0.248 NA
ATOM     17  C   UNL A   1      39.872  28.623  32.225  1.00  0.00     0.031 C 
ATOM     18  C   UNL A   1      40.007  28.604  27.426  1.00  0.00     0.029 A 
ATOM     19  N   UNL A   1      41.825  28.191  28.628  1.00  0.00    -0.354 N 
ATOM     20  C   UNL A   1      41.995  29.158  32.878  1.00  0.00     0.074 A 
ATOM     21  C   UNL A   1      40.704  28.655  33.266  1.00  0.00     0.031 C 
ATOM     22  C   UNL A   1      40.756  27.721  26.727  1.00  0.00     0.029 A 
ATOM     23  C   UNL A   1      41.953  27.407  27.488  1.00  0.00     0.049 A 
ATOM     24  H   UNL A   1      42.540  28.284  29.297  1.00  0.00     0.167 HD
ATOM     25  C   UNL A   1      43.212  29.049  33.480  1.00  0.00     0.037 A 
ATOM     26  C   UNL A   1      42.939  26.515  27.218  1.00  0.00     0.037 A 
ATOM     27  C   UNL A   1      44.188  29.899  32.848  1.00  0.00     0.049 A 
ATOM     28  C   UNL A   1      44.094  26.828  28.091  1.00  0.00     0.074 A 
ATOM     29  C   UNL A   1      44.305  31.259  32.635  1.00  0.00     0.029 A 
ATOM     30  N   UNL A   1      45.137  29.325  32.043  1.00  0.00    -0.354 N 
ATOM     31  N   UNL A   1      44.849  27.882  27.966  1.00  0.00    -0.248 NA
ATOM     32  C   UNL A   1      44.183  26.143  29.372  1.00  0.00     0.031 C 
ATOM     33  C   UNL A   1      44.951  31.381  31.368  1.00  0.00     0.029 A 
ATOM     34  C   UNL A   1      45.216  30.091  30.913  1.00  0.00     0.049 A 
ATOM     35  H   UNL A   1      45.661  28.515  32.240  1.00  0.00     0.167 HD
ATOM     36  C   UNL A   1      45.166  28.240  29.266  1.00  0.00     0.074 A 
ATOM     37  C   UNL A   1      44.826  27.075  30.077  1.00  0.00     0.031 C 
ATOM     38  C   UNL A   1      45.409  29.541  29.595  1.00  0.00     0.037 A 
BRANCH  25  39
ATOM     39  C   UNL A   1      43.616  27.908  34.395  1.00  0.00     0.064 A 
ATOM     40  C   UNL A   1      43.526  26.583  33.915  1.00  0.00     0.173 A 
ATOM     41  C   UNL A   1      43.758  28.030  35.795  1.00  0.00     0.173 A 
ATOM     42  F   UNL A   1      43.402  26.336  32.601  1.00  0.00    -0.203 F 
ATOM     43  C   UNL A   1      43.446  25.484  34.776  1.00  0.00     0.198 A 
ATOM     44  C   UNL A   1      43.731  26.926  36.648  1.00  0.00     0.198 A 
ATOM     45  F   UNL A   1      43.820  29.216  36.408  1.00  0.00    -0.203 F 
ATOM     46  F   UNL A   1      43.204  24.265  34.276  1.00  0.00    -0.200 F 
ATOM     47  C   UNL A   1      43.532  25.659  36.143  1.00  0.00     0.200 A 
ATOM     48  F   UNL A   1      43.812  27.117  37.971  1.00  0.00    -0.200 F 
ATOM     49  F   UNL A   1      43.375  24.621  36.974  1.00  0.00    -0.200 F 
ENDBRANCH  25  39
BRANCH  26  50
ATOM     50  C   UNL A   1      42.859  25.246  26.457  1.00  0.00     0.064 A 
ATOM     51  C   UNL A   1      43.724  24.982  25.382  1.00  0.00     0.173 A 
ATOM     52  C   UNL A   1      42.119  24.152  26.947  1.00  0.00     0.173 A 
ATOM     53  F   UNL A   1      44.502  25.956  24.886  1.00  0.00    -0.203 F 
ATOM     54  C   UNL A   1      43.857  23.697  24.845  1.00  0.00     0.198 A 
ATOM     55  C   UNL A   1      42.245  22.873  26.405  1.00  0.00     0.198 A 
ATOM     56  F   UNL A   1      41.334  24.282  28.025  1.00  0.00    -0.203 F 
ATOM     57  F   UNL A   1      44.739  23.470  23.862  1.00  0.00    -0.200 F 
ATOM     58  C   UNL A   1      43.124  22.642  25.363  1.00  0.00     0.200 A 
ATOM     59  F   UNL A   1      41.559  21.854  26.941  1.00  0.00    -0.200 F 
ATOM     60  F   UNL A   1      43.296  21.400  24.890  1.00  0.00    -0.200 F 
ENDBRANCH  26  50
BRANCH  38  61
ATOM     61  C   UNL A   1      45.629  30.517  28.476  1.00  0.00     0.064 A 
ATOM     62  C   UNL A   1      44.589  31.156  27.779  1.00  0.00     0.173 A 
ATOM     63  C   UNL A   1      46.941  30.922  28.197  1.00  0.00     0.173 A 
ATOM     64  F   UNL A   1      43.306  30.901  28.066  1.00  0.00    -0.203 F 
ATOM     65  C   UNL A   1      44.858  32.121  26.811  1.00  0.00     0.198 A 
ATOM     66  C   UNL A   1      47.204  31.913  27.257  1.00  0.00     0.198 A 
ATOM     67  F   UNL A   1      47.969  30.387  28.875  1.00  0.00    -0.203 F 
ATOM     68  F   UNL A   1      43.851  32.709  26.150  1.00  0.00    -0.200 F 
ATOM     69  C   UNL A   1      46.165  32.504  26.557  1.00  0.00     0.200 A 
ATOM     70  F   UNL A   1      48.466  32.318  27.052  1.00  0.00    -0.200 F 
ATOM     71  F   UNL A   1      46.421  33.465  25.657  1.00  0.00    -0.200 F 
ENDBRANCH  38  61
ENDBRANCH  12  13
ENDBRANCH   5   7
ENDBRANCH   2   3
ENDBRANCH   1   2
BRANCH   1  72
ATOM     72  C   UNL A   1      32.431  30.084  25.897  1.00  0.00     0.118 C 
BRANCH  72  73
ATOM     73  N   UNL A   1      33.094  29.702  24.666  1.00  0.00    -0.352 N 
ATOM     74  C   UNL A   1      32.658  28.930  23.618  1.00  0.00     0.253 C 
ATOM     75  H   UNL A   1      34.007  30.055  24.564  1.00  0.00     0.163 HD
ATOM     76  O   UNL A   1      33.420  28.772  22.666  1.00  0.00    -0.269 OA
BRANCH  74  77
ATOM     77  C   UNL A   1      31.390  28.205  23.690  1.00  0.00     0.074 A 
ATOM     78  C   UNL A   1      31.185  26.974  24.321  1.00  0.00     0.148 A 
ATOM     79  C   UNL A   1      30.121  28.774  23.262  1.00  0.00    -0.009 A 
ATOM     80  S   UNL A   1      29.547  26.475  24.181  1.00  0.00    -0.120 S 
ATOM     81  C   UNL A   1      29.065  27.909  23.455  1.00  0.00     0.064 A 
ATOM     82  C   UNL A   1      29.864  30.133  22.665  1.00  0.00     0.099 C 
ATOM     83  C   UNL A   1      27.629  28.198  23.141  1.00  0.00     0.308 C 
ATOM     84  C   UNL A   1      28.347  30.455  22.644  1.00  0.00     0.265 C 
ATOM     85  N   UNL A   1      27.516  29.319  22.193  1.00  0.00    -0.342 N 
ATOM     86  H   UNL A   1      27.832  29.016  21.272  1.00  0.00     0.346 HD
ATOM     87  H   UNL A   1      26.542  29.618  22.145  1.00  0.00     0.346 HD
BRANCH  78  88
ATOM     88  S   UNL A   1      32.251  25.889  25.296  1.00  0.00     0.253 S 
ATOM     89  O   UNL A   1      33.059  26.780  26.102  1.00  0.00    -0.206 OA
ATOM     90  O   UNL A   1      31.335  24.950  25.900  1.00  0.00    -0.206 OA
BRANCH  88  91
ATOM     91  N   UNL A   1      33.357  25.015  24.311  1.00  0.00    -0.197 NA
ATOM     92  C   UNL A   1      34.607  24.603  24.990  1.00  0.00     0.102 C 
ATOM     93  C   UNL A   1      32.717  24.118  23.311  1.00  0.00     0.102 C 
ATOM     94  C   UNL A   1      35.504  23.726  24.134  1.00  0.00     0.017 C 
ATOM     95  C   UNL A   1      33.686  23.218  22.560  1.00  0.00     0.017 C 
ATOM     96  C   UNL A   1      34.719  22.603  23.483  1.00  0.00     0.003 C 
ENDBRANCH  88  91
ENDBRANCH  78  88
ENDBRANCH  74  77
ENDBRANCH  72  73
ENDBRANCH   1  72
TORSDOF 12
ENDMDL
