MODEL 1
REMARK VINA RESULT:     -13.9      0.000      0.000
REMARK SMILES CCc1ccc(S(=O)(=O)c2nnn(-c3ccc(C(=O)NCCCNC(=O)c4ccc(-c5c6nc(c(-c7c(F)c(F)c(F)c(F)c7F)c7ccc([nH]7)c(-c7c(F)c(F)c(F)c(F)c7F)c7nc(c(-c8c(F)c(F)c(F)c(F)c8F)c8ccc5[nH]8)C=C7)C=C6)cc4)cc3)c2C)cc1
REMARK SMILES IDX 21 1 20 2 18 3 19 4 17 6 14 7 15 8 91 9 16 10 90 11 13 12
REMARK SMILES IDX 10 13 11 14 92 15 12 16 93 17 7 18 8 19 9 20 6 21 3 22 4 23
REMARK SMILES IDX 95 24 5 25 94 26 2 27 1 28 22 29 23 30 24 31 25 32 26 34
REMARK SMILES IDX 27 35 28 36 89 37 29 38 88 39 30 40 31 41 32 42 82 43 33 44
REMARK SMILES IDX 87 45 81 46 83 47 34 48 86 49 80 50 79 51 35 53 67 54 47 55
REMARK SMILES IDX 66 56 48 57 51 58 65 59 84 60 49 61 50 62 64 64 85 65 52 66
REMARK SMILES IDX 36 67 37 68 45 69 38 70 39 71 43 72 46 73 40 74 41 75 44 76
REMARK SMILES IDX 42 77 68 78 69 79 77 80 70 81 71 82 75 83 78 84 72 85 73 86
REMARK SMILES IDX 76 87 74 88 53 89 54 90 62 91 55 92 56 93 60 94 63 95 57 96
REMARK SMILES IDX 58 97 61 98 59 99
REMARK H PARENT 20 5 24 33 83 52 51 63
REMARK Flexibility Score: inf
ROOT
ATOM      1  C   UNL A   1      37.300  21.245  25.041  1.00  0.00     0.118 C 
ENDROOT
BRANCH   1   2
ATOM      2  N   UNL A   1      36.351  20.143  24.921  1.00  0.00    -0.352 N 
ATOM      3  C   UNL A   1      34.979  20.085  25.014  1.00  0.00     0.251 C 
ATOM      4  O   UNL A   1      34.429  19.015  24.759  1.00  0.00    -0.269 OA
ATOM      5  H   UNL A   1      36.774  19.272  24.739  1.00  0.00     0.163 HD
BRANCH   3   6
ATOM      6  C   UNL A   1      34.138  21.272  25.345  1.00  0.00     0.039 A 
ATOM      7  C   UNL A   1      32.788  23.670  25.807  1.00  0.00     0.067 A 
ATOM      8  C   UNL A   1      32.714  23.086  24.542  1.00  0.00     0.029 A 
ATOM      9  C   UNL A   1      33.406  23.009  26.863  1.00  0.00     0.029 A 
ATOM     10  C   UNL A   1      33.421  21.897  24.310  1.00  0.00     0.016 A 
ATOM     11  C   UNL A   1      34.035  21.794  26.634  1.00  0.00     0.016 A 
BRANCH   7  12
ATOM     12  N   UNL A   1      32.314  24.972  26.030  1.00  0.00    -0.216 N 
ATOM     13  C   UNL A   1      32.110  27.125  26.188  1.00  0.00     0.205 A 
ATOM     14  N   UNL A   1      31.035  26.535  26.799  1.00  0.00    -0.117 NA
ATOM     15  C   UNL A   1      32.908  26.149  25.614  1.00  0.00     0.081 A 
ATOM     16  N   UNL A   1      31.127  25.223  26.616  1.00  0.00    -0.061 NA
ATOM     17  C   UNL A   1      34.007  26.222  24.614  1.00  0.00     0.070 C 
BRANCH  13  18
ATOM     18  S   UNL A   1      32.234  28.834  25.967  1.00  0.00     0.227 S 
ATOM     19  O   UNL A   1      33.563  29.031  25.443  1.00  0.00    -0.217 OA
ATOM     20  O   UNL A   1      31.786  29.433  27.215  1.00  0.00    -0.217 OA
BRANCH  18  21
ATOM     21  C   UNL A   1      31.073  29.268  24.699  1.00  0.00     0.073 A 
ATOM     22  C   UNL A   1      29.116  29.838  22.771  1.00  0.00    -0.048 A 
ATOM     23  C   UNL A   1      29.692  28.559  22.853  1.00  0.00     0.005 A 
ATOM     24  C   UNL A   1      29.529  30.820  23.678  1.00  0.00     0.005 A 
ATOM     25  C   UNL A   1      30.662  28.270  23.815  1.00  0.00     0.021 A 
ATOM     26  C   UNL A   1      30.519  30.549  24.621  1.00  0.00     0.021 A 
BRANCH  22  27
ATOM     27  C   UNL A   1      28.028  30.104  21.754  1.00  0.00     0.032 C 
ATOM     28  C   UNL A   1      28.221  31.367  20.922  1.00  0.00     0.009 C 
ENDBRANCH  22  27
ENDBRANCH  18  21
ENDBRANCH  13  18
ENDBRANCH   7  12
ENDBRANCH   3   6
ENDBRANCH   1   2
BRANCH   1  29
ATOM     29  C   UNL A   1      38.617  20.811  25.704  1.00  0.00     0.042 C 
BRANCH  29  30
ATOM     30  C   UNL A   1      39.465  21.987  26.143  1.00  0.00     0.118 C 
BRANCH  30  31
ATOM     31  N   UNL A   1      40.875  21.838  25.773  1.00  0.00    -0.352 N 
ATOM     32  C   UNL A   1      41.881  22.785  25.839  1.00  0.00     0.251 C 
ATOM     33  H   UNL A   1      41.141  20.953  25.435  1.00  0.00     0.163 HD
ATOM     34  O   UNL A   1      42.903  22.670  25.174  1.00  0.00    -0.269 OA
BRANCH  32  35
ATOM     35  C   UNL A   1      41.696  23.941  26.732  1.00  0.00     0.039 A 
ATOM     36  C   UNL A   1      42.344  24.047  27.965  1.00  0.00     0.014 A 
ATOM     37  C   UNL A   1      40.885  24.968  26.265  1.00  0.00     0.014 A 
ATOM     38  C   UNL A   1      42.222  25.236  28.678  1.00  0.00     0.010 A 
ATOM     39  C   UNL A   1      40.976  26.204  26.835  1.00  0.00     0.010 A 
ATOM     40  C   UNL A   1      41.550  26.321  28.088  1.00  0.00    -0.014 A 
BRANCH  40  41
ATOM     41  C   UNL A   1      41.509  27.637  28.710  1.00  0.00     0.031 A 
ATOM     42  C   UNL A   1      42.625  28.526  28.302  1.00  0.00     0.074 A 
ATOM     43  C   UNL A   1      40.438  28.079  29.409  1.00  0.00     0.049 A 
ATOM     44  N   UNL A   1      43.599  28.944  29.037  1.00  0.00    -0.248 NA
ATOM     45  C   UNL A   1      42.770  28.859  26.874  1.00  0.00     0.031 C 
ATOM     46  C   UNL A   1      39.142  27.419  29.619  1.00  0.00     0.029 A 
ATOM     47  N   UNL A   1      40.246  29.283  30.010  1.00  0.00    -0.354 N 
ATOM     48  C   UNL A   1      44.365  29.770  28.222  1.00  0.00     0.074 A 
ATOM     49  C   UNL A   1      43.931  29.518  26.873  1.00  0.00     0.031 C 
ATOM     50  C   UNL A   1      38.240  28.311  30.081  1.00  0.00     0.029 A 
ATOM     51  C   UNL A   1      38.930  29.551  30.374  1.00  0.00     0.049 A 
ATOM     52  H   UNL A   1      40.982  29.916  30.176  1.00  0.00     0.167 HD
ATOM     53  C   UNL A   1      45.094  30.785  28.765  1.00  0.00     0.037 A 
ATOM     54  C   UNL A   1      38.447  30.720  30.866  1.00  0.00     0.037 A 
ATOM     55  C   UNL A   1      45.254  30.591  30.187  1.00  0.00     0.049 A 
ATOM     56  C   UNL A   1      39.609  31.482  31.388  1.00  0.00     0.074 A 
ATOM     57  C   UNL A   1      45.815  29.605  30.976  1.00  0.00     0.029 A 
ATOM     58  N   UNL A   1      44.434  31.311  31.022  1.00  0.00    -0.354 N 
ATOM     59  N   UNL A   1      40.306  31.110  32.426  1.00  0.00    -0.248 NA
ATOM     60  C   UNL A   1      40.285  32.382  30.468  1.00  0.00     0.031 C 
ATOM     61  C   UNL A   1      44.937  29.482  32.095  1.00  0.00     0.029 A 
ATOM     62  C   UNL A   1      43.943  30.453  31.973  1.00  0.00     0.049 A 
ATOM     63  H   UNL A   1      44.235  32.272  30.951  1.00  0.00     0.167 HD
ATOM     64  C   UNL A   1      41.623  31.354  32.066  1.00  0.00     0.074 A 
ATOM     65  C   UNL A   1      41.543  32.211  30.885  1.00  0.00     0.031 C 
ATOM     66  C   UNL A   1      42.639  30.597  32.577  1.00  0.00     0.037 A 
BRANCH  53  67
ATOM     67  C   UNL A   1      45.295  32.136  28.116  1.00  0.00     0.064 A 
ATOM     68  C   UNL A   1      44.164  32.941  27.868  1.00  0.00     0.173 A 
ATOM     69  C   UNL A   1      46.476  32.534  27.453  1.00  0.00     0.173 A 
ATOM     70  F   UNL A   1      42.984  32.656  28.440  1.00  0.00    -0.203 F 
ATOM     71  C   UNL A   1      44.190  33.990  26.946  1.00  0.00     0.198 A 
ATOM     72  C   UNL A   1      46.511  33.616  26.574  1.00  0.00     0.198 A 
ATOM     73  F   UNL A   1      47.615  31.837  27.527  1.00  0.00    -0.203 F 
ATOM     74  F   UNL A   1      43.055  34.632  26.639  1.00  0.00    -0.200 F 
ATOM     75  C   UNL A   1      45.361  34.320  26.292  1.00  0.00     0.200 A 
ATOM     76  F   UNL A   1      47.654  33.908  25.937  1.00  0.00    -0.200 F 
ATOM     77  F   UNL A   1      45.374  35.278  25.357  1.00  0.00    -0.200 F 
ENDBRANCH  53  67
BRANCH  54  78
ATOM     78  C   UNL A   1      37.126  31.355  30.634  1.00  0.00     0.064 A 
ATOM     79  C   UNL A   1      36.238  31.590  31.699  1.00  0.00     0.173 A 
ATOM     80  C   UNL A   1      36.836  32.014  29.424  1.00  0.00     0.173 A 
ATOM     81  F   UNL A   1      36.465  31.037  32.899  1.00  0.00    -0.203 F 
ATOM     82  C   UNL A   1      35.147  32.456  31.569  1.00  0.00     0.198 A 
ATOM     83  C   UNL A   1      35.744  32.875  29.294  1.00  0.00     0.198 A 
ATOM     84  F   UNL A   1      37.663  31.913  28.373  1.00  0.00    -0.203 F 
ATOM     85  F   UNL A   1      34.362  32.707  32.626  1.00  0.00    -0.200 F 
ATOM     86  C   UNL A   1      34.908  33.108  30.371  1.00  0.00     0.200 A 
ATOM     87  F   UNL A   1      35.547  33.531  28.142  1.00  0.00    -0.200 F 
ATOM     88  F   UNL A   1      33.905  33.990  30.266  1.00  0.00    -0.200 F 
ENDBRANCH  54  78
BRANCH  66  89
ATOM     89  C   UNL A   1      42.321  29.684  33.731  1.00  0.00     0.064 A 
ATOM     90  C   UNL A   1      41.851  28.365  33.598  1.00  0.00     0.173 A 
ATOM     91  C   UNL A   1      42.638  30.123  35.023  1.00  0.00     0.173 A 
ATOM     92  F   UNL A   1      41.615  27.833  32.393  1.00  0.00    -0.203 F 
ATOM     93  C   UNL A   1      41.670  27.543  34.710  1.00  0.00     0.198 A 
ATOM     94  C   UNL A   1      42.492  29.289  36.129  1.00  0.00     0.198 A 
ATOM     95  F   UNL A   1      43.141  31.354  35.209  1.00  0.00    -0.203 F 
ATOM     96  F   UNL A   1      41.209  26.293  34.557  1.00  0.00    -0.200 F 
ATOM     97  C   UNL A   1      41.998  28.004  35.974  1.00  0.00     0.200 A 
ATOM     98  F   UNL A   1      42.859  29.724  37.342  1.00  0.00    -0.200 F 
ATOM     99  F   UNL A   1      41.863  27.203  37.040  1.00  0.00    -0.200 F 
ENDBRANCH  66  89
ENDBRANCH  40  41
ENDBRANCH  32  35
ENDBRANCH  30  31
ENDBRANCH  29  30
ENDBRANCH   1  29
TORSDOF 14
ENDMDL
MODEL 2
REMARK VINA RESULT:     -13.9      3.130      9.453
REMARK SMILES CCc1ccc(S(=O)(=O)c2nnn(-c3ccc(C(=O)NCCCNC(=O)c4ccc(-c5c6nc(c(-c7c(F)c(F)c(F)c(F)c7F)c7ccc([nH]7)c(-c7c(F)c(F)c(F)c(F)c7F)c7nc(c(-c8c(F)c(F)c(F)c(F)c8F)c8ccc5[nH]8)C=C7)C=C6)cc4)cc3)c2C)cc1
REMARK SMILES IDX 21 1 20 2 18 3 19 4 17 6 14 7 15 8 91 9 16 10 90 11 13 12
REMARK SMILES IDX 10 13 11 14 92 15 12 16 93 17 7 18 8 19 9 20 6 21 3 22 4 23
REMARK SMILES IDX 95 24 5 25 94 26 2 27 1 28 22 29 23 30 24 31 25 32 26 34
REMARK SMILES IDX 27 35 28 36 89 37 29 38 88 39 30 40 31 41 32 42 82 43 33 44
REMARK SMILES IDX 87 45 81 46 83 47 34 48 86 49 80 50 79 51 35 53 67 54 47 55
REMARK SMILES IDX 66 56 48 57 51 58 65 59 84 60 49 61 50 62 64 64 85 65 52 66
REMARK SMILES IDX 36 67 37 68 45 69 38 70 39 71 43 72 46 73 40 74 41 75 44 76
REMARK SMILES IDX 42 77 68 78 69 79 77 80 70 81 71 82 75 83 78 84 72 85 73 86
REMARK SMILES IDX 76 87 74 88 53 89 54 90 62 91 55 92 56 93 60 94 63 95 57 96
REMARK SMILES IDX 58 97 61 98 59 99
REMARK H PARENT 20 5 24 33 83 52 51 63
REMARK Flexibility Score: inf
ROOT
ATOM      1  C   UNL A   1      32.679  30.001  25.436  1.00  0.00     0.118 C 
ENDROOT
BRANCH   1   2
ATOM      2  N   UNL A   1      31.436  30.141  24.684  1.00  0.00    -0.352 N 
ATOM      3  C   UNL A   1      30.656  29.234  24.003  1.00  0.00     0.251 C 
ATOM      4  O   UNL A   1      29.584  29.627  23.543  1.00  0.00    -0.269 OA
ATOM      5  H   UNL A   1      31.088  31.062  24.659  1.00  0.00     0.163 HD
BRANCH   3   6
ATOM      6  C   UNL A   1      31.024  27.797  23.857  1.00  0.00     0.039 A 
ATOM      7  C   UNL A   1      31.870  25.137  23.868  1.00  0.00     0.067 A 
ATOM      8  C   UNL A   1      30.808  25.512  24.691  1.00  0.00     0.029 A 
ATOM      9  C   UNL A   1      32.414  26.033  22.953  1.00  0.00     0.029 A 
ATOM     10  C   UNL A   1      30.409  26.856  24.703  1.00  0.00     0.016 A 
ATOM     11  C   UNL A   1      31.954  27.341  22.923  1.00  0.00     0.016 A 
BRANCH   7  12
ATOM     12  N   UNL A   1      32.471  23.875  23.993  1.00  0.00    -0.216 N 
ATOM     13  C   UNL A   1      33.808  22.233  24.459  1.00  0.00     0.205 A 
ATOM     14  N   UNL A   1      32.843  21.783  23.598  1.00  0.00    -0.117 NA
ATOM     15  C   UNL A   1      33.550  23.552  24.795  1.00  0.00     0.081 A 
ATOM     16  N   UNL A   1      31.981  22.773  23.393  1.00  0.00    -0.061 NA
ATOM     17  C   UNL A   1      34.079  24.426  25.875  1.00  0.00     0.070 C 
BRANCH  13  18
ATOM     18  S   UNL A   1      34.971  21.181  25.186  1.00  0.00     0.227 S 
ATOM     19  O   UNL A   1      34.945  21.533  26.585  1.00  0.00    -0.217 OA
ATOM     20  O   UNL A   1      36.172  21.288  24.372  1.00  0.00    -0.217 OA
BRANCH  18  21
ATOM     21  C   UNL A   1      34.338  19.533  25.022  1.00  0.00     0.073 A 
ATOM     22  C   UNL A   1      33.458  16.872  24.892  1.00  0.00    -0.048 A 
ATOM     23  C   UNL A   1      34.758  17.218  24.489  1.00  0.00     0.005 A 
ATOM     24  C   UNL A   1      32.612  17.879  25.372  1.00  0.00     0.005 A 
ATOM     25  C   UNL A   1      35.202  18.541  24.558  1.00  0.00     0.021 A 
ATOM     26  C   UNL A   1      33.037  19.206  25.413  1.00  0.00     0.021 A 
BRANCH  22  27
ATOM     27  C   UNL A   1      33.026  15.423  24.858  1.00  0.00     0.032 C 
ATOM     28  C   UNL A   1      32.213  14.965  26.064  1.00  0.00     0.009 C 
ENDBRANCH  22  27
ENDBRANCH  18  21
ENDBRANCH  13  18
ENDBRANCH   7  12
ENDBRANCH   3   6
ENDBRANCH   1   2
BRANCH   1  29
ATOM     29  C   UNL A   1      32.430  29.729  26.928  1.00  0.00     0.042 C 
BRANCH  29  30
ATOM     30  C   UNL A   1      33.590  30.162  27.802  1.00  0.00     0.118 C 
BRANCH  30  31
ATOM     31  N   UNL A   1      34.116  31.479  27.433  1.00  0.00    -0.352 N 
ATOM     32  C   UNL A   1      35.331  32.042  27.779  1.00  0.00     0.251 C 
ATOM     33  H   UNL A   1      33.531  32.034  26.868  1.00  0.00     0.163 HD
ATOM     34  O   UNL A   1      35.503  33.253  27.732  1.00  0.00    -0.269 OA
BRANCH  32  35
ATOM     35  C   UNL A   1      36.419  31.148  28.207  1.00  0.00     0.039 A 
ATOM     36  C   UNL A   1      36.542  29.838  27.737  1.00  0.00     0.014 A 
ATOM     37  C   UNL A   1      37.369  31.686  29.067  1.00  0.00     0.014 A 
ATOM     38  C   UNL A   1      37.678  29.113  28.085  1.00  0.00     0.010 A 
ATOM     39  C   UNL A   1      38.581  31.073  29.192  1.00  0.00     0.010 A 
ATOM     40  C   UNL A   1      38.707  29.753  28.798  1.00  0.00    -0.014 A 
BRANCH  40  41
ATOM     41  C   UNL A   1      39.982  29.104  29.069  1.00  0.00     0.031 A 
ATOM     42  C   UNL A   1      40.260  28.915  30.515  1.00  0.00     0.074 A 
ATOM     43  C   UNL A   1      40.727  28.528  28.098  1.00  0.00     0.049 A 
ATOM     44  N   UNL A   1      41.168  29.503  31.218  1.00  0.00    -0.248 NA
ATOM     45  C   UNL A   1      39.321  28.106  31.310  1.00  0.00     0.031 C 
ATOM     46  C   UNL A   1      40.411  28.366  26.672  1.00  0.00     0.029 A 
ATOM     47  N   UNL A   1      41.908  27.863  28.207  1.00  0.00    -0.354 N 
ATOM     48  C   UNL A   1      41.057  28.977  32.500  1.00  0.00     0.074 A 
ATOM     49  C   UNL A   1      39.794  28.289  32.545  1.00  0.00     0.031 C 
ATOM     50  C   UNL A   1      41.245  27.461  26.115  1.00  0.00     0.029 A 
ATOM     51  C   UNL A   1      42.264  27.117  27.087  1.00  0.00     0.049 A 
ATOM     52  H   UNL A   1      42.468  27.907  29.015  1.00  0.00     0.167 HD
ATOM     53  C   UNL A   1      42.146  28.926  33.318  1.00  0.00     0.037 A 
ATOM     54  C   UNL A   1      43.315  26.266  26.981  1.00  0.00     0.037 A 
ATOM     55  C   UNL A   1      43.185  29.805  32.835  1.00  0.00     0.049 A 
ATOM     56  C   UNL A   1      44.269  26.621  28.061  1.00  0.00     0.074 A 
ATOM     57  C   UNL A   1      43.275  31.163  32.598  1.00  0.00     0.029 A 
ATOM     58  N   UNL A   1      44.222  29.237  32.135  1.00  0.00    -0.354 N 
ATOM     59  N   UNL A   1      44.933  27.743  28.096  1.00  0.00    -0.248 NA
ATOM     60  C   UNL A   1      44.111  25.945  29.339  1.00  0.00     0.031 C 
ATOM     61  C   UNL A   1      44.038  31.279  31.397  1.00  0.00     0.029 A 
ATOM     62  C   UNL A   1      44.443  30.000  31.016  1.00  0.00     0.049 A 
ATOM     63  H   UNL A   1      44.719  28.427  32.391  1.00  0.00     0.167 HD
ATOM     64  C   UNL A   1      44.883  28.136  29.425  1.00  0.00     0.074 A 
ATOM     65  C   UNL A   1      44.435  26.951  30.156  1.00  0.00     0.031 C 
ATOM     66  C   UNL A   1      44.920  29.458  29.765  1.00  0.00     0.037 A 
BRANCH  53  67
ATOM     67  C   UNL A   1      42.439  27.800  34.284  1.00  0.00     0.064 A 
ATOM     68  C   UNL A   1      42.991  26.604  33.780  1.00  0.00     0.173 A 
ATOM     69  C   UNL A   1      41.921  27.719  35.595  1.00  0.00     0.173 A 
ATOM     70  F   UNL A   1      43.509  26.559  32.542  1.00  0.00    -0.203 F 
ATOM     71  C   UNL A   1      42.930  25.403  34.490  1.00  0.00     0.198 A 
ATOM     72  C   UNL A   1      41.910  26.530  36.322  1.00  0.00     0.198 A 
ATOM     73  F   UNL A   1      41.301  28.744  36.189  1.00  0.00    -0.203 F 
ATOM     74  F   UNL A   1      43.339  24.267  33.910  1.00  0.00    -0.200 F 
ATOM     75  C   UNL A   1      42.379  25.365  35.757  1.00  0.00     0.200 A 
ATOM     76  F   UNL A   1      41.356  26.512  37.543  1.00  0.00    -0.200 F 
ATOM     77  F   UNL A   1      42.254  24.204  36.412  1.00  0.00    -0.200 F 
ENDBRANCH  53  67
BRANCH  54  78
ATOM     78  C   UNL A   1      43.410  24.989  26.232  1.00  0.00     0.064 A 
ATOM     79  C   UNL A   1      44.418  24.782  25.275  1.00  0.00     0.173 A 
ATOM     80  C   UNL A   1      42.704  23.844  26.651  1.00  0.00     0.173 A 
ATOM     81  F   UNL A   1      45.168  25.812  24.853  1.00  0.00    -0.203 F 
ATOM     82  C   UNL A   1      44.725  23.505  24.793  1.00  0.00     0.198 A 
ATOM     83  C   UNL A   1      43.009  22.570  26.167  1.00  0.00     0.198 A 
ATOM     84  F   UNL A   1      41.775  23.926  27.614  1.00  0.00    -0.203 F 
ATOM     85  F   UNL A   1      45.739  23.339  23.932  1.00  0.00    -0.200 F 
ATOM     86  C   UNL A   1      44.029  22.398  25.250  1.00  0.00     0.200 A 
ATOM     87  F   UNL A   1      42.354  21.502  26.646  1.00  0.00    -0.200 F 
ATOM     88  F   UNL A   1      44.368  21.167  24.841  1.00  0.00    -0.200 F 
ENDBRANCH  54  78
BRANCH  66  89
ATOM     89  C   UNL A   1      45.284  30.448  28.692  1.00  0.00     0.064 A 
ATOM     90  C   UNL A   1      44.362  31.043  27.810  1.00  0.00     0.173 A 
ATOM     91  C   UNL A   1      46.603  30.914  28.647  1.00  0.00     0.173 A 
ATOM     92  F   UNL A   1      43.063  30.727  27.851  1.00  0.00    -0.203 F 
ATOM     93  C   UNL A   1      44.757  32.027  26.903  1.00  0.00     0.198 A 
ATOM     94  C   UNL A   1      46.988  31.922  27.767  1.00  0.00     0.198 A 
ATOM     95  F   UNL A   1      47.517  30.423  29.499  1.00  0.00    -0.203 F 
ATOM     96  F   UNL A   1      43.861  32.570  26.066  1.00  0.00    -0.200 F 
ATOM     97  C   UNL A   1      46.068  32.470  26.888  1.00  0.00     0.200 A 
ATOM     98  F   UNL A   1      48.247  32.381  27.792  1.00  0.00    -0.200 F 
ATOM     99  F   UNL A   1      46.441  33.443  26.045  1.00  0.00    -0.200 F 
ENDBRANCH  66  89
ENDBRANCH  40  41
ENDBRANCH  32  35
ENDBRANCH  30  31
ENDBRANCH  29  30
ENDBRANCH   1  29
TORSDOF 14
ENDMDL
MODEL 3
REMARK VINA RESULT:     -13.7      4.886      9.085
REMARK SMILES CCc1ccc(S(=O)(=O)c2nnn(-c3ccc(C(=O)NCCCNC(=O)c4ccc(-c5c6nc(c(-c7c(F)c(F)c(F)c(F)c7F)c7ccc([nH]7)c(-c7c(F)c(F)c(F)c(F)c7F)c7nc(c(-c8c(F)c(F)c(F)c(F)c8F)c8ccc5[nH]8)C=C7)C=C6)cc4)cc3)c2C)cc1
REMARK SMILES IDX 21 1 20 2 18 3 19 4 17 6 14 7 15 8 91 9 16 10 90 11 13 12
REMARK SMILES IDX 10 13 11 14 92 15 12 16 93 17 7 18 8 19 9 20 6 21 3 22 4 23
REMARK SMILES IDX 95 24 5 25 94 26 2 27 1 28 22 29 23 30 24 31 25 32 26 34
REMARK SMILES IDX 27 35 28 36 89 37 29 38 88 39 30 40 31 41 32 42 82 43 33 44
REMARK SMILES IDX 87 45 81 46 83 47 34 48 86 49 80 50 79 51 35 53 67 54 47 55
REMARK SMILES IDX 66 56 48 57 51 58 65 59 84 60 49 61 50 62 64 64 85 65 52 66
REMARK SMILES IDX 36 67 37 68 45 69 38 70 39 71 43 72 46 73 40 74 41 75 44 76
REMARK SMILES IDX 42 77 68 78 69 79 77 80 70 81 71 82 75 83 78 84 72 85 73 86
REMARK SMILES IDX 76 87 74 88 53 89 54 90 62 91 55 92 56 93 60 94 63 95 57 96
REMARK SMILES IDX 58 97 61 98 59 99
REMARK H PARENT 20 5 24 33 83 52 51 63
REMARK Flexibility Score: inf
ROOT
ATOM      1  C   UNL A   1      45.470  22.661  25.746  1.00  0.00     0.118 C 
ENDROOT
BRANCH   1   2
ATOM      2  N   UNL A   1      45.737  23.865  24.966  1.00  0.00    -0.352 N 
ATOM      3  C   UNL A   1      46.139  25.132  25.324  1.00  0.00     0.251 C 
ATOM      4  O   UNL A   1      46.391  25.931  24.423  1.00  0.00    -0.269 OA
ATOM      5  H   UNL A   1      45.602  23.749  23.998  1.00  0.00     0.163 HD
BRANCH   3   6
ATOM      6  C   UNL A   1      46.343  25.549  26.741  1.00  0.00     0.039 A 
ATOM      7  C   UNL A   1      46.662  26.018  29.474  1.00  0.00     0.067 A 
ATOM      8  C   UNL A   1      47.689  25.386  28.772  1.00  0.00     0.029 A 
ATOM      9  C   UNL A   1      45.555  26.533  28.807  1.00  0.00     0.029 A 
ATOM     10  C   UNL A   1      47.508  25.126  27.406  1.00  0.00     0.016 A 
ATOM     11  C   UNL A   1      45.427  26.335  27.441  1.00  0.00     0.016 A 
BRANCH   7  12
ATOM     12  N   UNL A   1      46.678  26.083  30.875  1.00  0.00    -0.216 N 
ATOM     13  C   UNL A   1      46.162  25.990  32.980  1.00  0.00     0.205 A 
ATOM     14  N   UNL A   1      47.357  26.645  32.849  1.00  0.00    -0.117 NA
ATOM     15  C   UNL A   1      45.740  25.545  31.737  1.00  0.00     0.081 A 
ATOM     16  N   UNL A   1      47.704  26.616  31.567  1.00  0.00    -0.061 NA
ATOM     17  C   UNL A   1      44.700  24.563  31.330  1.00  0.00     0.070 C 
BRANCH  13  18
ATOM     18  S   UNL A   1      45.488  25.577  34.516  1.00  0.00     0.227 S 
ATOM     19  O   UNL A   1      44.071  25.789  34.354  1.00  0.00    -0.217 OA
ATOM     20  O   UNL A   1      46.280  26.292  35.506  1.00  0.00    -0.217 OA
BRANCH  18  21
ATOM     21  C   UNL A   1      45.762  23.840  34.741  1.00  0.00     0.073 A 
ATOM     22  C   UNL A   1      46.133  21.064  34.924  1.00  0.00    -0.048 A 
ATOM     23  C   UNL A   1      44.844  21.610  34.808  1.00  0.00     0.005 A 
ATOM     24  C   UNL A   1      47.232  21.932  34.933  1.00  0.00     0.005 A 
ATOM     25  C   UNL A   1      44.656  22.991  34.711  1.00  0.00     0.021 A 
ATOM     26  C   UNL A   1      47.050  23.312  34.869  1.00  0.00     0.021 A 
BRANCH  22  27
ATOM     27  C   UNL A   1      46.307  19.563  34.971  1.00  0.00     0.032 C 
ATOM     28  C   UNL A   1      45.527  18.859  36.076  1.00  0.00     0.009 C 
ENDBRANCH  22  27
ENDBRANCH  18  21
ENDBRANCH  13  18
ENDBRANCH   7  12
ENDBRANCH   3   6
ENDBRANCH   1   2
BRANCH   1  29
ATOM     29  C   UNL A   1      44.264  21.873  25.210  1.00  0.00     0.042 C 
BRANCH  29  30
ATOM     30  C   UNL A   1      43.042  22.744  25.004  1.00  0.00     0.118 C 
BRANCH  30  31
ATOM     31  N   UNL A   1      41.831  22.169  25.596  1.00  0.00    -0.352 N 
ATOM     32  C   UNL A   1      41.076  22.659  26.647  1.00  0.00     0.251 C 
ATOM     33  H   UNL A   1      41.514  21.328  25.196  1.00  0.00     0.163 HD
ATOM     34  O   UNL A   1      40.327  21.928  27.283  1.00  0.00    -0.269 OA
BRANCH  32  35
ATOM     35  C   UNL A   1      41.194  24.087  26.986  1.00  0.00     0.039 A 
ATOM     36  C   UNL A   1      40.397  25.067  26.391  1.00  0.00     0.014 A 
ATOM     37  C   UNL A   1      42.104  24.420  27.982  1.00  0.00     0.014 A 
ATOM     38  C   UNL A   1      40.478  26.370  26.873  1.00  0.00     0.010 A 
ATOM     39  C   UNL A   1      41.995  25.624  28.613  1.00  0.00     0.010 A 
ATOM     40  C   UNL A   1      41.268  26.632  28.006  1.00  0.00    -0.014 A 
BRANCH  40  41
ATOM     41  C   UNL A   1      41.286  27.937  28.652  1.00  0.00     0.031 A 
ATOM     42  C   UNL A   1      42.435  28.786  28.251  1.00  0.00     0.074 A 
ATOM     43  C   UNL A   1      40.240  28.410  29.368  1.00  0.00     0.049 A 
ATOM     44  N   UNL A   1      43.432  29.149  28.987  1.00  0.00    -0.248 NA
ATOM     45  C   UNL A   1      42.584  29.140  26.830  1.00  0.00     0.031 C 
ATOM     46  C   UNL A   1      38.919  27.801  29.576  1.00  0.00     0.029 A 
ATOM     47  N   UNL A   1      40.103  29.610  29.993  1.00  0.00    -0.354 N 
ATOM     48  C   UNL A   1      44.225  29.958  28.181  1.00  0.00     0.074 A 
ATOM     49  C   UNL A   1      43.771  29.750  26.831  1.00  0.00     0.031 C 
ATOM     50  C   UNL A   1      38.058  28.721  30.062  1.00  0.00     0.029 A 
ATOM     51  C   UNL A   1      38.802  29.926  30.372  1.00  0.00     0.049 A 
ATOM     52  H   UNL A   1      40.866  30.208  30.164  1.00  0.00     0.167 HD
ATOM     53  C   UNL A   1      45.000  30.931  28.736  1.00  0.00     0.037 A 
ATOM     54  C   UNL A   1      38.372  31.104  30.890  1.00  0.00     0.037 A 
ATOM     55  C   UNL A   1      45.163  30.704  30.154  1.00  0.00     0.049 A 
ATOM     56  C   UNL A   1      39.569  31.806  31.417  1.00  0.00     0.074 A 
ATOM     57  C   UNL A   1      45.687  29.680  30.919  1.00  0.00     0.029 A 
ATOM     58  N   UNL A   1      44.379  31.442  31.008  1.00  0.00    -0.354 N 
ATOM     59  N   UNL A   1      40.257  31.386  32.442  1.00  0.00    -0.248 NA
ATOM     60  C   UNL A   1      40.275  32.695  30.508  1.00  0.00     0.031 C 
ATOM     61  C   UNL A   1      44.813  29.574  32.043  1.00  0.00     0.029 A 
ATOM     62  C   UNL A   1      43.859  30.587  31.947  1.00  0.00     0.049 A 
ATOM     63  H   UNL A   1      44.220  32.411  30.957  1.00  0.00     0.167 HD
ATOM     64  C   UNL A   1      41.580  31.582  32.076  1.00  0.00     0.074 A 
ATOM     65  C   UNL A   1      41.527  32.464  30.911  1.00  0.00     0.031 C 
ATOM     66  C   UNL A   1      42.568  30.774  32.564  1.00  0.00     0.037 A 
BRANCH  53  67
ATOM     67  C   UNL A   1      45.253  32.285  28.111  1.00  0.00     0.064 A 
ATOM     68  C   UNL A   1      44.157  33.148  27.905  1.00  0.00     0.173 A 
ATOM     69  C   UNL A   1      46.437  32.639  27.429  1.00  0.00     0.173 A 
ATOM     70  F   UNL A   1      42.977  32.909  28.498  1.00  0.00    -0.203 F 
ATOM     71  C   UNL A   1      44.214  34.215  27.005  1.00  0.00     0.198 A 
ATOM     72  C   UNL A   1      46.505  33.737  26.572  1.00  0.00     0.198 A 
ATOM     73  F   UNL A   1      47.541  31.887  27.463  1.00  0.00    -0.203 F 
ATOM     74  F   UNL A   1      43.105  34.918  26.738  1.00  0.00    -0.200 F 
ATOM     75  C   UNL A   1      45.386  34.502  26.331  1.00  0.00     0.200 A 
ATOM     76  F   UNL A   1      47.647  33.988  25.915  1.00  0.00    -0.200 F 
ATOM     77  F   UNL A   1      45.425  35.478  25.416  1.00  0.00    -0.200 F 
ENDBRANCH  53  67
BRANCH  54  78
ATOM     78  C   UNL A   1      37.077  31.798  30.681  1.00  0.00     0.064 A 
ATOM     79  C   UNL A   1      36.085  31.797  31.677  1.00  0.00     0.173 A 
ATOM     80  C   UNL A   1      36.906  32.722  29.631  1.00  0.00     0.173 A 
ATOM     81  F   UNL A   1      36.193  30.979  32.734  1.00  0.00    -0.203 F 
ATOM     82  C   UNL A   1      35.007  32.688  31.642  1.00  0.00     0.198 A 
ATOM     83  C   UNL A   1      35.828  33.609  29.597  1.00  0.00     0.198 A 
ATOM     84  F   UNL A   1      37.835  32.851  28.674  1.00  0.00    -0.203 F 
ATOM     85  F   UNL A   1      34.118  32.703  32.646  1.00  0.00    -0.200 F 
ATOM     86  C   UNL A   1      34.886  33.602  30.609  1.00  0.00     0.200 A 
ATOM     87  F   UNL A   1      35.743  34.515  28.612  1.00  0.00    -0.200 F 
ATOM     88  F   UNL A   1      33.893  34.502  30.612  1.00  0.00    -0.200 F 
ENDBRANCH  54  78
BRANCH  66  89
ATOM     89  C   UNL A   1      42.220  29.854  33.704  1.00  0.00     0.064 A 
ATOM     90  C   UNL A   1      41.713  28.551  33.550  1.00  0.00     0.173 A 
ATOM     91  C   UNL A   1      42.545  30.264  35.003  1.00  0.00     0.173 A 
ATOM     92  F   UNL A   1      41.466  28.043  32.337  1.00  0.00    -0.203 F 
ATOM     93  C   UNL A   1      41.505  27.718  34.649  1.00  0.00     0.198 A 
ATOM     94  C   UNL A   1      42.373  29.419  36.095  1.00  0.00     0.198 A 
ATOM     95  F   UNL A   1      43.082  31.477  35.208  1.00  0.00    -0.203 F 
ATOM     96  F   UNL A   1      41.010  26.483  34.476  1.00  0.00    -0.200 F 
ATOM     97  C   UNL A   1      41.842  28.151  35.920  1.00  0.00     0.200 A 
ATOM     98  F   UNL A   1      42.747  29.825  37.316  1.00  0.00    -0.200 F 
ATOM     99  F   UNL A   1      41.681  27.338  36.974  1.00  0.00    -0.200 F 
ENDBRANCH  66  89
ENDBRANCH  40  41
ENDBRANCH  32  35
ENDBRANCH  30  31
ENDBRANCH  29  30
ENDBRANCH   1  29
TORSDOF 14
ENDMDL
