MODEL 1
REMARK VINA RESULT:     -13.2      0.000      0.000
REMARK SMILES CC1CC[NH+](CC(=O)N[C@H](Cc2cccc(F)c2)C(=O)NCCCNC(=O)c2ccc(-c3c4nc(c(-c5c(F)c(F)c(F)c(F)c5F)c5ccc([nH]5)c(-c5c(F)c(F)c(F)c(F)c5F)c5nc(c(-c6c(F)c(F)c(F)c(F)c6F)c6ccc3[nH]6)C=C5)C=C4)cc2)CC1
REMARK SMILES IDX 22 1 21 2 19 3 20 4 10 6 9 7 7 8 8 9 6 11 5 12 1 13 2 14
REMARK SMILES IDX 3 15 92 16 4 17 91 18 11 20 12 21 13 22 18 23 14 24 16 25
REMARK SMILES IDX 15 26 17 27 23 28 24 29 25 30 26 31 27 33 28 34 29 35 90 36
REMARK SMILES IDX 30 37 89 38 31 39 32 40 33 41 83 42 34 43 88 44 82 45 84 46
REMARK SMILES IDX 35 47 87 48 81 49 80 50 36 52 68 53 48 54 67 55 49 56 52 57
REMARK SMILES IDX 66 58 85 59 50 60 51 61 65 63 86 64 53 65 37 66 38 67 46 68
REMARK SMILES IDX 39 69 40 70 44 71 47 72 41 73 42 74 45 75 43 76 69 77 70 78
REMARK SMILES IDX 78 79 71 80 72 81 76 82 79 83 73 84 74 85 77 86 75 87 54 88
REMARK SMILES IDX 55 89 63 90 56 91 57 92 61 93 64 94 58 95 59 96 62 97 60 98
REMARK H PARENT 21 5 9 10 5 19 25 32 84 51 52 62
REMARK Flexibility Score: inf
ROOT
ATOM      1  C   UNL A   1      31.835  30.785  26.086  1.00  0.00     0.117 C 
ENDROOT
BRANCH   1   2
ATOM      2  N   UNL A   1      31.855  29.586  26.912  1.00  0.00    -0.354 N 
ATOM      3  C   UNL A   1      31.769  28.278  26.514  1.00  0.00     0.242 C 
ATOM      4  O   UNL A   1      31.253  27.466  27.282  1.00  0.00    -0.273 OA
ATOM      5  H   UNL A   1      31.941  29.734  27.882  1.00  0.00     0.163 HD
BRANCH   3   6
ATOM      6  C   UNL A   1      32.257  27.876  25.110  1.00  0.00     0.175 C 
BRANCH   6   7
ATOM      7  N   UNL A   1      31.102  27.189  24.496  1.00  0.00    -0.339 N 
ATOM      8  C   UNL A   1      30.010  27.563  23.789  1.00  0.00     0.275 C 
ATOM      9  O   UNL A   1      29.175  26.676  23.583  1.00  0.00    -0.268 OA
ATOM     10  H   UNL A   1      31.134  26.215  24.637  1.00  0.00     0.164 HD
BRANCH   8  11
ATOM     11  C   UNL A   1      29.851  28.955  23.212  1.00  0.00     0.363 C 
BRANCH  11  12
ATOM     12  N   UNL A   1      28.588  29.313  22.552  1.00  0.00    -0.327 N 
ATOM     13  C   UNL A   1      28.834  33.475  23.066  1.00  0.00     0.008 C 
ATOM     14  C   UNL A   1      28.103  32.216  22.590  1.00  0.00    -0.003 C 
ATOM     15  C   UNL A   1      27.806  31.312  23.798  1.00  0.00     0.065 C 
ATOM     16  C   UNL A   1      28.918  31.548  21.474  1.00  0.00     0.065 C 
ATOM     17  C   UNL A   1      27.566  29.855  23.433  1.00  0.00     0.262 C 
ATOM     18  C   UNL A   1      28.637  30.057  21.307  1.00  0.00     0.262 C 
ATOM     19  H   UNL A   1      28.311  28.375  22.264  1.00  0.00     0.348 HD
ENDBRANCH  11  12
ENDBRANCH   8  11
ENDBRANCH   6   7
BRANCH   6  20
ATOM     20  C   UNL A   1      33.596  27.108  25.193  1.00  0.00     0.070 C 
BRANCH  20  21
ATOM     21  C   UNL A   1      33.438  25.613  24.986  1.00  0.00    -0.043 A 
ATOM     22  C   UNL A   1      33.137  24.769  26.067  1.00  0.00     0.004 A 
ATOM     23  C   UNL A   1      33.713  25.037  23.738  1.00  0.00     0.043 A 
ATOM     24  C   UNL A   1      33.257  23.380  25.939  1.00  0.00     0.003 A 
ATOM     25  C   UNL A   1      33.859  23.655  23.631  1.00  0.00     0.123 A 
ATOM     26  C   UNL A   1      33.659  22.826  24.727  1.00  0.00     0.039 A 
ATOM     27  F   UNL A   1      34.280  23.131  22.474  1.00  0.00    -0.207 F 
ENDBRANCH  20  21
ENDBRANCH   6  20
ENDBRANCH   3   6
ENDBRANCH   1   2
BRANCH   1  28
ATOM     28  C   UNL A   1      31.462  31.995  26.927  1.00  0.00     0.042 C 
BRANCH  28  29
ATOM     29  C   UNL A   1      32.690  32.714  27.464  1.00  0.00     0.118 C 
BRANCH  29  30
ATOM     30  N   UNL A   1      32.445  34.142  27.629  1.00  0.00    -0.352 N 
ATOM     31  C   UNL A   1      32.964  34.999  28.565  1.00  0.00     0.251 C 
ATOM     32  H   UNL A   1      31.823  34.545  26.981  1.00  0.00     0.163 HD
ATOM     33  O   UNL A   1      32.443  36.093  28.771  1.00  0.00    -0.269 OA
BRANCH  31  34
ATOM     34  C   UNL A   1      34.147  34.577  29.335  1.00  0.00     0.039 A 
ATOM     35  C   UNL A   1      33.986  34.066  30.623  1.00  0.00     0.014 A 
ATOM     36  C   UNL A   1      35.413  34.647  28.748  1.00  0.00     0.014 A 
ATOM     37  C   UNL A   1      35.092  33.540  31.290  1.00  0.00     0.010 A 
ATOM     38  C   UNL A   1      36.487  34.030  29.367  1.00  0.00     0.010 A 
ATOM     39  C   UNL A   1      36.337  33.469  30.643  1.00  0.00    -0.014 A 
BRANCH  39  40
ATOM     40  C   UNL A   1      37.508  32.808  31.268  1.00  0.00     0.031 A 
ATOM     41  C   UNL A   1      38.171  31.657  30.568  1.00  0.00     0.074 A 
ATOM     42  C   UNL A   1      37.905  33.182  32.500  1.00  0.00     0.049 A 
ATOM     43  N   UNL A   1      39.109  30.857  31.004  1.00  0.00    -0.248 NA
ATOM     44  C   UNL A   1      37.699  31.343  29.209  1.00  0.00     0.031 C 
ATOM     45  C   UNL A   1      37.308  34.261  33.289  1.00  0.00     0.029 A 
ATOM     46  N   UNL A   1      38.893  32.686  33.314  1.00  0.00    -0.354 N 
ATOM     47  C   UNL A   1      39.329  29.944  29.982  1.00  0.00     0.074 A 
ATOM     48  C   UNL A   1      38.389  30.249  28.926  1.00  0.00     0.031 C 
ATOM     49  C   UNL A   1      37.954  34.360  34.460  1.00  0.00     0.029 A 
ATOM     50  C   UNL A   1      38.973  33.317  34.532  1.00  0.00     0.049 A 
ATOM     51  H   UNL A   1      39.487  31.946  33.050  1.00  0.00     0.167 HD
ATOM     52  C   UNL A   1      40.252  28.959  29.923  1.00  0.00     0.037 A 
ATOM     53  C   UNL A   1      39.764  33.070  35.594  1.00  0.00     0.037 A 
ATOM     54  C   UNL A   1      41.203  28.686  30.966  1.00  0.00     0.049 A 
ATOM     55  C   UNL A   1      40.760  31.944  35.514  1.00  0.00     0.074 A 
ATOM     56  C   UNL A   1      42.217  27.746  30.977  1.00  0.00     0.029 A 
ATOM     57  N   UNL A   1      41.256  29.352  32.182  1.00  0.00    -0.354 N 
ATOM     58  N   UNL A   1      40.996  31.123  34.520  1.00  0.00    -0.248 NA
ATOM     59  C   UNL A   1      41.596  31.706  36.699  1.00  0.00     0.031 C 
ATOM     60  C   UNL A   1      42.849  27.805  32.220  1.00  0.00     0.029 A 
ATOM     61  C   UNL A   1      42.269  28.822  32.962  1.00  0.00     0.049 A 
ATOM     62  H   UNL A   1      40.663  30.092  32.449  1.00  0.00     0.167 HD
ATOM     63  C   UNL A   1      42.020  30.288  34.948  1.00  0.00     0.074 A 
ATOM     64  C   UNL A   1      42.370  30.710  36.288  1.00  0.00     0.031 C 
ATOM     65  C   UNL A   1      42.613  29.265  34.288  1.00  0.00     0.037 A 
BRANCH  52  66
ATOM     66  C   UNL A   1      40.308  28.111  28.687  1.00  0.00     0.064 A 
ATOM     67  C   UNL A   1      39.675  26.859  28.653  1.00  0.00     0.173 A 
ATOM     68  C   UNL A   1      41.076  28.490  27.576  1.00  0.00     0.173 A 
ATOM     69  F   UNL A   1      38.932  26.450  29.692  1.00  0.00    -0.203 F 
ATOM     70  C   UNL A   1      39.831  26.007  27.564  1.00  0.00     0.198 A 
ATOM     71  C   UNL A   1      41.206  27.648  26.475  1.00  0.00     0.198 A 
ATOM     72  F   UNL A   1      41.691  29.682  27.554  1.00  0.00    -0.203 F 
ATOM     73  F   UNL A   1      39.254  24.797  27.572  1.00  0.00    -0.200 F 
ATOM     74  C   UNL A   1      40.596  26.402  26.476  1.00  0.00     0.200 A 
ATOM     75  F   UNL A   1      41.927  28.040  25.416  1.00  0.00    -0.200 F 
ATOM     76  F   UNL A   1      40.747  25.580  25.428  1.00  0.00    -0.200 F 
ENDBRANCH  52  66
BRANCH  53  77
ATOM     77  C   UNL A   1      39.650  33.914  36.812  1.00  0.00     0.064 A 
ATOM     78  C   UNL A   1      38.840  33.535  37.893  1.00  0.00     0.173 A 
ATOM     79  C   UNL A   1      40.329  35.137  36.905  1.00  0.00     0.173 A 
ATOM     80  F   UNL A   1      38.164  32.378  37.853  1.00  0.00    -0.203 F 
ATOM     81  C   UNL A   1      38.699  34.356  39.010  1.00  0.00     0.198 A 
ATOM     82  C   UNL A   1      40.211  35.942  38.037  1.00  0.00     0.198 A 
ATOM     83  F   UNL A   1      41.129  35.537  35.906  1.00  0.00    -0.203 F 
ATOM     84  F   UNL A   1      37.888  33.987  40.012  1.00  0.00    -0.200 F 
ATOM     85  C   UNL A   1      39.389  35.556  39.084  1.00  0.00     0.200 A 
ATOM     86  F   UNL A   1      40.899  37.090  38.113  1.00  0.00    -0.200 F 
ATOM     87  F   UNL A   1      39.263  36.338  40.165  1.00  0.00    -0.200 F 
ENDBRANCH  53  77
BRANCH  65  88
ATOM     88  C   UNL A   1      43.721  28.528  34.980  1.00  0.00     0.064 A 
ATOM     89  C   UNL A   1      45.056  28.926  34.797  1.00  0.00     0.173 A 
ATOM     90  C   UNL A   1      43.475  27.356  35.706  1.00  0.00     0.173 A 
ATOM     91  F   UNL A   1      45.342  30.034  34.099  1.00  0.00    -0.203 F 
ATOM     92  C   UNL A   1      46.104  28.154  35.288  1.00  0.00     0.198 A 
ATOM     93  C   UNL A   1      44.527  26.603  36.222  1.00  0.00     0.198 A 
ATOM     94  F   UNL A   1      42.216  26.943  35.916  1.00  0.00    -0.203 F 
ATOM     95  F   UNL A   1      47.371  28.522  35.052  1.00  0.00    -0.200 F 
ATOM     96  C   UNL A   1      45.839  26.993  35.999  1.00  0.00     0.200 A 
ATOM     97  F   UNL A   1      44.270  25.492  36.925  1.00  0.00    -0.200 F 
ATOM     98  F   UNL A   1      46.850  26.247  36.465  1.00  0.00    -0.200 F 
ENDBRANCH  65  88
ENDBRANCH  39  40
ENDBRANCH  31  34
ENDBRANCH  29  30
ENDBRANCH  28  29
ENDBRANCH   1  28
TORSDOF 15
ENDMDL
MODEL 2
REMARK VINA RESULT:     -13.1      1.343      3.902
REMARK SMILES CC1CC[NH+](CC(=O)N[C@H](Cc2cccc(F)c2)C(=O)NCCCNC(=O)c2ccc(-c3c4nc(c(-c5c(F)c(F)c(F)c(F)c5F)c5ccc([nH]5)c(-c5c(F)c(F)c(F)c(F)c5F)c5nc(c(-c6c(F)c(F)c(F)c(F)c6F)c6ccc3[nH]6)C=C5)C=C4)cc2)CC1
REMARK SMILES IDX 22 1 21 2 19 3 20 4 10 6 9 7 7 8 8 9 6 11 5 12 1 13 2 14
REMARK SMILES IDX 3 15 92 16 4 17 91 18 11 20 12 21 13 22 18 23 14 24 16 25
REMARK SMILES IDX 15 26 17 27 23 28 24 29 25 30 26 31 27 33 28 34 29 35 90 36
REMARK SMILES IDX 30 37 89 38 31 39 32 40 33 41 83 42 34 43 88 44 82 45 84 46
REMARK SMILES IDX 35 47 87 48 81 49 80 50 36 52 68 53 48 54 67 55 49 56 52 57
REMARK SMILES IDX 66 58 85 59 50 60 51 61 65 63 86 64 53 65 37 66 38 67 46 68
REMARK SMILES IDX 39 69 40 70 44 71 47 72 41 73 42 74 45 75 43 76 69 77 70 78
REMARK SMILES IDX 78 79 71 80 72 81 76 82 79 83 73 84 74 85 77 86 75 87 54 88
REMARK SMILES IDX 55 89 63 90 56 91 57 92 61 93 64 94 58 95 59 96 62 97 60 98
REMARK H PARENT 21 5 9 10 5 19 25 32 84 51 52 62
REMARK Flexibility Score: inf
ROOT
ATOM      1  C   UNL A   1      32.130  30.218  26.986  1.00  0.00     0.117 C 
ENDROOT
BRANCH   1   2
ATOM      2  N   UNL A   1      32.950  29.774  25.867  1.00  0.00    -0.354 N 
ATOM      3  C   UNL A   1      32.800  28.651  25.098  1.00  0.00     0.242 C 
ATOM      4  O   UNL A   1      33.808  28.137  24.612  1.00  0.00    -0.273 OA
ATOM      5  H   UNL A   1      33.711  30.355  25.635  1.00  0.00     0.163 HD
BRANCH   3   6
ATOM      6  C   UNL A   1      31.401  28.035  24.913  1.00  0.00     0.175 C 
BRANCH   6   7
ATOM      7  N   UNL A   1      31.350  26.926  25.889  1.00  0.00    -0.339 N 
ATOM      8  C   UNL A   1      31.557  25.588  25.853  1.00  0.00     0.275 C 
ATOM      9  O   UNL A   1      31.255  24.973  26.881  1.00  0.00    -0.268 OA
ATOM     10  H   UNL A   1      31.104  27.238  26.790  1.00  0.00     0.164 HD
BRANCH   8  11
ATOM     11  C   UNL A   1      32.194  24.894  24.668  1.00  0.00     0.363 C 
BRANCH  11  12
ATOM     12  N   UNL A   1      33.625  25.100  24.404  1.00  0.00    -0.327 N 
ATOM     13  C   UNL A   1      34.875  21.118  24.868  1.00  0.00     0.008 C 
ATOM     14  C   UNL A   1      35.162  22.600  24.610  1.00  0.00    -0.003 C 
ATOM     15  C   UNL A   1      34.750  23.421  25.843  1.00  0.00     0.065 C 
ATOM     16  C   UNL A   1      34.487  23.027  23.300  1.00  0.00     0.065 C 
ATOM     17  C   UNL A   1      34.498  24.891  25.548  1.00  0.00     0.262 C 
ATOM     18  C   UNL A   1      34.205  24.523  23.205  1.00  0.00     0.262 C 
ATOM     19  H   UNL A   1      33.585  26.099  24.198  1.00  0.00     0.348 HD
ENDBRANCH  11  12
ENDBRANCH   8  11
ENDBRANCH   6   7
BRANCH   6  20
ATOM     20  C   UNL A   1      31.137  27.704  23.427  1.00  0.00     0.070 C 
BRANCH  20  21
ATOM     21  C   UNL A   1      29.907  28.397  22.873  1.00  0.00    -0.043 A 
ATOM     22  C   UNL A   1      30.031  29.542  22.070  1.00  0.00     0.004 A 
ATOM     23  C   UNL A   1      28.625  27.979  23.257  1.00  0.00     0.043 A 
ATOM     24  C   UNL A   1      28.913  30.334  21.783  1.00  0.00     0.003 A 
ATOM     25  C   UNL A   1      27.525  28.793  22.993  1.00  0.00     0.123 A 
ATOM     26  C   UNL A   1      27.663  29.978  22.282  1.00  0.00     0.039 A 
ATOM     27  F   UNL A   1      26.331  28.464  23.504  1.00  0.00    -0.207 F 
ENDBRANCH  20  21
ENDBRANCH   6  20
ENDBRANCH   3   6
ENDBRANCH   1   2
BRANCH   1  28
ATOM     28  C   UNL A   1      31.882  31.715  26.891  1.00  0.00     0.042 C 
BRANCH  28  29
ATOM     29  C   UNL A   1      33.089  32.521  27.348  1.00  0.00     0.118 C 
BRANCH  29  30
ATOM     30  N   UNL A   1      32.742  33.918  27.580  1.00  0.00    -0.352 N 
ATOM     31  C   UNL A   1      33.146  34.744  28.598  1.00  0.00     0.251 C 
ATOM     32  H   UNL A   1      32.137  34.323  26.918  1.00  0.00     0.163 HD
ATOM     33  O   UNL A   1      32.544  35.789  28.833  1.00  0.00    -0.269 OA
BRANCH  31  34
ATOM     34  C   UNL A   1      34.303  34.347  29.418  1.00  0.00     0.039 A 
ATOM     35  C   UNL A   1      34.098  33.664  30.617  1.00  0.00     0.014 A 
ATOM     36  C   UNL A   1      35.596  34.614  28.962  1.00  0.00     0.014 A 
ATOM     37  C   UNL A   1      35.199  33.169  31.316  1.00  0.00     0.010 A 
ATOM     38  C   UNL A   1      36.679  34.031  29.599  1.00  0.00     0.010 A 
ATOM     39  C   UNL A   1      36.491  33.303  30.782  1.00  0.00    -0.014 A 
BRANCH  39  40
ATOM     40  C   UNL A   1      37.674  32.686  31.429  1.00  0.00     0.031 A 
ATOM     41  C   UNL A   1      38.371  31.537  30.760  1.00  0.00     0.074 A 
ATOM     42  C   UNL A   1      38.052  33.098  32.655  1.00  0.00     0.049 A 
ATOM     43  N   UNL A   1      39.326  30.771  31.220  1.00  0.00    -0.248 NA
ATOM     44  C   UNL A   1      37.916  31.180  29.406  1.00  0.00     0.031 C 
ATOM     45  C   UNL A   1      37.423  34.180  33.415  1.00  0.00     0.029 A 
ATOM     46  N   UNL A   1      39.047  32.646  33.486  1.00  0.00    -0.354 N 
ATOM     47  C   UNL A   1      39.576  29.841  30.221  1.00  0.00     0.074 A 
ATOM     48  C   UNL A   1      38.636  30.097  29.153  1.00  0.00     0.031 C 
ATOM     49  C   UNL A   1      38.058  34.322  34.588  1.00  0.00     0.029 A 
ATOM     50  C   UNL A   1      39.102  33.307  34.690  1.00  0.00     0.049 A 
ATOM     51  H   UNL A   1      39.662  31.916  33.243  1.00  0.00     0.167 HD
ATOM     52  C   UNL A   1      40.524  28.878  30.191  1.00  0.00     0.037 A 
ATOM     53  C   UNL A   1      39.892  33.104  35.762  1.00  0.00     0.037 A 
ATOM     54  C   UNL A   1      41.474  28.654  31.247  1.00  0.00     0.049 A 
ATOM     55  C   UNL A   1      40.917  32.003  35.715  1.00  0.00     0.074 A 
ATOM     56  C   UNL A   1      42.512  27.741  31.286  1.00  0.00     0.029 A 
ATOM     57  N   UNL A   1      41.502  29.349  32.447  1.00  0.00    -0.354 N 
ATOM     58  N   UNL A   1      41.180  31.165  34.742  1.00  0.00    -0.248 NA
ATOM     59  C   UNL A   1      41.751  31.813  36.910  1.00  0.00     0.031 C 
ATOM     60  C   UNL A   1      43.133  27.844  32.531  1.00  0.00     0.029 A 
ATOM     61  C   UNL A   1      42.523  28.863  33.245  1.00  0.00     0.049 A 
ATOM     62  H   UNL A   1      40.888  30.079  32.693  1.00  0.00     0.167 HD
ATOM     63  C   UNL A   1      42.222  30.367  35.196  1.00  0.00     0.074 A 
ATOM     64  C   UNL A   1      42.552  30.828  36.528  1.00  0.00     0.031 C 
ATOM     65  C   UNL A   1      42.846  29.345  34.563  1.00  0.00     0.037 A 
BRANCH  52  66
ATOM     66  C   UNL A   1      40.610  28.004  28.975  1.00  0.00     0.064 A 
ATOM     67  C   UNL A   1      41.381  28.397  27.870  1.00  0.00     0.173 A 
ATOM     68  C   UNL A   1      39.848  26.833  28.862  1.00  0.00     0.173 A 
ATOM     69  F   UNL A   1      42.125  29.512  27.927  1.00  0.00    -0.203 F 
ATOM     70  C   UNL A   1      41.362  27.664  26.688  1.00  0.00     0.198 A 
ATOM     71  C   UNL A   1      39.855  26.084  27.688  1.00  0.00     0.198 A 
ATOM     72  F   UNL A   1      39.104  26.408  29.895  1.00  0.00    -0.203 F 
ATOM     73  F   UNL A   1      42.070  28.082  25.629  1.00  0.00    -0.200 F 
ATOM     74  C   UNL A   1      40.600  26.508  26.598  1.00  0.00     0.200 A 
ATOM     75  F   UNL A   1      39.135  24.957  27.611  1.00  0.00    -0.200 F 
ATOM     76  F   UNL A   1      40.581  25.803  25.458  1.00  0.00    -0.200 F 
ENDBRANCH  52  66
BRANCH  53  77
ATOM     77  C   UNL A   1      39.748  33.974  36.960  1.00  0.00     0.064 A 
ATOM     78  C   UNL A   1      38.934  33.603  38.041  1.00  0.00     0.173 A 
ATOM     79  C   UNL A   1      40.402  35.211  37.033  1.00  0.00     0.173 A 
ATOM     80  F   UNL A   1      38.281  32.431  38.019  1.00  0.00    -0.203 F 
ATOM     81  C   UNL A   1      38.764  34.445  39.138  1.00  0.00     0.198 A 
ATOM     82  C   UNL A   1      40.256  36.039  38.145  1.00  0.00     0.198 A 
ATOM     83  F   UNL A   1      41.205  35.604  36.033  1.00  0.00    -0.203 F 
ATOM     84  F   UNL A   1      37.949  34.082  40.138  1.00  0.00    -0.200 F 
ATOM     85  C   UNL A   1      39.430  35.660  39.192  1.00  0.00     0.200 A 
ATOM     86  F   UNL A   1      40.920  37.202  38.203  1.00  0.00    -0.200 F 
ATOM     87  F   UNL A   1      39.277  36.463  40.253  1.00  0.00    -0.200 F 
ENDBRANCH  53  77
BRANCH  65  88
ATOM     88  C   UNL A   1      43.967  28.652  35.279  1.00  0.00     0.064 A 
ATOM     89  C   UNL A   1      45.297  29.043  35.054  1.00  0.00     0.173 A 
ATOM     90  C   UNL A   1      43.738  27.522  36.074  1.00  0.00     0.173 A 
ATOM     91  F   UNL A   1      45.568  30.111  34.289  1.00  0.00    -0.203 F 
ATOM     92  C   UNL A   1      46.356  28.305  35.572  1.00  0.00     0.198 A 
ATOM     93  C   UNL A   1      44.800  26.804  36.616  1.00  0.00     0.198 A 
ATOM     94  F   UNL A   1      42.483  27.118  36.326  1.00  0.00    -0.203 F 
ATOM     95  F   UNL A   1      47.618  28.663  35.296  1.00  0.00    -0.200 F 
ATOM     96  C   UNL A   1      46.107  27.186  36.352  1.00  0.00     0.200 A 
ATOM     97  F   UNL A   1      44.558  25.734  37.386  1.00  0.00    -0.200 F 
ATOM     98  F   UNL A   1      47.128  26.471  36.843  1.00  0.00    -0.200 F 
ENDBRANCH  65  88
ENDBRANCH  39  40
ENDBRANCH  31  34
ENDBRANCH  29  30
ENDBRANCH  28  29
ENDBRANCH   1  28
TORSDOF 15
ENDMDL
MODEL 3
REMARK VINA RESULT:     -13.0      2.196      4.149
REMARK SMILES CC1CC[NH+](CC(=O)N[C@H](Cc2cccc(F)c2)C(=O)NCCCNC(=O)c2ccc(-c3c4nc(c(-c5c(F)c(F)c(F)c(F)c5F)c5ccc([nH]5)c(-c5c(F)c(F)c(F)c(F)c5F)c5nc(c(-c6c(F)c(F)c(F)c(F)c6F)c6ccc3[nH]6)C=C5)C=C4)cc2)CC1
REMARK SMILES IDX 22 1 21 2 19 3 20 4 10 6 9 7 7 8 8 9 6 11 5 12 1 13 2 14
REMARK SMILES IDX 3 15 92 16 4 17 91 18 11 20 12 21 13 22 18 23 14 24 16 25
REMARK SMILES IDX 15 26 17 27 23 28 24 29 25 30 26 31 27 33 28 34 29 35 90 36
REMARK SMILES IDX 30 37 89 38 31 39 32 40 33 41 83 42 34 43 88 44 82 45 84 46
REMARK SMILES IDX 35 47 87 48 81 49 80 50 36 52 68 53 48 54 67 55 49 56 52 57
REMARK SMILES IDX 66 58 85 59 50 60 51 61 65 63 86 64 53 65 37 66 38 67 46 68
REMARK SMILES IDX 39 69 40 70 44 71 47 72 41 73 42 74 45 75 43 76 69 77 70 78
REMARK SMILES IDX 78 79 71 80 72 81 76 82 79 83 73 84 74 85 77 86 75 87 54 88
REMARK SMILES IDX 55 89 63 90 56 91 57 92 61 93 64 94 58 95 59 96 62 97 60 98
REMARK H PARENT 21 5 9 10 5 19 25 32 84 51 52 62
REMARK Flexibility Score: inf
ROOT
ATOM      1  C   UNL A   1      33.016  28.906  25.418  1.00  0.00     0.117 C 
ENDROOT
BRANCH   1   2
ATOM      2  N   UNL A   1      33.789  29.179  24.213  1.00  0.00    -0.354 N 
ATOM      3  C   UNL A   1      33.635  28.639  22.964  1.00  0.00     0.242 C 
ATOM      4  O   UNL A   1      34.632  28.525  22.251  1.00  0.00    -0.273 OA
ATOM      5  H   UNL A   1      34.516  29.837  24.310  1.00  0.00     0.163 HD
BRANCH   3   6
ATOM      6  C   UNL A   1      32.250  28.139  22.516  1.00  0.00     0.175 C 
BRANCH   6   7
ATOM      7  N   UNL A   1      32.537  27.097  21.510  1.00  0.00    -0.339 N 
ATOM      8  C   UNL A   1      32.827  25.774  21.533  1.00  0.00     0.275 C 
ATOM      9  O   UNL A   1      33.163  25.280  20.452  1.00  0.00    -0.268 OA
ATOM     10  H   UNL A   1      32.511  27.452  20.592  1.00  0.00     0.164 HD
BRANCH   8  11
ATOM     11  C   UNL A   1      32.674  24.929  22.781  1.00  0.00     0.363 C 
BRANCH  11  12
ATOM     12  N   UNL A   1      31.804  23.746  22.738  1.00  0.00    -0.327 N 
ATOM     13  C   UNL A   1      32.774  22.184  26.514  1.00  0.00     0.008 C 
ATOM     14  C   UNL A   1      32.031  22.115  25.177  1.00  0.00    -0.003 C 
ATOM     15  C   UNL A   1      33.052  22.035  24.030  1.00  0.00     0.065 C 
ATOM     16  C   UNL A   1      31.050  23.291  25.080  1.00  0.00     0.065 C 
ATOM     17  C   UNL A   1      32.501  22.471  22.682  1.00  0.00     0.262 C 
ATOM     18  C   UNL A   1      30.677  23.674  23.651  1.00  0.00     0.262 C 
ATOM     19  H   UNL A   1      31.371  23.925  21.832  1.00  0.00     0.348 HD
ENDBRANCH  11  12
ENDBRANCH   8  11
ENDBRANCH   6   7
BRANCH   6  20
ATOM     20  C   UNL A   1      31.348  29.322  22.096  1.00  0.00     0.070 C 
BRANCH  20  21
ATOM     21  C   UNL A   1      29.969  29.272  22.725  1.00  0.00    -0.043 A 
ATOM     22  C   UNL A   1      29.323  28.042  22.935  1.00  0.00     0.004 A 
ATOM     23  C   UNL A   1      29.266  30.455  22.989  1.00  0.00     0.043 A 
ATOM     24  C   UNL A   1      27.962  28.000  23.258  1.00  0.00     0.003 A 
ATOM     25  C   UNL A   1      27.904  30.400  23.278  1.00  0.00     0.123 A 
ATOM     26  C   UNL A   1      27.242  29.185  23.390  1.00  0.00     0.039 A 
ATOM     27  F   UNL A   1      27.209  31.542  23.370  1.00  0.00    -0.207 F 
ENDBRANCH  20  21
ENDBRANCH   6  20
ENDBRANCH   3   6
ENDBRANCH   1   2
BRANCH   1  28
ATOM     28  C   UNL A   1      32.097  30.077  25.727  1.00  0.00     0.042 C 
BRANCH  28  29
ATOM     29  C   UNL A   1      32.382  30.676  27.096  1.00  0.00     0.118 C 
BRANCH  29  30
ATOM     30  N   UNL A   1      32.435  32.133  27.041  1.00  0.00    -0.352 N 
ATOM     31  C   UNL A   1      33.344  32.980  27.621  1.00  0.00     0.251 C 
ATOM     32  H   UNL A   1      31.723  32.566  26.519  1.00  0.00     0.163 HD
ATOM     33  O   UNL A   1      33.097  34.177  27.744  1.00  0.00    -0.269 OA
BRANCH  31  34
ATOM     34  C   UNL A   1      34.618  32.425  28.113  1.00  0.00     0.039 A 
ATOM     35  C   UNL A   1      35.760  33.225  28.126  1.00  0.00     0.014 A 
ATOM     36  C   UNL A   1      34.656  31.119  28.608  1.00  0.00     0.014 A 
ATOM     37  C   UNL A   1      36.925  32.740  28.722  1.00  0.00     0.010 A 
ATOM     38  C   UNL A   1      35.778  30.681  29.291  1.00  0.00     0.010 A 
ATOM     39  C   UNL A   1      36.923  31.487  29.356  1.00  0.00    -0.014 A 
BRANCH  39  40
ATOM     40  C   UNL A   1      38.100  30.986  30.106  1.00  0.00     0.031 A 
ATOM     41  C   UNL A   1      39.008  29.974  29.470  1.00  0.00     0.074 A 
ATOM     42  C   UNL A   1      38.287  31.371  31.384  1.00  0.00     0.049 A 
ATOM     43  N   UNL A   1      40.000  29.308  30.002  1.00  0.00    -0.248 NA
ATOM     44  C   UNL A   1      38.752  29.642  28.059  1.00  0.00     0.031 C 
ATOM     45  C   UNL A   1      37.444  32.319  32.113  1.00  0.00     0.029 A 
ATOM     46  N   UNL A   1      39.238  30.999  32.302  1.00  0.00    -0.354 N 
ATOM     47  C   UNL A   1      40.475  28.476  28.998  1.00  0.00     0.074 A 
ATOM     48  C   UNL A   1      39.630  28.674  27.842  1.00  0.00     0.031 C 
ATOM     49  C   UNL A   1      37.926  32.471  33.356  1.00  0.00     0.029 A 
ATOM     50  C   UNL A   1      39.077  31.591  33.532  1.00  0.00     0.049 A 
ATOM     51  H   UNL A   1      39.965  30.367  32.098  1.00  0.00     0.167 HD
ATOM     52  C   UNL A   1      41.539  27.643  29.034  1.00  0.00     0.037 A 
ATOM     53  C   UNL A   1      39.768  31.427  34.677  1.00  0.00     0.037 A 
ATOM     54  C   UNL A   1      42.391  27.478  30.180  1.00  0.00     0.049 A 
ATOM     55  C   UNL A   1      40.927  30.467  34.698  1.00  0.00     0.074 A 
ATOM     56  C   UNL A   1      43.529  26.701  30.297  1.00  0.00     0.029 A 
ATOM     57  N   UNL A   1      42.199  28.101  31.405  1.00  0.00    -0.354 N 
ATOM     58  N   UNL A   1      41.400  29.726  33.725  1.00  0.00    -0.248 NA
ATOM     59  C   UNL A   1      41.645  30.314  35.971  1.00  0.00     0.031 C 
ATOM     60  C   UNL A   1      43.995  26.809  31.608  1.00  0.00     0.029 A 
ATOM     61  C   UNL A   1      43.184  27.700  32.292  1.00  0.00     0.049 A 
ATOM     62  H   UNL A   1      41.473  28.732  31.611  1.00  0.00     0.167 HD
ATOM     63  C   UNL A   1      42.482  29.040  34.259  1.00  0.00     0.074 A 
ATOM     64  C   UNL A   1      42.604  29.460  35.639  1.00  0.00     0.031 C 
ATOM     65  C   UNL A   1      43.298  28.142  33.658  1.00  0.00     0.037 A 
BRANCH  52  66
ATOM     66  C   UNL A   1      41.868  26.858  27.799  1.00  0.00     0.064 A 
ATOM     67  C   UNL A   1      41.327  25.578  27.604  1.00  0.00     0.173 A 
ATOM     68  C   UNL A   1      42.800  27.328  26.863  1.00  0.00     0.173 A 
ATOM     69  F   UNL A   1      40.434  25.082  28.473  1.00  0.00    -0.203 F 
ATOM     70  C   UNL A   1      41.729  24.788  26.531  1.00  0.00     0.198 A 
ATOM     71  C   UNL A   1      43.178  26.547  25.774  1.00  0.00     0.198 A 
ATOM     72  F   UNL A   1      43.337  28.550  26.998  1.00  0.00    -0.203 F 
ATOM     73  F   UNL A   1      41.233  23.550  26.389  1.00  0.00    -0.200 F 
ATOM     74  C   UNL A   1      42.653  25.273  25.617  1.00  0.00     0.200 A 
ATOM     75  F   UNL A   1      44.053  27.025  24.880  1.00  0.00    -0.200 F 
ATOM     76  F   UNL A   1      43.040  24.510  24.585  1.00  0.00    -0.200 F 
ENDBRANCH  52  66
BRANCH  53  77
ATOM     77  C   UNL A   1      39.384  32.200  35.887  1.00  0.00     0.064 A 
ATOM     78  C   UNL A   1      38.440  31.709  36.803  1.00  0.00     0.173 A 
ATOM     79  C   UNL A   1      39.934  33.465  36.136  1.00  0.00     0.173 A 
ATOM     80  F   UNL A   1      37.878  30.507  36.608  1.00  0.00    -0.203 F 
ATOM     81  C   UNL A   1      38.048  32.461  37.908  1.00  0.00     0.198 A 
ATOM     82  C   UNL A   1      39.564  34.203  37.259  1.00  0.00     0.198 A 
ATOM     83  F   UNL A   1      40.852  33.973  35.301  1.00  0.00    -0.203 F 
ATOM     84  F   UNL A   1      37.116  31.983  38.744  1.00  0.00    -0.200 F 
ATOM     85  C   UNL A   1      38.614  33.705  38.139  1.00  0.00     0.200 A 
ATOM     86  F   UNL A   1      40.131  35.395  37.491  1.00  0.00    -0.200 F 
ATOM     87  F   UNL A   1      38.248  34.423  39.209  1.00  0.00    -0.200 F 
ENDBRANCH  53  77
BRANCH  65  88
ATOM     88  C   UNL A   1      44.417  27.555  34.465  1.00  0.00     0.064 A 
ATOM     89  C   UNL A   1      45.671  28.186  34.498  1.00  0.00     0.173 A 
ATOM     90  C   UNL A   1      44.290  26.307  35.089  1.00  0.00     0.173 A 
ATOM     91  F   UNL A   1      45.845  29.376  33.905  1.00  0.00    -0.203 F 
ATOM     92  C   UNL A   1      46.765  27.569  35.097  1.00  0.00     0.198 A 
ATOM     93  C   UNL A   1      45.381  25.707  35.714  1.00  0.00     0.198 A 
ATOM     94  F   UNL A   1      43.108  25.671  35.093  1.00  0.00    -0.203 F 
ATOM     95  F   UNL A   1      47.966  28.164  35.066  1.00  0.00    -0.200 F 
ATOM     96  C   UNL A   1      46.619  26.331  35.703  1.00  0.00     0.200 A 
ATOM     97  F   UNL A   1      45.234  24.520  36.316  1.00  0.00    -0.200 F 
ATOM     98  F   UNL A   1      47.676  25.735  36.273  1.00  0.00    -0.200 F 
ENDBRANCH  65  88
ENDBRANCH  39  40
ENDBRANCH  31  34
ENDBRANCH  29  30
ENDBRANCH  28  29
ENDBRANCH   1  28
TORSDOF 15
ENDMDL
