MODEL 1
REMARK VINA RESULT:     -13.8      0.000      0.000
REMARK SMILES O=C(NCCCNC(=O)[C@@H](Cc1c[nH]c2ccccc12)Nc1ncnc2ccccc12)c1ccc(-c2c3nc(c(-c4c(F)c(F)c(F)c(F)c4F)c4ccc([nH]4)c(-c4c(F)c(F)c(F)c(F)c4F)c4nc(c(-c5c(F)c(F)c(F)c(F)c5F)c5ccc2[nH]5)C=C4)C=C3)cc1
REMARK SMILES IDX 5 1 4 2 3 3 1 4 2 5 32 7 33 8 94 9 34 10 93 11 35 12 36 13
REMARK SMILES IDX 37 14 87 15 38 16 92 17 86 18 88 19 39 20 91 21 85 22 84 23
REMARK SMILES IDX 40 25 72 26 52 27 71 28 53 29 56 30 70 31 89 32 54 33 55 34
REMARK SMILES IDX 69 36 90 37 57 38 41 39 42 40 50 41 43 42 44 43 48 44 51 45
REMARK SMILES IDX 45 46 46 47 49 48 47 49 73 50 74 51 82 52 75 53 76 54 80 55
REMARK SMILES IDX 83 56 77 57 78 58 81 59 79 60 58 61 59 62 67 63 60 64 61 65
REMARK SMILES IDX 65 66 68 67 62 68 63 69 66 70 64 71 6 72 7 73 8 74 9 76
REMARK SMILES IDX 10 77 11 78 12 79 13 80 20 81 14 82 15 83 19 84 16 86 18 87
REMARK SMILES IDX 17 88 21 89 22 91 23 92 31 93 24 94 26 95 30 96 25 97 27 98
REMARK SMILES IDX 29 99 28 100
REMARK H PARENT 3 6 88 24 56 35 7 75 14 85 21 90
REMARK Flexibility Score: inf
ROOT
ATOM      1  C   UNL A   1      31.442  32.207  26.510  1.00  0.00     0.042 C 
ENDROOT
BRANCH   1   2
ATOM      2  C   UNL A   1      32.594  32.766  27.333  1.00  0.00     0.118 C 
BRANCH   2   3
ATOM      3  N   UNL A   1      32.410  34.176  27.631  1.00  0.00    -0.352 N 
ATOM      4  O   UNL A   1      32.417  36.085  28.784  1.00  0.00    -0.269 OA
ATOM      5  C   UNL A   1      32.941  34.984  28.604  1.00  0.00     0.251 C 
ATOM      6  H   UNL A   1      31.790  34.636  27.022  1.00  0.00     0.163 HD
BRANCH   5   7
ATOM      7  C   UNL A   1      34.115  34.610  29.441  1.00  0.00     0.039 A 
ATOM      8  C   UNL A   1      34.000  34.098  30.733  1.00  0.00     0.014 A 
ATOM      9  C   UNL A   1      35.381  34.608  28.831  1.00  0.00     0.014 A 
ATOM     10  C   UNL A   1      35.128  33.648  31.427  1.00  0.00     0.010 A 
ATOM     11  C   UNL A   1      36.497  34.072  29.488  1.00  0.00     0.010 A 
ATOM     12  C   UNL A   1      36.377  33.572  30.789  1.00  0.00    -0.014 A 
BRANCH  12  13
ATOM     13  C   UNL A   1      37.480  32.802  31.429  1.00  0.00     0.031 A 
ATOM     14  C   UNL A   1      38.121  31.621  30.761  1.00  0.00     0.074 A 
ATOM     15  C   UNL A   1      37.890  33.176  32.660  1.00  0.00     0.049 A 
ATOM     16  N   UNL A   1      39.096  30.860  31.194  1.00  0.00    -0.248 NA
ATOM     17  C   UNL A   1      37.596  31.229  29.444  1.00  0.00     0.031 C 
ATOM     18  C   UNL A   1      37.310  34.272  33.442  1.00  0.00     0.029 A 
ATOM     19  N   UNL A   1      38.886  32.688  33.469  1.00  0.00    -0.354 N 
ATOM     20  C   UNL A   1      39.293  29.895  30.217  1.00  0.00     0.074 A 
ATOM     21  C   UNL A   1      38.324  30.153  29.172  1.00  0.00     0.031 C 
ATOM     22  C   UNL A   1      37.983  34.398  34.595  1.00  0.00     0.029 A 
ATOM     23  C   UNL A   1      39.005  33.361  34.662  1.00  0.00     0.049 A 
ATOM     24  H   UNL A   1      39.461  31.928  33.219  1.00  0.00     0.167 HD
ATOM     25  C   UNL A   1      40.204  28.892  30.195  1.00  0.00     0.037 A 
ATOM     26  C   UNL A   1      39.829  33.157  35.707  1.00  0.00     0.037 A 
ATOM     27  C   UNL A   1      41.185  28.652  31.222  1.00  0.00     0.049 A 
ATOM     28  C   UNL A   1      40.825  32.036  35.648  1.00  0.00     0.074 A 
ATOM     29  C   UNL A   1      42.209  27.720  31.234  1.00  0.00     0.029 A 
ATOM     30  N   UNL A   1      41.259  29.339  32.423  1.00  0.00    -0.354 N 
ATOM     31  N   UNL A   1      41.051  31.184  34.681  1.00  0.00    -0.248 NA
ATOM     32  C   UNL A   1      41.674  31.844  36.833  1.00  0.00     0.031 C 
ATOM     33  C   UNL A   1      42.875  27.812  32.461  1.00  0.00     0.029 A 
ATOM     34  C   UNL A   1      42.288  28.826  33.199  1.00  0.00     0.049 A 
ATOM     35  H   UNL A   1      40.668  30.081  32.687  1.00  0.00     0.167 HD
ATOM     36  C   UNL A   1      42.063  30.354  35.135  1.00  0.00     0.074 A 
ATOM     37  C   UNL A   1      42.431  30.823  36.455  1.00  0.00     0.031 C 
ATOM     38  C   UNL A   1      42.630  29.290  34.518  1.00  0.00     0.037 A 
BRANCH  25  39
ATOM     39  C   UNL A   1      40.196  27.959  29.021  1.00  0.00     0.064 A 
ATOM     40  C   UNL A   1      40.949  28.228  27.868  1.00  0.00     0.173 A 
ATOM     41  C   UNL A   1      39.508  26.739  29.090  1.00  0.00     0.173 A 
ATOM     42  F   UNL A   1      41.620  29.383  27.754  1.00  0.00    -0.203 F 
ATOM     43  C   UNL A   1      41.008  27.307  26.824  1.00  0.00     0.198 A 
ATOM     44  C   UNL A   1      39.582  25.815  28.050  1.00  0.00     0.198 A 
ATOM     45  F   UNL A   1      38.781  26.434  30.175  1.00  0.00    -0.203 F 
ATOM     46  F   UNL A   1      41.719  27.590  25.724  1.00  0.00    -0.200 F 
ATOM     47  C   UNL A   1      40.332  26.100  26.919  1.00  0.00     0.200 A 
ATOM     48  F   UNL A   1      38.938  24.644  28.148  1.00  0.00    -0.200 F 
ATOM     49  F   UNL A   1      40.403  25.210  25.920  1.00  0.00    -0.200 F 
ENDBRANCH  25  39
BRANCH  26  50
ATOM     50  C   UNL A   1      39.730  34.027  36.906  1.00  0.00     0.064 A 
ATOM     51  C   UNL A   1      40.442  35.231  36.986  1.00  0.00     0.173 A 
ATOM     52  C   UNL A   1      38.921  33.670  37.995  1.00  0.00     0.173 A 
ATOM     53  F   UNL A   1      41.245  35.602  35.979  1.00  0.00    -0.203 F 
ATOM     54  C   UNL A   1      40.357  36.040  38.117  1.00  0.00     0.198 A 
ATOM     55  C   UNL A   1      38.817  34.493  39.113  1.00  0.00     0.198 A 
ATOM     56  F   UNL A   1      38.220  32.527  37.964  1.00  0.00    -0.203 F 
ATOM     57  F   UNL A   1      41.078  37.168  38.186  1.00  0.00    -0.200 F 
ATOM     58  C   UNL A   1      39.540  35.674  39.177  1.00  0.00     0.200 A 
ATOM     59  F   UNL A   1      38.017  34.142  40.129  1.00  0.00    -0.200 F 
ATOM     60  F   UNL A   1      39.456  36.456  40.262  1.00  0.00    -0.200 F 
ENDBRANCH  26  50
BRANCH  38  61
ATOM     61  C   UNL A   1      43.697  28.557  35.271  1.00  0.00     0.064 A 
ATOM     62  C   UNL A   1      45.050  28.893  35.124  1.00  0.00     0.173 A 
ATOM     63  C   UNL A   1      43.366  27.524  36.159  1.00  0.00     0.173 A 
ATOM     64  F   UNL A   1      45.415  29.861  34.269  1.00  0.00    -0.203 F 
ATOM     65  C   UNL A   1      46.038  28.209  35.826  1.00  0.00     0.198 A 
ATOM     66  C   UNL A   1      44.354  26.856  36.878  1.00  0.00     0.198 A 
ATOM     67  F   UNL A   1      42.085  27.165  36.335  1.00  0.00    -0.203 F 
ATOM     68  F   UNL A   1      47.328  28.519  35.639  1.00  0.00    -0.200 F 
ATOM     69  C   UNL A   1      45.689  27.195  36.706  1.00  0.00     0.200 A 
ATOM     70  F   UNL A   1      44.016  25.881  37.733  1.00  0.00    -0.200 F 
ATOM     71  F   UNL A   1      46.640  26.537  37.383  1.00  0.00    -0.200 F 
ENDBRANCH  38  61
ENDBRANCH  12  13
ENDBRANCH   5   7
ENDBRANCH   2   3
ENDBRANCH   1   2
BRANCH   1  72
ATOM     72  C   UNL A   1      31.400  30.681  26.473  1.00  0.00     0.117 C 
BRANCH  72  73
ATOM     73  N   UNL A   1      32.689  30.143  26.065  1.00  0.00    -0.354 N 
ATOM     74  C   UNL A   1      33.151  28.870  25.932  1.00  0.00     0.242 C 
ATOM     75  H   UNL A   1      33.355  30.834  25.843  1.00  0.00     0.163 HD
ATOM     76  O   UNL A   1      34.383  28.751  25.881  1.00  0.00    -0.273 OA
BRANCH  74  77
ATOM     77  C   UNL A   1      32.255  27.614  25.820  1.00  0.00     0.174 C 
BRANCH  77  78
ATOM     78  C   UNL A   1      31.765  27.295  24.396  1.00  0.00     0.072 C 
BRANCH  78  79
ATOM     79  C   UNL A   1      30.306  27.362  24.048  1.00  0.00    -0.020 A 
ATOM     80  C   UNL A   1      29.450  26.272  24.039  1.00  0.00     0.087 A 
ATOM     81  C   UNL A   1      29.544  28.476  23.556  1.00  0.00     0.003 A 
ATOM     82  N   UNL A   1      28.208  26.695  23.653  1.00  0.00    -0.361 N 
ATOM     83  C   UNL A   1      28.227  28.043  23.390  1.00  0.00     0.046 A 
ATOM     84  C   UNL A   1      29.835  29.824  23.256  1.00  0.00     0.010 A 
ATOM     85  H   UNL A   1      27.416  26.116  23.576  1.00  0.00     0.166 HD
ATOM     86  C   UNL A   1      27.184  28.899  23.014  1.00  0.00     0.026 A 
ATOM     87  C   UNL A   1      28.805  30.696  22.886  1.00  0.00     0.001 A 
ATOM     88  C   UNL A   1      27.495  30.239  22.780  1.00  0.00     0.002 A 
ENDBRANCH  78  79
ENDBRANCH  77  78
BRANCH  77  89
ATOM     89  N   UNL A   1      32.801  26.468  26.547  1.00  0.00    -0.358 N 
ATOM     90  H   UNL A   1      33.358  26.670  27.333  1.00  0.00     0.162 HD
BRANCH  89  91
ATOM     91  C   UNL A   1      32.620  25.138  26.249  1.00  0.00     0.137 A 
ATOM     92  N   UNL A   1      31.501  24.671  26.833  1.00  0.00    -0.219 NA
ATOM     93  C   UNL A   1      33.477  24.303  25.501  1.00  0.00     0.043 A 
ATOM     94  C   UNL A   1      31.207  23.382  26.640  1.00  0.00     0.224 A 
ATOM     95  C   UNL A   1      33.050  22.968  25.384  1.00  0.00     0.076 A 
ATOM     96  C   UNL A   1      34.718  24.653  24.902  1.00  0.00     0.014 A 
ATOM     97  N   UNL A   1      31.926  22.508  25.935  1.00  0.00    -0.236 NA
ATOM     98  C   UNL A   1      33.832  22.060  24.680  1.00  0.00     0.029 A 
ATOM     99  C   UNL A   1      35.488  23.727  24.198  1.00  0.00     0.001 A 
ATOM    100  C   UNL A   1      35.041  22.423  24.085  1.00  0.00     0.002 A 
ENDBRANCH  89  91
ENDBRANCH  77  89
ENDBRANCH  74  77
ENDBRANCH  72  73
ENDBRANCH   1  72
TORSDOF 14
ENDMDL
MODEL 2
REMARK VINA RESULT:     -13.8      2.030      8.306
REMARK SMILES O=C(NCCCNC(=O)[C@@H](Cc1c[nH]c2ccccc12)Nc1ncnc2ccccc12)c1ccc(-c2c3nc(c(-c4c(F)c(F)c(F)c(F)c4F)c4ccc([nH]4)c(-c4c(F)c(F)c(F)c(F)c4F)c4nc(c(-c5c(F)c(F)c(F)c(F)c5F)c5ccc2[nH]5)C=C4)C=C3)cc1
REMARK SMILES IDX 5 1 4 2 3 3 1 4 2 5 32 7 33 8 94 9 34 10 93 11 35 12 36 13
REMARK SMILES IDX 37 14 87 15 38 16 92 17 86 18 88 19 39 20 91 21 85 22 84 23
REMARK SMILES IDX 40 25 72 26 52 27 71 28 53 29 56 30 70 31 89 32 54 33 55 34
REMARK SMILES IDX 69 36 90 37 57 38 41 39 42 40 50 41 43 42 44 43 48 44 51 45
REMARK SMILES IDX 45 46 46 47 49 48 47 49 73 50 74 51 82 52 75 53 76 54 80 55
REMARK SMILES IDX 83 56 77 57 78 58 81 59 79 60 58 61 59 62 67 63 60 64 61 65
REMARK SMILES IDX 65 66 68 67 62 68 63 69 66 70 64 71 6 72 7 73 8 74 9 76
REMARK SMILES IDX 10 77 11 78 12 79 13 80 20 81 14 82 15 83 19 84 16 86 18 87
REMARK SMILES IDX 17 88 21 89 22 91 23 92 31 93 24 94 26 95 30 96 25 97 27 98
REMARK SMILES IDX 29 99 28 100
REMARK H PARENT 3 6 88 24 56 35 7 75 14 85 21 90
REMARK Flexibility Score: inf
ROOT
ATOM      1  C   UNL A   1      31.711  29.131  26.893  1.00  0.00     0.042 C 
ENDROOT
BRANCH   1   2
ATOM      2  C   UNL A   1      32.476  30.074  25.976  1.00  0.00     0.118 C 
BRANCH   2   3
ATOM      3  N   UNL A   1      32.470  31.437  26.476  1.00  0.00    -0.352 N 
ATOM      4  O   UNL A   1      32.914  33.179  27.797  1.00  0.00    -0.269 OA
ATOM      5  C   UNL A   1      33.297  32.097  27.350  1.00  0.00     0.251 C 
ATOM      6  H   UNL A   1      31.738  31.991  26.123  1.00  0.00     0.163 HD
BRANCH   5   7
ATOM      7  C   UNL A   1      34.630  31.584  27.775  1.00  0.00     0.039 A 
ATOM      8  C   UNL A   1      35.726  32.413  28.013  1.00  0.00     0.014 A 
ATOM      9  C   UNL A   1      34.730  30.227  28.121  1.00  0.00     0.014 A 
ATOM     10  C   UNL A   1      36.917  31.891  28.530  1.00  0.00     0.010 A 
ATOM     11  C   UNL A   1      35.889  29.719  28.725  1.00  0.00     0.010 A 
ATOM     12  C   UNL A   1      36.990  30.554  28.950  1.00  0.00    -0.014 A 
BRANCH  12  13
ATOM     13  C   UNL A   1      38.143  30.108  29.781  1.00  0.00     0.031 A 
ATOM     14  C   UNL A   1      38.334  30.573  31.195  1.00  0.00     0.074 A 
ATOM     15  C   UNL A   1      39.050  29.279  29.222  1.00  0.00     0.049 A 
ATOM     16  N   UNL A   1      39.286  30.263  32.041  1.00  0.00    -0.248 NA
ATOM     17  C   UNL A   1      37.342  31.517  31.730  1.00  0.00     0.031 C 
ATOM     18  C   UNL A   1      39.010  28.799  27.838  1.00  0.00     0.029 A 
ATOM     19  N   UNL A   1      40.175  28.688  29.741  1.00  0.00    -0.354 N 
ATOM     20  C   UNL A   1      39.019  30.980  33.198  1.00  0.00     0.074 A 
ATOM     21  C   UNL A   1      37.824  31.757  32.944  1.00  0.00     0.031 C 
ATOM     22  C   UNL A   1      40.035  27.960  27.630  1.00  0.00     0.029 A 
ATOM     23  C   UNL A   1      40.837  27.883  28.845  1.00  0.00     0.049 A 
ATOM     24  H   UNL A   1      40.480  28.827  30.668  1.00  0.00     0.167 HD
ATOM     25  C   UNL A   1      39.707  30.981  34.365  1.00  0.00     0.037 A 
ATOM     26  C   UNL A   1      41.974  27.174  28.973  1.00  0.00     0.037 A 
ATOM     27  C   UNL A   1      40.880  30.188  34.628  1.00  0.00     0.049 A 
ATOM     28  C   UNL A   1      42.710  27.199  30.281  1.00  0.00     0.074 A 
ATOM     29  C   UNL A   1      41.582  30.053  35.814  1.00  0.00     0.029 A 
ATOM     30  N   UNL A   1      41.532  29.404  33.689  1.00  0.00    -0.354 N 
ATOM     31  N   UNL A   1      42.399  27.819  31.391  1.00  0.00    -0.248 NA
ATOM     32  C   UNL A   1      43.963  26.433  30.349  1.00  0.00     0.031 C 
ATOM     33  C   UNL A   1      42.685  29.223  35.582  1.00  0.00     0.029 A 
ATOM     34  C   UNL A   1      42.649  28.812  34.260  1.00  0.00     0.049 A 
ATOM     35  H   UNL A   1      41.245  29.284  32.755  1.00  0.00     0.167 HD
ATOM     36  C   UNL A   1      43.412  27.523  32.288  1.00  0.00     0.074 A 
ATOM     37  C   UNL A   1      44.335  26.641  31.604  1.00  0.00     0.031 C 
ATOM     38  C   UNL A   1      43.569  27.953  33.563  1.00  0.00     0.037 A 
BRANCH  25  39
ATOM     39  C   UNL A   1      39.219  31.871  35.470  1.00  0.00     0.064 A 
ATOM     40  C   UNL A   1      38.358  31.393  36.468  1.00  0.00     0.173 A 
ATOM     41  C   UNL A   1      39.696  33.185  35.583  1.00  0.00     0.173 A 
ATOM     42  F   UNL A   1      37.873  30.145  36.400  1.00  0.00    -0.203 F 
ATOM     43  C   UNL A   1      37.989  32.203  37.540  1.00  0.00     0.198 A 
ATOM     44  C   UNL A   1      39.337  33.987  36.665  1.00  0.00     0.198 A 
ATOM     45  F   UNL A   1      40.528  33.685  34.657  1.00  0.00    -0.203 F 
ATOM     46  F   UNL A   1      37.152  31.733  38.475  1.00  0.00    -0.200 F 
ATOM     47  C   UNL A   1      38.484  33.495  37.641  1.00  0.00     0.200 A 
ATOM     48  F   UNL A   1      39.825  35.230  36.767  1.00  0.00    -0.200 F 
ATOM     49  F   UNL A   1      38.139  34.266  38.681  1.00  0.00    -0.200 F 
ENDBRANCH  25  39
BRANCH  26  50
ATOM     50  C   UNL A   1      42.494  26.396  27.820  1.00  0.00     0.064 A 
ATOM     51  C   UNL A   1      43.433  26.949  26.940  1.00  0.00     0.173 A 
ATOM     52  C   UNL A   1      42.062  25.084  27.578  1.00  0.00     0.173 A 
ATOM     53  F   UNL A   1      43.859  28.208  27.119  1.00  0.00    -0.203 F 
ATOM     54  C   UNL A   1      43.911  26.223  25.852  1.00  0.00     0.198 A 
ATOM     55  C   UNL A   1      42.562  24.350  26.505  1.00  0.00     0.198 A 
ATOM     56  F   UNL A   1      41.165  24.511  28.394  1.00  0.00    -0.203 F 
ATOM     57  F   UNL A   1      44.780  26.788  25.002  1.00  0.00    -0.200 F 
ATOM     58  C   UNL A   1      43.481  24.921  25.639  1.00  0.00     0.200 A 
ATOM     59  F   UNL A   1      42.151  23.089  26.311  1.00  0.00    -0.200 F 
ATOM     60  F   UNL A   1      43.945  24.222  24.595  1.00  0.00    -0.200 F 
ENDBRANCH  26  50
BRANCH  38  61
ATOM     61  C   UNL A   1      44.790  27.483  34.292  1.00  0.00     0.064 A 
ATOM     62  C   UNL A   1      45.973  28.235  34.286  1.00  0.00     0.173 A 
ATOM     63  C   UNL A   1      44.774  26.283  35.018  1.00  0.00     0.173 A 
ATOM     64  F   UNL A   1      46.041  29.380  33.589  1.00  0.00    -0.203 F 
ATOM     65  C   UNL A   1      47.104  27.795  34.966  1.00  0.00     0.198 A 
ATOM     66  C   UNL A   1      45.900  25.856  35.716  1.00  0.00     0.198 A 
ATOM     67  F   UNL A   1      43.666  25.528  35.054  1.00  0.00    -0.203 F 
ATOM     68  F   UNL A   1      48.237  28.508  34.913  1.00  0.00    -0.200 F 
ATOM     69  C   UNL A   1      47.065  26.609  35.684  1.00  0.00     0.200 A 
ATOM     70  F   UNL A   1      45.861  24.713  36.415  1.00  0.00    -0.200 F 
ATOM     71  F   UNL A   1      48.155  26.185  36.340  1.00  0.00    -0.200 F 
ENDBRANCH  38  61
ENDBRANCH  12  13
ENDBRANCH   5   7
ENDBRANCH   2   3
ENDBRANCH   1   2
BRANCH   1  72
ATOM     72  C   UNL A   1      32.272  27.711  26.915  1.00  0.00     0.117 C 
BRANCH  72  73
ATOM     73  N   UNL A   1      31.197  26.739  27.045  1.00  0.00    -0.354 N 
ATOM     74  C   UNL A   1      30.898  25.605  26.355  1.00  0.00     0.242 C 
ATOM     75  H   UNL A   1      30.565  26.941  27.773  1.00  0.00     0.163 HD
ATOM     76  O   UNL A   1      29.742  25.180  26.499  1.00  0.00    -0.273 OA
BRANCH  74  77
ATOM     77  C   UNL A   1      31.889  24.833  25.453  1.00  0.00     0.174 C 
BRANCH  77  78
ATOM     78  C   UNL A   1      31.942  23.315  25.702  1.00  0.00     0.072 C 
BRANCH  78  79
ATOM     79  C   UNL A   1      33.242  22.625  25.997  1.00  0.00    -0.020 A 
ATOM     80  C   UNL A   1      33.514  21.927  27.163  1.00  0.00     0.087 A 
ATOM     81  C   UNL A   1      34.464  22.635  25.240  1.00  0.00     0.003 A 
ATOM     82  N   UNL A   1      34.796  21.453  27.100  1.00  0.00    -0.361 N 
ATOM     83  C   UNL A   1      35.385  21.837  25.920  1.00  0.00     0.046 A 
ATOM     84  C   UNL A   1      34.876  23.225  24.026  1.00  0.00     0.010 A 
ATOM     85  H   UNL A   1      35.231  20.915  27.800  1.00  0.00     0.166 HD
ATOM     86  C   UNL A   1      36.659  21.542  25.417  1.00  0.00     0.026 A 
ATOM     87  C   UNL A   1      36.141  22.937  23.503  1.00  0.00     0.001 A 
ATOM     88  C   UNL A   1      37.014  22.096  24.185  1.00  0.00     0.002 A 
ENDBRANCH  78  79
ENDBRANCH  77  78
BRANCH  77  89
ATOM     89  N   UNL A   1      31.783  25.215  24.045  1.00  0.00    -0.358 N 
ATOM     90  H   UNL A   1      31.615  24.487  23.402  1.00  0.00     0.162 HD
BRANCH  89  91
ATOM     91  C   UNL A   1      31.893  26.481  23.521  1.00  0.00     0.137 A 
ATOM     92  N   UNL A   1      33.186  26.814  23.356  1.00  0.00    -0.219 NA
ATOM     93  C   UNL A   1      30.846  27.384  23.235  1.00  0.00     0.043 A 
ATOM     94  C   UNL A   1      33.443  28.030  22.866  1.00  0.00     0.224 A 
ATOM     95  C   UNL A   1      31.260  28.631  22.733  1.00  0.00     0.076 A 
ATOM     96  C   UNL A   1      29.454  27.184  23.437  1.00  0.00     0.014 A 
ATOM     97  N   UNL A   1      32.540  28.954  22.538  1.00  0.00    -0.236 NA
ATOM     98  C   UNL A   1      30.307  29.598  22.435  1.00  0.00     0.029 A 
ATOM     99  C   UNL A   1      28.512  28.166  23.130  1.00  0.00     0.001 A 
ATOM    100  C   UNL A   1      28.941  29.379  22.624  1.00  0.00     0.002 A 
ENDBRANCH  89  91
ENDBRANCH  77  89
ENDBRANCH  74  77
ENDBRANCH  72  73
ENDBRANCH   1  72
TORSDOF 14
ENDMDL
MODEL 3
REMARK VINA RESULT:     -13.7      1.965      3.401
REMARK SMILES O=C(NCCCNC(=O)[C@@H](Cc1c[nH]c2ccccc12)Nc1ncnc2ccccc12)c1ccc(-c2c3nc(c(-c4c(F)c(F)c(F)c(F)c4F)c4ccc([nH]4)c(-c4c(F)c(F)c(F)c(F)c4F)c4nc(c(-c5c(F)c(F)c(F)c(F)c5F)c5ccc2[nH]5)C=C4)C=C3)cc1
REMARK SMILES IDX 5 1 4 2 3 3 1 4 2 5 32 7 33 8 94 9 34 10 93 11 35 12 36 13
REMARK SMILES IDX 37 14 87 15 38 16 92 17 86 18 88 19 39 20 91 21 85 22 84 23
REMARK SMILES IDX 40 25 72 26 52 27 71 28 53 29 56 30 70 31 89 32 54 33 55 34
REMARK SMILES IDX 69 36 90 37 57 38 41 39 42 40 50 41 43 42 44 43 48 44 51 45
REMARK SMILES IDX 45 46 46 47 49 48 47 49 73 50 74 51 82 52 75 53 76 54 80 55
REMARK SMILES IDX 83 56 77 57 78 58 81 59 79 60 58 61 59 62 67 63 60 64 61 65
REMARK SMILES IDX 65 66 68 67 62 68 63 69 66 70 64 71 6 72 7 73 8 74 9 76
REMARK SMILES IDX 10 77 11 78 12 79 13 80 20 81 14 82 15 83 19 84 16 86 18 87
REMARK SMILES IDX 17 88 21 89 22 91 23 92 31 93 24 94 26 95 30 96 25 97 27 98
REMARK SMILES IDX 29 99 28 100
REMARK H PARENT 3 6 88 24 56 35 7 75 14 85 21 90
REMARK Flexibility Score: inf
ROOT
ATOM      1  C   UNL A   1      31.684  29.072  26.495  1.00  0.00     0.042 C 
ENDROOT
BRANCH   1   2
ATOM      2  C   UNL A   1      32.615  30.050  25.793  1.00  0.00     0.118 C 
BRANCH   2   3
ATOM      3  N   UNL A   1      32.551  31.375  26.383  1.00  0.00    -0.352 N 
ATOM      4  O   UNL A   1      32.912  33.041  27.822  1.00  0.00    -0.269 OA
ATOM      5  C   UNL A   1      33.342  32.006  27.309  1.00  0.00     0.251 C 
ATOM      6  H   UNL A   1      31.801  31.923  26.058  1.00  0.00     0.163 HD
BRANCH   5   7
ATOM      7  C   UNL A   1      34.689  31.518  27.717  1.00  0.00     0.039 A 
ATOM      8  C   UNL A   1      35.766  32.368  27.969  1.00  0.00     0.014 A 
ATOM      9  C   UNL A   1      34.825  30.156  28.032  1.00  0.00     0.014 A 
ATOM     10  C   UNL A   1      36.972  31.865  28.469  1.00  0.00     0.010 A 
ATOM     11  C   UNL A   1      35.999  29.664  28.620  1.00  0.00     0.010 A 
ATOM     12  C   UNL A   1      37.080  30.520  28.858  1.00  0.00    -0.014 A 
BRANCH  12  13
ATOM     13  C   UNL A   1      38.248  30.086  29.674  1.00  0.00     0.031 A 
ATOM     14  C   UNL A   1      39.265  29.111  29.156  1.00  0.00     0.074 A 
ATOM     15  C   UNL A   1      38.371  30.575  30.926  1.00  0.00     0.049 A 
ATOM     16  N   UNL A   1      40.337  28.648  29.750  1.00  0.00    -0.248 NA
ATOM     17  C   UNL A   1      39.049  28.572  27.805  1.00  0.00     0.031 C 
ATOM     18  C   UNL A   1      37.419  31.486  31.569  1.00  0.00     0.029 A 
ATOM     19  N   UNL A   1      39.338  30.386  31.881  1.00  0.00    -0.354 N 
ATOM     20  C   UNL A   1      40.916  27.756  28.857  1.00  0.00     0.074 A 
ATOM     21  C   UNL A   1      40.067  27.728  27.684  1.00  0.00     0.031 C 
ATOM     22  C   UNL A   1      37.869  31.806  32.791  1.00  0.00     0.029 A 
ATOM     23  C   UNL A   1      39.109  31.084  33.043  1.00  0.00     0.049 A 
ATOM     24  H   UNL A   1      40.123  29.805  31.746  1.00  0.00     0.167 HD
ATOM     25  C   UNL A   1      42.053  27.036  29.005  1.00  0.00     0.037 A 
ATOM     26  C   UNL A   1      39.805  31.127  34.194  1.00  0.00     0.037 A 
ATOM     27  C   UNL A   1      42.912  27.085  30.161  1.00  0.00     0.049 A 
ATOM     28  C   UNL A   1      41.061  30.315  34.322  1.00  0.00     0.074 A 
ATOM     29  C   UNL A   1      44.135  26.463  30.353  1.00  0.00     0.029 A 
ATOM     30  N   UNL A   1      42.634  27.785  31.324  1.00  0.00    -0.354 N 
ATOM     31  N   UNL A   1      41.636  29.540  33.437  1.00  0.00    -0.248 NA
ATOM     32  C   UNL A   1      41.759  30.376  35.615  1.00  0.00     0.031 C 
ATOM     33  C   UNL A   1      44.576  26.750  31.649  1.00  0.00     0.029 A 
ATOM     34  C   UNL A   1      43.645  27.580  32.252  1.00  0.00     0.049 A 
ATOM     35  H   UNL A   1      41.838  28.344  31.471  1.00  0.00     0.167 HD
ATOM     36  C   UNL A   1      42.759  29.020  34.061  1.00  0.00     0.074 A 
ATOM     37  C   UNL A   1      42.803  29.591  35.391  1.00  0.00     0.031 C 
ATOM     38  C   UNL A   1      43.667  28.139  33.578  1.00  0.00     0.037 A 
BRANCH  25  39
ATOM     39  C   UNL A   1      42.455  26.118  27.889  1.00  0.00     0.064 A 
ATOM     40  C   UNL A   1      41.888  24.843  27.751  1.00  0.00     0.173 A 
ATOM     41  C   UNL A   1      43.343  26.556  26.896  1.00  0.00     0.173 A 
ATOM     42  F   UNL A   1      41.038  24.378  28.678  1.00  0.00    -0.203 F 
ATOM     43  C   UNL A   1      42.200  24.038  26.657  1.00  0.00     0.198 A 
ATOM     44  C   UNL A   1      43.640  25.755  25.796  1.00  0.00     0.198 A 
ATOM     45  F   UNL A   1      43.905  27.771  26.981  1.00  0.00    -0.203 F 
ATOM     46  F   UNL A   1      41.660  22.816  26.552  1.00  0.00    -0.200 F 
ATOM     47  C   UNL A   1      43.069  24.497  25.678  1.00  0.00     0.200 A 
ATOM     48  F   UNL A   1      44.471  26.204  24.846  1.00  0.00    -0.200 F 
ATOM     49  F   UNL A   1      43.355  23.726  24.620  1.00  0.00    -0.200 F 
ENDBRANCH  25  39
BRANCH  26  50
ATOM     50  C   UNL A   1      39.315  31.955  35.324  1.00  0.00     0.064 A 
ATOM     51  C   UNL A   1      38.516  31.402  36.333  1.00  0.00     0.173 A 
ATOM     52  C   UNL A   1      39.637  33.318  35.416  1.00  0.00     0.173 A 
ATOM     53  F   UNL A   1      38.164  30.110  36.275  1.00  0.00    -0.203 F 
ATOM     54  C   UNL A   1      38.047  32.184  37.386  1.00  0.00     0.198 A 
ATOM     55  C   UNL A   1      39.190  34.091  36.484  1.00  0.00     0.198 A 
ATOM     56  F   UNL A   1      40.400  33.892  34.475  1.00  0.00    -0.203 F 
ATOM     57  F   UNL A   1      37.252  31.641  38.318  1.00  0.00    -0.200 F 
ATOM     58  C   UNL A   1      38.389  33.526  37.464  1.00  0.00     0.200 A 
ATOM     59  F   UNL A   1      39.534  35.384  36.561  1.00  0.00    -0.200 F 
ATOM     60  F   UNL A   1      37.941  34.276  38.480  1.00  0.00    -0.200 F 
ENDBRANCH  26  50
BRANCH  38  61
ATOM     61  C   UNL A   1      44.775  27.732  34.499  1.00  0.00     0.064 A 
ATOM     62  C   UNL A   1      44.662  26.596  35.313  1.00  0.00     0.173 A 
ATOM     63  C   UNL A   1      45.966  28.470  34.557  1.00  0.00     0.173 A 
ATOM     64  F   UNL A   1      43.533  25.871  35.305  1.00  0.00    -0.203 F 
ATOM     65  C   UNL A   1      45.696  26.221  36.166  1.00  0.00     0.198 A 
ATOM     66  C   UNL A   1      47.008  28.080  35.395  1.00  0.00     0.198 A 
ATOM     67  F   UNL A   1      46.122  29.565  33.798  1.00  0.00    -0.203 F 
ATOM     68  F   UNL A   1      45.551  25.156  36.965  1.00  0.00    -0.200 F 
ATOM     69  C   UNL A   1      46.869  26.961  36.203  1.00  0.00     0.200 A 
ATOM     70  F   UNL A   1      48.143  28.791  35.426  1.00  0.00    -0.200 F 
ATOM     71  F   UNL A   1      47.864  26.599  37.025  1.00  0.00    -0.200 F 
ENDBRANCH  38  61
ENDBRANCH  12  13
ENDBRANCH   5   7
ENDBRANCH   2   3
ENDBRANCH   1   2
BRANCH   1  72
ATOM     72  C   UNL A   1      32.190  27.632  26.487  1.00  0.00     0.117 C 
BRANCH  72  73
ATOM     73  N   UNL A   1      31.105  26.706  26.775  1.00  0.00    -0.354 N 
ATOM     74  C   UNL A   1      30.618  25.627  26.105  1.00  0.00     0.242 C 
ATOM     75  H   UNL A   1      30.632  26.899  27.617  1.00  0.00     0.163 HD
ATOM     76  O   UNL A   1      29.488  25.250  26.446  1.00  0.00    -0.273 OA
BRANCH  74  77
ATOM     77  C   UNL A   1      31.378  24.858  24.998  1.00  0.00     0.174 C 
BRANCH  77  78
ATOM     78  C   UNL A   1      30.987  25.243  23.560  1.00  0.00     0.072 C 
BRANCH  78  79
ATOM     79  C   UNL A   1      30.936  26.680  23.130  1.00  0.00    -0.020 A 
ATOM     80  C   UNL A   1      32.044  27.435  22.781  1.00  0.00     0.087 A 
ATOM     81  C   UNL A   1      29.813  27.577  23.105  1.00  0.00     0.003 A 
ATOM     82  N   UNL A   1      31.630  28.701  22.469  1.00  0.00    -0.361 N 
ATOM     83  C   UNL A   1      30.269  28.804  22.620  1.00  0.00     0.046 A 
ATOM     84  C   UNL A   1      28.443  27.463  23.422  1.00  0.00     0.010 A 
ATOM     85  H   UNL A   1      32.223  29.431  22.178  1.00  0.00     0.166 HD
ATOM     86  C   UNL A   1      29.419  29.889  22.370  1.00  0.00     0.026 A 
ATOM     87  C   UNL A   1      27.577  28.534  23.173  1.00  0.00     0.001 A 
ATOM     88  C   UNL A   1      28.059  29.725  22.642  1.00  0.00     0.002 A 
ENDBRANCH  78  79
ENDBRANCH  77  78
BRANCH  77  89
ATOM     89  N   UNL A   1      32.819  24.799  25.242  1.00  0.00    -0.358 N 
ATOM     90  H   UNL A   1      33.331  25.619  25.056  1.00  0.00     0.162 HD
BRANCH  89  91
ATOM     91  C   UNL A   1      33.535  23.720  25.703  1.00  0.00     0.137 A 
ATOM     92  N   UNL A   1      33.018  23.267  26.859  1.00  0.00    -0.219 NA
ATOM     93  C   UNL A   1      34.697  23.156  25.132  1.00  0.00     0.043 A 
ATOM     94  C   UNL A   1      33.627  22.225  27.431  1.00  0.00     0.224 A 
ATOM     95  C   UNL A   1      35.239  22.070  25.843  1.00  0.00     0.076 A 
ATOM     96  C   UNL A   1      35.383  23.588  23.964  1.00  0.00     0.014 A 
ATOM     97  N   UNL A   1      34.711  21.598  26.973  1.00  0.00    -0.236 NA
ATOM     98  C   UNL A   1      36.393  21.454  25.373  1.00  0.00     0.029 A 
ATOM     99  C   UNL A   1      36.539  22.955  23.508  1.00  0.00     0.001 A 
ATOM    100  C   UNL A   1      37.046  21.881  24.216  1.00  0.00     0.002 A 
ENDBRANCH  89  91
ENDBRANCH  77  89
ENDBRANCH  74  77
ENDBRANCH  72  73
ENDBRANCH   1  72
TORSDOF 14
ENDMDL
