MODEL 1
REMARK VINA RESULT:     -11.9      0.000      0.000
REMARK SMILES CC1(C)C[C@@]([NH2+]CCN=[N+]=[N-])(C(=O)NCCCNC(=O)c2ccc(-c3c4nc(c(-c5c(F)c(F)c(F)c(F)c5F)c5ccc([nH]5)c(-c5c(F)c(F)c(F)c(F)c5F)c5nc(c(-c6c(F)c(F)c(F)c(F)c6F)c6ccc3[nH]6)C=C5)C=C4)cc2)C(C)(C)O1
REMARK SMILES IDX 15 1 14 2 12 3 13 4 5 6 1 7 2 8 3 9 4 10 87 11 84 12 85 13
REMARK SMILES IDX 86 14 6 15 7 18 8 19 9 20 10 21 11 22 16 23 17 24 18 25
REMARK SMILES IDX 19 26 20 28 21 29 22 30 83 31 23 32 82 33 24 34 25 35 26 36
REMARK SMILES IDX 76 37 27 38 81 39 75 40 77 41 28 42 80 43 74 44 73 45 29 47
REMARK SMILES IDX 61 48 41 49 60 50 42 51 45 52 59 53 78 54 43 55 44 56 58 58
REMARK SMILES IDX 79 59 46 60 30 61 31 62 39 63 32 64 33 65 37 66 40 67 34 68
REMARK SMILES IDX 35 69 38 70 36 71 62 72 63 73 71 74 64 75 65 76 69 77 72 78
REMARK SMILES IDX 66 79 67 80 70 81 68 82 47 83 48 84 56 85 49 86 50 87 54 88
REMARK SMILES IDX 57 89 51 90 52 91 55 92 53 93
REMARK H PARENT 14 5 6 16 6 17 18 27 77 46 45 57
REMARK Flexibility Score: inf
ROOT
ATOM      1  C   UNL A   1      36.378  20.985  24.921  1.00  0.00     0.118 C 
ENDROOT
BRANCH   1   2
ATOM      2  N   UNL A   1      35.886  21.339  26.238  1.00  0.00    -0.351 N 
ATOM      3  C   UNL A   1      34.591  21.539  26.651  1.00  0.00     0.284 C 
ATOM      4  O   UNL A   1      34.421  21.676  27.862  1.00  0.00    -0.268 OA
ATOM      5  H   UNL A   1      36.574  21.453  26.932  1.00  0.00     0.163 HD
BRANCH   3   6
ATOM      6  C   UNL A   1      33.425  21.493  25.594  1.00  0.00     0.206 C 
ATOM      7  C   UNL A   1      33.664  23.475  22.495  1.00  0.00     0.042 C 
ATOM      8  C   UNL A   1      32.992  22.379  23.331  1.00  0.00     0.070 C 
ATOM      9  C   UNL A   1      32.220  21.477  22.361  1.00  0.00     0.042 C 
ATOM     10  C   UNL A   1      34.027  21.643  24.184  1.00  0.00     0.117 C 
ATOM     11  O   UNL A   1      32.048  22.960  24.242  1.00  0.00    -0.362 OA
ATOM     12  C   UNL A   1      32.486  22.756  25.618  1.00  0.00     0.127 C 
ATOM     13  C   UNL A   1      33.153  24.088  26.018  1.00  0.00     0.049 C 
ATOM     14  C   UNL A   1      31.225  22.593  26.474  1.00  0.00     0.049 C 
BRANCH   6  15
ATOM     15  N   UNL A   1      32.750  20.198  25.904  1.00  0.00    -0.331 N 
ATOM     16  H   UNL A   1      31.755  20.402  25.996  1.00  0.00     0.347 HD
ATOM     17  H   UNL A   1      33.250  19.874  26.732  1.00  0.00     0.347 HD
BRANCH  15  18
ATOM     18  C   UNL A   1      32.861  19.070  24.999  1.00  0.00     0.267 C 
BRANCH  18  19
ATOM     19  C   UNL A   1      32.733  17.726  25.743  1.00  0.00     0.152 C 
BRANCH  19  20
ATOM     20  N   UNL A   1      32.967  16.581  24.851  1.00  0.00    -0.088 NA
ATOM     21  N   UNL A   1      34.015  15.939  25.040  1.00  0.00     0.001 N 
ATOM     22  N   UNL A   1      34.966  15.350  25.243  1.00  0.00    -0.003 NA
ENDBRANCH  19  20
ENDBRANCH  18  19
ENDBRANCH  15  18
ENDBRANCH   6  15
ENDBRANCH   3   6
ENDBRANCH   1   2
BRANCH   1  23
ATOM     23  C   UNL A   1      37.467  19.931  24.999  1.00  0.00     0.042 C 
BRANCH  23  24
ATOM     24  C   UNL A   1      38.721  20.473  25.655  1.00  0.00     0.118 C 
BRANCH  24  25
ATOM     25  N   UNL A   1      39.689  19.411  25.912  1.00  0.00    -0.352 N 
ATOM     26  C   UNL A   1      41.047  19.489  26.086  1.00  0.00     0.251 C 
ATOM     27  H   UNL A   1      39.311  18.504  25.969  1.00  0.00     0.163 HD
ATOM     28  O   UNL A   1      41.743  18.484  25.983  1.00  0.00    -0.269 OA
BRANCH  26  29
ATOM     29  C   UNL A   1      41.659  20.792  26.398  1.00  0.00     0.039 A 
ATOM     30  C   UNL A   1      41.917  21.697  25.368  1.00  0.00     0.014 A 
ATOM     31  C   UNL A   1      41.978  21.113  27.719  1.00  0.00     0.014 A 
ATOM     32  C   UNL A   1      42.444  22.950  25.677  1.00  0.00     0.010 A 
ATOM     33  C   UNL A   1      42.380  22.398  28.037  1.00  0.00     0.010 A 
ATOM     34  C   UNL A   1      42.645  23.321  27.017  1.00  0.00    -0.014 A 
BRANCH  34  35
ATOM     35  C   UNL A   1      43.168  24.656  27.383  1.00  0.00     0.031 A 
ATOM     36  C   UNL A   1      42.245  25.674  27.993  1.00  0.00     0.074 A 
ATOM     37  C   UNL A   1      44.447  24.969  27.100  1.00  0.00     0.049 A 
ATOM     38  N   UNL A   1      42.481  26.922  28.308  1.00  0.00    -0.248 NA
ATOM     39  C   UNL A   1      40.859  25.245  28.248  1.00  0.00     0.031 C 
ATOM     40  C   UNL A   1      45.415  24.076  26.459  1.00  0.00     0.029 A 
ATOM     41  N   UNL A   1      45.149  26.126  27.307  1.00  0.00    -0.354 N 
ATOM     42  C   UNL A   1      41.275  27.423  28.779  1.00  0.00     0.074 A 
ATOM     43  C   UNL A   1      40.292  26.374  28.640  1.00  0.00     0.031 C 
ATOM     44  C   UNL A   1      46.595  24.708  26.356  1.00  0.00     0.029 A 
ATOM     45  C   UNL A   1      46.453  26.063  26.878  1.00  0.00     0.049 A 
ATOM     46  H   UNL A   1      44.758  26.928  27.724  1.00  0.00     0.167 HD
ATOM     47  C   UNL A   1      41.019  28.642  29.309  1.00  0.00     0.037 A 
ATOM     48  C   UNL A   1      47.418  27.000  26.896  1.00  0.00     0.037 A 
ATOM     49  C   UNL A   1      42.014  29.669  29.464  1.00  0.00     0.049 A 
ATOM     50  C   UNL A   1      47.104  28.352  27.478  1.00  0.00     0.074 A 
ATOM     51  C   UNL A   1      41.880  30.917  30.043  1.00  0.00     0.029 A 
ATOM     52  N   UNL A   1      43.328  29.564  29.032  1.00  0.00    -0.354 N 
ATOM     53  N   UNL A   1      45.980  28.794  27.990  1.00  0.00    -0.248 NA
ATOM     54  C   UNL A   1      48.195  29.336  27.490  1.00  0.00     0.031 C 
ATOM     55  C   UNL A   1      43.097  31.593  29.903  1.00  0.00     0.029 A 
ATOM     56  C   UNL A   1      44.009  30.739  29.304  1.00  0.00     0.049 A 
ATOM     57  H   UNL A   1      43.718  28.772  28.597  1.00  0.00     0.167 HD
ATOM     58  C   UNL A   1      46.237  30.089  28.417  1.00  0.00     0.074 A 
ATOM     59  C   UNL A   1      47.628  30.357  28.115  1.00  0.00     0.031 C 
ATOM     60  C   UNL A   1      45.399  30.979  29.005  1.00  0.00     0.037 A 
BRANCH  47  61
ATOM     61  C   UNL A   1      39.613  28.927  29.757  1.00  0.00     0.064 A 
ATOM     62  C   UNL A   1      39.186  28.666  31.068  1.00  0.00     0.173 A 
ATOM     63  C   UNL A   1      38.688  29.497  28.871  1.00  0.00     0.173 A 
ATOM     64  F   UNL A   1      40.025  28.108  31.955  1.00  0.00    -0.203 F 
ATOM     65  C   UNL A   1      37.878  28.931  31.465  1.00  0.00     0.198 A 
ATOM     66  C   UNL A   1      37.391  29.797  29.281  1.00  0.00     0.198 A 
ATOM     67  F   UNL A   1      39.041  29.771  27.605  1.00  0.00    -0.203 F 
ATOM     68  F   UNL A   1      37.478  28.617  32.704  1.00  0.00    -0.200 F 
ATOM     69  C   UNL A   1      36.984  29.505  30.573  1.00  0.00     0.200 A 
ATOM     70  F   UNL A   1      36.533  30.366  28.422  1.00  0.00    -0.200 F 
ATOM     71  F   UNL A   1      35.729  29.770  30.959  1.00  0.00    -0.200 F 
ENDBRANCH  47  61
BRANCH  48  72
ATOM     72  C   UNL A   1      48.772  26.686  26.369  1.00  0.00     0.064 A 
ATOM     73  C   UNL A   1      49.108  26.958  25.035  1.00  0.00     0.173 A 
ATOM     74  C   UNL A   1      49.757  26.104  27.181  1.00  0.00     0.173 A 
ATOM     75  F   UNL A   1      48.197  27.501  24.213  1.00  0.00    -0.203 F 
ATOM     76  C   UNL A   1      50.364  26.633  24.526  1.00  0.00     0.198 A 
ATOM     77  C   UNL A   1      51.024  25.811  26.681  1.00  0.00     0.198 A 
ATOM     78  F   UNL A   1      49.493  25.833  28.468  1.00  0.00    -0.203 F 
ATOM     79  F   UNL A   1      50.637  26.853  23.234  1.00  0.00    -0.200 F 
ATOM     80  C   UNL A   1      51.322  26.064  25.350  1.00  0.00     0.200 A 
ATOM     81  F   UNL A   1      51.954  25.281  27.487  1.00  0.00    -0.200 F 
ATOM     82  F   UNL A   1      52.530  25.755  24.862  1.00  0.00    -0.200 F 
ENDBRANCH  48  72
BRANCH  60  83
ATOM     83  C   UNL A   1      45.974  32.307  29.406  1.00  0.00     0.064 A 
ATOM     84  C   UNL A   1      45.939  33.418  28.550  1.00  0.00     0.173 A 
ATOM     85  C   UNL A   1      46.527  32.479  30.684  1.00  0.00     0.173 A 
ATOM     86  F   UNL A   1      45.434  33.303  27.313  1.00  0.00    -0.203 F 
ATOM     87  C   UNL A   1      46.465  34.644  28.950  1.00  0.00     0.198 A 
ATOM     88  C   UNL A   1      47.015  33.715  31.094  1.00  0.00     0.198 A 
ATOM     89  F   UNL A   1      46.576  31.451  31.545  1.00  0.00    -0.203 F 
ATOM     90  F   UNL A   1      46.472  35.677  28.096  1.00  0.00    -0.200 F 
ATOM     91  C   UNL A   1      46.993  34.795  30.224  1.00  0.00     0.200 A 
ATOM     92  F   UNL A   1      47.507  33.863  32.332  1.00  0.00    -0.200 F 
ATOM     93  F   UNL A   1      47.487  35.978  30.611  1.00  0.00    -0.200 F 
ENDBRANCH  60  83
ENDBRANCH  34  35
ENDBRANCH  26  29
ENDBRANCH  24  25
ENDBRANCH  23  24
ENDBRANCH   1  23
TORSDOF 14
ENDMDL
MODEL 2
REMARK VINA RESULT:     -11.8      0.129      1.976
REMARK SMILES CC1(C)C[C@@]([NH2+]CCN=[N+]=[N-])(C(=O)NCCCNC(=O)c2ccc(-c3c4nc(c(-c5c(F)c(F)c(F)c(F)c5F)c5ccc([nH]5)c(-c5c(F)c(F)c(F)c(F)c5F)c5nc(c(-c6c(F)c(F)c(F)c(F)c6F)c6ccc3[nH]6)C=C5)C=C4)cc2)C(C)(C)O1
REMARK SMILES IDX 15 1 14 2 12 3 13 4 5 6 1 7 2 8 3 9 4 10 87 11 84 12 85 13
REMARK SMILES IDX 86 14 6 15 7 18 8 19 9 20 10 21 11 22 16 23 17 24 18 25
REMARK SMILES IDX 19 26 20 28 21 29 22 30 83 31 23 32 82 33 24 34 25 35 26 36
REMARK SMILES IDX 76 37 27 38 81 39 75 40 77 41 28 42 80 43 74 44 73 45 29 47
REMARK SMILES IDX 61 48 41 49 60 50 42 51 45 52 59 53 78 54 43 55 44 56 58 58
REMARK SMILES IDX 79 59 46 60 30 61 31 62 39 63 32 64 33 65 37 66 40 67 34 68
REMARK SMILES IDX 35 69 38 70 36 71 62 72 63 73 71 74 64 75 65 76 69 77 72 78
REMARK SMILES IDX 66 79 67 80 70 81 68 82 47 83 48 84 56 85 49 86 50 87 54 88
REMARK SMILES IDX 57 89 51 90 52 91 55 92 53 93
REMARK H PARENT 14 5 6 16 6 17 18 27 77 46 45 57
REMARK Flexibility Score: inf
ROOT
ATOM      1  C   UNL A   1      36.357  21.050  24.882  1.00  0.00     0.118 C 
ENDROOT
BRANCH   1   2
ATOM      2  N   UNL A   1      35.843  21.382  26.196  1.00  0.00    -0.351 N 
ATOM      3  C   UNL A   1      34.538  21.513  26.605  1.00  0.00     0.284 C 
ATOM      4  O   UNL A   1      34.359  21.645  27.815  1.00  0.00    -0.268 OA
ATOM      5  H   UNL A   1      36.522  21.536  26.892  1.00  0.00     0.163 HD
BRANCH   3   6
ATOM      6  C   UNL A   1      33.379  21.400  25.546  1.00  0.00     0.206 C 
ATOM      7  C   UNL A   1      33.486  23.431  22.471  1.00  0.00     0.042 C 
ATOM      8  C   UNL A   1      32.890  22.281  23.293  1.00  0.00     0.070 C 
ATOM      9  C   UNL A   1      32.181  21.341  22.311  1.00  0.00     0.042 C 
ATOM     10  C   UNL A   1      33.971  21.607  24.139  1.00  0.00     0.117 C 
ATOM     11  O   UNL A   1      31.907  22.786  24.209  1.00  0.00    -0.362 OA
ATOM     12  C   UNL A   1      32.356  22.597  25.584  1.00  0.00     0.127 C 
ATOM     13  C   UNL A   1      32.931  23.966  26.000  1.00  0.00     0.049 C 
ATOM     14  C   UNL A   1      31.109  22.338  26.436  1.00  0.00     0.049 C 
BRANCH   6  15
ATOM     15  N   UNL A   1      32.794  20.059  25.840  1.00  0.00    -0.331 N 
ATOM     16  H   UNL A   1      31.788  20.141  25.693  1.00  0.00     0.347 HD
ATOM     17  H   UNL A   1      33.125  19.868  26.786  1.00  0.00     0.347 HD
BRANCH  15  18
ATOM     18  C   UNL A   1      33.226  18.885  25.105  1.00  0.00     0.267 C 
BRANCH  18  19
ATOM     19  C   UNL A   1      32.621  17.593  25.687  1.00  0.00     0.152 C 
BRANCH  19  20
ATOM     20  N   UNL A   1      32.954  16.416  24.872  1.00  0.00    -0.088 NA
ATOM     21  N   UNL A   1      34.072  15.907  25.068  1.00  0.00     0.001 N 
ATOM     22  N   UNL A   1      35.087  15.441  25.277  1.00  0.00    -0.003 NA
ENDBRANCH  19  20
ENDBRANCH  18  19
ENDBRANCH  15  18
ENDBRANCH   6  15
ENDBRANCH   3   6
ENDBRANCH   1   2
BRANCH   1  23
ATOM     23  C   UNL A   1      37.439  19.988  24.959  1.00  0.00     0.042 C 
BRANCH  23  24
ATOM     24  C   UNL A   1      38.694  20.519  25.621  1.00  0.00     0.118 C 
BRANCH  24  25
ATOM     25  N   UNL A   1      39.649  19.447  25.887  1.00  0.00    -0.352 N 
ATOM     26  C   UNL A   1      41.005  19.513  26.080  1.00  0.00     0.251 C 
ATOM     27  H   UNL A   1      39.263  18.543  25.934  1.00  0.00     0.163 HD
ATOM     28  O   UNL A   1      41.694  18.502  25.981  1.00  0.00    -0.269 OA
BRANCH  26  29
ATOM     29  C   UNL A   1      41.624  20.809  26.406  1.00  0.00     0.039 A 
ATOM     30  C   UNL A   1      42.000  21.672  25.376  1.00  0.00     0.014 A 
ATOM     31  C   UNL A   1      41.831  21.165  27.741  1.00  0.00     0.014 A 
ATOM     32  C   UNL A   1      42.534  22.920  25.694  1.00  0.00     0.010 A 
ATOM     33  C   UNL A   1      42.240  22.449  28.054  1.00  0.00     0.010 A 
ATOM     34  C   UNL A   1      42.623  23.331  27.035  1.00  0.00    -0.014 A 
BRANCH  34  35
ATOM     35  C   UNL A   1      43.150  24.663  27.406  1.00  0.00     0.031 A 
ATOM     36  C   UNL A   1      42.224  25.688  27.999  1.00  0.00     0.074 A 
ATOM     37  C   UNL A   1      44.435  24.966  27.143  1.00  0.00     0.049 A 
ATOM     38  N   UNL A   1      42.463  26.935  28.315  1.00  0.00    -0.248 NA
ATOM     39  C   UNL A   1      40.831  25.270  28.233  1.00  0.00     0.031 C 
ATOM     40  C   UNL A   1      45.407  24.065  26.519  1.00  0.00     0.029 A 
ATOM     41  N   UNL A   1      45.142  26.119  27.359  1.00  0.00    -0.354 N 
ATOM     42  C   UNL A   1      41.253  27.446  28.766  1.00  0.00     0.074 A 
ATOM     43  C   UNL A   1      40.265  26.403  28.614  1.00  0.00     0.031 C 
ATOM     44  C   UNL A   1      46.592  24.688  26.434  1.00  0.00     0.029 A 
ATOM     45  C   UNL A   1      46.451  26.046  26.950  1.00  0.00     0.049 A 
ATOM     46  H   UNL A   1      44.749  26.924  27.767  1.00  0.00     0.167 HD
ATOM     47  C   UNL A   1      40.998  28.668  29.289  1.00  0.00     0.037 A 
ATOM     48  C   UNL A   1      47.422  26.977  26.982  1.00  0.00     0.037 A 
ATOM     49  C   UNL A   1      41.996  29.688  29.457  1.00  0.00     0.049 A 
ATOM     50  C   UNL A   1      47.108  28.332  27.556  1.00  0.00     0.074 A 
ATOM     51  C   UNL A   1      41.862  30.939  30.031  1.00  0.00     0.029 A 
ATOM     52  N   UNL A   1      43.316  29.573  29.046  1.00  0.00    -0.354 N 
ATOM     53  N   UNL A   1      45.980  28.783  28.049  1.00  0.00    -0.248 NA
ATOM     54  C   UNL A   1      48.205  29.308  27.583  1.00  0.00     0.031 C 
ATOM     55  C   UNL A   1      43.085  31.606  29.909  1.00  0.00     0.029 A 
ATOM     56  C   UNL A   1      44.001  30.744  29.326  1.00  0.00     0.049 A 
ATOM     57  H   UNL A   1      43.708  28.777  28.619  1.00  0.00     0.167 HD
ATOM     58  C   UNL A   1      46.238  30.077  28.477  1.00  0.00     0.074 A 
ATOM     59  C   UNL A   1      47.636  30.335  28.197  1.00  0.00     0.031 C 
ATOM     60  C   UNL A   1      45.397  30.974  29.049  1.00  0.00     0.037 A 
BRANCH  47  61
ATOM     61  C   UNL A   1      39.586  28.964  29.713  1.00  0.00     0.064 A 
ATOM     62  C   UNL A   1      38.630  29.459  28.813  1.00  0.00     0.173 A 
ATOM     63  C   UNL A   1      39.177  28.721  31.032  1.00  0.00     0.173 A 
ATOM     64  F   UNL A   1      38.970  29.723  27.542  1.00  0.00    -0.203 F 
ATOM     65  C   UNL A   1      37.328  29.732  29.225  1.00  0.00     0.198 A 
ATOM     66  C   UNL A   1      37.864  28.959  31.433  1.00  0.00     0.198 A 
ATOM     67  F   UNL A   1      40.048  28.245  31.936  1.00  0.00    -0.203 F 
ATOM     68  F   UNL A   1      36.451  30.261  28.362  1.00  0.00    -0.200 F 
ATOM     69  C   UNL A   1      36.944  29.473  30.532  1.00  0.00     0.200 A 
ATOM     70  F   UNL A   1      37.491  28.694  32.693  1.00  0.00    -0.200 F 
ATOM     71  F   UNL A   1      35.689  29.727  30.925  1.00  0.00    -0.200 F 
ENDBRANCH  47  61
BRANCH  48  72
ATOM     72  C   UNL A   1      48.783  26.652  26.477  1.00  0.00     0.064 A 
ATOM     73  C   UNL A   1      49.758  26.111  27.328  1.00  0.00     0.173 A 
ATOM     74  C   UNL A   1      49.142  26.880  25.141  1.00  0.00     0.173 A 
ATOM     75  F   UNL A   1      49.469  25.886  28.619  1.00  0.00    -0.203 F 
ATOM     76  C   UNL A   1      51.045  25.838  26.869  1.00  0.00     0.198 A 
ATOM     77  C   UNL A   1      50.418  26.575  24.674  1.00  0.00     0.198 A 
ATOM     78  F   UNL A   1      48.245  27.387  24.282  1.00  0.00    -0.203 F 
ATOM     79  F   UNL A   1      51.970  25.372  27.718  1.00  0.00    -0.200 F 
ATOM     80  C   UNL A   1      51.373  26.066  25.542  1.00  0.00     0.200 A 
ATOM     81  F   UNL A   1      50.724  26.778  23.386  1.00  0.00    -0.200 F 
ATOM     82  F   UNL A   1      52.609  25.801  25.100  1.00  0.00    -0.200 F 
ENDBRANCH  48  72
BRANCH  60  83
ATOM     83  C   UNL A   1      45.974  32.299  29.456  1.00  0.00     0.064 A 
ATOM     84  C   UNL A   1      46.548  32.501  30.720  1.00  0.00     0.173 A 
ATOM     85  C   UNL A   1      45.992  33.369  28.548  1.00  0.00     0.173 A 
ATOM     86  F   UNL A   1      46.545  31.515  31.629  1.00  0.00    -0.203 F 
ATOM     87  C   UNL A   1      47.092  33.735  31.069  1.00  0.00     0.198 A 
ATOM     88  C   UNL A   1      46.571  34.588  28.886  1.00  0.00     0.198 A 
ATOM     89  F   UNL A   1      45.464  33.227  27.322  1.00  0.00    -0.203 F 
ATOM     90  F   UNL A   1      47.585  33.922  32.301  1.00  0.00    -0.200 F 
ATOM     91  C   UNL A   1      47.112  34.773  30.149  1.00  0.00     0.200 A 
ATOM     92  F   UNL A   1      46.606  35.584  27.990  1.00  0.00    -0.200 F 
ATOM     93  F   UNL A   1      47.646  35.956  30.483  1.00  0.00    -0.200 F 
ENDBRANCH  60  83
ENDBRANCH  34  35
ENDBRANCH  26  29
ENDBRANCH  24  25
ENDBRANCH  23  24
ENDBRANCH   1  23
TORSDOF 14
ENDMDL
MODEL 3
REMARK VINA RESULT:     -11.8      6.465     11.448
REMARK SMILES CC1(C)C[C@@]([NH2+]CCN=[N+]=[N-])(C(=O)NCCCNC(=O)c2ccc(-c3c4nc(c(-c5c(F)c(F)c(F)c(F)c5F)c5ccc([nH]5)c(-c5c(F)c(F)c(F)c(F)c5F)c5nc(c(-c6c(F)c(F)c(F)c(F)c6F)c6ccc3[nH]6)C=C5)C=C4)cc2)C(C)(C)O1
REMARK SMILES IDX 15 1 14 2 12 3 13 4 5 6 1 7 2 8 3 9 4 10 87 11 84 12 85 13
REMARK SMILES IDX 86 14 6 15 7 18 8 19 9 20 10 21 11 22 16 23 17 24 18 25
REMARK SMILES IDX 19 26 20 28 21 29 22 30 83 31 23 32 82 33 24 34 25 35 26 36
REMARK SMILES IDX 76 37 27 38 81 39 75 40 77 41 28 42 80 43 74 44 73 45 29 47
REMARK SMILES IDX 61 48 41 49 60 50 42 51 45 52 59 53 78 54 43 55 44 56 58 58
REMARK SMILES IDX 79 59 46 60 30 61 31 62 39 63 32 64 33 65 37 66 40 67 34 68
REMARK SMILES IDX 35 69 38 70 36 71 62 72 63 73 71 74 64 75 65 76 69 77 72 78
REMARK SMILES IDX 66 79 67 80 70 81 68 82 47 83 48 84 56 85 49 86 50 87 54 88
REMARK SMILES IDX 57 89 51 90 52 91 55 92 53 93
REMARK H PARENT 14 5 6 16 6 17 18 27 77 46 45 57
REMARK Flexibility Score: inf
ROOT
ATOM      1  C   UNL A   1      31.404  30.733  26.526  1.00  0.00     0.118 C 
ENDROOT
BRANCH   1   2
ATOM      2  N   UNL A   1      32.749  30.190  26.517  1.00  0.00    -0.351 N 
ATOM      3  C   UNL A   1      33.258  29.157  25.768  1.00  0.00     0.284 C 
ATOM      4  O   UNL A   1      34.476  28.992  25.828  1.00  0.00    -0.268 OA
ATOM      5  H   UNL A   1      33.384  30.621  27.133  1.00  0.00     0.163 HD
BRANCH   3   6
ATOM      6  C   UNL A   1      32.297  28.329  24.837  1.00  0.00     0.206 C 
ATOM      7  C   UNL A   1      30.653  25.288  26.118  1.00  0.00     0.042 C 
ATOM      8  C   UNL A   1      30.795  26.383  25.053  1.00  0.00     0.070 C 
ATOM      9  C   UNL A   1      29.481  26.420  24.263  1.00  0.00     0.042 C 
ATOM     10  C   UNL A   1      31.177  27.715  25.699  1.00  0.00     0.117 C 
ATOM     11  O   UNL A   1      31.850  26.050  24.139  1.00  0.00    -0.362 OA
ATOM     12  C   UNL A   1      32.940  27.013  24.259  1.00  0.00     0.127 C 
ATOM     13  C   UNL A   1      33.981  26.316  25.160  1.00  0.00     0.049 C 
ATOM     14  C   UNL A   1      33.561  27.168  22.866  1.00  0.00     0.049 C 
BRANCH   6  15
ATOM     15  N   UNL A   1      31.885  29.333  23.812  1.00  0.00    -0.331 N 
ATOM     16  H   UNL A   1      32.314  29.045  22.932  1.00  0.00     0.347 HD
ATOM     17  H   UNL A   1      32.188  30.216  24.225  1.00  0.00     0.347 HD
BRANCH  15  18
ATOM     18  C   UNL A   1      30.483  29.573  23.531  1.00  0.00     0.267 C 
BRANCH  18  19
ATOM     19  C   UNL A   1      30.146  29.319  22.049  1.00  0.00     0.152 C 
BRANCH  19  20
ATOM     20  N   UNL A   1      28.961  30.075  21.619  1.00  0.00    -0.088 NA
ATOM     21  N   UNL A   1      28.074  30.245  22.475  1.00  0.00     0.001 N 
ATOM     22  N   UNL A   1      27.286  30.413  23.276  1.00  0.00    -0.003 NA
ENDBRANCH  19  20
ENDBRANCH  18  19
ENDBRANCH  15  18
ENDBRANCH   6  15
ENDBRANCH   3   6
ENDBRANCH   1   2
BRANCH   1  23
ATOM     23  C   UNL A   1      31.416  32.250  26.549  1.00  0.00     0.042 C 
BRANCH  23  24
ATOM     24  C   UNL A   1      32.640  32.787  27.262  1.00  0.00     0.118 C 
BRANCH  24  25
ATOM     25  N   UNL A   1      32.490  34.203  27.585  1.00  0.00    -0.352 N 
ATOM     26  C   UNL A   1      33.003  34.919  28.635  1.00  0.00     0.251 C 
ATOM     27  H   UNL A   1      31.938  34.720  26.955  1.00  0.00     0.163 HD
ATOM     28  O   UNL A   1      32.532  36.014  28.928  1.00  0.00    -0.269 OA
BRANCH  26  29
ATOM     29  C   UNL A   1      34.125  34.359  29.409  1.00  0.00     0.039 A 
ATOM     30  C   UNL A   1      33.866  33.619  30.563  1.00  0.00     0.014 A 
ATOM     31  C   UNL A   1      35.438  34.574  28.985  1.00  0.00     0.014 A 
ATOM     32  C   UNL A   1      34.930  33.046  31.258  1.00  0.00     0.010 A 
ATOM     33  C   UNL A   1      36.478  33.900  29.600  1.00  0.00     0.010 A 
ATOM     34  C   UNL A   1      36.239  33.152  30.760  1.00  0.00    -0.014 A 
BRANCH  34  35
ATOM     35  C   UNL A   1      37.387  32.525  31.452  1.00  0.00     0.031 A 
ATOM     36  C   UNL A   1      38.103  31.371  30.807  1.00  0.00     0.074 A 
ATOM     37  C   UNL A   1      37.732  32.948  32.683  1.00  0.00     0.049 A 
ATOM     38  N   UNL A   1      39.073  30.631  31.278  1.00  0.00    -0.248 NA
ATOM     39  C   UNL A   1      37.641  30.968  29.467  1.00  0.00     0.031 C 
ATOM     40  C   UNL A   1      37.070  34.023  33.425  1.00  0.00     0.029 A 
ATOM     41  N   UNL A   1      38.719  32.518  33.530  1.00  0.00    -0.354 N 
ATOM     42  C   UNL A   1      39.321  29.674  30.303  1.00  0.00     0.074 A 
ATOM     43  C   UNL A   1      38.354  29.876  29.249  1.00  0.00     0.031 C 
ATOM     44  C   UNL A   1      37.692  34.191  34.603  1.00  0.00     0.029 A 
ATOM     45  C   UNL A   1      38.761  33.205  34.718  1.00  0.00     0.049 A 
ATOM     46  H   UNL A   1      39.339  31.786  33.308  1.00  0.00     0.167 HD
ATOM     47  C   UNL A   1      40.290  28.729  30.278  1.00  0.00     0.037 A 
ATOM     48  C   UNL A   1      39.569  33.046  35.783  1.00  0.00     0.037 A 
ATOM     49  C   UNL A   1      41.262  28.555  31.323  1.00  0.00     0.049 A 
ATOM     50  C   UNL A   1      40.630  31.979  35.735  1.00  0.00     0.074 A 
ATOM     51  C   UNL A   1      42.324  27.672  31.374  1.00  0.00     0.029 A 
ATOM     52  N   UNL A   1      41.283  29.279  32.506  1.00  0.00    -0.354 N 
ATOM     53  N   UNL A   1      40.905  31.127  34.778  1.00  0.00    -0.248 NA
ATOM     54  C   UNL A   1      41.495  31.855  36.915  1.00  0.00     0.031 C 
ATOM     55  C   UNL A   1      42.951  27.817  32.616  1.00  0.00     0.029 A 
ATOM     56  C   UNL A   1      42.324  28.841  33.309  1.00  0.00     0.049 A 
ATOM     57  H   UNL A   1      40.653  29.999  32.741  1.00  0.00     0.167 HD
ATOM     58  C   UNL A   1      41.996  30.392  35.222  1.00  0.00     0.074 A 
ATOM     59  C   UNL A   1      42.339  30.909  36.530  1.00  0.00     0.031 C 
ATOM     60  C   UNL A   1      42.655  29.379  34.604  1.00  0.00     0.037 A 
BRANCH  47  61
ATOM     61  C   UNL A   1      40.344  27.817  29.085  1.00  0.00     0.064 A 
ATOM     62  C   UNL A   1      39.631  26.608  29.043  1.00  0.00     0.173 A 
ATOM     63  C   UNL A   1      41.097  28.169  27.956  1.00  0.00     0.173 A 
ATOM     64  F   UNL A   1      38.905  26.214  30.101  1.00  0.00    -0.203 F 
ATOM     65  C   UNL A   1      39.696  25.773  27.931  1.00  0.00     0.198 A 
ATOM     66  C   UNL A   1      41.130  27.350  26.829  1.00  0.00     0.198 A 
ATOM     67  F   UNL A   1      41.797  29.314  27.938  1.00  0.00    -0.203 F 
ATOM     68  F   UNL A   1      39.054  24.597  27.940  1.00  0.00    -0.200 F 
ATOM     69  C   UNL A   1      40.439  26.149  26.822  1.00  0.00     0.200 A 
ATOM     70  F   UNL A   1      41.837  27.722  25.752  1.00  0.00    -0.200 F 
ATOM     71  F   UNL A   1      40.493  25.349  25.749  1.00  0.00    -0.200 F 
ENDBRANCH  47  61
BRANCH  48  72
ATOM     72  C   UNL A   1      39.421  33.929  36.970  1.00  0.00     0.064 A 
ATOM     73  C   UNL A   1      40.012  35.201  37.001  1.00  0.00     0.173 A 
ATOM     74  C   UNL A   1      38.693  33.524  38.099  1.00  0.00     0.173 A 
ATOM     75  F   UNL A   1      40.730  35.631  35.952  1.00  0.00    -0.203 F 
ATOM     76  C   UNL A   1      39.906  36.019  38.124  1.00  0.00     0.198 A 
ATOM     77  C   UNL A   1      38.559  34.355  39.208  1.00  0.00     0.198 A 
ATOM     78  F   UNL A   1      38.099  32.321  38.118  1.00  0.00    -0.203 F 
ATOM     79  F   UNL A   1      40.527  37.205  38.146  1.00  0.00    -0.200 F 
ATOM     80  C   UNL A   1      39.176  35.597  39.225  1.00  0.00     0.200 A 
ATOM     81  F   UNL A   1      37.835  33.953  40.260  1.00  0.00    -0.200 F 
ATOM     82  F   UNL A   1      39.072  36.385  40.303  1.00  0.00    -0.200 F 
ENDBRANCH  48  72
BRANCH  60  83
ATOM     83  C   UNL A   1      43.843  28.796  35.314  1.00  0.00     0.064 A 
ATOM     84  C   UNL A   1      43.720  27.719  36.203  1.00  0.00     0.173 A 
ATOM     85  C   UNL A   1      45.130  29.298  35.062  1.00  0.00     0.173 A 
ATOM     86  F   UNL A   1      42.511  27.213  36.488  1.00  0.00    -0.203 F 
ATOM     87  C   UNL A   1      44.839  27.185  36.838  1.00  0.00     0.198 A 
ATOM     88  C   UNL A   1      46.249  28.736  35.668  1.00  0.00     0.198 A 
ATOM     89  F   UNL A   1      45.305  30.322  34.212  1.00  0.00    -0.203 F 
ATOM     90  F   UNL A   1      44.692  26.193  37.726  1.00  0.00    -0.200 F 
ATOM     91  C   UNL A   1      46.103  27.686  36.562  1.00  0.00     0.200 A 
ATOM     92  F   UNL A   1      47.471  29.210  35.385  1.00  0.00    -0.200 F 
ATOM     93  F   UNL A   1      47.179  27.163  37.164  1.00  0.00    -0.200 F 
ENDBRANCH  60  83
ENDBRANCH  34  35
ENDBRANCH  26  29
ENDBRANCH  24  25
ENDBRANCH  23  24
ENDBRANCH   1  23
TORSDOF 14
ENDMDL
