MODEL 1
REMARK VINA RESULT:     -13.7      0.000      0.000
REMARK SMILES O=C(CC1CCN(C(=O)c2ccc3[nH]ccc3c2)CC1)NCCCNC(=O)c1ccc(-c2c3nc(c(-c4c(F)c(F)c(F)c(F)c4F)c4ccc([nH]4)c(-c4c(F)c(F)c(F)c(F)c4F)c4nc(c(-c5c(F)c(F)c(F)c(F)c5F)c5ccc2[nH]5)C=C4)C=C3)cc1
REMARK SMILES IDX 23 1 22 2 21 3 1 4 2 5 3 7 4 8 5 9 20 10 6 11 19 12 7 13
REMARK SMILES IDX 8 14 9 15 10 16 11 17 18 18 12 19 17 20 13 21 16 22 14 23
REMARK SMILES IDX 15 24 24 26 25 27 26 28 27 30 28 31 29 32 90 33 30 34 89 35
REMARK SMILES IDX 31 36 32 37 33 38 83 39 34 40 88 41 82 42 84 43 35 44 87 45
REMARK SMILES IDX 81 46 80 47 36 49 68 50 48 51 67 52 49 53 52 54 66 55 85 56
REMARK SMILES IDX 50 57 51 58 65 60 86 61 53 62 37 63 38 64 46 65 39 66 40 67
REMARK SMILES IDX 44 68 47 69 41 70 42 71 45 72 43 73 69 74 70 75 78 76 71 77
REMARK SMILES IDX 72 78 76 79 79 80 73 81 74 82 77 83 75 84 54 85 55 86 63 87
REMARK SMILES IDX 56 88 57 89 61 90 64 91 58 92 59 93 62 94 60 95
REMARK H PARENT 21 6 14 25 25 29 84 48 52 59
REMARK Flexibility Score: inf
ROOT
ATOM      1  C   UNL A   1      31.650  31.983  26.766  1.00  0.00     0.042 C 
ENDROOT
BRANCH   1   2
ATOM      2  C   UNL A   1      31.839  30.477  26.897  1.00  0.00     0.117 C 
BRANCH   2   3
ATOM      3  N   UNL A   1      32.074  29.849  25.614  1.00  0.00    -0.356 N 
ATOM      4  O   UNL A   1      31.085  27.826  26.077  1.00  0.00    -0.275 OA
ATOM      5  C   UNL A   1      31.619  28.592  25.286  1.00  0.00     0.220 C 
ATOM      6  H   UNL A   1      32.588  30.349  24.938  1.00  0.00     0.163 HD
BRANCH   5   7
ATOM      7  C   UNL A   1      31.795  28.273  23.810  1.00  0.00     0.103 C 
BRANCH   7   8
ATOM      8  C   UNL A   1      33.200  27.724  23.484  1.00  0.00     0.002 C 
ATOM      9  C   UNL A   1      33.317  27.333  21.998  1.00  0.00     0.026 C 
ATOM     10  C   UNL A   1      33.638  26.519  24.333  1.00  0.00     0.026 C 
ATOM     11  C   UNL A   1      32.592  26.026  21.657  1.00  0.00     0.120 C 
ATOM     12  C   UNL A   1      32.860  25.253  23.998  1.00  0.00     0.120 C 
ATOM     13  N   UNL A   1      32.943  24.942  22.576  1.00  0.00    -0.339 N 
ATOM     14  C   UNL A   1      33.278  23.691  22.057  1.00  0.00     0.253 C 
ATOM     15  O   UNL A   1      33.396  23.452  20.860  1.00  0.00    -0.269 OA
BRANCH  14  16
ATOM     16  C   UNL A   1      33.519  22.580  23.005  1.00  0.00     0.040 A 
ATOM     17  C   UNL A   1      34.662  22.578  23.813  1.00  0.00     0.016 A 
ATOM     18  C   UNL A   1      32.588  21.536  23.056  1.00  0.00     0.024 A 
ATOM     19  C   UNL A   1      34.937  21.494  24.653  1.00  0.00     0.027 A 
ATOM     20  C   UNL A   1      32.846  20.442  23.903  1.00  0.00     0.000 A 
ATOM     21  C   UNL A   1      34.014  20.440  24.668  1.00  0.00     0.045 A 
ATOM     22  C   UNL A   1      32.153  19.234  24.191  1.00  0.00     0.028 A 
ATOM     23  N   UNL A   1      34.029  19.258  25.376  1.00  0.00    -0.361 N 
ATOM     24  C   UNL A   1      32.904  18.527  25.102  1.00  0.00     0.083 A 
ATOM     25  H   UNL A   1      34.746  18.978  25.991  1.00  0.00     0.166 HD
ENDBRANCH  14  16
ENDBRANCH   7   8
ENDBRANCH   5   7
ENDBRANCH   2   3
ENDBRANCH   1   2
BRANCH   1  26
ATOM     26  C   UNL A   1      32.824  32.834  27.251  1.00  0.00     0.118 C 
BRANCH  26  27
ATOM     27  N   UNL A   1      32.459  34.191  27.626  1.00  0.00    -0.352 N 
ATOM     28  C   UNL A   1      33.024  35.010  28.578  1.00  0.00     0.251 C 
ATOM     29  H   UNL A   1      31.704  34.579  27.129  1.00  0.00     0.163 HD
ATOM     30  O   UNL A   1      32.528  36.105  28.827  1.00  0.00    -0.269 OA
BRANCH  28  31
ATOM     31  C   UNL A   1      34.211  34.558  29.337  1.00  0.00     0.039 A 
ATOM     32  C   UNL A   1      34.026  34.011  30.610  1.00  0.00     0.014 A 
ATOM     33  C   UNL A   1      35.495  34.652  28.796  1.00  0.00     0.014 A 
ATOM     34  C   UNL A   1      35.117  33.477  31.302  1.00  0.00     0.010 A 
ATOM     35  C   UNL A   1      36.570  34.057  29.457  1.00  0.00     0.010 A 
ATOM     36  C   UNL A   1      36.389  33.451  30.710  1.00  0.00    -0.014 A 
BRANCH  36  37
ATOM     37  C   UNL A   1      37.534  32.762  31.366  1.00  0.00     0.031 A 
ATOM     38  C   UNL A   1      38.214  31.603  30.693  1.00  0.00     0.074 A 
ATOM     39  C   UNL A   1      37.912  33.131  32.607  1.00  0.00     0.049 A 
ATOM     40  N   UNL A   1      39.157  30.816  31.148  1.00  0.00    -0.248 NA
ATOM     41  C   UNL A   1      37.758  31.269  29.335  1.00  0.00     0.031 C 
ATOM     42  C   UNL A   1      37.312  34.216  33.385  1.00  0.00     0.029 A 
ATOM     43  N   UNL A   1      38.879  32.622  33.439  1.00  0.00    -0.354 N 
ATOM     44  C   UNL A   1      39.396  29.890  30.142  1.00  0.00     0.074 A 
ATOM     45  C   UNL A   1      38.467  30.182  29.071  1.00  0.00     0.031 C 
ATOM     46  C   UNL A   1      37.933  34.301  34.572  1.00  0.00     0.029 A 
ATOM     47  C   UNL A   1      38.941  33.249  34.661  1.00  0.00     0.049 A 
ATOM     48  H   UNL A   1      39.473  31.880  33.185  1.00  0.00     0.167 HD
ATOM     49  C   UNL A   1      40.321  28.899  30.107  1.00  0.00     0.037 A 
ATOM     50  C   UNL A   1      39.707  32.994  35.739  1.00  0.00     0.037 A 
ATOM     51  C   UNL A   1      41.256  28.621  31.167  1.00  0.00     0.049 A 
ATOM     52  C   UNL A   1      40.700  31.863  35.687  1.00  0.00     0.074 A 
ATOM     53  C   UNL A   1      42.266  27.676  31.198  1.00  0.00     0.029 A 
ATOM     54  N   UNL A   1      41.289  29.280  32.387  1.00  0.00    -0.354 N 
ATOM     55  N   UNL A   1      40.963  31.037  34.704  1.00  0.00    -0.248 NA
ATOM     56  C   UNL A   1      41.505  31.631  36.895  1.00  0.00     0.031 C 
ATOM     57  C   UNL A   1      42.872  27.723  32.458  1.00  0.00     0.029 A 
ATOM     58  C   UNL A   1      42.281  28.740  33.189  1.00  0.00     0.049 A 
ATOM     59  H   UNL A   1      40.694  30.022  32.645  1.00  0.00     0.167 HD
ATOM     60  C   UNL A   1      41.980  30.210  35.162  1.00  0.00     0.074 A 
ATOM     61  C   UNL A   1      42.297  30.642  36.507  1.00  0.00     0.031 C 
ATOM     62  C   UNL A   1      42.594  29.183  34.525  1.00  0.00     0.037 A 
BRANCH  49  63
ATOM     63  C   UNL A   1      40.367  28.034  28.880  1.00  0.00     0.064 A 
ATOM     64  C   UNL A   1      41.147  28.377  27.765  1.00  0.00     0.173 A 
ATOM     65  C   UNL A   1      39.659  26.822  28.835  1.00  0.00     0.173 A 
ATOM     66  F   UNL A   1      41.836  29.528  27.751  1.00  0.00    -0.203 F 
ATOM     67  C   UNL A   1      41.192  27.556  26.640  1.00  0.00     0.198 A 
ATOM     68  C   UNL A   1      39.733  25.988  27.724  1.00  0.00     0.198 A 
ATOM     69  F   UNL A   1      38.903  26.443  29.876  1.00  0.00    -0.203 F 
ATOM     70  F   UNL A   1      41.903  27.930  25.568  1.00  0.00    -0.200 F 
ATOM     71  C   UNL A   1      40.493  26.359  26.624  1.00  0.00     0.200 A 
ATOM     72  F   UNL A   1      39.067  24.825  27.715  1.00  0.00    -0.200 F 
ATOM     73  F   UNL A   1      40.544  25.566  25.545  1.00  0.00    -0.200 F 
ENDBRANCH  49  63
BRANCH  50  74
ATOM     74  C   UNL A   1      39.572  33.827  36.964  1.00  0.00     0.064 A 
ATOM     75  C   UNL A   1      38.758  33.415  38.029  1.00  0.00     0.173 A 
ATOM     76  C   UNL A   1      40.240  35.054  37.092  1.00  0.00     0.173 A 
ATOM     77  F   UNL A   1      38.081  32.260  37.944  1.00  0.00    -0.203 F 
ATOM     78  C   UNL A   1      38.601  34.207  39.164  1.00  0.00     0.198 A 
ATOM     79  C   UNL A   1      40.106  35.831  38.241  1.00  0.00     0.198 A 
ATOM     80  F   UNL A   1      41.033  35.493  36.103  1.00  0.00    -0.203 F 
ATOM     81  F   UNL A   1      37.777  33.813  40.144  1.00  0.00    -0.200 F 
ATOM     82  C   UNL A   1      39.279  35.412  39.271  1.00  0.00     0.200 A 
ATOM     83  F   UNL A   1      40.777  36.986  38.346  1.00  0.00    -0.200 F 
ATOM     84  F   UNL A   1      39.131  36.172  40.364  1.00  0.00    -0.200 F 
ENDBRANCH  50  74
BRANCH  62  85
ATOM     85  C   UNL A   1      43.701  28.476  35.255  1.00  0.00     0.064 A 
ATOM     86  C   UNL A   1      45.032  28.908  35.176  1.00  0.00     0.173 A 
ATOM     87  C   UNL A   1      43.415  27.381  36.086  1.00  0.00     0.173 A 
ATOM     88  F   UNL A   1      45.361  29.941  34.383  1.00  0.00    -0.203 F 
ATOM     89  C   UNL A   1      46.041  28.257  35.882  1.00  0.00     0.198 A 
ATOM     90  C   UNL A   1      44.420  26.754  36.817  1.00  0.00     0.198 A 
ATOM     91  F   UNL A   1      42.156  26.931  36.204  1.00  0.00    -0.203 F 
ATOM     92  F   UNL A   1      47.313  28.659  35.754  1.00  0.00    -0.200 F 
ATOM     93  C   UNL A   1      45.732  27.187  36.709  1.00  0.00     0.200 A 
ATOM     94  F   UNL A   1      44.117  25.730  37.627  1.00  0.00    -0.200 F 
ATOM     95  F   UNL A   1      46.701  26.570  37.399  1.00  0.00    -0.200 F 
ENDBRANCH  62  85
ENDBRANCH  36  37
ENDBRANCH  28  31
ENDBRANCH  26  27
ENDBRANCH   1  26
TORSDOF 12
ENDMDL
MODEL 2
REMARK VINA RESULT:     -13.6      5.536     11.440
REMARK SMILES O=C(CC1CCN(C(=O)c2ccc3[nH]ccc3c2)CC1)NCCCNC(=O)c1ccc(-c2c3nc(c(-c4c(F)c(F)c(F)c(F)c4F)c4ccc([nH]4)c(-c4c(F)c(F)c(F)c(F)c4F)c4nc(c(-c5c(F)c(F)c(F)c(F)c5F)c5ccc2[nH]5)C=C4)C=C3)cc1
REMARK SMILES IDX 23 1 22 2 21 3 1 4 2 5 3 7 4 8 5 9 20 10 6 11 19 12 7 13
REMARK SMILES IDX 8 14 9 15 10 16 11 17 18 18 12 19 17 20 13 21 16 22 14 23
REMARK SMILES IDX 15 24 24 26 25 27 26 28 27 30 28 31 29 32 90 33 30 34 89 35
REMARK SMILES IDX 31 36 32 37 33 38 83 39 34 40 88 41 82 42 84 43 35 44 87 45
REMARK SMILES IDX 81 46 80 47 36 49 68 50 48 51 67 52 49 53 52 54 66 55 85 56
REMARK SMILES IDX 50 57 51 58 65 60 86 61 53 62 37 63 38 64 46 65 39 66 40 67
REMARK SMILES IDX 44 68 47 69 41 70 42 71 45 72 43 73 69 74 70 75 78 76 71 77
REMARK SMILES IDX 72 78 76 79 79 80 73 81 74 82 77 83 75 84 54 85 55 86 63 87
REMARK SMILES IDX 56 88 57 89 61 90 64 91 58 92 59 93 62 94 60 95
REMARK H PARENT 21 6 14 25 25 29 84 48 52 59
REMARK Flexibility Score: inf
ROOT
ATOM      1  C   UNL A   1      38.123  20.206  24.628  1.00  0.00     0.042 C 
ENDROOT
BRANCH   1   2
ATOM      2  C   UNL A   1      36.764  19.625  25.001  1.00  0.00     0.117 C 
BRANCH   2   3
ATOM      3  N   UNL A   1      35.704  20.600  24.862  1.00  0.00    -0.356 N 
ATOM      4  O   UNL A   1      33.980  19.126  24.483  1.00  0.00    -0.275 OA
ATOM      5  C   UNL A   1      34.380  20.267  24.678  1.00  0.00     0.220 C 
ATOM      6  H   UNL A   1      35.941  21.555  24.902  1.00  0.00     0.163 HD
BRANCH   5   7
ATOM      7  C   UNL A   1      33.453  21.464  24.801  1.00  0.00     0.103 C 
BRANCH   7   8
ATOM      8  C   UNL A   1      34.188  22.739  25.266  1.00  0.00     0.002 C 
ATOM      9  C   UNL A   1      33.651  23.231  26.624  1.00  0.00     0.026 C 
ATOM     10  C   UNL A   1      34.135  23.915  24.275  1.00  0.00     0.026 C 
ATOM     11  C   UNL A   1      32.279  23.908  26.523  1.00  0.00     0.120 C 
ATOM     12  C   UNL A   1      32.745  24.528  24.168  1.00  0.00     0.120 C 
ATOM     13  N   UNL A   1      32.242  24.930  25.476  1.00  0.00    -0.339 N 
ATOM     14  C   UNL A   1      31.695  26.181  25.763  1.00  0.00     0.253 C 
ATOM     15  O   UNL A   1      31.322  26.528  26.879  1.00  0.00    -0.269 OA
BRANCH  14  16
ATOM     16  C   UNL A   1      31.564  27.160  24.661  1.00  0.00     0.040 A 
ATOM     17  C   UNL A   1      32.704  27.746  24.099  1.00  0.00     0.016 A 
ATOM     18  C   UNL A   1      30.278  27.490  24.214  1.00  0.00     0.024 A 
ATOM     19  C   UNL A   1      32.585  28.729  23.112  1.00  0.00     0.027 A 
ATOM     20  C   UNL A   1      30.142  28.471  23.215  1.00  0.00     0.000 A 
ATOM     21  C   UNL A   1      31.291  29.074  22.699  1.00  0.00     0.045 A 
ATOM     22  C   UNL A   1      29.028  29.053  22.550  1.00  0.00     0.028 A 
ATOM     23  N   UNL A   1      30.875  30.002  21.769  1.00  0.00    -0.361 N 
ATOM     24  C   UNL A   1      29.509  29.989  21.665  1.00  0.00     0.083 A 
ATOM     25  H   UNL A   1      31.472  30.590  21.253  1.00  0.00     0.166 HD
ENDBRANCH  14  16
ENDBRANCH   7   8
ENDBRANCH   5   7
ENDBRANCH   2   3
ENDBRANCH   1   2
BRANCH   1  26
ATOM     26  C   UNL A   1      39.126  20.312  25.776  1.00  0.00     0.118 C 
BRANCH  26  27
ATOM     27  N   UNL A   1      40.063  19.203  25.852  1.00  0.00    -0.352 N 
ATOM     28  C   UNL A   1      41.415  19.225  26.108  1.00  0.00     0.251 C 
ATOM     29  H   UNL A   1      39.676  18.311  25.700  1.00  0.00     0.163 HD
ATOM     30  O   UNL A   1      42.075  18.190  26.045  1.00  0.00    -0.269 OA
BRANCH  28  31
ATOM     31  C   UNL A   1      42.092  20.502  26.421  1.00  0.00     0.039 A 
ATOM     32  C   UNL A   1      42.536  21.304  25.365  1.00  0.00     0.014 A 
ATOM     33  C   UNL A   1      42.272  20.922  27.741  1.00  0.00     0.014 A 
ATOM     34  C   UNL A   1      43.078  22.565  25.631  1.00  0.00     0.010 A 
ATOM     35  C   UNL A   1      42.750  22.206  28.001  1.00  0.00     0.010 A 
ATOM     36  C   UNL A   1      43.144  23.047  26.947  1.00  0.00    -0.014 A 
BRANCH  36  37
ATOM     37  C   UNL A   1      43.585  24.437  27.242  1.00  0.00     0.031 A 
ATOM     38  C   UNL A   1      42.607  25.454  27.759  1.00  0.00     0.074 A 
ATOM     39  C   UNL A   1      44.852  24.807  26.968  1.00  0.00     0.049 A 
ATOM     40  N   UNL A   1      42.778  26.735  27.977  1.00  0.00    -0.248 NA
ATOM     41  C   UNL A   1      41.247  24.973  28.048  1.00  0.00     0.031 C 
ATOM     42  C   UNL A   1      45.891  23.927  26.431  1.00  0.00     0.029 A 
ATOM     43  N   UNL A   1      45.479  26.024  27.087  1.00  0.00    -0.354 N 
ATOM     44  C   UNL A   1      41.551  27.212  28.414  1.00  0.00     0.074 A 
ATOM     45  C   UNL A   1      40.629  26.096  28.386  1.00  0.00     0.031 C 
ATOM     46  C   UNL A   1      47.027  24.627  26.280  1.00  0.00     0.029 A 
ATOM     47  C   UNL A   1      46.786  26.014  26.664  1.00  0.00     0.049 A 
ATOM     48  H   UNL A   1      45.033  26.826  27.442  1.00  0.00     0.167 HD
ATOM     49  C   UNL A   1      41.227  28.464  28.823  1.00  0.00     0.037 A 
ATOM     50  C   UNL A   1      47.686  27.014  26.576  1.00  0.00     0.037 A 
ATOM     51  C   UNL A   1      42.149  29.570  28.865  1.00  0.00     0.049 A 
ATOM     52  C   UNL A   1      47.289  28.403  27.000  1.00  0.00     0.074 A 
ATOM     53  C   UNL A   1      41.928  30.858  29.318  1.00  0.00     0.029 A 
ATOM     54  N   UNL A   1      43.466  29.520  28.432  1.00  0.00    -0.354 N 
ATOM     55  N   UNL A   1      46.144  28.828  27.476  1.00  0.00    -0.248 NA
ATOM     56  C   UNL A   1      48.311  29.452  26.877  1.00  0.00     0.031 C 
ATOM     57  C   UNL A   1      43.092  31.604  29.104  1.00  0.00     0.029 A 
ATOM     58  C   UNL A   1      44.058  30.764  28.577  1.00  0.00     0.049 A 
ATOM     59  H   UNL A   1      43.913  28.719  28.074  1.00  0.00     0.167 HD
ATOM     60  C   UNL A   1      46.316  30.181  27.735  1.00  0.00     0.074 A 
ATOM     61  C   UNL A   1      47.681  30.505  27.378  1.00  0.00     0.031 C 
ATOM     62  C   UNL A   1      45.422  31.074  28.226  1.00  0.00     0.037 A 
BRANCH  49  63
ATOM     63  C   UNL A   1      39.809  28.711  29.253  1.00  0.00     0.064 A 
ATOM     64  C   UNL A   1      39.402  28.533  30.584  1.00  0.00     0.173 A 
ATOM     65  C   UNL A   1      38.855  29.175  28.334  1.00  0.00     0.173 A 
ATOM     66  F   UNL A   1      40.270  28.082  31.502  1.00  0.00    -0.203 F 
ATOM     67  C   UNL A   1      38.087  28.780  30.972  1.00  0.00     0.198 A 
ATOM     68  C   UNL A   1      37.551  29.453  28.731  1.00  0.00     0.198 A 
ATOM     69  F   UNL A   1      39.193  29.368  27.050  1.00  0.00    -0.203 F 
ATOM     70  F   UNL A   1      37.709  28.554  32.237  1.00  0.00    -0.200 F 
ATOM     71  C   UNL A   1      37.165  29.249  30.048  1.00  0.00     0.200 A 
ATOM     72  F   UNL A   1      36.666  29.919  27.840  1.00  0.00    -0.200 F 
ATOM     73  F   UNL A   1      35.903  29.495  30.423  1.00  0.00    -0.200 F 
ENDBRANCH  49  63
BRANCH  50  74
ATOM     74  C   UNL A   1      49.056  26.740  26.067  1.00  0.00     0.064 A 
ATOM     75  C   UNL A   1      49.387  26.979  24.725  1.00  0.00     0.173 A 
ATOM     76  C   UNL A   1      50.058  26.226  26.904  1.00  0.00     0.173 A 
ATOM     77  F   UNL A   1      48.458  27.449  23.881  1.00  0.00    -0.203 F 
ATOM     78  C   UNL A   1      50.659  26.692  24.236  1.00  0.00     0.198 A 
ATOM     79  C   UNL A   1      51.339  25.969  26.420  1.00  0.00     0.198 A 
ATOM     80  F   UNL A   1      49.794  25.983  28.196  1.00  0.00    -0.203 F 
ATOM     81  F   UNL A   1      50.934  26.881  22.938  1.00  0.00    -0.200 F 
ATOM     82  C   UNL A   1      51.636  26.193  25.084  1.00  0.00     0.200 A 
ATOM     83  F   UNL A   1      52.284  25.502  27.248  1.00  0.00    -0.200 F 
ATOM     84  F   UNL A   1      52.861  25.921  24.614  1.00  0.00    -0.200 F 
ENDBRANCH  50  74
BRANCH  62  85
ATOM     85  C   UNL A   1      45.897  32.483  28.443  1.00  0.00     0.064 A 
ATOM     86  C   UNL A   1      45.757  33.470  27.458  1.00  0.00     0.173 A 
ATOM     87  C   UNL A   1      46.456  32.860  29.675  1.00  0.00     0.173 A 
ATOM     88  F   UNL A   1      45.243  33.158  26.257  1.00  0.00    -0.203 F 
ATOM     89  C   UNL A   1      46.178  34.778  27.688  1.00  0.00     0.198 A 
ATOM     90  C   UNL A   1      46.846  34.174  29.913  1.00  0.00     0.198 A 
ATOM     91  F   UNL A   1      46.608  31.956  30.655  1.00  0.00    -0.203 F 
ATOM     92  F   UNL A   1      46.076  35.694  26.715  1.00  0.00    -0.200 F 
ATOM     93  C   UNL A   1      46.713  35.131  28.918  1.00  0.00     0.200 A 
ATOM     94  F   UNL A   1      47.348  34.517  31.107  1.00  0.00    -0.200 F 
ATOM     95  F   UNL A   1      47.106  36.392  29.143  1.00  0.00    -0.200 F 
ENDBRANCH  62  85
ENDBRANCH  36  37
ENDBRANCH  28  31
ENDBRANCH  26  27
ENDBRANCH   1  26
TORSDOF 12
ENDMDL
MODEL 3
REMARK VINA RESULT:     -13.6      5.546     11.436
REMARK SMILES O=C(CC1CCN(C(=O)c2ccc3[nH]ccc3c2)CC1)NCCCNC(=O)c1ccc(-c2c3nc(c(-c4c(F)c(F)c(F)c(F)c4F)c4ccc([nH]4)c(-c4c(F)c(F)c(F)c(F)c4F)c4nc(c(-c5c(F)c(F)c(F)c(F)c5F)c5ccc2[nH]5)C=C4)C=C3)cc1
REMARK SMILES IDX 23 1 22 2 21 3 1 4 2 5 3 7 4 8 5 9 20 10 6 11 19 12 7 13
REMARK SMILES IDX 8 14 9 15 10 16 11 17 18 18 12 19 17 20 13 21 16 22 14 23
REMARK SMILES IDX 15 24 24 26 25 27 26 28 27 30 28 31 29 32 90 33 30 34 89 35
REMARK SMILES IDX 31 36 32 37 33 38 83 39 34 40 88 41 82 42 84 43 35 44 87 45
REMARK SMILES IDX 81 46 80 47 36 49 68 50 48 51 67 52 49 53 52 54 66 55 85 56
REMARK SMILES IDX 50 57 51 58 65 60 86 61 53 62 37 63 38 64 46 65 39 66 40 67
REMARK SMILES IDX 44 68 47 69 41 70 42 71 45 72 43 73 69 74 70 75 78 76 71 77
REMARK SMILES IDX 72 78 76 79 79 80 73 81 74 82 77 83 75 84 54 85 55 86 63 87
REMARK SMILES IDX 56 88 57 89 61 90 64 91 58 92 59 93 62 94 60 95
REMARK H PARENT 21 6 14 25 25 29 84 48 52 59
REMARK Flexibility Score: inf
ROOT
ATOM      1  C   UNL A   1      38.106  20.217  24.644  1.00  0.00     0.042 C 
ENDROOT
BRANCH   1   2
ATOM      2  C   UNL A   1      36.769  19.578  25.001  1.00  0.00     0.117 C 
BRANCH   2   3
ATOM      3  N   UNL A   1      35.684  20.536  24.957  1.00  0.00    -0.356 N 
ATOM      4  O   UNL A   1      33.997  19.064  24.431  1.00  0.00    -0.275 OA
ATOM      5  C   UNL A   1      34.369  20.189  24.738  1.00  0.00     0.220 C 
ATOM      6  H   UNL A   1      35.898  21.488  25.091  1.00  0.00     0.163 HD
BRANCH   5   7
ATOM      7  C   UNL A   1      33.413  21.345  24.978  1.00  0.00     0.103 C 
BRANCH   7   8
ATOM      8  C   UNL A   1      34.132  22.621  25.466  1.00  0.00     0.002 C 
ATOM      9  C   UNL A   1      33.541  23.121  26.798  1.00  0.00     0.026 C 
ATOM     10  C   UNL A   1      34.125  23.791  24.468  1.00  0.00     0.026 C 
ATOM     11  C   UNL A   1      32.177  23.803  26.637  1.00  0.00     0.120 C 
ATOM     12  C   UNL A   1      32.743  24.408  24.300  1.00  0.00     0.120 C 
ATOM     13  N   UNL A   1      32.188  24.819  25.584  1.00  0.00    -0.339 N 
ATOM     14  C   UNL A   1      31.633  26.074  25.842  1.00  0.00     0.253 C 
ATOM     15  O   UNL A   1      31.215  26.428  26.940  1.00  0.00    -0.269 OA
BRANCH  14  16
ATOM     16  C   UNL A   1      31.551  27.047  24.730  1.00  0.00     0.040 A 
ATOM     17  C   UNL A   1      32.718  27.597  24.188  1.00  0.00     0.016 A 
ATOM     18  C   UNL A   1      30.284  27.408  24.255  1.00  0.00     0.024 A 
ATOM     19  C   UNL A   1      32.646  28.576  23.192  1.00  0.00     0.027 A 
ATOM     20  C   UNL A   1      30.195  28.385  23.246  1.00  0.00     0.000 A 
ATOM     21  C   UNL A   1      31.370  28.953  22.750  1.00  0.00     0.045 A 
ATOM     22  C   UNL A   1      29.111  28.991  22.554  1.00  0.00     0.028 A 
ATOM     23  N   UNL A   1      30.999  29.884  21.805  1.00  0.00    -0.361 N 
ATOM     24  C   UNL A   1      29.636  29.907  21.672  1.00  0.00     0.083 A 
ATOM     25  H   UNL A   1      31.623  30.453  21.297  1.00  0.00     0.166 HD
ENDBRANCH  14  16
ENDBRANCH   7   8
ENDBRANCH   5   7
ENDBRANCH   2   3
ENDBRANCH   1   2
BRANCH   1  26
ATOM     26  C   UNL A   1      39.109  20.320  25.792  1.00  0.00     0.118 C 
BRANCH  26  27
ATOM     27  N   UNL A   1      40.044  19.209  25.866  1.00  0.00    -0.352 N 
ATOM     28  C   UNL A   1      41.398  19.229  26.115  1.00  0.00     0.251 C 
ATOM     29  H   UNL A   1      39.655  18.317  25.717  1.00  0.00     0.163 HD
ATOM     30  O   UNL A   1      42.056  18.194  26.052  1.00  0.00    -0.269 OA
BRANCH  28  31
ATOM     31  C   UNL A   1      42.077  20.506  26.424  1.00  0.00     0.039 A 
ATOM     32  C   UNL A   1      42.504  21.314  25.365  1.00  0.00     0.014 A 
ATOM     33  C   UNL A   1      42.278  20.920  27.743  1.00  0.00     0.014 A 
ATOM     34  C   UNL A   1      43.049  22.574  25.627  1.00  0.00     0.010 A 
ATOM     35  C   UNL A   1      42.758  22.203  28.001  1.00  0.00     0.010 A 
ATOM     36  C   UNL A   1      43.135  23.050  26.945  1.00  0.00    -0.014 A 
BRANCH  36  37
ATOM     37  C   UNL A   1      43.578  24.439  27.239  1.00  0.00     0.031 A 
ATOM     38  C   UNL A   1      42.601  25.459  27.753  1.00  0.00     0.074 A 
ATOM     39  C   UNL A   1      44.847  24.806  26.967  1.00  0.00     0.049 A 
ATOM     40  N   UNL A   1      42.776  26.740  27.970  1.00  0.00    -0.248 NA
ATOM     41  C   UNL A   1      41.241  24.982  28.041  1.00  0.00     0.031 C 
ATOM     42  C   UNL A   1      45.885  23.923  26.432  1.00  0.00     0.029 A 
ATOM     43  N   UNL A   1      45.476  26.021  27.086  1.00  0.00    -0.354 N 
ATOM     44  C   UNL A   1      41.549  27.220  28.405  1.00  0.00     0.074 A 
ATOM     45  C   UNL A   1      40.625  26.107  28.376  1.00  0.00     0.031 C 
ATOM     46  C   UNL A   1      47.022  24.621  26.283  1.00  0.00     0.029 A 
ATOM     47  C   UNL A   1      46.784  26.009  26.665  1.00  0.00     0.049 A 
ATOM     48  H   UNL A   1      45.032  26.825  27.439  1.00  0.00     0.167 HD
ATOM     49  C   UNL A   1      41.227  28.473  28.812  1.00  0.00     0.037 A 
ATOM     50  C   UNL A   1      47.686  27.006  26.577  1.00  0.00     0.037 A 
ATOM     51  C   UNL A   1      42.152  29.577  28.855  1.00  0.00     0.049 A 
ATOM     52  C   UNL A   1      47.292  28.397  27.000  1.00  0.00     0.074 A 
ATOM     53  C   UNL A   1      41.933  30.866  29.306  1.00  0.00     0.029 A 
ATOM     54  N   UNL A   1      43.469  29.524  28.424  1.00  0.00    -0.354 N 
ATOM     55  N   UNL A   1      46.147  28.824  27.473  1.00  0.00    -0.248 NA
ATOM     56  C   UNL A   1      48.317  29.443  26.878  1.00  0.00     0.031 C 
ATOM     57  C   UNL A   1      43.099  31.609  29.094  1.00  0.00     0.029 A 
ATOM     58  C   UNL A   1      44.064  30.767  28.569  1.00  0.00     0.049 A 
ATOM     59  H   UNL A   1      43.915  28.721  28.068  1.00  0.00     0.167 HD
ATOM     60  C   UNL A   1      46.322  30.177  27.732  1.00  0.00     0.074 A 
ATOM     61  C   UNL A   1      47.688  30.498  27.376  1.00  0.00     0.031 C 
ATOM     62  C   UNL A   1      45.429  31.073  28.219  1.00  0.00     0.037 A 
BRANCH  49  63
ATOM     63  C   UNL A   1      39.809  28.724  29.240  1.00  0.00     0.064 A 
ATOM     64  C   UNL A   1      39.402  28.559  30.573  1.00  0.00     0.173 A 
ATOM     65  C   UNL A   1      38.855  29.178  28.315  1.00  0.00     0.173 A 
ATOM     66  F   UNL A   1      40.270  28.118  31.495  1.00  0.00    -0.203 F 
ATOM     67  C   UNL A   1      38.087  28.810  30.957  1.00  0.00     0.198 A 
ATOM     68  C   UNL A   1      37.551  29.460  28.710  1.00  0.00     0.198 A 
ATOM     69  F   UNL A   1      39.193  29.358  27.030  1.00  0.00    -0.203 F 
ATOM     70  F   UNL A   1      37.709  28.597  32.225  1.00  0.00    -0.200 F 
ATOM     71  C   UNL A   1      37.165  29.269  30.029  1.00  0.00     0.200 A 
ATOM     72  F   UNL A   1      36.665  29.917  27.814  1.00  0.00    -0.200 F 
ATOM     73  F   UNL A   1      35.902  29.519  30.402  1.00  0.00    -0.200 F 
ENDBRANCH  49  63
BRANCH  50  74
ATOM     74  C   UNL A   1      49.057  26.729  26.071  1.00  0.00     0.064 A 
ATOM     75  C   UNL A   1      50.053  26.233  26.925  1.00  0.00     0.173 A 
ATOM     76  C   UNL A   1      49.403  26.962  24.732  1.00  0.00     0.173 A 
ATOM     77  F   UNL A   1      49.777  26.015  28.219  1.00  0.00    -0.203 F 
ATOM     78  C   UNL A   1      51.348  26.004  26.464  1.00  0.00     0.198 A 
ATOM     79  C   UNL A   1      50.691  26.703  24.266  1.00  0.00     0.198 A 
ATOM     80  F   UNL A   1      48.487  27.433  23.873  1.00  0.00    -0.203 F 
ATOM     81  F   UNL A   1      52.293  25.579  27.313  1.00  0.00    -0.200 F 
ATOM     82  C   UNL A   1      51.664  26.233  25.134  1.00  0.00     0.200 A 
ATOM     83  F   UNL A   1      50.987  26.911  22.975  1.00  0.00    -0.200 F 
ATOM     84  F   UNL A   1      52.908  26.009  24.690  1.00  0.00    -0.200 F 
ENDBRANCH  50  74
BRANCH  62  85
ATOM     85  C   UNL A   1      45.908  32.481  28.436  1.00  0.00     0.064 A 
ATOM     86  C   UNL A   1      46.482  32.887  29.649  1.00  0.00     0.173 A 
ATOM     87  C   UNL A   1      45.835  33.422  27.397  1.00  0.00     0.173 A 
ATOM     88  F   UNL A   1      46.560  32.030  30.680  1.00  0.00    -0.203 F 
ATOM     89  C   UNL A   1      46.945  34.189  29.823  1.00  0.00     0.198 A 
ATOM     90  C   UNL A   1      46.329  34.713  27.563  1.00  0.00     0.198 A 
ATOM     91  F   UNL A   1      45.301  33.085  26.214  1.00  0.00    -0.203 F 
ATOM     92  F   UNL A   1      47.448  34.567  31.006  1.00  0.00    -0.200 F 
ATOM     93  C   UNL A   1      46.878  35.097  28.777  1.00  0.00     0.200 A 
ATOM     94  F   UNL A   1      46.277  35.584  26.546  1.00  0.00    -0.200 F 
ATOM     95  F   UNL A   1      47.336  36.346  28.941  1.00  0.00    -0.200 F 
ENDBRANCH  62  85
ENDBRANCH  36  37
ENDBRANCH  28  31
ENDBRANCH  26  27
ENDBRANCH   1  26
TORSDOF 12
ENDMDL
