MODEL 1
REMARK VINA RESULT:     -10.1      0.000      0.000
REMARK SMILES CS(=O)(=O)c1ccc(/C=C(/C(=O)NCCCNC(=O)c2ccc(-c3c4nc(c(-c5c(F)c(F)c(F)c(F)c5F)c5ccc([nH]5)c(-c5c(F)c(F)c(F)c(F)c5F)c5nc(c(-c6c(F)c(F)c(F)c(F)c6F)c6ccc3[nH]6)C=C5)C=C4)cc2)c2ccc(-c3ccc(S(C)(=O)=O)cc3)cc2)cc1
REMARK SMILES IDX 14 1 13 2 11 3 12 4 10 6 9 7 8 8 5 9 6 10 100 11 7 12 99 13
REMARK SMILES IDX 2 14 1 15 3 16 4 17 83 18 84 19 98 20 85 21 97 22 86 23
REMARK SMILES IDX 87 24 88 25 96 26 89 27 95 28 90 29 91 30 92 31 93 32 94 33
REMARK SMILES IDX 15 34 16 35 17 36 18 37 19 39 20 40 21 41 82 42 22 43 81 44
REMARK SMILES IDX 23 45 24 46 25 47 75 48 26 49 80 50 74 51 76 52 27 53 79 54
REMARK SMILES IDX 73 55 72 56 28 58 60 59 40 60 59 61 41 62 44 63 58 64 77 65
REMARK SMILES IDX 42 66 43 67 57 69 78 70 45 71 29 72 30 73 38 74 31 75 32 76
REMARK SMILES IDX 36 77 39 78 33 79 34 80 37 81 35 82 61 83 62 84 70 85 63 86
REMARK SMILES IDX 64 87 68 88 71 89 65 90 66 91 69 92 67 93 46 94 47 95 55 96
REMARK SMILES IDX 48 97 49 98 53 99 56 100 50 101 51 102 54 103 52 104
REMARK H PARENT 13 5 17 38 76 57 44 68
REMARK Flexibility Score: inf
ROOT
ATOM      1  C   UNL A   1      34.331  33.785  32.260  1.00  0.00     0.118 C 
ENDROOT
BRANCH   1   2
ATOM      2  N   UNL A   1      34.759  33.797  33.644  1.00  0.00    -0.352 N 
ATOM      3  C   UNL A   1      35.950  33.601  34.265  1.00  0.00     0.251 C 
ATOM      4  O   UNL A   1      35.913  33.607  35.498  1.00  0.00    -0.269 OA
ATOM      5  H   UNL A   1      34.024  33.990  34.272  1.00  0.00     0.163 HD
BRANCH   3   6
ATOM      6  C   UNL A   1      37.264  33.475  33.530  1.00  0.00     0.047 C 
ATOM      7  C   UNL A   1      37.552  34.217  32.434  1.00  0.00     0.022 C 
BRANCH   7   8
ATOM      8  C   UNL A   1      38.821  34.312  31.674  1.00  0.00    -0.025 A 
ATOM      9  C   UNL A   1      41.089  34.748  30.067  1.00  0.00     0.067 A 
ATOM     10  C   UNL A   1      41.193  34.807  31.459  1.00  0.00     0.021 A 
ATOM     11  C   UNL A   1      39.881  34.397  29.469  1.00  0.00     0.021 A 
ATOM     12  C   UNL A   1      40.069  34.560  32.255  1.00  0.00     0.009 A 
ATOM     13  C   UNL A   1      38.755  34.181  30.274  1.00  0.00     0.009 A 
BRANCH   9  14
ATOM     14  S   UNL A   1      42.527  35.162  29.109  1.00  0.00     0.175 S 
ATOM     15  C   UNL A   1      41.960  35.968  27.639  1.00  0.00     0.163 C 
ATOM     16  O   UNL A   1      43.128  33.908  28.694  1.00  0.00    -0.224 OA
ATOM     17  O   UNL A   1      43.272  36.131  29.889  1.00  0.00    -0.224 OA
ENDBRANCH   9  14
ENDBRANCH   7   8
BRANCH   6  18
ATOM     18  C   UNL A   1      38.153  32.367  33.959  1.00  0.00    -0.013 A 
ATOM     19  C   UNL A   1      37.951  31.098  33.399  1.00  0.00     0.009 A 
ATOM     20  C   UNL A   1      39.238  32.552  34.823  1.00  0.00     0.009 A 
ATOM     21  C   UNL A   1      38.834  30.050  33.657  1.00  0.00     0.009 A 
ATOM     22  C   UNL A   1      40.141  31.505  35.053  1.00  0.00     0.009 A 
ATOM     23  C   UNL A   1      39.966  30.240  34.463  1.00  0.00    -0.018 A 
BRANCH  23  24
ATOM     24  C   UNL A   1      40.935  29.144  34.658  1.00  0.00    -0.018 A 
ATOM     25  C   UNL A   1      41.515  28.908  35.922  1.00  0.00     0.010 A 
ATOM     26  C   UNL A   1      41.316  28.307  33.595  1.00  0.00     0.010 A 
ATOM     27  C   UNL A   1      42.454  27.893  36.114  1.00  0.00     0.021 A 
ATOM     28  C   UNL A   1      42.254  27.287  33.777  1.00  0.00     0.021 A 
ATOM     29  C   UNL A   1      42.829  27.097  35.032  1.00  0.00     0.067 A 
BRANCH  29  30
ATOM     30  S   UNL A   1      44.043  25.825  35.276  1.00  0.00     0.175 S 
ATOM     31  C   UNL A   1      45.508  26.724  35.715  1.00  0.00     0.163 C 
ATOM     32  O   UNL A   1      43.622  25.047  36.423  1.00  0.00    -0.224 OA
ATOM     33  O   UNL A   1      44.286  25.193  33.991  1.00  0.00    -0.224 OA
ENDBRANCH  29  30
ENDBRANCH  23  24
ENDBRANCH   6  18
ENDBRANCH   3   6
ENDBRANCH   1   2
BRANCH   1  34
ATOM     34  C   UNL A   1      34.722  32.463  31.600  1.00  0.00     0.042 C 
BRANCH  34  35
ATOM     35  C   UNL A   1      35.142  32.618  30.138  1.00  0.00     0.118 C 
BRANCH  35  36
ATOM     36  N   UNL A   1      34.465  31.664  29.269  1.00  0.00    -0.352 N 
ATOM     37  C   UNL A   1      34.970  30.613  28.548  1.00  0.00     0.251 C 
ATOM     38  H   UNL A   1      33.493  31.795  29.188  1.00  0.00     0.163 HD
ATOM     39  O   UNL A   1      34.281  30.084  27.682  1.00  0.00    -0.269 OA
BRANCH  37  40
ATOM     40  C   UNL A   1      36.339  30.117  28.802  1.00  0.00     0.039 A 
ATOM     41  C   UNL A   1      37.323  30.333  27.832  1.00  0.00     0.014 A 
ATOM     42  C   UNL A   1      36.647  29.400  29.961  1.00  0.00     0.014 A 
ATOM     43  C   UNL A   1      38.625  29.880  28.051  1.00  0.00     0.010 A 
ATOM     44  C   UNL A   1      37.961  29.016  30.213  1.00  0.00     0.010 A 
ATOM     45  C   UNL A   1      38.963  29.247  29.259  1.00  0.00    -0.014 A 
BRANCH  45  46
ATOM     46  C   UNL A   1      40.357  28.820  29.538  1.00  0.00     0.031 A 
ATOM     47  C   UNL A   1      41.282  29.713  30.318  1.00  0.00     0.074 A 
ATOM     48  C   UNL A   1      40.807  27.652  29.036  1.00  0.00     0.049 A 
ATOM     49  N   UNL A   1      42.552  29.550  30.596  1.00  0.00    -0.248 NA
ATOM     50  C   UNL A   1      40.713  30.968  30.831  1.00  0.00     0.031 C 
ATOM     51  C   UNL A   1      40.019  26.723  28.227  1.00  0.00     0.029 A 
ATOM     52  N   UNL A   1      42.040  27.056  29.121  1.00  0.00    -0.354 N 
ATOM     53  C   UNL A   1      42.930  30.680  31.307  1.00  0.00     0.074 A 
ATOM     54  C   UNL A   1      41.776  31.550  31.366  1.00  0.00     0.031 C 
ATOM     55  C   UNL A   1      40.781  25.667  27.901  1.00  0.00     0.029 A 
ATOM     56  C   UNL A   1      42.121  25.864  28.442  1.00  0.00     0.049 A 
ATOM     57  H   UNL A   1      42.793  27.445  29.621  1.00  0.00     0.167 HD
ATOM     58  C   UNL A   1      44.125  30.955  31.884  1.00  0.00     0.037 A 
ATOM     59  C   UNL A   1      43.165  25.032  28.264  1.00  0.00     0.037 A 
ATOM     60  C   UNL A   1      45.268  30.082  31.832  1.00  0.00     0.049 A 
ATOM     61  C   UNL A   1      44.487  25.371  28.898  1.00  0.00     0.074 A 
ATOM     62  C   UNL A   1      46.512  30.251  32.415  1.00  0.00     0.029 A 
ATOM     63  N   UNL A   1      45.306  28.872  31.152  1.00  0.00    -0.354 N 
ATOM     64  N   UNL A   1      44.816  26.414  29.621  1.00  0.00    -0.248 NA
ATOM     65  C   UNL A   1      45.583  24.411  28.700  1.00  0.00     0.031 C 
ATOM     66  C   UNL A   1      47.318  29.169  32.047  1.00  0.00     0.029 A 
ATOM     67  C   UNL A   1      46.560  28.294  31.286  1.00  0.00     0.049 A 
ATOM     68  H   UNL A   1      44.555  28.482  30.651  1.00  0.00     0.167 HD
ATOM     69  C   UNL A   1      46.142  26.223  29.987  1.00  0.00     0.074 A 
ATOM     70  C   UNL A   1      46.552  24.955  29.421  1.00  0.00     0.031 C 
ATOM     71  C   UNL A   1      46.948  27.027  30.722  1.00  0.00     0.037 A 
BRANCH  58  72
ATOM     72  C   UNL A   1      44.255  32.255  32.630  1.00  0.00     0.064 A 
ATOM     73  C   UNL A   1      44.764  33.408  32.011  1.00  0.00     0.173 A 
ATOM     74  C   UNL A   1      43.831  32.362  33.962  1.00  0.00     0.173 A 
ATOM     75  F   UNL A   1      45.194  33.358  30.741  1.00  0.00    -0.203 F 
ATOM     76  C   UNL A   1      44.871  34.609  32.707  1.00  0.00     0.198 A 
ATOM     77  C   UNL A   1      43.908  33.573  34.645  1.00  0.00     0.198 A 
ATOM     78  F   UNL A   1      43.331  31.293  34.602  1.00  0.00    -0.203 F 
ATOM     79  F   UNL A   1      45.408  35.682  32.110  1.00  0.00    -0.200 F 
ATOM     80  C   UNL A   1      44.435  34.693  34.021  1.00  0.00     0.200 A 
ATOM     81  F   UNL A   1      43.472  33.656  35.910  1.00  0.00    -0.200 F 
ATOM     82  F   UNL A   1      44.530  35.852  34.687  1.00  0.00    -0.200 F 
ENDBRANCH  58  72
BRANCH  59  83
ATOM     83  C   UNL A   1      43.000  23.795  27.455  1.00  0.00     0.064 A 
ATOM     84  C   UNL A   1      42.507  22.615  28.029  1.00  0.00     0.173 A 
ATOM     85  C   UNL A   1      43.342  23.763  26.095  1.00  0.00     0.173 A 
ATOM     86  F   UNL A   1      42.182  22.589  29.330  1.00  0.00    -0.203 F 
ATOM     87  C   UNL A   1      42.387  21.445  27.281  1.00  0.00     0.198 A 
ATOM     88  C   UNL A   1      43.190  22.602  25.340  1.00  0.00     0.198 A 
ATOM     89  F   UNL A   1      43.811  24.867  25.493  1.00  0.00    -0.203 F 
ATOM     90  F   UNL A   1      41.962  20.318  27.869  1.00  0.00    -0.200 F 
ATOM     91  C   UNL A   1      42.723  21.440  25.936  1.00  0.00     0.200 A 
ATOM     92  F   UNL A   1      43.498  22.608  24.035  1.00  0.00    -0.200 F 
ATOM     93  F   UNL A   1      42.604  20.317  25.217  1.00  0.00    -0.200 F 
ENDBRANCH  59  83
BRANCH  71  94
ATOM     94  C   UNL A   1      48.343  26.541  30.994  1.00  0.00     0.064 A 
ATOM     95  C   UNL A   1      48.635  25.702  32.079  1.00  0.00     0.173 A 
ATOM     96  C   UNL A   1      49.396  26.890  30.132  1.00  0.00     0.173 A 
ATOM     97  F   UNL A   1      47.669  25.352  32.941  1.00  0.00    -0.203 F 
ATOM     98  C   UNL A   1      49.935  25.254  32.309  1.00  0.00     0.198 A 
ATOM     99  C   UNL A   1      50.685  26.413  30.345  1.00  0.00     0.198 A 
ATOM    100  F   UNL A   1      49.169  27.684  29.075  1.00  0.00    -0.203 F 
ATOM    101  F   UNL A   1      50.200  24.497  33.382  1.00  0.00    -0.200 F 
ATOM    102  C   UNL A   1      50.956  25.603  31.438  1.00  0.00     0.200 A 
ATOM    103  F   UNL A   1      51.667  26.737  29.493  1.00  0.00    -0.200 F 
ATOM    104  F   UNL A   1      52.202  25.163  31.655  1.00  0.00    -0.200 F 
ENDBRANCH  71  94
ENDBRANCH  45  46
ENDBRANCH  37  40
ENDBRANCH  35  36
ENDBRANCH  34  35
ENDBRANCH   1  34
TORSDOF 15
ENDMDL
MODEL 2
REMARK VINA RESULT:      -9.8      1.985      3.467
REMARK SMILES CS(=O)(=O)c1ccc(/C=C(/C(=O)NCCCNC(=O)c2ccc(-c3c4nc(c(-c5c(F)c(F)c(F)c(F)c5F)c5ccc([nH]5)c(-c5c(F)c(F)c(F)c(F)c5F)c5nc(c(-c6c(F)c(F)c(F)c(F)c6F)c6ccc3[nH]6)C=C5)C=C4)cc2)c2ccc(-c3ccc(S(C)(=O)=O)cc3)cc2)cc1
REMARK SMILES IDX 14 1 13 2 11 3 12 4 10 6 9 7 8 8 5 9 6 10 100 11 7 12 99 13
REMARK SMILES IDX 2 14 1 15 3 16 4 17 83 18 84 19 98 20 85 21 97 22 86 23
REMARK SMILES IDX 87 24 88 25 96 26 89 27 95 28 90 29 91 30 92 31 93 32 94 33
REMARK SMILES IDX 15 34 16 35 17 36 18 37 19 39 20 40 21 41 82 42 22 43 81 44
REMARK SMILES IDX 23 45 24 46 25 47 75 48 26 49 80 50 74 51 76 52 27 53 79 54
REMARK SMILES IDX 73 55 72 56 28 58 60 59 40 60 59 61 41 62 44 63 58 64 77 65
REMARK SMILES IDX 42 66 43 67 57 69 78 70 45 71 29 72 30 73 38 74 31 75 32 76
REMARK SMILES IDX 36 77 39 78 33 79 34 80 37 81 35 82 61 83 62 84 70 85 63 86
REMARK SMILES IDX 64 87 68 88 71 89 65 90 66 91 69 92 67 93 46 94 47 95 55 96
REMARK SMILES IDX 48 97 49 98 53 99 56 100 50 101 51 102 54 103 52 104
REMARK H PARENT 13 5 17 38 76 57 44 68
REMARK Flexibility Score: inf
ROOT
ATOM      1  C   UNL A   1      35.901  32.347  31.375  1.00  0.00     0.118 C 
ENDROOT
BRANCH   1   2
ATOM      2  N   UNL A   1      37.094  33.035  30.924  1.00  0.00    -0.352 N 
ATOM      3  C   UNL A   1      38.174  33.562  31.554  1.00  0.00     0.251 C 
ATOM      4  O   UNL A   1      38.974  34.159  30.829  1.00  0.00    -0.269 OA
ATOM      5  H   UNL A   1      37.129  33.142  29.945  1.00  0.00     0.163 HD
BRANCH   3   6
ATOM      6  C   UNL A   1      38.459  33.369  33.026  1.00  0.00     0.047 C 
ATOM      7  C   UNL A   1      38.120  34.295  33.954  1.00  0.00     0.022 C 
BRANCH   7   8
ATOM      8  C   UNL A   1      38.209  34.217  35.432  1.00  0.00    -0.025 A 
ATOM      9  C   UNL A   1      38.403  33.738  38.197  1.00  0.00     0.067 A 
ATOM     10  C   UNL A   1      39.327  34.570  37.562  1.00  0.00     0.021 A 
ATOM     11  C   UNL A   1      37.334  33.203  37.481  1.00  0.00     0.021 A 
ATOM     12  C   UNL A   1      39.210  34.829  36.193  1.00  0.00     0.009 A 
ATOM     13  C   UNL A   1      37.243  33.445  36.104  1.00  0.00     0.009 A 
BRANCH   9  14
ATOM     14  S   UNL A   1      38.658  33.371  39.917  1.00  0.00     0.175 S 
ATOM     15  C   UNL A   1      37.136  32.723  40.544  1.00  0.00     0.163 C 
ATOM     16  O   UNL A   1      38.881  34.640  40.586  1.00  0.00    -0.224 OA
ATOM     17  O   UNL A   1      39.647  32.312  39.965  1.00  0.00    -0.224 OA
ENDBRANCH   9  14
ENDBRANCH   7   8
BRANCH   6  18
ATOM     18  C   UNL A   1      39.294  32.195  33.385  1.00  0.00    -0.013 A 
ATOM     19  C   UNL A   1      38.770  30.914  33.161  1.00  0.00     0.009 A 
ATOM     20  C   UNL A   1      40.609  32.308  33.846  1.00  0.00     0.009 A 
ATOM     21  C   UNL A   1      39.551  29.775  33.350  1.00  0.00     0.009 A 
ATOM     22  C   UNL A   1      41.402  31.163  34.002  1.00  0.00     0.009 A 
ATOM     23  C   UNL A   1      40.894  29.877  33.742  1.00  0.00    -0.018 A 
BRANCH  23  24
ATOM     24  C   UNL A   1      41.732  28.667  33.855  1.00  0.00    -0.018 A 
ATOM     25  C   UNL A   1      42.863  28.492  33.032  1.00  0.00     0.010 A 
ATOM     26  C   UNL A   1      41.429  27.651  34.778  1.00  0.00     0.010 A 
ATOM     27  C   UNL A   1      43.648  27.340  33.108  1.00  0.00     0.021 A 
ATOM     28  C   UNL A   1      42.209  26.494  34.864  1.00  0.00     0.021 A 
ATOM     29  C   UNL A   1      43.305  26.340  34.017  1.00  0.00     0.067 A 
BRANCH  29  30
ATOM     30  S   UNL A   1      44.291  24.866  34.092  1.00  0.00     0.175 S 
ATOM     31  C   UNL A   1      45.052  24.790  32.491  1.00  0.00     0.163 C 
ATOM     32  O   UNL A   1      45.326  25.095  35.080  1.00  0.00    -0.224 OA
ATOM     33  O   UNL A   1      43.388  23.734  34.201  1.00  0.00    -0.224 OA
ENDBRANCH  29  30
ENDBRANCH  23  24
ENDBRANCH   6  18
ENDBRANCH   3   6
ENDBRANCH   1   2
BRANCH   1  34
ATOM     34  C   UNL A   1      34.710  32.729  30.495  1.00  0.00     0.042 C 
BRANCH  34  35
ATOM     35  C   UNL A   1      34.947  32.463  29.008  1.00  0.00     0.118 C 
BRANCH  35  36
ATOM     36  N   UNL A   1      34.311  31.230  28.564  1.00  0.00    -0.352 N 
ATOM     37  C   UNL A   1      34.869  30.048  28.150  1.00  0.00     0.251 C 
ATOM     38  H   UNL A   1      33.327  31.249  28.562  1.00  0.00     0.163 HD
ATOM     39  O   UNL A   1      34.172  29.215  27.578  1.00  0.00    -0.269 OA
BRANCH  37  40
ATOM     40  C   UNL A   1      36.302  29.772  28.380  1.00  0.00     0.039 A 
ATOM     41  C   UNL A   1      36.706  29.308  29.635  1.00  0.00     0.014 A 
ATOM     42  C   UNL A   1      37.254  30.015  27.386  1.00  0.00     0.014 A 
ATOM     43  C   UNL A   1      38.053  29.035  29.875  1.00  0.00     0.010 A 
ATOM     44  C   UNL A   1      38.586  29.671  27.600  1.00  0.00     0.010 A 
ATOM     45  C   UNL A   1      39.001  29.182  28.848  1.00  0.00    -0.014 A 
BRANCH  45  46
ATOM     46  C   UNL A   1      40.427  28.831  29.064  1.00  0.00     0.031 A 
ATOM     47  C   UNL A   1      41.368  29.827  29.684  1.00  0.00     0.074 A 
ATOM     48  C   UNL A   1      40.887  27.635  28.645  1.00  0.00     0.049 A 
ATOM     49  N   UNL A   1      42.660  29.734  29.882  1.00  0.00    -0.248 NA
ATOM     50  C   UNL A   1      40.786  31.107  30.114  1.00  0.00     0.031 C 
ATOM     51  C   UNL A   1      40.082  26.605  27.989  1.00  0.00     0.029 A 
ATOM     52  N   UNL A   1      42.146  27.091  28.695  1.00  0.00    -0.354 N 
ATOM     53  C   UNL A   1      43.041  30.942  30.452  1.00  0.00     0.074 A 
ATOM     54  C   UNL A   1      41.860  31.774  30.511  1.00  0.00     0.031 C 
ATOM     55  C   UNL A   1      40.862  25.548  27.711  1.00  0.00     0.029 A 
ATOM     56  C   UNL A   1      42.228  25.841  28.131  1.00  0.00     0.049 A 
ATOM     57  H   UNL A   1      42.916  27.552  29.099  1.00  0.00     0.167 HD
ATOM     58  C   UNL A   1      44.261  31.312  30.910  1.00  0.00     0.037 A 
ATOM     59  C   UNL A   1      43.289  25.031  27.957  1.00  0.00     0.037 A 
ATOM     60  C   UNL A   1      45.432  30.476  30.858  1.00  0.00     0.049 A 
ATOM     61  C   UNL A   1      44.637  25.474  28.457  1.00  0.00     0.074 A 
ATOM     62  C   UNL A   1      46.706  30.742  31.330  1.00  0.00     0.029 A 
ATOM     63  N   UNL A   1      45.471  29.206  30.297  1.00  0.00    -0.354 N 
ATOM     64  N   UNL A   1      44.974  26.594  29.050  1.00  0.00    -0.248 NA
ATOM     65  C   UNL A   1      45.754  24.536  28.272  1.00  0.00     0.031 C 
ATOM     66  C   UNL A   1      47.527  29.656  31.009  1.00  0.00     0.029 A 
ATOM     67  C   UNL A   1      46.753  28.686  30.394  1.00  0.00     0.049 A 
ATOM     68  H   UNL A   1      44.703  28.744  29.892  1.00  0.00     0.167 HD
ATOM     69  C   UNL A   1      46.329  26.484  29.335  1.00  0.00     0.074 A 
ATOM     70  C   UNL A   1      46.748  25.180  28.865  1.00  0.00     0.031 C 
ATOM     71  C   UNL A   1      47.151  27.382  29.928  1.00  0.00     0.037 A 
BRANCH  58  72
ATOM     72  C   UNL A   1      44.391  32.682  31.515  1.00  0.00     0.064 A 
ATOM     73  C   UNL A   1      44.445  33.835  30.716  1.00  0.00     0.173 A 
ATOM     74  C   UNL A   1      44.422  32.850  32.908  1.00  0.00     0.173 A 
ATOM     75  F   UNL A   1      44.430  33.730  29.379  1.00  0.00    -0.203 F 
ATOM     76  C   UNL A   1      44.555  35.100  31.287  1.00  0.00     0.198 A 
ATOM     77  C   UNL A   1      44.498  34.119  33.476  1.00  0.00     0.198 A 
ATOM     78  F   UNL A   1      44.367  31.783  33.720  1.00  0.00    -0.203 F 
ATOM     79  F   UNL A   1      44.657  36.181  30.502  1.00  0.00    -0.200 F 
ATOM     80  C   UNL A   1      44.573  35.242  32.666  1.00  0.00     0.200 A 
ATOM     81  F   UNL A   1      44.500  34.256  34.810  1.00  0.00    -0.200 F 
ATOM     82  F   UNL A   1      44.669  36.461  33.214  1.00  0.00    -0.200 F 
ENDBRANCH  58  72
BRANCH  59  83
ATOM     83  C   UNL A   1      43.117  23.715  27.286  1.00  0.00     0.064 A 
ATOM     84  C   UNL A   1      42.575  22.618  27.970  1.00  0.00     0.173 A 
ATOM     85  C   UNL A   1      43.501  23.523  25.950  1.00  0.00     0.173 A 
ATOM     86  F   UNL A   1      42.209  22.745  29.254  1.00  0.00    -0.203 F 
ATOM     87  C   UNL A   1      42.448  21.374  27.353  1.00  0.00     0.198 A 
ATOM     88  C   UNL A   1      43.343  22.289  25.324  1.00  0.00     0.198 A 
ATOM     89  F   UNL A   1      44.017  24.542  25.246  1.00  0.00    -0.203 F 
ATOM     90  F   UNL A   1      41.976  20.330  28.048  1.00  0.00    -0.200 F 
ATOM     91  C   UNL A   1      42.827  21.212  26.029  1.00  0.00     0.200 A 
ATOM     92  F   UNL A   1      43.692  22.142  24.038  1.00  0.00    -0.200 F 
ATOM     93  F   UNL A   1      42.702  20.018  25.436  1.00  0.00    -0.200 F 
ENDBRANCH  59  83
BRANCH  71  94
ATOM     94  C   UNL A   1      48.580  26.972  30.142  1.00  0.00     0.064 A 
ATOM     95  C   UNL A   1      49.575  27.238  29.190  1.00  0.00     0.173 A 
ATOM     96  C   UNL A   1      48.964  26.336  31.333  1.00  0.00     0.173 A 
ATOM     97  F   UNL A   1      49.259  27.830  28.029  1.00  0.00    -0.203 F 
ATOM     98  C   UNL A   1      50.898  26.858  29.411  1.00  0.00     0.198 A 
ATOM     99  C   UNL A   1      50.292  25.988  31.565  1.00  0.00     0.198 A 
ATOM    100  F   UNL A   1      48.053  26.064  32.278  1.00  0.00    -0.203 F 
ATOM    101  F   UNL A   1      51.821  27.076  28.466  1.00  0.00    -0.200 F 
ATOM    102  C   UNL A   1      51.255  26.241  30.600  1.00  0.00     0.200 A 
ATOM    103  F   UNL A   1      50.639  25.407  32.721  1.00  0.00    -0.200 F 
ATOM    104  F   UNL A   1      52.529  25.884  30.814  1.00  0.00    -0.200 F 
ENDBRANCH  71  94
ENDBRANCH  45  46
ENDBRANCH  37  40
ENDBRANCH  35  36
ENDBRANCH  34  35
ENDBRANCH   1  34
TORSDOF 15
ENDMDL
MODEL 3
REMARK VINA RESULT:      -9.8      4.009     10.512
REMARK SMILES CS(=O)(=O)c1ccc(/C=C(/C(=O)NCCCNC(=O)c2ccc(-c3c4nc(c(-c5c(F)c(F)c(F)c(F)c5F)c5ccc([nH]5)c(-c5c(F)c(F)c(F)c(F)c5F)c5nc(c(-c6c(F)c(F)c(F)c(F)c6F)c6ccc3[nH]6)C=C5)C=C4)cc2)c2ccc(-c3ccc(S(C)(=O)=O)cc3)cc2)cc1
REMARK SMILES IDX 14 1 13 2 11 3 12 4 10 6 9 7 8 8 5 9 6 10 100 11 7 12 99 13
REMARK SMILES IDX 2 14 1 15 3 16 4 17 83 18 84 19 98 20 85 21 97 22 86 23
REMARK SMILES IDX 87 24 88 25 96 26 89 27 95 28 90 29 91 30 92 31 93 32 94 33
REMARK SMILES IDX 15 34 16 35 17 36 18 37 19 39 20 40 21 41 82 42 22 43 81 44
REMARK SMILES IDX 23 45 24 46 25 47 75 48 26 49 80 50 74 51 76 52 27 53 79 54
REMARK SMILES IDX 73 55 72 56 28 58 60 59 40 60 59 61 41 62 44 63 58 64 77 65
REMARK SMILES IDX 42 66 43 67 57 69 78 70 45 71 29 72 30 73 38 74 31 75 32 76
REMARK SMILES IDX 36 77 39 78 33 79 34 80 37 81 35 82 61 83 62 84 70 85 63 86
REMARK SMILES IDX 64 87 68 88 71 89 65 90 66 91 69 92 67 93 46 94 47 95 55 96
REMARK SMILES IDX 48 97 49 98 53 99 56 100 50 101 51 102 54 103 52 104
REMARK H PARENT 13 5 17 38 76 57 44 68
REMARK Flexibility Score: inf
ROOT
ATOM      1  C   UNL A   1      43.039  23.527  25.911  1.00  0.00     0.118 C 
ENDROOT
BRANCH   1   2
ATOM      2  N   UNL A   1      43.359  23.735  27.309  1.00  0.00    -0.352 N 
ATOM      3  C   UNL A   1      44.397  24.316  27.962  1.00  0.00     0.251 C 
ATOM      4  O   UNL A   1      44.365  24.231  29.193  1.00  0.00    -0.269 OA
ATOM      5  H   UNL A   1      42.672  23.378  27.918  1.00  0.00     0.163 HD
BRANCH   3   6
ATOM      6  C   UNL A   1      45.486  25.102  27.269  1.00  0.00     0.047 C 
ATOM      7  C   UNL A   1      46.620  24.518  26.814  1.00  0.00     0.022 C 
BRANCH   7   8
ATOM      8  C   UNL A   1      47.719  25.106  26.012  1.00  0.00    -0.025 A 
ATOM      9  C   UNL A   1      49.603  26.481  24.438  1.00  0.00     0.067 A 
ATOM     10  C   UNL A   1      49.916  26.117  25.749  1.00  0.00     0.021 A 
ATOM     11  C   UNL A   1      48.387  26.097  23.876  1.00  0.00     0.021 A 
ATOM     12  C   UNL A   1      48.988  25.408  26.518  1.00  0.00     0.009 A 
ATOM     13  C   UNL A   1      47.453  25.413  24.665  1.00  0.00     0.009 A 
BRANCH   9  14
ATOM     14  S   UNL A   1      50.784  27.462  23.543  1.00  0.00     0.175 S 
ATOM     15  C   UNL A   1      52.380  26.759  23.843  1.00  0.00     0.163 C 
ATOM     16  O   UNL A   1      50.782  28.778  24.154  1.00  0.00    -0.224 OA
ATOM     17  O   UNL A   1      50.477  27.286  22.136  1.00  0.00    -0.224 OA
ENDBRANCH   9  14
ENDBRANCH   7   8
BRANCH   6  18
ATOM     18  C   UNL A   1      45.334  26.579  27.275  1.00  0.00    -0.013 A 
ATOM     19  C   UNL A   1      44.230  27.136  26.615  1.00  0.00     0.009 A 
ATOM     20  C   UNL A   1      46.187  27.429  27.985  1.00  0.00     0.009 A 
ATOM     21  C   UNL A   1      43.956  28.500  26.697  1.00  0.00     0.009 A 
ATOM     22  C   UNL A   1      45.890  28.795  28.093  1.00  0.00     0.009 A 
ATOM     23  C   UNL A   1      44.762  29.354  27.465  1.00  0.00    -0.018 A 
BRANCH  23  24
ATOM     24  C   UNL A   1      44.410  30.780  27.610  1.00  0.00    -0.018 A 
ATOM     25  C   UNL A   1      44.462  31.653  26.504  1.00  0.00     0.010 A 
ATOM     26  C   UNL A   1      44.020  31.314  28.850  1.00  0.00     0.010 A 
ATOM     27  C   UNL A   1      44.160  33.010  26.633  1.00  0.00     0.021 A 
ATOM     28  C   UNL A   1      43.714  32.671  28.990  1.00  0.00     0.021 A 
ATOM     29  C   UNL A   1      43.802  33.513  27.883  1.00  0.00     0.067 A 
BRANCH  29  30
ATOM     30  S   UNL A   1      43.443  35.244  28.047  1.00  0.00     0.175 S 
ATOM     31  C   UNL A   1      42.680  35.660  26.500  1.00  0.00     0.163 C 
ATOM     32  O   UNL A   1      42.452  35.378  29.096  1.00  0.00    -0.224 OA
ATOM     33  O   UNL A   1      44.708  35.954  28.116  1.00  0.00    -0.224 OA
ENDBRANCH  29  30
ENDBRANCH  23  24
ENDBRANCH   6  18
ENDBRANCH   3   6
ENDBRANCH   1   2
BRANCH   1  34
ATOM     34  C   UNL A   1      42.212  22.252  25.746  1.00  0.00     0.042 C 
BRANCH  34  35
ATOM     35  C   UNL A   1      41.004  22.189  26.681  1.00  0.00     0.118 C 
BRANCH  35  36
ATOM     36  N   UNL A   1      39.766  22.545  26.002  1.00  0.00    -0.352 N 
ATOM     37  C   UNL A   1      38.916  23.600  26.211  1.00  0.00     0.251 C 
ATOM     38  H   UNL A   1      39.499  21.932  25.279  1.00  0.00     0.163 HD
ATOM     39  O   UNL A   1      37.798  23.588  25.706  1.00  0.00    -0.269 OA
BRANCH  37  40
ATOM     40  C   UNL A   1      39.333  24.747  27.044  1.00  0.00     0.039 A 
ATOM     41  C   UNL A   1      40.160  25.724  26.481  1.00  0.00     0.014 A 
ATOM     42  C   UNL A   1      38.958  24.840  28.387  1.00  0.00     0.014 A 
ATOM     43  C   UNL A   1      40.562  26.819  27.246  1.00  0.00     0.010 A 
ATOM     44  C   UNL A   1      39.295  25.970  29.127  1.00  0.00     0.010 A 
ATOM     45  C   UNL A   1      40.105  26.969  28.567  1.00  0.00    -0.014 A 
BRANCH  45  46
ATOM     46  C   UNL A   1      40.467  28.162  29.373  1.00  0.00     0.031 A 
ATOM     47  C   UNL A   1      41.791  28.225  30.082  1.00  0.00     0.074 A 
ATOM     48  C   UNL A   1      39.575  29.163  29.515  1.00  0.00     0.049 A 
ATOM     49  N   UNL A   1      42.254  29.145  30.893  1.00  0.00    -0.248 NA
ATOM     50  C   UNL A   1      42.707  27.094  29.874  1.00  0.00     0.031 C 
ATOM     51  C   UNL A   1      38.241  29.195  28.915  1.00  0.00     0.029 A 
ATOM     52  N   UNL A   1      39.649  30.337  30.221  1.00  0.00    -0.354 N 
ATOM     53  C   UNL A   1      43.507  28.699  31.292  1.00  0.00     0.074 A 
ATOM     54  C   UNL A   1      43.707  27.400  30.687  1.00  0.00     0.031 C 
ATOM     55  C   UNL A   1      37.628  30.337  29.264  1.00  0.00     0.029 A 
ATOM     56  C   UNL A   1      38.507  31.098  30.145  1.00  0.00     0.049 A 
ATOM     57  H   UNL A   1      40.446  30.609  30.731  1.00  0.00     0.167 HD
ATOM     58  C   UNL A   1      44.419  29.328  32.072  1.00  0.00     0.037 A 
ATOM     59  C   UNL A   1      38.199  32.268  30.734  1.00  0.00     0.037 A 
ATOM     60  C   UNL A   1      44.219  30.625  32.663  1.00  0.00     0.049 A 
ATOM     61  C   UNL A   1      39.223  32.938  31.612  1.00  0.00     0.074 A 
ATOM     62  C   UNL A   1      45.095  31.367  33.437  1.00  0.00     0.029 A 
ATOM     63  N   UNL A   1      43.056  31.375  32.547  1.00  0.00    -0.354 N 
ATOM     64  N   UNL A   1      40.429  32.535  31.933  1.00  0.00    -0.248 NA
ATOM     65  C   UNL A   1      38.847  34.230  32.201  1.00  0.00     0.031 C 
ATOM     66  C   UNL A   1      44.445  32.540  33.831  1.00  0.00     0.029 A 
ATOM     67  C   UNL A   1      43.186  32.561  33.252  1.00  0.00     0.049 A 
ATOM     68  H   UNL A   1      42.258  31.104  32.039  1.00  0.00     0.167 HD
ATOM     69  C   UNL A   1      40.964  33.534  32.736  1.00  0.00     0.074 A 
ATOM     70  C   UNL A   1      39.958  34.570  32.837  1.00  0.00     0.031 C 
ATOM     71  C   UNL A   1      42.177  33.586  33.337  1.00  0.00     0.037 A 
BRANCH  58  72
ATOM     72  C   UNL A   1      45.723  28.624  32.325  1.00  0.00     0.064 A 
ATOM     73  C   UNL A   1      46.895  28.981  31.639  1.00  0.00     0.173 A 
ATOM     74  C   UNL A   1      45.814  27.610  33.290  1.00  0.00     0.173 A 
ATOM     75  F   UNL A   1      46.862  29.937  30.698  1.00  0.00    -0.203 F 
ATOM     76  C   UNL A   1      48.100  28.329  31.888  1.00  0.00     0.198 A 
ATOM     77  C   UNL A   1      47.028  26.984  33.561  1.00  0.00     0.198 A 
ATOM     78  F   UNL A   1      44.727  27.233  33.980  1.00  0.00    -0.203 F 
ATOM     79  F   UNL A   1      49.193  28.653  31.184  1.00  0.00    -0.200 F 
ATOM     80  C   UNL A   1      48.168  27.337  32.854  1.00  0.00     0.200 A 
ATOM     81  F   UNL A   1      47.095  26.035  34.506  1.00  0.00    -0.200 F 
ATOM     82  F   UNL A   1      49.330  26.718  33.100  1.00  0.00    -0.200 F 
ENDBRANCH  58  72
BRANCH  59  83
ATOM     83  C   UNL A   1      36.865  32.886  30.507  1.00  0.00     0.064 A 
ATOM     84  C   UNL A   1      36.581  33.580  29.323  1.00  0.00     0.173 A 
ATOM     85  C   UNL A   1      35.852  32.806  31.474  1.00  0.00     0.173 A 
ATOM     86  F   UNL A   1      37.522  33.700  28.375  1.00  0.00    -0.203 F 
ATOM     87  C   UNL A   1      35.344  34.192  29.125  1.00  0.00     0.198 A 
ATOM     88  C   UNL A   1      34.604  33.388  31.262  1.00  0.00     0.198 A 
ATOM     89  F   UNL A   1      36.069  32.146  32.622  1.00  0.00    -0.203 F 
ATOM     90  F   UNL A   1      35.118  34.893  28.007  1.00  0.00    -0.200 F 
ATOM     91  C   UNL A   1      34.355  34.091  30.092  1.00  0.00     0.200 A 
ATOM     92  F   UNL A   1      33.645  33.271  32.191  1.00  0.00    -0.200 F 
ATOM     93  F   UNL A   1      33.165  34.675  29.900  1.00  0.00    -0.200 F 
ENDBRANCH  59  83
BRANCH  71  94
ATOM     94  C   UNL A   1      42.503  34.823  34.125  1.00  0.00     0.064 A 
ATOM     95  C   UNL A   1      42.318  34.884  35.513  1.00  0.00     0.173 A 
ATOM     96  C   UNL A   1      43.043  35.950  33.484  1.00  0.00     0.173 A 
ATOM     97  F   UNL A   1      41.791  33.840  36.171  1.00  0.00    -0.203 F 
ATOM     98  C   UNL A   1      42.635  36.037  36.228  1.00  0.00     0.198 A 
ATOM     99  C   UNL A   1      43.390  37.088  34.206  1.00  0.00     0.198 A 
ATOM    100  F   UNL A   1      43.246  35.942  32.159  1.00  0.00    -0.203 F 
ATOM    101  F   UNL A   1      42.401  36.091  37.546  1.00  0.00    -0.200 F 
ATOM    102  C   UNL A   1      43.177  37.134  35.576  1.00  0.00     0.200 A 
ATOM    103  F   UNL A   1      43.929  38.141  33.577  1.00  0.00    -0.200 F 
ATOM    104  F   UNL A   1      43.490  38.238  36.267  1.00  0.00    -0.200 F 
ENDBRANCH  71  94
ENDBRANCH  45  46
ENDBRANCH  37  40
ENDBRANCH  35  36
ENDBRANCH  34  35
ENDBRANCH   1  34
TORSDOF 15
ENDMDL
