MODEL 1
REMARK VINA RESULT:     -11.3      0.000      0.000
REMARK SMILES Cc1nc(CSCC(=O)N2CCCC[C@@H]2C(=O)NCCCNC(=O)c2ccc(-c3c4nc(c(-c5c(F)c(F)c(F)c(F)c5F)c5ccc([nH]5)c(-c5c(F)c(F)c(F)c(F)c5F)c5nc(c(-c6c(F)c(F)c(F)c(F)c6F)c6ccc3[nH]6)C=C5)C=C4)cc2)cs1
REMARK SMILES IDX 16 1 17 2 18 3 15 5 10 6 11 7 12 8 14 9 13 10 8 11 9 12 7 13
REMARK SMILES IDX 6 14 5 15 4 16 1 17 2 18 3 19 89 20 88 21 19 22 20 23 21 24
REMARK SMILES IDX 22 25 23 26 24 28 25 29 26 30 87 31 27 32 86 33 28 34 29 35
REMARK SMILES IDX 30 36 80 37 31 38 85 39 79 40 81 41 32 42 84 43 78 44 77 45
REMARK SMILES IDX 33 47 65 48 45 49 64 50 46 51 49 52 63 53 82 54 47 55 48 56
REMARK SMILES IDX 62 58 83 59 50 60 34 61 35 62 43 63 36 64 37 65 41 66 44 67
REMARK SMILES IDX 38 68 39 69 42 70 40 71 66 72 67 73 75 74 68 75 69 76 73 77
REMARK SMILES IDX 76 78 70 79 71 80 74 81 72 82 51 83 52 84 60 85 53 86 54 87
REMARK SMILES IDX 58 88 61 89 55 90 56 91 59 92 57 93
REMARK H PARENT 18 4 22 27 81 46 49 57
REMARK Flexibility Score: inf
ROOT
ATOM      1  C   UNL A   1      33.882  24.687  25.870  1.00  0.00     0.242 C 
ATOM      2  O   UNL A   1      33.514  23.775  26.616  1.00  0.00    -0.273 OA
ATOM      3  N   UNL A   1      33.056  25.771  25.770  1.00  0.00    -0.354 N 
ATOM      4  H   UNL A   1      32.233  25.718  26.309  1.00  0.00     0.163 HD
ENDROOT
BRANCH   1   5
ATOM      5  C   UNL A   1      35.084  24.499  24.920  1.00  0.00     0.174 C 
ATOM      6  N   UNL A   1      34.884  23.495  23.852  1.00  0.00    -0.330 N 
ATOM      7  C   UNL A   1      36.078  22.834  23.327  1.00  0.00     0.120 C 
ATOM      8  C   UNL A   1      37.000  22.300  24.406  1.00  0.00     0.022 C 
ATOM      9  C   UNL A   1      36.214  24.113  25.920  1.00  0.00     0.035 C 
ATOM     10  C   UNL A   1      37.429  23.433  25.320  1.00  0.00     0.004 C 
BRANCH   6  11
ATOM     11  C   UNL A   1      33.782  23.431  23.001  1.00  0.00     0.233 C 
ATOM     12  O   UNL A   1      33.578  24.373  22.223  1.00  0.00    -0.274 OA
BRANCH  11  13
ATOM     13  C   UNL A   1      32.693  22.383  23.182  1.00  0.00     0.170 C 
BRANCH  13  14
ATOM     14  S   UNL A   1      32.806  21.177  24.522  1.00  0.00    -0.146 SA
BRANCH  14  15
ATOM     15  C   UNL A   1      32.516  19.607  23.679  1.00  0.00     0.127 C 
BRANCH  15  16
ATOM     16  C   UNL A   1      33.089  18.379  24.290  1.00  0.00     0.061 A 
ATOM     17  C   UNL A   1      32.155  15.256  25.945  1.00  0.00     0.079 C 
ATOM     18  C   UNL A   1      32.820  16.405  25.273  1.00  0.00     0.090 A 
ATOM     19  N   UNL A   1      32.201  17.507  24.909  1.00  0.00    -0.246 NA
ATOM     20  S   UNL A   1      34.496  16.349  24.903  1.00  0.00    -0.127 S 
ATOM     21  C   UNL A   1      34.382  17.903  24.187  1.00  0.00     0.091 A 
ENDBRANCH  15  16
ENDBRANCH  14  15
ENDBRANCH  13  14
ENDBRANCH  11  13
ENDBRANCH   6  11
ENDBRANCH   1   5
BRANCH   3  22
ATOM     22  C   UNL A   1      33.205  26.994  24.989  1.00  0.00     0.117 C 
BRANCH  22  23
ATOM     23  C   UNL A   1      34.036  28.037  25.711  1.00  0.00     0.042 C 
BRANCH  23  24
ATOM     24  C   UNL A   1      33.582  28.291  27.140  1.00  0.00     0.118 C 
BRANCH  24  25
ATOM     25  N   UNL A   1      33.446  29.699  27.485  1.00  0.00    -0.352 N 
ATOM     26  C   UNL A   1      34.395  30.529  28.043  1.00  0.00     0.251 C 
ATOM     27  H   UNL A   1      32.570  30.108  27.298  1.00  0.00     0.163 HD
ATOM     28  O   UNL A   1      34.124  31.676  28.379  1.00  0.00    -0.269 OA
BRANCH  26  29
ATOM     29  C   UNL A   1      35.761  30.001  28.266  1.00  0.00     0.039 A 
ATOM     30  C   UNL A   1      36.720  30.144  27.263  1.00  0.00     0.014 A 
ATOM     31  C   UNL A   1      36.105  29.428  29.494  1.00  0.00     0.014 A 
ATOM     32  C   UNL A   1      38.045  29.778  27.519  1.00  0.00     0.010 A 
ATOM     33  C   UNL A   1      37.438  29.158  29.780  1.00  0.00     0.010 A 
ATOM     34  C   UNL A   1      38.424  29.319  28.793  1.00  0.00    -0.014 A 
BRANCH  34  35
ATOM     35  C   UNL A   1      39.839  28.988  29.106  1.00  0.00     0.031 A 
ATOM     36  C   UNL A   1      40.696  29.973  29.852  1.00  0.00     0.074 A 
ATOM     37  C   UNL A   1      40.376  27.835  28.662  1.00  0.00     0.049 A 
ATOM     38  N   UNL A   1      41.961  29.893  30.178  1.00  0.00    -0.248 NA
ATOM     39  C   UNL A   1      40.056  31.237  30.250  1.00  0.00     0.031 C 
ATOM     40  C   UNL A   1      39.679  26.830  27.859  1.00  0.00     0.029 A 
ATOM     41  N   UNL A   1      41.640  27.322  28.811  1.00  0.00    -0.354 N 
ATOM     42  C   UNL A   1      42.268  31.094  30.802  1.00  0.00     0.074 A 
ATOM     43  C   UNL A   1      41.078  31.916  30.746  1.00  0.00     0.031 C 
ATOM     44  C   UNL A   1      40.516  25.812  27.606  1.00  0.00     0.029 A 
ATOM     45  C   UNL A   1      41.816  26.104  28.201  1.00  0.00     0.049 A 
ATOM     46  H   UNL A   1      42.354  27.782  29.308  1.00  0.00     0.167 HD
ATOM     47  C   UNL A   1      43.424  31.470  31.401  1.00  0.00     0.037 A 
ATOM     48  C   UNL A   1      42.902  25.311  28.131  1.00  0.00     0.037 A 
ATOM     49  C   UNL A   1      44.597  30.641  31.483  1.00  0.00     0.049 A 
ATOM     50  C   UNL A   1      44.168  25.730  28.829  1.00  0.00     0.074 A 
ATOM     51  C   UNL A   1      45.792  30.899  32.131  1.00  0.00     0.029 A 
ATOM     52  N   UNL A   1      44.722  29.393  30.892  1.00  0.00    -0.354 N 
ATOM     53  N   UNL A   1      44.418  26.830  29.496  1.00  0.00    -0.248 NA
ATOM     54  C   UNL A   1      45.298  24.793  28.775  1.00  0.00     0.031 C 
ATOM     55  C   UNL A   1      46.656  29.823  31.896  1.00  0.00     0.029 A 
ATOM     56  C   UNL A   1      45.983  28.875  31.143  1.00  0.00     0.049 A 
ATOM     57  H   UNL A   1      44.019  28.940  30.373  1.00  0.00     0.167 HD
ATOM     58  C   UNL A   1      45.721  26.711  29.957  1.00  0.00     0.074 A 
ATOM     59  C   UNL A   1      46.206  25.421  29.509  1.00  0.00     0.031 C 
ATOM     60  C   UNL A   1      46.451  27.591  30.687  1.00  0.00     0.037 A 
BRANCH  47  61
ATOM     61  C   UNL A   1      43.462  32.837  32.021  1.00  0.00     0.064 A 
ATOM     62  C   UNL A   1      43.876  33.964  31.293  1.00  0.00     0.173 A 
ATOM     63  C   UNL A   1      43.080  33.026  33.358  1.00  0.00     0.173 A 
ATOM     64  F   UNL A   1      44.263  33.837  30.015  1.00  0.00    -0.203 F 
ATOM     65  C   UNL A   1      43.948  35.219  31.891  1.00  0.00     0.198 A 
ATOM     66  C   UNL A   1      43.120  34.289  33.943  1.00  0.00     0.198 A 
ATOM     67  F   UNL A   1      42.669  31.986  34.098  1.00  0.00    -0.203 F 
ATOM     68  F   UNL A   1      44.410  36.266  31.194  1.00  0.00    -0.200 F 
ATOM     69  C   UNL A   1      43.565  35.381  33.214  1.00  0.00     0.200 A 
ATOM     70  F   UNL A   1      42.738  34.448  35.217  1.00  0.00    -0.200 F 
ATOM     71  F   UNL A   1      43.637  36.590  33.789  1.00  0.00    -0.200 F 
ENDBRANCH  47  61
BRANCH  48  72
ATOM     72  C   UNL A   1      42.823  24.020  27.397  1.00  0.00     0.064 A 
ATOM     73  C   UNL A   1      43.157  23.942  26.038  1.00  0.00     0.173 A 
ATOM     74  C   UNL A   1      42.437  22.839  28.045  1.00  0.00     0.173 A 
ATOM     75  F   UNL A   1      43.513  25.049  25.371  1.00  0.00    -0.203 F 
ATOM     76  C   UNL A   1      43.095  22.730  25.352  1.00  0.00     0.198 A 
ATOM     77  C   UNL A   1      42.401  21.624  27.364  1.00  0.00     0.198 A 
ATOM     78  F   UNL A   1      42.114  22.860  29.347  1.00  0.00    -0.203 F 
ATOM     79  F   UNL A   1      43.386  22.690  24.044  1.00  0.00    -0.200 F 
ATOM     80  C   UNL A   1      42.724  21.572  26.016  1.00  0.00     0.200 A 
ATOM     81  F   UNL A   1      42.057  20.503  28.014  1.00  0.00    -0.200 F 
ATOM     82  F   UNL A   1      42.677  20.405  25.359  1.00  0.00    -0.200 F 
ENDBRANCH  48  72
BRANCH  60  83
ATOM     83  C   UNL A   1      47.846  27.183  31.063  1.00  0.00     0.064 A 
ATOM     84  C   UNL A   1      48.953  27.551  30.286  1.00  0.00     0.173 A 
ATOM     85  C   UNL A   1      48.080  26.455  32.239  1.00  0.00     0.173 A 
ATOM     86  F   UNL A   1      48.780  28.236  29.145  1.00  0.00    -0.203 F 
ATOM     87  C   UNL A   1      50.244  27.186  30.661  1.00  0.00     0.198 A 
ATOM     88  C   UNL A   1      49.374  26.116  32.626  1.00  0.00     0.198 A 
ATOM     89  F   UNL A   1      47.056  26.084  33.020  1.00  0.00    -0.203 F 
ATOM     90  F   UNL A   1      51.284  27.512  29.881  1.00  0.00    -0.200 F 
ATOM     91  C   UNL A   1      50.453  26.476  31.834  1.00  0.00     0.200 A 
ATOM     92  F   UNL A   1      49.576  25.441  33.767  1.00  0.00    -0.200 F 
ATOM     93  F   UNL A   1      51.697  26.134  32.197  1.00  0.00    -0.200 F 
ENDBRANCH  60  83
ENDBRANCH  34  35
ENDBRANCH  26  29
ENDBRANCH  24  25
ENDBRANCH  23  24
ENDBRANCH  22  23
ENDBRANCH   3  22
TORSDOF 15
ENDMDL
MODEL 2
REMARK VINA RESULT:     -11.2      3.939      9.103
REMARK SMILES Cc1nc(CSCC(=O)N2CCCC[C@@H]2C(=O)NCCCNC(=O)c2ccc(-c3c4nc(c(-c5c(F)c(F)c(F)c(F)c5F)c5ccc([nH]5)c(-c5c(F)c(F)c(F)c(F)c5F)c5nc(c(-c6c(F)c(F)c(F)c(F)c6F)c6ccc3[nH]6)C=C5)C=C4)cc2)cs1
REMARK SMILES IDX 16 1 17 2 18 3 15 5 10 6 11 7 12 8 14 9 13 10 8 11 9 12 7 13
REMARK SMILES IDX 6 14 5 15 4 16 1 17 2 18 3 19 89 20 88 21 19 22 20 23 21 24
REMARK SMILES IDX 22 25 23 26 24 28 25 29 26 30 87 31 27 32 86 33 28 34 29 35
REMARK SMILES IDX 30 36 80 37 31 38 85 39 79 40 81 41 32 42 84 43 78 44 77 45
REMARK SMILES IDX 33 47 65 48 45 49 64 50 46 51 49 52 63 53 82 54 47 55 48 56
REMARK SMILES IDX 62 58 83 59 50 60 34 61 35 62 43 63 36 64 37 65 41 66 44 67
REMARK SMILES IDX 38 68 39 69 42 70 40 71 66 72 67 73 75 74 68 75 69 76 73 77
REMARK SMILES IDX 76 78 70 79 71 80 74 81 72 82 51 83 52 84 60 85 53 86 54 87
REMARK SMILES IDX 58 88 61 89 55 90 56 91 59 92 57 93
REMARK H PARENT 18 4 22 27 81 46 49 57
REMARK Flexibility Score: inf
ROOT
ATOM      1  C   UNL A   1      32.805  29.154  25.075  1.00  0.00     0.242 C 
ATOM      2  O   UNL A   1      33.783  28.791  24.415  1.00  0.00    -0.273 OA
ATOM      3  N   UNL A   1      33.061  29.891  26.198  1.00  0.00    -0.354 N 
ATOM      4  H   UNL A   1      34.015  30.061  26.375  1.00  0.00     0.163 HD
ENDROOT
BRANCH   1   5
ATOM      5  C   UNL A   1      31.396  28.597  24.781  1.00  0.00     0.174 C 
ATOM      6  N   UNL A   1      31.221  27.158  25.075  1.00  0.00    -0.330 N 
ATOM      7  C   UNL A   1      30.205  26.440  24.307  1.00  0.00     0.120 C 
ATOM      8  C   UNL A   1      30.293  26.680  22.812  1.00  0.00     0.022 C 
ATOM      9  C   UNL A   1      31.237  28.937  23.269  1.00  0.00     0.035 C 
ATOM     10  C   UNL A   1      30.167  28.164  22.523  1.00  0.00     0.004 C 
BRANCH   6  11
ATOM     11  C   UNL A   1      31.578  26.528  26.267  1.00  0.00     0.233 C 
ATOM     12  O   UNL A   1      31.364  27.117  27.336  1.00  0.00    -0.274 OA
BRANCH  11  13
ATOM     13  C   UNL A   1      32.451  25.281  26.280  1.00  0.00     0.170 C 
BRANCH  13  14
ATOM     14  S   UNL A   1      31.741  23.681  26.726  1.00  0.00    -0.146 SA
BRANCH  14  15
ATOM     15  C   UNL A   1      32.080  22.669  25.270  1.00  0.00     0.127 C 
BRANCH  15  16
ATOM     16  C   UNL A   1      33.472  22.188  25.072  1.00  0.00     0.061 A 
ATOM     17  C   UNL A   1      36.549  22.891  23.225  1.00  0.00     0.079 C 
ATOM     18  C   UNL A   1      35.472  22.399  24.126  1.00  0.00     0.090 A 
ATOM     19  N   UNL A   1      34.228  22.823  24.093  1.00  0.00    -0.246 NA
ATOM     20  S   UNL A   1      35.810  21.215  25.324  1.00  0.00    -0.127 S 
ATOM     21  C   UNL A   1      34.179  21.289  25.847  1.00  0.00     0.091 A 
ENDBRANCH  15  16
ENDBRANCH  14  15
ENDBRANCH  13  14
ENDBRANCH  11  13
ENDBRANCH   6  11
ENDBRANCH   1   5
BRANCH   3  22
ATOM     22  C   UNL A   1      32.140  30.463  27.173  1.00  0.00     0.117 C 
BRANCH  22  23
ATOM     23  C   UNL A   1      31.836  31.921  26.887  1.00  0.00     0.042 C 
BRANCH  23  24
ATOM     24  C   UNL A   1      32.971  32.861  27.262  1.00  0.00     0.118 C 
BRANCH  24  25
ATOM     25  N   UNL A   1      32.545  34.211  27.603  1.00  0.00    -0.352 N 
ATOM     26  C   UNL A   1      33.023  35.019  28.613  1.00  0.00     0.251 C 
ATOM     27  H   UNL A   1      31.827  34.593  27.047  1.00  0.00     0.163 HD
ATOM     28  O   UNL A   1      32.510  36.104  28.861  1.00  0.00    -0.269 OA
BRANCH  26  29
ATOM     29  C   UNL A   1      34.163  34.541  29.429  1.00  0.00     0.039 A 
ATOM     30  C   UNL A   1      33.912  33.884  30.635  1.00  0.00     0.014 A 
ATOM     31  C   UNL A   1      35.474  34.685  28.965  1.00  0.00     0.014 A 
ATOM     32  C   UNL A   1      34.973  33.307  31.339  1.00  0.00     0.010 A 
ATOM     33  C   UNL A   1      36.512  34.026  29.613  1.00  0.00     0.010 A 
ATOM     34  C   UNL A   1      36.277  33.338  30.814  1.00  0.00    -0.014 A 
BRANCH  34  35
ATOM     35  C   UNL A   1      37.407  32.672  31.513  1.00  0.00     0.031 A 
ATOM     36  C   UNL A   1      38.103  31.501  30.875  1.00  0.00     0.074 A 
ATOM     37  C   UNL A   1      37.765  33.072  32.749  1.00  0.00     0.049 A 
ATOM     38  N   UNL A   1      39.074  30.758  31.343  1.00  0.00    -0.248 NA
ATOM     39  C   UNL A   1      37.614  31.084  29.552  1.00  0.00     0.031 C 
ATOM     40  C   UNL A   1      37.121  34.141  33.513  1.00  0.00     0.029 A 
ATOM     41  N   UNL A   1      38.751  32.614  33.587  1.00  0.00    -0.354 N 
ATOM     42  C   UNL A   1      39.299  29.782  30.381  1.00  0.00     0.074 A 
ATOM     43  C   UNL A   1      38.318  29.983  29.337  1.00  0.00     0.031 C 
ATOM     44  C   UNL A   1      37.742  34.271  34.696  1.00  0.00     0.029 A 
ATOM     45  C   UNL A   1      38.808  33.278  34.787  1.00  0.00     0.049 A 
ATOM     46  H   UNL A   1      39.362  31.878  33.349  1.00  0.00     0.167 HD
ATOM     47  C   UNL A   1      40.259  28.826  30.348  1.00  0.00     0.037 A 
ATOM     48  C   UNL A   1      39.627  33.107  35.842  1.00  0.00     0.037 A 
ATOM     49  C   UNL A   1      41.253  28.646  31.372  1.00  0.00     0.049 A 
ATOM     50  C   UNL A   1      40.707  32.061  35.775  1.00  0.00     0.074 A 
ATOM     51  C   UNL A   1      42.313  27.757  31.399  1.00  0.00     0.029 A 
ATOM     52  N   UNL A   1      41.307  29.370  32.554  1.00  0.00    -0.354 N 
ATOM     53  N   UNL A   1      40.969  31.204  34.819  1.00  0.00    -0.248 NA
ATOM     54  C   UNL A   1      41.613  31.967  36.929  1.00  0.00     0.031 C 
ATOM     55  C   UNL A   1      42.983  27.914  32.618  1.00  0.00     0.029 A 
ATOM     56  C   UNL A   1      42.371  28.933  33.329  1.00  0.00     0.049 A 
ATOM     57  H   UNL A   1      40.683  30.088  32.806  1.00  0.00     0.167 HD
ATOM     58  C   UNL A   1      42.077  30.484  35.243  1.00  0.00     0.074 A 
ATOM     59  C   UNL A   1      42.451  31.017  36.537  1.00  0.00     0.031 C 
ATOM     60  C   UNL A   1      42.727  29.472  34.616  1.00  0.00     0.037 A 
BRANCH  47  61
ATOM     61  C   UNL A   1      40.276  27.912  29.158  1.00  0.00     0.064 A 
ATOM     62  C   UNL A   1      41.020  28.217  28.007  1.00  0.00     0.173 A 
ATOM     63  C   UNL A   1      39.544  26.715  29.165  1.00  0.00     0.173 A 
ATOM     64  F   UNL A   1      41.729  29.354  27.942  1.00  0.00    -0.203 F 
ATOM     65  C   UNL A   1      40.994  27.382  26.892  1.00  0.00     0.198 A 
ATOM     66  C   UNL A   1      39.548  25.865  28.062  1.00  0.00     0.198 A 
ATOM     67  F   UNL A   1      38.821  26.370  30.241  1.00  0.00    -0.203 F 
ATOM     68  F   UNL A   1      41.659  27.730  25.782  1.00  0.00    -0.200 F 
ATOM     69  C   UNL A   1      40.263  26.205  26.923  1.00  0.00     0.200 A 
ATOM     70  F   UNL A   1      38.852  24.721  28.097  1.00  0.00    -0.200 F 
ATOM     71  F   UNL A   1      40.238  25.403  25.850  1.00  0.00    -0.200 F 
ENDBRANCH  47  61
BRANCH  48  72
ATOM     72  C   UNL A   1      39.474  33.975  37.039  1.00  0.00     0.064 A 
ATOM     73  C   UNL A   1      38.754  33.540  38.160  1.00  0.00     0.173 A 
ATOM     74  C   UNL A   1      40.064  35.246  37.094  1.00  0.00     0.173 A 
ATOM     75  F   UNL A   1      38.156  32.340  38.145  1.00  0.00    -0.203 F 
ATOM     76  C   UNL A   1      38.620  34.348  39.287  1.00  0.00     0.198 A 
ATOM     77  C   UNL A   1      39.952  36.042  38.232  1.00  0.00     0.198 A 
ATOM     78  F   UNL A   1      40.769  35.706  36.050  1.00  0.00    -0.203 F 
ATOM     79  F   UNL A   1      37.897  33.920  40.331  1.00  0.00    -0.200 F 
ATOM     80  C   UNL A   1      39.225  35.595  39.326  1.00  0.00     0.200 A 
ATOM     81  F   UNL A   1      40.550  37.240  38.271  1.00  0.00    -0.200 F 
ATOM     82  F   UNL A   1      39.105  36.367  40.414  1.00  0.00    -0.200 F 
ENDBRANCH  48  72
BRANCH  60  83
ATOM     83  C   UNL A   1      43.921  28.885  35.312  1.00  0.00     0.064 A 
ATOM     84  C   UNL A   1      43.799  27.796  36.186  1.00  0.00     0.173 A 
ATOM     85  C   UNL A   1      45.206  29.389  35.064  1.00  0.00     0.173 A 
ATOM     86  F   UNL A   1      42.590  27.288  36.467  1.00  0.00    -0.203 F 
ATOM     87  C   UNL A   1      44.920  27.247  36.805  1.00  0.00     0.198 A 
ATOM     88  C   UNL A   1      46.327  28.820  35.662  1.00  0.00     0.198 A 
ATOM     89  F   UNL A   1      45.377  30.426  34.230  1.00  0.00    -0.203 F 
ATOM     90  F   UNL A   1      44.776  26.234  37.671  1.00  0.00    -0.200 F 
ATOM     91  C   UNL A   1      46.182  27.754  36.536  1.00  0.00     0.200 A 
ATOM     92  F   UNL A   1      47.548  29.303  35.390  1.00  0.00    -0.200 F 
ATOM     93  F   UNL A   1      47.260  27.219  37.126  1.00  0.00    -0.200 F 
ENDBRANCH  60  83
ENDBRANCH  34  35
ENDBRANCH  26  29
ENDBRANCH  24  25
ENDBRANCH  23  24
ENDBRANCH  22  23
ENDBRANCH   3  22
TORSDOF 15
ENDMDL
MODEL 3
REMARK VINA RESULT:     -11.2      3.926      9.091
REMARK SMILES Cc1nc(CSCC(=O)N2CCCC[C@@H]2C(=O)NCCCNC(=O)c2ccc(-c3c4nc(c(-c5c(F)c(F)c(F)c(F)c5F)c5ccc([nH]5)c(-c5c(F)c(F)c(F)c(F)c5F)c5nc(c(-c6c(F)c(F)c(F)c(F)c6F)c6ccc3[nH]6)C=C5)C=C4)cc2)cs1
REMARK SMILES IDX 16 1 17 2 18 3 15 5 10 6 11 7 12 8 14 9 13 10 8 11 9 12 7 13
REMARK SMILES IDX 6 14 5 15 4 16 1 17 2 18 3 19 89 20 88 21 19 22 20 23 21 24
REMARK SMILES IDX 22 25 23 26 24 28 25 29 26 30 87 31 27 32 86 33 28 34 29 35
REMARK SMILES IDX 30 36 80 37 31 38 85 39 79 40 81 41 32 42 84 43 78 44 77 45
REMARK SMILES IDX 33 47 65 48 45 49 64 50 46 51 49 52 63 53 82 54 47 55 48 56
REMARK SMILES IDX 62 58 83 59 50 60 34 61 35 62 43 63 36 64 37 65 41 66 44 67
REMARK SMILES IDX 38 68 39 69 42 70 40 71 66 72 67 73 75 74 68 75 69 76 73 77
REMARK SMILES IDX 76 78 70 79 71 80 74 81 72 82 51 83 52 84 60 85 53 86 54 87
REMARK SMILES IDX 58 88 61 89 55 90 56 91 59 92 57 93
REMARK H PARENT 18 4 22 27 81 46 49 57
REMARK Flexibility Score: inf
ROOT
ATOM      1  C   UNL A   1      32.751  29.201  25.022  1.00  0.00     0.242 C 
ATOM      2  O   UNL A   1      33.732  28.857  24.354  1.00  0.00    -0.273 OA
ATOM      3  N   UNL A   1      33.000  29.957  26.133  1.00  0.00    -0.354 N 
ATOM      4  H   UNL A   1      33.950  30.156  26.297  1.00  0.00     0.163 HD
ENDROOT
BRANCH   1   5
ATOM      5  C   UNL A   1      31.355  28.602  24.749  1.00  0.00     0.174 C 
ATOM      6  N   UNL A   1      31.222  27.163  25.065  1.00  0.00    -0.330 N 
ATOM      7  C   UNL A   1      30.219  26.407  24.318  1.00  0.00     0.120 C 
ATOM      8  C   UNL A   1      30.285  26.628  22.819  1.00  0.00     0.022 C 
ATOM      9  C   UNL A   1      31.172  28.916  23.235  1.00  0.00     0.035 C 
ATOM     10  C   UNL A   1      30.116  28.104  22.510  1.00  0.00     0.004 C 
BRANCH   6  11
ATOM     11  C   UNL A   1      31.609  26.560  26.262  1.00  0.00     0.233 C 
ATOM     12  O   UNL A   1      31.457  27.189  27.318  1.00  0.00    -0.274 OA
BRANCH  11  13
ATOM     13  C   UNL A   1      32.442  25.286  26.281  1.00  0.00     0.170 C 
BRANCH  13  14
ATOM     14  S   UNL A   1      31.668  23.701  26.674  1.00  0.00    -0.146 SA
BRANCH  14  15
ATOM     15  C   UNL A   1      32.001  22.713  25.200  1.00  0.00     0.127 C 
BRANCH  15  16
ATOM     16  C   UNL A   1      33.384  22.201  25.010  1.00  0.00     0.061 A 
ATOM     17  C   UNL A   1      36.532  22.918  23.295  1.00  0.00     0.079 C 
ATOM     18  C   UNL A   1      35.416  22.405  24.135  1.00  0.00     0.090 A 
ATOM     19  N   UNL A   1      34.187  22.871  24.094  1.00  0.00    -0.246 NA
ATOM     20  S   UNL A   1      35.682  21.138  25.264  1.00  0.00    -0.127 S 
ATOM     21  C   UNL A   1      34.039  21.232  25.746  1.00  0.00     0.091 A 
ENDBRANCH  15  16
ENDBRANCH  14  15
ENDBRANCH  13  14
ENDBRANCH  11  13
ENDBRANCH   6  11
ENDBRANCH   1   5
BRANCH   3  22
ATOM     22  C   UNL A   1      32.073  30.516  27.111  1.00  0.00     0.117 C 
BRANCH  22  23
ATOM     23  C   UNL A   1      31.777  31.980  26.850  1.00  0.00     0.042 C 
BRANCH  23  24
ATOM     24  C   UNL A   1      32.909  32.910  27.259  1.00  0.00     0.118 C 
BRANCH  24  25
ATOM     25  N   UNL A   1      32.482  34.255  27.615  1.00  0.00    -0.352 N 
ATOM     26  C   UNL A   1      32.973  35.060  28.621  1.00  0.00     0.251 C 
ATOM     27  H   UNL A   1      31.753  34.636  27.073  1.00  0.00     0.163 HD
ATOM     28  O   UNL A   1      32.459  36.141  28.884  1.00  0.00    -0.269 OA
BRANCH  26  29
ATOM     29  C   UNL A   1      34.129  34.584  29.416  1.00  0.00     0.039 A 
ATOM     30  C   UNL A   1      33.907  34.013  30.670  1.00  0.00     0.014 A 
ATOM     31  C   UNL A   1      35.422  34.642  28.887  1.00  0.00     0.014 A 
ATOM     32  C   UNL A   1      34.975  33.434  31.362  1.00  0.00     0.010 A 
ATOM     33  C   UNL A   1      36.460  33.979  29.529  1.00  0.00     0.010 A 
ATOM     34  C   UNL A   1      36.253  33.376  30.780  1.00  0.00    -0.014 A 
BRANCH  34  35
ATOM     35  C   UNL A   1      37.387  32.706  31.470  1.00  0.00     0.031 A 
ATOM     36  C   UNL A   1      38.083  31.542  30.819  1.00  0.00     0.074 A 
ATOM     37  C   UNL A   1      37.747  33.094  32.709  1.00  0.00     0.049 A 
ATOM     38  N   UNL A   1      39.057  30.796  31.276  1.00  0.00    -0.248 NA
ATOM     39  C   UNL A   1      37.593  31.137  29.492  1.00  0.00     0.031 C 
ATOM     40  C   UNL A   1      37.102  34.153  33.485  1.00  0.00     0.029 A 
ATOM     41  N   UNL A   1      38.736  32.629  33.540  1.00  0.00    -0.354 N 
ATOM     42  C   UNL A   1      39.282  29.831  30.304  1.00  0.00     0.074 A 
ATOM     43  C   UNL A   1      38.298  30.040  29.265  1.00  0.00     0.031 C 
ATOM     44  C   UNL A   1      37.726  34.273  34.668  1.00  0.00     0.029 A 
ATOM     45  C   UNL A   1      38.794  33.281  34.747  1.00  0.00     0.049 A 
ATOM     46  H   UNL A   1      39.347  31.897  33.294  1.00  0.00     0.167 HD
ATOM     47  C   UNL A   1      40.243  28.877  30.260  1.00  0.00     0.037 A 
ATOM     48  C   UNL A   1      39.616  33.101  35.798  1.00  0.00     0.037 A 
ATOM     49  C   UNL A   1      41.241  28.689  31.280  1.00  0.00     0.049 A 
ATOM     50  C   UNL A   1      40.697  32.057  35.718  1.00  0.00     0.074 A 
ATOM     51  C   UNL A   1      42.302  27.802  31.295  1.00  0.00     0.029 A 
ATOM     52  N   UNL A   1      41.296  29.401  32.468  1.00  0.00    -0.354 N 
ATOM     53  N   UNL A   1      40.959  31.211  34.753  1.00  0.00    -0.248 NA
ATOM     54  C   UNL A   1      41.606  31.954  36.869  1.00  0.00     0.031 C 
ATOM     55  C   UNL A   1      42.975  27.948  32.514  1.00  0.00     0.029 A 
ATOM     56  C   UNL A   1      42.362  28.959  33.236  1.00  0.00     0.049 A 
ATOM     57  H   UNL A   1      40.671  30.115  32.729  1.00  0.00     0.167 HD
ATOM     58  C   UNL A   1      42.070  30.489  35.167  1.00  0.00     0.074 A 
ATOM     59  C   UNL A   1      42.446  31.010  36.466  1.00  0.00     0.031 C 
ATOM     60  C   UNL A   1      42.720  29.485  34.529  1.00  0.00     0.037 A 
BRANCH  47  61
ATOM     61  C   UNL A   1      40.260  27.975  29.060  1.00  0.00     0.064 A 
ATOM     62  C   UNL A   1      39.547  26.766  29.038  1.00  0.00     0.173 A 
ATOM     63  C   UNL A   1      40.995  28.322  27.916  1.00  0.00     0.173 A 
ATOM     64  F   UNL A   1      38.837  26.381  30.110  1.00  0.00    -0.203 F 
ATOM     65  C   UNL A   1      39.605  25.917  27.936  1.00  0.00     0.198 A 
ATOM     66  C   UNL A   1      41.022  27.486  26.802  1.00  0.00     0.198 A 
ATOM     67  F   UNL A   1      41.689  29.468  27.878  1.00  0.00    -0.203 F 
ATOM     68  F   UNL A   1      38.969  24.738  27.968  1.00  0.00    -0.200 F 
ATOM     69  C   UNL A   1      40.337  26.281  26.817  1.00  0.00     0.200 A 
ATOM     70  F   UNL A   1      41.720  27.844  25.715  1.00  0.00    -0.200 F 
ATOM     71  F   UNL A   1      40.394  25.462  25.758  1.00  0.00    -0.200 F 
ENDBRANCH  47  61
BRANCH  48  72
ATOM     72  C   UNL A   1      39.464  33.957  37.004  1.00  0.00     0.064 A 
ATOM     73  C   UNL A   1      38.744  33.510  38.120  1.00  0.00     0.173 A 
ATOM     74  C   UNL A   1      40.055  35.226  37.072  1.00  0.00     0.173 A 
ATOM     75  F   UNL A   1      38.144  32.310  38.094  1.00  0.00    -0.203 F 
ATOM     76  C   UNL A   1      38.611  34.306  39.256  1.00  0.00     0.198 A 
ATOM     77  C   UNL A   1      39.943  36.010  38.219  1.00  0.00     0.198 A 
ATOM     78  F   UNL A   1      40.759  35.697  36.033  1.00  0.00    -0.203 F 
ATOM     79  F   UNL A   1      37.888  33.868  40.296  1.00  0.00    -0.200 F 
ATOM     80  C   UNL A   1      39.216  35.552  39.308  1.00  0.00     0.200 A 
ATOM     81  F   UNL A   1      40.542  37.208  38.270  1.00  0.00    -0.200 F 
ATOM     82  F   UNL A   1      39.098  36.313  40.404  1.00  0.00    -0.200 F 
ENDBRANCH  48  72
BRANCH  60  83
ATOM     83  C   UNL A   1      43.917  28.894  35.216  1.00  0.00     0.064 A 
ATOM     84  C   UNL A   1      45.206  29.405  35.015  1.00  0.00     0.173 A 
ATOM     85  C   UNL A   1      43.763  27.833  36.122  1.00  0.00     0.173 A 
ATOM     86  F   UNL A   1      45.407  30.409  34.148  1.00  0.00    -0.203 F 
ATOM     87  C   UNL A   1      46.303  28.861  35.679  1.00  0.00     0.198 A 
ATOM     88  C   UNL A   1      44.858  27.311  36.805  1.00  0.00     0.198 A 
ATOM     89  F   UNL A   1      42.549  27.313  36.354  1.00  0.00    -0.203 F 
ATOM     90  F   UNL A   1      47.533  29.337  35.439  1.00  0.00    -0.200 F 
ATOM     91  C   UNL A   1      46.126  27.821  36.579  1.00  0.00     0.200 A 
ATOM     92  F   UNL A   1      44.683  26.314  37.685  1.00  0.00    -0.200 F 
ATOM     93  F   UNL A   1      47.182  27.305  37.223  1.00  0.00    -0.200 F 
ENDBRANCH  60  83
ENDBRANCH  34  35
ENDBRANCH  26  29
ENDBRANCH  24  25
ENDBRANCH  23  24
ENDBRANCH  22  23
ENDBRANCH   3  22
TORSDOF 15
ENDMDL
