MODEL 1
REMARK VINA RESULT:     -11.3      0.000      0.000
REMARK SMILES CN(CCc1cccs1)C(=O)N[C@H](CC(N)=O)C(=O)NCCCNC(=O)c1ccc(-c2c3nc(c(-c4c(F)c(F)c(F)c(F)c4F)c4ccc([nH]4)c(-c4c(F)c(F)c(F)c(F)c4F)c4nc(c(-c5c(F)c(F)c(F)c(F)c5F)c5ccc2[nH]5)C=C4)C=C3)cc1
REMARK SMILES IDX 18 1 19 2 20 3 13 5 12 6 10 7 11 8 2 10 1 11 3 12 4 13 5 14
REMARK SMILES IDX 6 15 9 16 7 17 8 18 14 19 15 20 16 21 17 22 21 25 22 26
REMARK SMILES IDX 23 27 24 28 25 29 26 31 27 32 28 33 89 34 29 35 88 36 30 37
REMARK SMILES IDX 31 38 32 39 82 40 33 41 87 42 81 43 83 44 34 45 86 46 80 47
REMARK SMILES IDX 79 48 35 50 67 51 47 52 66 53 48 54 51 55 65 56 84 57 49 58
REMARK SMILES IDX 50 59 64 61 85 62 52 63 36 64 37 65 45 66 38 67 39 68 43 69
REMARK SMILES IDX 46 70 40 71 41 72 44 73 42 74 68 75 69 76 77 77 70 78 71 79
REMARK SMILES IDX 75 80 78 81 72 82 73 83 76 84 74 85 53 86 54 87 62 88 55 89
REMARK SMILES IDX 56 90 60 91 63 92 57 93 58 94 61 95 59 96
REMARK H PARENT 20 4 12 9 16 23 16 24 24 30 83 49 51 60
REMARK Flexibility Score: inf
ROOT
ATOM      1  C   UNL A   1      32.647  22.449  23.429  1.00  0.00     0.243 C 
ATOM      2  O   UNL A   1      32.204  21.284  23.382  1.00  0.00    -0.273 OA
ATOM      3  N   UNL A   1      33.994  22.453  23.578  1.00  0.00    -0.354 N 
ATOM      4  H   UNL A   1      34.288  21.545  23.820  1.00  0.00     0.163 HD
ENDROOT
BRANCH   1   5
ATOM      5  C   UNL A   1      31.577  23.584  23.593  1.00  0.00     0.182 C 
BRANCH   5   6
ATOM      6  N   UNL A   1      31.317  24.601  22.580  1.00  0.00    -0.326 N 
ATOM      7  C   UNL A   1      32.276  25.470  22.133  1.00  0.00     0.317 C 
ATOM      8  O   UNL A   1      33.041  25.127  21.237  1.00  0.00    -0.249 OA
ATOM      9  H   UNL A   1      30.411  24.666  22.201  1.00  0.00     0.166 HD
BRANCH   7  10
ATOM     10  N   UNL A   1      32.218  26.743  22.651  1.00  0.00    -0.328 N 
ATOM     11  C   UNL A   1      30.948  27.452  22.679  1.00  0.00     0.148 C 
BRANCH  10  12
ATOM     12  C   UNL A   1      33.357  27.393  23.278  1.00  0.00     0.126 C 
BRANCH  12  13
ATOM     13  C   UNL A   1      33.493  27.173  24.794  1.00  0.00     0.068 C 
BRANCH  13  14
ATOM     14  C   UNL A   1      33.458  28.376  25.720  1.00  0.00     0.006 A 
ATOM     15  C   UNL A   1      34.404  28.901  26.581  1.00  0.00     0.015 A 
ATOM     16  S   UNL A   1      32.070  29.395  25.713  1.00  0.00    -0.149 S 
ATOM     17  C   UNL A   1      34.006  30.089  27.245  1.00  0.00     0.012 A 
ATOM     18  C   UNL A   1      32.749  30.473  26.854  1.00  0.00     0.065 A 
ENDBRANCH  13  14
ENDBRANCH  12  13
ENDBRANCH  10  12
ENDBRANCH   7  10
ENDBRANCH   5   6
BRANCH   5  19
ATOM     19  C   UNL A   1      31.750  24.123  25.038  1.00  0.00     0.134 C 
BRANCH  19  20
ATOM     20  C   UNL A   1      30.973  23.482  26.166  1.00  0.00     0.220 C 
ATOM     21  N   UNL A   1      30.525  22.222  25.903  1.00  0.00    -0.370 N 
ATOM     22  O   UNL A   1      30.747  24.002  27.251  1.00  0.00    -0.275 OA
ATOM     23  H   UNL A   1      30.710  21.805  25.029  1.00  0.00     0.159 HD
ATOM     24  H   UNL A   1      30.018  21.727  26.586  1.00  0.00     0.159 HD
ENDBRANCH  19  20
ENDBRANCH   5  19
ENDBRANCH   1   5
BRANCH   3  25
ATOM     25  C   UNL A   1      35.173  23.329  23.509  1.00  0.00     0.117 C 
BRANCH  25  26
ATOM     26  C   UNL A   1      36.512  22.606  23.684  1.00  0.00     0.042 C 
BRANCH  26  27
ATOM     27  C   UNL A   1      36.802  22.142  25.121  1.00  0.00     0.118 C 
BRANCH  27  28
ATOM     28  N   UNL A   1      37.768  21.066  25.298  1.00  0.00    -0.352 N 
ATOM     29  C   UNL A   1      38.984  21.110  25.967  1.00  0.00     0.251 C 
ATOM     30  H   UNL A   1      37.528  20.201  24.895  1.00  0.00     0.163 HD
ATOM     31  O   UNL A   1      39.695  20.108  26.014  1.00  0.00    -0.269 OA
BRANCH  29  32
ATOM     32  C   UNL A   1      39.477  22.379  26.573  1.00  0.00     0.039 A 
ATOM     33  C   UNL A   1      40.432  22.324  27.597  1.00  0.00     0.014 A 
ATOM     34  C   UNL A   1      39.039  23.623  26.123  1.00  0.00     0.014 A 
ATOM     35  C   UNL A   1      41.032  23.501  28.069  1.00  0.00     0.010 A 
ATOM     36  C   UNL A   1      39.699  24.784  26.523  1.00  0.00     0.010 A 
ATOM     37  C   UNL A   1      40.720  24.740  27.487  1.00  0.00    -0.014 A 
BRANCH  37  38
ATOM     38  C   UNL A   1      41.452  25.996  27.831  1.00  0.00     0.031 A 
ATOM     39  C   UNL A   1      40.747  27.114  28.555  1.00  0.00     0.074 A 
ATOM     40  C   UNL A   1      42.708  26.191  27.375  1.00  0.00     0.049 A 
ATOM     41  N   UNL A   1      41.148  28.341  28.785  1.00  0.00    -0.248 NA
ATOM     42  C   UNL A   1      39.389  26.830  29.045  1.00  0.00     0.031 C 
ATOM     43  C   UNL A   1      43.486  25.229  26.591  1.00  0.00     0.029 A 
ATOM     44  N   UNL A   1      43.545  27.277  27.481  1.00  0.00    -0.354 N 
ATOM     45  C   UNL A   1      40.077  28.982  29.395  1.00  0.00     0.074 A 
ATOM     46  C   UNL A   1      38.996  28.024  29.464  1.00  0.00     0.031 C 
ATOM     47  C   UNL A   1      44.686  25.760  26.301  1.00  0.00     0.029 A 
ATOM     48  C   UNL A   1      44.751  27.113  26.843  1.00  0.00     0.049 A 
ATOM     49  H   UNL A   1      43.302  28.098  27.969  1.00  0.00     0.167 HD
ATOM     50  C   UNL A   1      40.007  30.248  29.874  1.00  0.00     0.037 A 
ATOM     51  C   UNL A   1      45.792  27.959  26.699  1.00  0.00     0.037 A 
ATOM     52  C   UNL A   1      41.107  31.175  29.879  1.00  0.00     0.049 A 
ATOM     53  C   UNL A   1      45.716  29.331  27.312  1.00  0.00     0.074 A 
ATOM     54  C   UNL A   1      41.170  32.437  30.447  1.00  0.00     0.029 A 
ATOM     55  N   UNL A   1      42.344  30.937  29.299  1.00  0.00    -0.354 N 
ATOM     56  N   UNL A   1      44.726  29.895  27.960  1.00  0.00    -0.248 NA
ATOM     57  C   UNL A   1      46.906  30.186  27.179  1.00  0.00     0.031 C 
ATOM     58  C   UNL A   1      42.433  32.975  30.180  1.00  0.00     0.029 A 
ATOM     59  C   UNL A   1      43.170  32.033  29.482  1.00  0.00     0.049 A 
ATOM     60  H   UNL A   1      42.597  30.110  28.826  1.00  0.00     0.167 HD
ATOM     61  C   UNL A   1      45.182  31.150  28.337  1.00  0.00     0.074 A 
ATOM     62  C   UNL A   1      46.543  31.264  27.858  1.00  0.00     0.031 C 
ATOM     63  C   UNL A   1      44.529  32.125  29.016  1.00  0.00     0.037 A 
BRANCH  50  64
ATOM     64  C   UNL A   1      38.700  30.708  30.453  1.00  0.00     0.064 A 
ATOM     65  C   UNL A   1      37.660  31.186  29.642  1.00  0.00     0.173 A 
ATOM     66  C   UNL A   1      38.464  30.619  31.835  1.00  0.00     0.173 A 
ATOM     67  F   UNL A   1      37.836  31.299  28.316  1.00  0.00    -0.203 F 
ATOM     68  C   UNL A   1      36.446  31.587  30.194  1.00  0.00     0.198 A 
ATOM     69  C   UNL A   1      37.238  30.991  32.379  1.00  0.00     0.198 A 
ATOM     70  F   UNL A   1      39.421  30.158  32.655  1.00  0.00    -0.203 F 
ATOM     71  F   UNL A   1      35.485  32.086  29.404  1.00  0.00    -0.200 F 
ATOM     72  C   UNL A   1      36.233  31.481  31.560  1.00  0.00     0.200 A 
ATOM     73  F   UNL A   1      37.029  30.875  33.698  1.00  0.00    -0.200 F 
ATOM     74  F   UNL A   1      35.060  31.858  32.088  1.00  0.00    -0.200 F 
ENDBRANCH  50  64
BRANCH  51  75
ATOM     75  C   UNL A   1      47.011  27.528  25.963  1.00  0.00     0.064 A 
ATOM     76  C   UNL A   1      48.103  26.972  26.646  1.00  0.00     0.173 A 
ATOM     77  C   UNL A   1      47.122  27.682  24.574  1.00  0.00     0.173 A 
ATOM     78  F   UNL A   1      48.053  26.825  27.978  1.00  0.00    -0.203 F 
ATOM     79  C   UNL A   1      49.269  26.614  25.971  1.00  0.00     0.198 A 
ATOM     80  C   UNL A   1      48.278  27.296  23.897  1.00  0.00     0.198 A 
ATOM     81  F   UNL A   1      46.105  28.203  23.872  1.00  0.00    -0.203 F 
ATOM     82  F   UNL A   1      50.316  26.136  26.658  1.00  0.00    -0.200 F 
ATOM     83  C   UNL A   1      49.354  26.772  24.597  1.00  0.00     0.200 A 
ATOM     84  F   UNL A   1      48.351  27.438  22.566  1.00  0.00    -0.200 F 
ATOM     85  F   UNL A   1      50.475  26.429  23.949  1.00  0.00    -0.200 F 
ENDBRANCH  51  75
BRANCH  63  86
ATOM     86  C   UNL A   1      45.288  33.383  29.318  1.00  0.00     0.064 A 
ATOM     87  C   UNL A   1      46.082  33.504  30.466  1.00  0.00     0.173 A 
ATOM     88  C   UNL A   1      45.256  34.462  28.421  1.00  0.00     0.173 A 
ATOM     89  F   UNL A   1      46.134  32.506  31.361  1.00  0.00    -0.203 F 
ATOM     90  C   UNL A   1      46.801  34.671  30.718  1.00  0.00     0.198 A 
ATOM     91  C   UNL A   1      45.997  35.615  28.662  1.00  0.00     0.198 A 
ATOM     92  F   UNL A   1      44.515  34.393  27.305  1.00  0.00    -0.203 F 
ATOM     93  F   UNL A   1      47.521  34.782  31.843  1.00  0.00    -0.200 F 
ATOM     94  C   UNL A   1      46.764  35.721  29.813  1.00  0.00     0.200 A 
ATOM     95  F   UNL A   1      45.970  36.624  27.780  1.00  0.00    -0.200 F 
ATOM     96  F   UNL A   1      47.463  36.839  30.053  1.00  0.00    -0.200 F 
ENDBRANCH  63  86
ENDBRANCH  37  38
ENDBRANCH  29  32
ENDBRANCH  27  28
ENDBRANCH  26  27
ENDBRANCH  25  26
ENDBRANCH   3  25
TORSDOF 17
ENDMDL
MODEL 2
REMARK VINA RESULT:     -11.3      3.448      7.093
REMARK SMILES CN(CCc1cccs1)C(=O)N[C@H](CC(N)=O)C(=O)NCCCNC(=O)c1ccc(-c2c3nc(c(-c4c(F)c(F)c(F)c(F)c4F)c4ccc([nH]4)c(-c4c(F)c(F)c(F)c(F)c4F)c4nc(c(-c5c(F)c(F)c(F)c(F)c5F)c5ccc2[nH]5)C=C4)C=C3)cc1
REMARK SMILES IDX 18 1 19 2 20 3 13 5 12 6 10 7 11 8 2 10 1 11 3 12 4 13 5 14
REMARK SMILES IDX 6 15 9 16 7 17 8 18 14 19 15 20 16 21 17 22 21 25 22 26
REMARK SMILES IDX 23 27 24 28 25 29 26 31 27 32 28 33 89 34 29 35 88 36 30 37
REMARK SMILES IDX 31 38 32 39 82 40 33 41 87 42 81 43 83 44 34 45 86 46 80 47
REMARK SMILES IDX 79 48 35 50 67 51 47 52 66 53 48 54 51 55 65 56 84 57 49 58
REMARK SMILES IDX 50 59 64 61 85 62 52 63 36 64 37 65 45 66 38 67 39 68 43 69
REMARK SMILES IDX 46 70 40 71 41 72 44 73 42 74 68 75 69 76 77 77 70 78 71 79
REMARK SMILES IDX 75 80 78 81 72 82 73 83 76 84 74 85 53 86 54 87 62 88 55 89
REMARK SMILES IDX 56 90 60 91 63 92 57 93 58 94 61 95 59 96
REMARK H PARENT 20 4 12 9 16 23 16 24 24 30 83 49 51 60
REMARK Flexibility Score: inf
ROOT
ATOM      1  C   UNL A   1      31.043  26.037  25.290  1.00  0.00     0.243 C 
ATOM      2  O   UNL A   1      30.160  26.002  26.170  1.00  0.00    -0.273 OA
ATOM      3  N   UNL A   1      31.954  27.006  25.552  1.00  0.00    -0.354 N 
ATOM      4  H   UNL A   1      31.599  27.590  26.260  1.00  0.00     0.163 HD
ENDROOT
BRANCH   1   5
ATOM      5  C   UNL A   1      30.757  25.199  23.995  1.00  0.00     0.182 C 
BRANCH   5   6
ATOM      6  N   UNL A   1      31.202  23.822  23.811  1.00  0.00    -0.326 N 
ATOM      7  C   UNL A   1      31.917  23.137  24.755  1.00  0.00     0.317 C 
ATOM      8  O   UNL A   1      31.332  22.564  25.668  1.00  0.00    -0.249 OA
ATOM      9  H   UNL A   1      30.977  23.365  22.968  1.00  0.00     0.166 HD
BRANCH   7  10
ATOM     10  N   UNL A   1      33.270  23.035  24.523  1.00  0.00    -0.328 N 
ATOM     11  C   UNL A   1      33.745  22.568  23.230  1.00  0.00     0.148 C 
BRANCH  10  12
ATOM     12  C   UNL A   1      34.270  23.472  25.482  1.00  0.00     0.126 C 
BRANCH  12  13
ATOM     13  C   UNL A   1      35.601  23.952  24.878  1.00  0.00     0.068 C 
BRANCH  13  14
ATOM     14  C   UNL A   1      36.896  23.310  25.343  1.00  0.00     0.006 A 
ATOM     15  C   UNL A   1      37.900  23.764  26.177  1.00  0.00     0.015 A 
ATOM     16  S   UNL A   1      37.238  21.687  24.876  1.00  0.00    -0.149 S 
ATOM     17  C   UNL A   1      38.941  22.831  26.415  1.00  0.00     0.012 A 
ATOM     18  C   UNL A   1      38.697  21.648  25.766  1.00  0.00     0.065 A 
ENDBRANCH  13  14
ENDBRANCH  12  13
ENDBRANCH  10  12
ENDBRANCH   7  10
ENDBRANCH   5   6
BRANCH   5  19
ATOM     19  C   UNL A   1      31.046  26.150  22.803  1.00  0.00     0.134 C 
BRANCH  19  20
ATOM     20  C   UNL A   1      32.210  25.852  21.884  1.00  0.00     0.220 C 
ATOM     21  N   UNL A   1      31.880  25.746  20.565  1.00  0.00    -0.370 N 
ATOM     22  O   UNL A   1      33.374  25.720  22.240  1.00  0.00    -0.275 OA
ATOM     23  H   UNL A   1      30.943  25.854  20.282  1.00  0.00     0.159 HD
ATOM     24  H   UNL A   1      32.579  25.563  19.896  1.00  0.00     0.159 HD
ENDBRANCH  19  20
ENDBRANCH   5  19
ENDBRANCH   1   5
BRANCH   3  25
ATOM     25  C   UNL A   1      33.282  27.499  25.155  1.00  0.00     0.117 C 
BRANCH  25  26
ATOM     26  C   UNL A   1      33.649  28.869  25.732  1.00  0.00     0.042 C 
BRANCH  26  27
ATOM     27  C   UNL A   1      33.711  28.919  27.267  1.00  0.00     0.118 C 
BRANCH  27  28
ATOM     28  N   UNL A   1      33.744  30.231  27.897  1.00  0.00    -0.352 N 
ATOM     29  C   UNL A   1      34.815  30.852  28.527  1.00  0.00     0.251 C 
ATOM     30  H   UNL A   1      32.903  30.743  27.872  1.00  0.00     0.163 HD
ATOM     31  O   UNL A   1      34.673  31.967  29.024  1.00  0.00    -0.269 OA
BRANCH  29  32
ATOM     32  C   UNL A   1      36.124  30.154  28.671  1.00  0.00     0.039 A 
ATOM     33  C   UNL A   1      37.053  30.215  27.624  1.00  0.00     0.014 A 
ATOM     34  C   UNL A   1      36.464  29.471  29.838  1.00  0.00     0.014 A 
ATOM     35  C   UNL A   1      38.350  29.711  27.798  1.00  0.00     0.010 A 
ATOM     36  C   UNL A   1      37.779  29.053  30.046  1.00  0.00     0.010 A 
ATOM     37  C   UNL A   1      38.747  29.184  29.038  1.00  0.00    -0.014 A 
BRANCH  37  38
ATOM     38  C   UNL A   1      40.159  28.794  29.328  1.00  0.00     0.031 A 
ATOM     39  C   UNL A   1      41.094  29.767  30.001  1.00  0.00     0.074 A 
ATOM     40  C   UNL A   1      40.644  27.621  28.868  1.00  0.00     0.049 A 
ATOM     41  N   UNL A   1      42.391  29.690  30.178  1.00  0.00    -0.248 NA
ATOM     42  C   UNL A   1      40.499  31.017  30.499  1.00  0.00     0.031 C 
ATOM     43  C   UNL A   1      39.877  26.617  28.129  1.00  0.00     0.029 A 
ATOM     44  N   UNL A   1      41.910  27.085  28.929  1.00  0.00    -0.354 N 
ATOM     45  C   UNL A   1      42.768  30.896  30.757  1.00  0.00     0.074 A 
ATOM     46  C   UNL A   1      41.572  31.703  30.864  1.00  0.00     0.031 C 
ATOM     47  C   UNL A   1      40.680  25.584  27.820  1.00  0.00     0.029 A 
ATOM     48  C   UNL A   1      42.027  25.868  28.302  1.00  0.00     0.049 A 
ATOM     49  H   UNL A   1      42.662  27.533  29.379  1.00  0.00     0.167 HD
ATOM     50  C   UNL A   1      43.994  31.288  31.179  1.00  0.00     0.037 A 
ATOM     51  C   UNL A   1      43.100  25.071  28.124  1.00  0.00     0.037 A 
ATOM     52  C   UNL A   1      45.167  30.455  31.147  1.00  0.00     0.049 A 
ATOM     53  C   UNL A   1      44.434  25.497  28.675  1.00  0.00     0.074 A 
ATOM     54  C   UNL A   1      46.426  30.719  31.659  1.00  0.00     0.029 A 
ATOM     55  N   UNL A   1      45.223  29.190  30.581  1.00  0.00    -0.354 N 
ATOM     56  N   UNL A   1      44.758  26.605  29.296  1.00  0.00    -0.248 NA
ATOM     57  C   UNL A   1      45.554  24.557  28.509  1.00  0.00     0.031 C 
ATOM     58  C   UNL A   1      47.253  29.628  31.372  1.00  0.00     0.029 A 
ATOM     59  C   UNL A   1      46.498  28.668  30.718  1.00  0.00     0.049 A 
ATOM     60  H   UNL A   1      44.468  28.732  30.146  1.00  0.00     0.167 HD
ATOM     61  C   UNL A   1      46.102  26.484  29.619  1.00  0.00     0.074 A 
ATOM     62  C   UNL A   1      46.534  25.188  29.139  1.00  0.00     0.031 C 
ATOM     63  C   UNL A   1      46.909  27.369  30.252  1.00  0.00     0.037 A 
BRANCH  50  64
ATOM     64  C   UNL A   1      44.135  32.676  31.734  1.00  0.00     0.064 A 
ATOM     65  C   UNL A   1      44.437  33.772  30.913  1.00  0.00     0.173 A 
ATOM     66  C   UNL A   1      43.911  32.922  33.098  1.00  0.00     0.173 A 
ATOM     67  F   UNL A   1      44.668  33.591  29.603  1.00  0.00    -0.203 F 
ATOM     68  C   UNL A   1      44.541  35.057  31.441  1.00  0.00     0.198 A 
ATOM     69  C   UNL A   1      43.985  34.213  33.616  1.00  0.00     0.198 A 
ATOM     70  F   UNL A   1      43.608  31.911  33.927  1.00  0.00    -0.203 F 
ATOM     71  F   UNL A   1      44.879  36.081  30.644  1.00  0.00    -0.200 F 
ATOM     72  C   UNL A   1      44.307  35.277  32.789  1.00  0.00     0.200 A 
ATOM     73  F   UNL A   1      43.744  34.426  34.917  1.00  0.00    -0.200 F 
ATOM     74  F   UNL A   1      44.398  36.516  33.294  1.00  0.00    -0.200 F 
ENDBRANCH  50  64
BRANCH  51  75
ATOM     75  C   UNL A   1      42.959  23.773  27.411  1.00  0.00     0.064 A 
ATOM     76  C   UNL A   1      43.235  23.673  26.039  1.00  0.00     0.173 A 
ATOM     77  C   UNL A   1      42.524  22.616  28.073  1.00  0.00     0.173 A 
ATOM     78  F   UNL A   1      43.631  24.757  25.357  1.00  0.00    -0.203 F 
ATOM     79  C   UNL A   1      43.055  22.473  25.352  1.00  0.00     0.198 A 
ATOM     80  C   UNL A   1      42.373  21.409  27.391  1.00  0.00     0.198 A 
ATOM     81  F   UNL A   1      42.252  22.655  29.385  1.00  0.00    -0.203 F 
ATOM     82  F   UNL A   1      43.275  22.422  24.031  1.00  0.00    -0.200 F 
ATOM     83  C   UNL A   1      42.629  21.342  26.029  1.00  0.00     0.200 A 
ATOM     84  F   UNL A   1      41.973  20.314  28.051  1.00  0.00    -0.200 F 
ATOM     85  F   UNL A   1      42.455  20.189  25.369  1.00  0.00    -0.200 F 
ENDBRANCH  51  75
BRANCH  63  86
ATOM     86  C   UNL A   1      48.328  26.954  30.501  1.00  0.00     0.064 A 
ATOM     87  C   UNL A   1      49.363  27.314  29.626  1.00  0.00     0.173 A 
ATOM     88  C   UNL A   1      48.662  26.228  31.654  1.00  0.00     0.173 A 
ATOM     89  F   UNL A   1      49.092  27.995  28.503  1.00  0.00    -0.203 F 
ATOM     90  C   UNL A   1      50.680  26.942  29.886  1.00  0.00     0.198 A 
ATOM     91  C   UNL A   1      49.983  25.883  31.925  1.00  0.00     0.198 A 
ATOM     92  F   UNL A   1      47.709  25.865  32.526  1.00  0.00    -0.203 F 
ATOM     93  F   UNL A   1      51.648  27.260  29.016  1.00  0.00    -0.200 F 
ATOM     94  C   UNL A   1      50.990  26.235  31.038  1.00  0.00     0.200 A 
ATOM     95  F   UNL A   1      50.283  25.209  33.045  1.00  0.00    -0.200 F 
ATOM     96  F   UNL A   1      52.259  25.885  31.290  1.00  0.00    -0.200 F 
ENDBRANCH  63  86
ENDBRANCH  37  38
ENDBRANCH  29  32
ENDBRANCH  27  28
ENDBRANCH  26  27
ENDBRANCH  25  26
ENDBRANCH   3  25
TORSDOF 17
ENDMDL
MODEL 3
REMARK VINA RESULT:     -11.2      2.039      3.120
REMARK SMILES CN(CCc1cccs1)C(=O)N[C@H](CC(N)=O)C(=O)NCCCNC(=O)c1ccc(-c2c3nc(c(-c4c(F)c(F)c(F)c(F)c4F)c4ccc([nH]4)c(-c4c(F)c(F)c(F)c(F)c4F)c4nc(c(-c5c(F)c(F)c(F)c(F)c5F)c5ccc2[nH]5)C=C4)C=C3)cc1
REMARK SMILES IDX 18 1 19 2 20 3 13 5 12 6 10 7 11 8 2 10 1 11 3 12 4 13 5 14
REMARK SMILES IDX 6 15 9 16 7 17 8 18 14 19 15 20 16 21 17 22 21 25 22 26
REMARK SMILES IDX 23 27 24 28 25 29 26 31 27 32 28 33 89 34 29 35 88 36 30 37
REMARK SMILES IDX 31 38 32 39 82 40 33 41 87 42 81 43 83 44 34 45 86 46 80 47
REMARK SMILES IDX 79 48 35 50 67 51 47 52 66 53 48 54 51 55 65 56 84 57 49 58
REMARK SMILES IDX 50 59 64 61 85 62 52 63 36 64 37 65 45 66 38 67 39 68 43 69
REMARK SMILES IDX 46 70 40 71 41 72 44 73 42 74 68 75 69 76 77 77 70 78 71 79
REMARK SMILES IDX 75 80 78 81 72 82 73 83 76 84 74 85 53 86 54 87 62 88 55 89
REMARK SMILES IDX 56 90 60 91 63 92 57 93 58 94 61 95 59 96
REMARK H PARENT 20 4 12 9 16 23 16 24 24 30 83 49 51 60
REMARK Flexibility Score: inf
ROOT
ATOM      1  C   UNL A   1      34.816  21.536  25.909  1.00  0.00     0.243 C 
ATOM      2  O   UNL A   1      34.249  21.788  26.991  1.00  0.00    -0.273 OA
ATOM      3  N   UNL A   1      36.098  21.975  25.916  1.00  0.00    -0.354 N 
ATOM      4  H   UNL A   1      36.224  22.570  26.690  1.00  0.00     0.163 HD
ENDROOT
BRANCH   1   5
ATOM      5  C   UNL A   1      33.884  21.060  24.740  1.00  0.00     0.182 C 
BRANCH   5   6
ATOM      6  N   UNL A   1      33.380  21.947  23.698  1.00  0.00    -0.326 N 
ATOM      7  C   UNL A   1      33.890  23.197  23.472  1.00  0.00     0.317 C 
ATOM      8  O   UNL A   1      34.881  23.333  22.762  1.00  0.00    -0.249 OA
ATOM      9  H   UNL A   1      32.638  21.633  23.132  1.00  0.00     0.166 HD
BRANCH   7  10
ATOM     10  N   UNL A   1      33.148  24.244  23.969  1.00  0.00    -0.328 N 
ATOM     11  C   UNL A   1      31.928  24.648  23.290  1.00  0.00     0.148 C 
BRANCH  10  12
ATOM     12  C   UNL A   1      33.471  24.916  25.216  1.00  0.00     0.126 C 
BRANCH  12  13
ATOM     13  C   UNL A   1      32.275  25.531  25.965  1.00  0.00     0.068 C 
BRANCH  13  14
ATOM     14  C   UNL A   1      32.207  27.039  26.132  1.00  0.00     0.006 A 
ATOM     15  C   UNL A   1      31.786  27.829  27.186  1.00  0.00     0.015 A 
ATOM     16  S   UNL A   1      32.818  28.046  24.876  1.00  0.00    -0.149 S 
ATOM     17  C   UNL A   1      31.929  29.224  26.974  1.00  0.00     0.012 A 
ATOM     18  C   UNL A   1      32.490  29.479  25.749  1.00  0.00     0.065 A 
ENDBRANCH  13  14
ENDBRANCH  12  13
ENDBRANCH  10  12
ENDBRANCH   7  10
ENDBRANCH   5   6
BRANCH   5  19
ATOM     19  C   UNL A   1      32.819  20.141  25.395  1.00  0.00     0.134 C 
BRANCH  19  20
ATOM     20  C   UNL A   1      32.801  18.667  25.053  1.00  0.00     0.220 C 
ATOM     21  N   UNL A   1      32.904  17.833  26.126  1.00  0.00    -0.370 N 
ATOM     22  O   UNL A   1      32.692  18.207  23.923  1.00  0.00    -0.275 OA
ATOM     23  H   UNL A   1      32.991  18.206  27.034  1.00  0.00     0.159 HD
ATOM     24  H   UNL A   1      32.891  16.858  25.995  1.00  0.00     0.159 HD
ENDBRANCH  19  20
ENDBRANCH   5  19
ENDBRANCH   1   5
BRANCH   3  25
ATOM     25  C   UNL A   1      37.368  21.882  25.180  1.00  0.00     0.117 C 
BRANCH  25  26
ATOM     26  C   UNL A   1      38.039  20.506  25.243  1.00  0.00     0.042 C 
BRANCH  26  27
ATOM     27  C   UNL A   1      39.306  20.454  26.112  1.00  0.00     0.118 C 
BRANCH  27  28
ATOM     28  N   UNL A   1      40.188  19.307  25.948  1.00  0.00    -0.352 N 
ATOM     29  C   UNL A   1      41.567  19.258  26.098  1.00  0.00     0.251 C 
ATOM     30  H   UNL A   1      39.751  18.460  25.700  1.00  0.00     0.163 HD
ATOM     31  O   UNL A   1      42.169  18.204  25.908  1.00  0.00    -0.269 OA
BRANCH  29  32
ATOM     32  C   UNL A   1      42.343  20.489  26.420  1.00  0.00     0.039 A 
ATOM     33  C   UNL A   1      42.894  21.245  25.376  1.00  0.00     0.014 A 
ATOM     34  C   UNL A   1      42.504  20.930  27.732  1.00  0.00     0.014 A 
ATOM     35  C   UNL A   1      43.483  22.491  25.639  1.00  0.00     0.010 A 
ATOM     36  C   UNL A   1      43.005  22.207  27.985  1.00  0.00     0.010 A 
ATOM     37  C   UNL A   1      43.484  23.016  26.942  1.00  0.00    -0.014 A 
BRANCH  37  38
ATOM     38  C   UNL A   1      43.941  24.405  27.247  1.00  0.00     0.031 A 
ATOM     39  C   UNL A   1      42.962  25.434  27.754  1.00  0.00     0.074 A 
ATOM     40  C   UNL A   1      45.199  24.784  26.940  1.00  0.00     0.049 A 
ATOM     41  N   UNL A   1      43.117  26.726  27.906  1.00  0.00    -0.248 NA
ATOM     42  C   UNL A   1      41.613  24.951  28.091  1.00  0.00     0.031 C 
ATOM     43  C   UNL A   1      46.232  23.918  26.367  1.00  0.00     0.029 A 
ATOM     44  N   UNL A   1      45.820  26.008  27.041  1.00  0.00    -0.354 N 
ATOM     45  C   UNL A   1      41.876  27.213  28.303  1.00  0.00     0.074 A 
ATOM     46  C   UNL A   1      40.970  26.085  28.329  1.00  0.00     0.031 C 
ATOM     47  C   UNL A   1      47.356  24.630  26.182  1.00  0.00     0.029 A 
ATOM     48  C   UNL A   1      47.117  26.011  26.585  1.00  0.00     0.049 A 
ATOM     49  H   UNL A   1      45.376  26.807  27.406  1.00  0.00     0.167 HD
ATOM     50  C   UNL A   1      41.529  28.479  28.636  1.00  0.00     0.037 A 
ATOM     51  C   UNL A   1      48.012  27.015  26.491  1.00  0.00     0.037 A 
ATOM     52  C   UNL A   1      42.447  29.585  28.688  1.00  0.00     0.049 A 
ATOM     53  C   UNL A   1      47.622  28.396  26.944  1.00  0.00     0.074 A 
ATOM     54  C   UNL A   1      42.216  30.879  29.126  1.00  0.00     0.029 A 
ATOM     55  N   UNL A   1      43.777  29.527  28.301  1.00  0.00    -0.354 N 
ATOM     56  N   UNL A   1      46.469  28.823  27.397  1.00  0.00    -0.248 NA
ATOM     57  C   UNL A   1      48.660  29.436  26.880  1.00  0.00     0.031 C 
ATOM     58  C   UNL A   1      43.398  31.611  28.971  1.00  0.00     0.029 A 
ATOM     59  C   UNL A   1      44.375  30.763  28.476  1.00  0.00     0.049 A 
ATOM     60  H   UNL A   1      44.230  28.724  27.953  1.00  0.00     0.167 HD
ATOM     61  C   UNL A   1      46.650  30.166  27.699  1.00  0.00     0.074 A 
ATOM     62  C   UNL A   1      48.029  30.482  27.391  1.00  0.00     0.031 C 
ATOM     63  C   UNL A   1      45.753  31.059  28.183  1.00  0.00     0.037 A 
BRANCH  50  64
ATOM     64  C   UNL A   1      40.093  28.743  28.990  1.00  0.00     0.064 A 
ATOM     65  C   UNL A   1      39.153  29.127  28.023  1.00  0.00     0.173 A 
ATOM     66  C   UNL A   1      39.640  28.556  30.306  1.00  0.00     0.173 A 
ATOM     67  F   UNL A   1      39.534  29.327  26.752  1.00  0.00    -0.203 F 
ATOM     68  C   UNL A   1      37.820  29.345  28.365  1.00  0.00     0.198 A 
ATOM     69  C   UNL A   1      38.301  28.745  30.638  1.00  0.00     0.198 A 
ATOM     70  F   UNL A   1      40.495  28.179  31.268  1.00  0.00    -0.203 F 
ATOM     71  F   UNL A   1      36.950  29.759  27.432  1.00  0.00    -0.200 F 
ATOM     72  C   UNL A   1      37.394  29.146  29.669  1.00  0.00     0.200 A 
ATOM     73  F   UNL A   1      37.888  28.538  31.895  1.00  0.00    -0.200 F 
ATOM     74  F   UNL A   1      36.109  29.346  29.994  1.00  0.00    -0.200 F 
ENDBRANCH  50  64
BRANCH  51  75
ATOM     75  C   UNL A   1      49.380  26.752  25.968  1.00  0.00     0.064 A 
ATOM     76  C   UNL A   1      50.401  26.304  26.820  1.00  0.00     0.173 A 
ATOM     77  C   UNL A   1      49.703  26.963  24.620  1.00  0.00     0.173 A 
ATOM     78  F   UNL A   1      50.147  26.109  28.122  1.00  0.00    -0.203 F 
ATOM     79  C   UNL A   1      51.698  26.104  26.349  1.00  0.00     0.198 A 
ATOM     80  C   UNL A   1      50.994  26.735  24.145  1.00  0.00     0.198 A 
ATOM     81  F   UNL A   1      48.764  27.386  23.762  1.00  0.00    -0.203 F 
ATOM     82  F   UNL A   1      52.665  25.728  27.198  1.00  0.00    -0.200 F 
ATOM     83  C   UNL A   1      51.992  26.316  25.011  1.00  0.00     0.200 A 
ATOM     84  F   UNL A   1      51.272  26.928  22.848  1.00  0.00    -0.200 F 
ATOM     85  F   UNL A   1      53.239  26.126  24.559  1.00  0.00    -0.200 F 
ENDBRANCH  51  75
BRANCH  63  86
ATOM     86  C   UNL A   1      46.241  32.452  28.449  1.00  0.00     0.064 A 
ATOM     87  C   UNL A   1      46.161  33.457  27.476  1.00  0.00     0.173 A 
ATOM     88  C   UNL A   1      46.750  32.795  29.711  1.00  0.00     0.173 A 
ATOM     89  F   UNL A   1      45.696  33.175  26.250  1.00  0.00    -0.203 F 
ATOM     90  C   UNL A   1      46.595  34.753  27.749  1.00  0.00     0.198 A 
ATOM     91  C   UNL A   1      47.157  34.097  29.989  1.00  0.00     0.198 A 
ATOM     92  F   UNL A   1      46.841  31.870  30.679  1.00  0.00    -0.203 F 
ATOM     93  F   UNL A   1      46.549  35.688  26.791  1.00  0.00    -0.200 F 
ATOM     94  C   UNL A   1      47.084  35.073  29.006  1.00  0.00     0.200 A 
ATOM     95  F   UNL A   1      47.618  34.408  31.209  1.00  0.00    -0.200 F 
ATOM     96  F   UNL A   1      47.493  36.322  29.270  1.00  0.00    -0.200 F 
ENDBRANCH  63  86
ENDBRANCH  37  38
ENDBRANCH  29  32
ENDBRANCH  27  28
ENDBRANCH  26  27
ENDBRANCH  25  26
ENDBRANCH   3  25
TORSDOF 17
ENDMDL
