MODEL 1
REMARK VINA RESULT:     -12.2      0.000      0.000
REMARK SMILES CC1(C)CC[NH+](CC[C@H]2CCC[C@]2([NH3+])C(=O)NCCCNC(=O)c2ccc(-c3c4nc(c(-c5c(F)c(F)c(F)c(F)c5F)c5ccc([nH]5)c(-c5c(F)c(F)c(F)c(F)c5F)c5nc(c(-c6c(F)c(F)c(F)c(F)c6F)c6ccc3[nH]6)C=C5)C=C4)cc2)CC1
REMARK SMILES IDX 18 1 17 2 15 3 16 4 13 6 9 7 10 8 11 9 12 10 8 11 7 12 6 13
REMARK SMILES IDX 1 14 2 15 3 16 4 17 88 18 5 19 87 20 14 22 19 26 20 27 21 28
REMARK SMILES IDX 22 29 23 31 24 32 25 33 86 34 26 35 85 36 27 37 28 38 29 39
REMARK SMILES IDX 79 40 30 41 84 42 78 43 80 44 31 45 83 46 77 47 76 48 32 50
REMARK SMILES IDX 64 51 44 52 63 53 45 54 48 55 62 56 81 57 46 58 47 59 61 61
REMARK SMILES IDX 82 62 49 63 33 64 34 65 42 66 35 67 36 68 40 69 43 70 37 71
REMARK SMILES IDX 38 72 41 73 39 74 65 75 66 76 74 77 67 78 68 79 72 80 75 81
REMARK SMILES IDX 69 82 70 83 73 84 71 85 50 86 51 87 59 88 52 89 53 90 57 91
REMARK SMILES IDX 60 92 54 93 55 94 58 95 56 96
REMARK H PARENT 17 5 6 21 14 23 14 24 14 25 21 30 80 49 48 60
REMARK Flexibility Score: inf
ROOT
ATOM      1  C   UNL A   1      31.900  30.655  26.054  1.00  0.00     0.118 C 
ENDROOT
BRANCH   1   2
ATOM      2  N   UNL A   1      32.163  29.537  26.985  1.00  0.00    -0.351 N 
ATOM      3  C   UNL A   1      32.875  28.399  26.698  1.00  0.00     0.281 C 
ATOM      4  O   UNL A   1      34.097  28.445  26.880  1.00  0.00    -0.268 OA
ATOM      5  H   UNL A   1      31.794  29.616  27.896  1.00  0.00     0.163 HD
BRANCH   3   6
ATOM      6  C   UNL A   1      32.167  27.059  26.201  1.00  0.00     0.177 C 
ATOM      7  C   UNL A   1      33.129  25.844  25.919  1.00  0.00     0.066 C 
ATOM      8  C   UNL A   1      33.674  26.149  24.496  1.00  0.00     0.011 C 
ATOM      9  C   UNL A   1      32.759  27.203  23.873  1.00  0.00     0.008 C 
ATOM     10  C   UNL A   1      31.565  27.299  24.803  1.00  0.00     0.079 C 
BRANCH   7  11
ATOM     11  C   UNL A   1      32.457  24.416  25.973  1.00  0.00     0.072 C 
BRANCH  11  12
ATOM     12  C   UNL A   1      32.501  23.527  24.694  1.00  0.00     0.262 C 
BRANCH  12  13
ATOM     13  N   UNL A   1      33.462  22.428  24.514  1.00  0.00    -0.335 N 
ATOM     14  C   UNL A   1      37.129  21.468  24.480  1.00  0.00     0.011 C 
ATOM     15  C   UNL A   1      36.429  22.710  25.053  1.00  0.00    -0.025 C 
ATOM     16  C   UNL A   1      37.535  23.691  25.524  1.00  0.00     0.011 C 
ATOM     17  C   UNL A   1      35.636  23.361  23.937  1.00  0.00     0.068 C 
ATOM     18  C   UNL A   1      35.422  22.422  26.181  1.00  0.00     0.068 C 
ATOM     19  C   UNL A   1      34.418  22.602  23.439  1.00  0.00     0.262 C 
ATOM     20  C   UNL A   1      34.084  21.820  25.699  1.00  0.00     0.262 C 
ATOM     21  H   UNL A   1      32.790  21.719  24.223  1.00  0.00     0.348 HD
ENDBRANCH  12  13
ENDBRANCH  11  12
ENDBRANCH   7  11
BRANCH   6  22
ATOM     22  N   UNL A   1      31.032  26.833  27.111  1.00  0.00    -0.345 N 
ATOM     23  H   UNL A   1      31.381  26.566  28.032  1.00  0.00     0.345 HD
ATOM     24  H   UNL A   1      30.442  26.088  26.742  1.00  0.00     0.345 HD
ATOM     25  H   UNL A   1      30.485  27.691  27.191  1.00  0.00     0.345 HD
ENDBRANCH   6  22
ENDBRANCH   3   6
ENDBRANCH   1   2
BRANCH   1  26
ATOM     26  C   UNL A   1      31.531  31.913  26.853  1.00  0.00     0.042 C 
BRANCH  26  27
ATOM     27  C   UNL A   1      32.647  32.856  27.289  1.00  0.00     0.118 C 
BRANCH  27  28
ATOM     28  N   UNL A   1      32.294  34.199  27.725  1.00  0.00    -0.352 N 
ATOM     29  C   UNL A   1      32.940  35.053  28.608  1.00  0.00     0.251 C 
ATOM     30  H   UNL A   1      31.467  34.559  27.330  1.00  0.00     0.163 HD
ATOM     31  O   UNL A   1      32.486  36.186  28.778  1.00  0.00    -0.269 OA
BRANCH  29  32
ATOM     32  C   UNL A   1      34.129  34.631  29.405  1.00  0.00     0.039 A 
ATOM     33  C   UNL A   1      33.948  34.165  30.716  1.00  0.00     0.014 A 
ATOM     34  C   UNL A   1      35.421  34.665  28.889  1.00  0.00     0.014 A 
ATOM     35  C   UNL A   1      35.029  33.640  31.442  1.00  0.00     0.010 A 
ATOM     36  C   UNL A   1      36.461  34.012  29.547  1.00  0.00     0.010 A 
ATOM     37  C   UNL A   1      36.288  33.500  30.839  1.00  0.00    -0.014 A 
BRANCH  37  38
ATOM     38  C   UNL A   1      37.448  32.858  31.524  1.00  0.00     0.031 A 
ATOM     39  C   UNL A   1      38.150  31.688  30.878  1.00  0.00     0.074 A 
ATOM     40  C   UNL A   1      37.805  33.242  32.767  1.00  0.00     0.049 A 
ATOM     41  N   UNL A   1      39.065  30.887  31.367  1.00  0.00    -0.248 NA
ATOM     42  C   UNL A   1      37.727  31.338  29.512  1.00  0.00     0.031 C 
ATOM     43  C   UNL A   1      37.173  34.313  33.540  1.00  0.00     0.029 A 
ATOM     44  N   UNL A   1      38.780  32.762  33.609  1.00  0.00    -0.354 N 
ATOM     45  C   UNL A   1      39.289  29.925  30.390  1.00  0.00     0.074 A 
ATOM     46  C   UNL A   1      38.365  30.196  29.312  1.00  0.00     0.031 C 
ATOM     47  C   UNL A   1      37.796  34.430  34.724  1.00  0.00     0.029 A 
ATOM     48  C   UNL A   1      38.838  33.414  34.819  1.00  0.00     0.049 A 
ATOM     49  H   UNL A   1      39.381  32.020  33.369  1.00  0.00     0.167 HD
ATOM     50  C   UNL A   1      40.205  28.926  30.372  1.00  0.00     0.037 A 
ATOM     51  C   UNL A   1      39.636  33.211  35.885  1.00  0.00     0.037 A 
ATOM     52  C   UNL A   1      41.162  28.694  31.420  1.00  0.00     0.049 A 
ATOM     53  C   UNL A   1      40.664  32.112  35.834  1.00  0.00     0.074 A 
ATOM     54  C   UNL A   1      42.185  27.764  31.466  1.00  0.00     0.029 A 
ATOM     55  N   UNL A   1      41.216  29.408  32.609  1.00  0.00    -0.354 N 
ATOM     56  N   UNL A   1      40.911  31.254  34.875  1.00  0.00    -0.248 NA
ATOM     57  C   UNL A   1      41.527  31.957  37.014  1.00  0.00     0.031 C 
ATOM     58  C   UNL A   1      42.830  27.885  32.701  1.00  0.00     0.029 A 
ATOM     59  C   UNL A   1      42.244  28.926  33.403  1.00  0.00     0.049 A 
ATOM     60  H   UNL A   1      40.613  30.148  32.852  1.00  0.00     0.167 HD
ATOM     61  C   UNL A   1      41.975  30.479  35.320  1.00  0.00     0.074 A 
ATOM     62  C   UNL A   1      42.336  30.980  36.629  1.00  0.00     0.031 C 
ATOM     63  C   UNL A   1      42.595  29.444  34.701  1.00  0.00     0.037 A 
BRANCH  50  64
ATOM     64  C   UNL A   1      40.221  28.018  29.172  1.00  0.00     0.064 A 
ATOM     65  C   UNL A   1      39.523  26.800  29.157  1.00  0.00     0.173 A 
ATOM     66  C   UNL A   1      40.928  28.377  28.014  1.00  0.00     0.173 A 
ATOM     67  F   UNL A   1      38.838  26.400  30.239  1.00  0.00    -0.203 F 
ATOM     68  C   UNL A   1      39.570  25.957  28.049  1.00  0.00     0.198 A 
ATOM     69  C   UNL A   1      40.942  27.550  26.893  1.00  0.00     0.198 A 
ATOM     70  F   UNL A   1      41.607  29.535  27.967  1.00  0.00    -0.203 F 
ATOM     71  F   UNL A   1      38.953  24.768  28.088  1.00  0.00    -0.200 F 
ATOM     72  C   UNL A   1      40.274  26.335  26.917  1.00  0.00     0.200 A 
ATOM     73  F   UNL A   1      41.610  27.925  25.794  1.00  0.00    -0.200 F 
ATOM     74  F   UNL A   1      40.316  25.525  25.849  1.00  0.00    -0.200 F 
ENDBRANCH  50  64
BRANCH  51  75
ATOM     75  C   UNL A   1      39.521  34.091  37.080  1.00  0.00     0.064 A 
ATOM     76  C   UNL A   1      38.766  33.694  38.194  1.00  0.00     0.173 A 
ATOM     77  C   UNL A   1      40.154  35.342  37.137  1.00  0.00     0.173 A 
ATOM     78  F   UNL A   1      38.123  32.517  38.180  1.00  0.00    -0.203 F 
ATOM     79  C   UNL A   1      38.635  34.519  39.309  1.00  0.00     0.198 A 
ATOM     80  C   UNL A   1      40.046  36.153  38.266  1.00  0.00     0.198 A 
ATOM     81  F   UNL A   1      40.890  35.770  36.100  1.00  0.00    -0.203 F 
ATOM     82  F   UNL A   1      37.870  34.133  40.339  1.00  0.00    -0.200 F 
ATOM     83  C   UNL A   1      39.281  35.745  39.347  1.00  0.00     0.200 A 
ATOM     84  F   UNL A   1      40.684  37.331  38.304  1.00  0.00    -0.200 F 
ATOM     85  F   UNL A   1      39.159  36.536  40.422  1.00  0.00    -0.200 F 
ENDBRANCH  51  75
BRANCH  63  86
ATOM     86  C   UNL A   1      43.752  28.807  35.414  1.00  0.00     0.064 A 
ATOM     87  C   UNL A   1      45.072  29.235  35.208  1.00  0.00     0.173 A 
ATOM     88  C   UNL A   1      43.531  27.786  36.351  1.00  0.00     0.173 A 
ATOM     89  F   UNL A   1      45.338  30.198  34.313  1.00  0.00    -0.203 F 
ATOM     90  C   UNL A   1      46.131  28.645  35.894  1.00  0.00     0.198 A 
ATOM     91  C   UNL A   1      44.588  27.222  37.059  1.00  0.00     0.198 A 
ATOM     92  F   UNL A   1      42.287  27.348  36.593  1.00  0.00    -0.203 F 
ATOM     93  F   UNL A   1      47.388  29.034  35.644  1.00  0.00    -0.200 F 
ATOM     94  C   UNL A   1      45.887  27.645  36.824  1.00  0.00     0.200 A 
ATOM     95  F   UNL A   1      44.348  26.269  37.971  1.00  0.00    -0.200 F 
ATOM     96  F   UNL A   1      46.906  27.086  37.490  1.00  0.00    -0.200 F 
ENDBRANCH  63  86
ENDBRANCH  37  38
ENDBRANCH  29  32
ENDBRANCH  27  28
ENDBRANCH  26  27
ENDBRANCH   1  26
TORSDOF 14
ENDMDL
MODEL 2
REMARK VINA RESULT:     -12.2      0.926      2.334
REMARK SMILES CC1(C)CC[NH+](CC[C@H]2CCC[C@]2([NH3+])C(=O)NCCCNC(=O)c2ccc(-c3c4nc(c(-c5c(F)c(F)c(F)c(F)c5F)c5ccc([nH]5)c(-c5c(F)c(F)c(F)c(F)c5F)c5nc(c(-c6c(F)c(F)c(F)c(F)c6F)c6ccc3[nH]6)C=C5)C=C4)cc2)CC1
REMARK SMILES IDX 18 1 17 2 15 3 16 4 13 6 9 7 10 8 11 9 12 10 8 11 7 12 6 13
REMARK SMILES IDX 1 14 2 15 3 16 4 17 88 18 5 19 87 20 14 22 19 26 20 27 21 28
REMARK SMILES IDX 22 29 23 31 24 32 25 33 86 34 26 35 85 36 27 37 28 38 29 39
REMARK SMILES IDX 79 40 30 41 84 42 78 43 80 44 31 45 83 46 77 47 76 48 32 50
REMARK SMILES IDX 64 51 44 52 63 53 45 54 48 55 62 56 81 57 46 58 47 59 61 61
REMARK SMILES IDX 82 62 49 63 33 64 34 65 42 66 35 67 36 68 40 69 43 70 37 71
REMARK SMILES IDX 38 72 41 73 39 74 65 75 66 76 74 77 67 78 68 79 72 80 75 81
REMARK SMILES IDX 69 82 70 83 73 84 71 85 50 86 51 87 59 88 52 89 53 90 57 91
REMARK SMILES IDX 60 92 54 93 55 94 58 95 56 96
REMARK H PARENT 17 5 6 21 14 23 14 24 14 25 21 30 80 49 48 60
REMARK Flexibility Score: inf
ROOT
ATOM      1  C   UNL A   1      31.893  30.414  26.613  1.00  0.00     0.118 C 
ENDROOT
BRANCH   1   2
ATOM      2  N   UNL A   1      32.026  30.153  25.163  1.00  0.00    -0.351 N 
ATOM      3  C   UNL A   1      31.797  28.954  24.536  1.00  0.00     0.281 C 
ATOM      4  O   UNL A   1      30.638  28.730  24.167  1.00  0.00    -0.268 OA
ATOM      5  H   UNL A   1      32.304  30.909  24.596  1.00  0.00     0.163 HD
BRANCH   3   6
ATOM      6  C   UNL A   1      32.968  27.911  24.245  1.00  0.00     0.177 C 
ATOM      7  C   UNL A   1      32.516  26.529  23.643  1.00  0.00     0.066 C 
ATOM      8  C   UNL A   1      32.047  25.735  24.894  1.00  0.00     0.011 C 
ATOM      9  C   UNL A   1      32.603  26.453  26.124  1.00  0.00     0.008 C 
ATOM     10  C   UNL A   1      33.590  27.470  25.584  1.00  0.00     0.079 C 
BRANCH   7  11
ATOM     11  C   UNL A   1      33.628  25.733  22.853  1.00  0.00     0.072 C 
BRANCH  11  12
ATOM     12  C   UNL A   1      33.287  24.305  22.329  1.00  0.00     0.262 C 
BRANCH  12  13
ATOM     13  N   UNL A   1      33.992  23.096  22.780  1.00  0.00    -0.335 N 
ATOM     14  C   UNL A   1      35.494  21.290  25.755  1.00  0.00     0.011 C 
ATOM     15  C   UNL A   1      34.495  22.455  25.697  1.00  0.00    -0.025 C 
ATOM     16  C   UNL A   1      34.274  22.952  27.150  1.00  0.00     0.011 C 
ATOM     17  C   UNL A   1      35.119  23.573  24.885  1.00  0.00     0.068 C 
ATOM     18  C   UNL A   1      33.156  22.126  25.011  1.00  0.00     0.068 C 
ATOM     19  C   UNL A   1      35.285  23.318  23.397  1.00  0.00     0.262 C 
ATOM     20  C   UNL A   1      33.236  22.043  23.471  1.00  0.00     0.262 C 
ATOM     21  H   UNL A   1      34.153  22.691  21.858  1.00  0.00     0.348 HD
ENDBRANCH  12  13
ENDBRANCH  11  12
ENDBRANCH   7  11
BRANCH   6  22
ATOM     22  N   UNL A   1      34.013  28.659  23.526  1.00  0.00    -0.345 N 
ATOM     23  H   UNL A   1      34.255  29.499  24.053  1.00  0.00     0.345 HD
ATOM     24  H   UNL A   1      33.668  28.924  22.604  1.00  0.00     0.345 HD
ATOM     25  H   UNL A   1      34.842  28.073  23.424  1.00  0.00     0.345 HD
ENDBRANCH   6  22
ENDBRANCH   3   6
ENDBRANCH   1   2
BRANCH   1  26
ATOM     26  C   UNL A   1      31.572  31.898  26.839  1.00  0.00     0.042 C 
BRANCH  26  27
ATOM     27  C   UNL A   1      32.694  32.829  27.285  1.00  0.00     0.118 C 
BRANCH  27  28
ATOM     28  N   UNL A   1      32.353  34.178  27.713  1.00  0.00    -0.352 N 
ATOM     29  C   UNL A   1      33.001  35.030  28.595  1.00  0.00     0.251 C 
ATOM     30  H   UNL A   1      31.532  34.544  27.311  1.00  0.00     0.163 HD
ATOM     31  O   UNL A   1      32.558  36.169  28.757  1.00  0.00    -0.269 OA
BRANCH  29  32
ATOM     32  C   UNL A   1      34.182  34.599  29.402  1.00  0.00     0.039 A 
ATOM     33  C   UNL A   1      33.981  34.072  30.687  1.00  0.00     0.014 A 
ATOM     34  C   UNL A   1      35.484  34.686  28.920  1.00  0.00     0.014 A 
ATOM     35  C   UNL A   1      35.057  33.539  31.415  1.00  0.00     0.010 A 
ATOM     36  C   UNL A   1      36.523  34.028  29.573  1.00  0.00     0.010 A 
ATOM     37  C   UNL A   1      36.332  33.454  30.837  1.00  0.00    -0.014 A 
BRANCH  37  38
ATOM     38  C   UNL A   1      37.491  32.809  31.521  1.00  0.00     0.031 A 
ATOM     39  C   UNL A   1      38.208  31.657  30.861  1.00  0.00     0.074 A 
ATOM     40  C   UNL A   1      37.833  33.173  32.774  1.00  0.00     0.049 A 
ATOM     41  N   UNL A   1      39.124  30.854  31.344  1.00  0.00    -0.248 NA
ATOM     42  C   UNL A   1      37.801  31.329  29.484  1.00  0.00     0.031 C 
ATOM     43  C   UNL A   1      37.186  34.224  33.561  1.00  0.00     0.029 A 
ATOM     44  N   UNL A   1      38.804  32.685  33.617  1.00  0.00    -0.354 N 
ATOM     45  C   UNL A   1      39.365  29.911  30.351  1.00  0.00     0.074 A 
ATOM     46  C   UNL A   1      38.449  30.196  29.269  1.00  0.00     0.031 C 
ATOM     47  C   UNL A   1      37.796  34.325  34.753  1.00  0.00     0.029 A 
ATOM     48  C   UNL A   1      38.845  33.315  34.839  1.00  0.00     0.049 A 
ATOM     49  H   UNL A   1      39.413  31.953  33.369  1.00  0.00     0.167 HD
ATOM     50  C   UNL A   1      40.289  28.920  30.324  1.00  0.00     0.037 A 
ATOM     51  C   UNL A   1      39.634  33.098  35.909  1.00  0.00     0.037 A 
ATOM     52  C   UNL A   1      41.238  28.676  31.377  1.00  0.00     0.049 A 
ATOM     53  C   UNL A   1      40.672  32.009  35.847  1.00  0.00     0.074 A 
ATOM     54  C   UNL A   1      42.268  27.754  31.415  1.00  0.00     0.029 A 
ATOM     55  N   UNL A   1      41.275  29.369  32.578  1.00  0.00    -0.354 N 
ATOM     56  N   UNL A   1      40.935  31.170  34.875  1.00  0.00    -0.248 NA
ATOM     57  C   UNL A   1      41.525  31.838  37.033  1.00  0.00     0.031 C 
ATOM     58  C   UNL A   1      42.900  27.857  32.658  1.00  0.00     0.029 A 
ATOM     59  C   UNL A   1      42.299  28.881  33.374  1.00  0.00     0.049 A 
ATOM     60  H   UNL A   1      40.664  30.100  32.829  1.00  0.00     0.167 HD
ATOM     61  C   UNL A   1      42.000  30.395  35.316  1.00  0.00     0.074 A 
ATOM     62  C   UNL A   1      42.345  30.874  36.638  1.00  0.00     0.031 C 
ATOM     63  C   UNL A   1      42.634  29.377  34.684  1.00  0.00     0.037 A 
BRANCH  50  64
ATOM     64  C   UNL A   1      40.324  28.035  29.108  1.00  0.00     0.064 A 
ATOM     65  C   UNL A   1      41.064  28.378  27.964  1.00  0.00     0.173 A 
ATOM     66  C   UNL A   1      39.625  26.818  29.089  1.00  0.00     0.173 A 
ATOM     67  F   UNL A   1      41.744  29.533  27.921  1.00  0.00    -0.203 F 
ATOM     68  C   UNL A   1      41.065  27.562  26.836  1.00  0.00     0.198 A 
ATOM     69  C   UNL A   1      39.658  25.985  27.973  1.00  0.00     0.198 A 
ATOM     70  F   UNL A   1      38.908  26.434  30.157  1.00  0.00    -0.203 F 
ATOM     71  F   UNL A   1      41.722  27.947  25.733  1.00  0.00    -0.200 F 
ATOM     72  C   UNL A   1      40.367  26.364  26.844  1.00  0.00     0.200 A 
ATOM     73  F   UNL A   1      38.996  24.820  27.989  1.00  0.00    -0.200 F 
ATOM     74  F   UNL A   1      40.371  25.577  25.758  1.00  0.00    -0.200 F 
ENDBRANCH  50  64
BRANCH  51  75
ATOM     75  C   UNL A   1      39.501  33.956  37.118  1.00  0.00     0.064 A 
ATOM     76  C   UNL A   1      40.154  35.195  37.195  1.00  0.00     0.173 A 
ATOM     77  C   UNL A   1      38.727  33.562  38.219  1.00  0.00     0.173 A 
ATOM     78  F   UNL A   1      40.926  35.607  36.177  1.00  0.00    -0.203 F 
ATOM     79  C   UNL A   1      40.053  35.997  38.330  1.00  0.00     0.198 A 
ATOM     80  C   UNL A   1      38.602  34.379  39.342  1.00  0.00     0.198 A 
ATOM     81  F   UNL A   1      38.078  32.388  38.199  1.00  0.00    -0.203 F 
ATOM     82  F   UNL A   1      40.727  37.154  38.392  1.00  0.00    -0.200 F 
ATOM     83  C   UNL A   1      39.271  35.591  39.400  1.00  0.00     0.200 A 
ATOM     84  F   UNL A   1      37.834  33.990  40.369  1.00  0.00    -0.200 F 
ATOM     85  F   UNL A   1      39.170  36.366  40.489  1.00  0.00    -0.200 F 
ENDBRANCH  51  75
BRANCH  63  86
ATOM     86  C   UNL A   1      43.790  28.736  35.397  1.00  0.00     0.064 A 
ATOM     87  C   UNL A   1      43.608  27.661  36.278  1.00  0.00     0.173 A 
ATOM     88  C   UNL A   1      45.101  29.176  35.158  1.00  0.00     0.173 A 
ATOM     89  F   UNL A   1      42.373  27.212  36.551  1.00  0.00    -0.203 F 
ATOM     90  C   UNL A   1      44.694  27.066  36.916  1.00  0.00     0.198 A 
ATOM     91  C   UNL A   1      46.187  28.558  35.770  1.00  0.00     0.198 A 
ATOM     92  F   UNL A   1      45.330  30.194  34.316  1.00  0.00    -0.203 F 
ATOM     93  F   UNL A   1      44.493  26.073  37.792  1.00  0.00    -0.200 F 
ATOM     94  C   UNL A   1      45.982  27.510  36.655  1.00  0.00     0.200 A 
ATOM     95  F   UNL A   1      47.432  28.976  35.503  1.00  0.00    -0.200 F 
ATOM     96  F   UNL A   1      47.028  26.929  37.261  1.00  0.00    -0.200 F 
ENDBRANCH  63  86
ENDBRANCH  37  38
ENDBRANCH  29  32
ENDBRANCH  27  28
ENDBRANCH  26  27
ENDBRANCH   1  26
TORSDOF 14
ENDMDL
MODEL 3
REMARK VINA RESULT:     -12.2      0.180      1.146
REMARK SMILES CC1(C)CC[NH+](CC[C@H]2CCC[C@]2([NH3+])C(=O)NCCCNC(=O)c2ccc(-c3c4nc(c(-c5c(F)c(F)c(F)c(F)c5F)c5ccc([nH]5)c(-c5c(F)c(F)c(F)c(F)c5F)c5nc(c(-c6c(F)c(F)c(F)c(F)c6F)c6ccc3[nH]6)C=C5)C=C4)cc2)CC1
REMARK SMILES IDX 18 1 17 2 15 3 16 4 13 6 9 7 10 8 11 9 12 10 8 11 7 12 6 13
REMARK SMILES IDX 1 14 2 15 3 16 4 17 88 18 5 19 87 20 14 22 19 26 20 27 21 28
REMARK SMILES IDX 22 29 23 31 24 32 25 33 86 34 26 35 85 36 27 37 28 38 29 39
REMARK SMILES IDX 79 40 30 41 84 42 78 43 80 44 31 45 83 46 77 47 76 48 32 50
REMARK SMILES IDX 64 51 44 52 63 53 45 54 48 55 62 56 81 57 46 58 47 59 61 61
REMARK SMILES IDX 82 62 49 63 33 64 34 65 42 66 35 67 36 68 40 69 43 70 37 71
REMARK SMILES IDX 38 72 41 73 39 74 65 75 66 76 74 77 67 78 68 79 72 80 75 81
REMARK SMILES IDX 69 82 70 83 73 84 71 85 50 86 51 87 59 88 52 89 53 90 57 91
REMARK SMILES IDX 60 92 54 93 55 94 58 95 56 96
REMARK H PARENT 17 5 6 21 14 23 14 24 14 25 21 30 80 49 48 60
REMARK Flexibility Score: inf
ROOT
ATOM      1  C   UNL A   1      31.898  30.599  26.071  1.00  0.00     0.118 C 
ENDROOT
BRANCH   1   2
ATOM      2  N   UNL A   1      32.086  29.476  27.015  1.00  0.00    -0.351 N 
ATOM      3  C   UNL A   1      32.774  28.317  26.762  1.00  0.00     0.281 C 
ATOM      4  O   UNL A   1      33.988  28.326  26.997  1.00  0.00    -0.268 OA
ATOM      5  H   UNL A   1      31.680  29.570  27.908  1.00  0.00     0.163 HD
BRANCH   3   6
ATOM      6  C   UNL A   1      32.049  26.997  26.237  1.00  0.00     0.177 C 
ATOM      7  C   UNL A   1      32.953  25.711  26.148  1.00  0.00     0.066 C 
ATOM      8  C   UNL A   1      33.704  25.900  24.801  1.00  0.00     0.011 C 
ATOM      9  C   UNL A   1      32.955  26.971  24.008  1.00  0.00     0.008 C 
ATOM     10  C   UNL A   1      31.657  27.194  24.759  1.00  0.00     0.079 C 
BRANCH   7  11
ATOM     11  C   UNL A   1      32.183  24.333  26.178  1.00  0.00     0.072 C 
BRANCH  11  12
ATOM     12  C   UNL A   1      32.374  23.351  24.983  1.00  0.00     0.262 C 
BRANCH  12  13
ATOM     13  N   UNL A   1      33.320  22.224  25.015  1.00  0.00    -0.335 N 
ATOM     14  C   UNL A   1      36.973  21.218  24.916  1.00  0.00     0.011 C 
ATOM     15  C   UNL A   1      36.322  22.579  25.202  1.00  0.00    -0.025 C 
ATOM     16  C   UNL A   1      37.461  23.628  25.303  1.00  0.00     0.011 C 
ATOM     17  C   UNL A   1      35.431  22.933  24.028  1.00  0.00     0.068 C 
ATOM     18  C   UNL A   1      35.420  22.615  26.449  1.00  0.00     0.068 C 
ATOM     19  C   UNL A   1      34.177  22.093  23.853  1.00  0.00     0.262 C 
ATOM     20  C   UNL A   1      34.047  21.934  26.258  1.00  0.00     0.262 C 
ATOM     21  H   UNL A   1      32.628  21.476  24.977  1.00  0.00     0.348 HD
ENDBRANCH  12  13
ENDBRANCH  11  12
ENDBRANCH   7  11
BRANCH   6  22
ATOM     22  N   UNL A   1      30.789  26.894  26.992  1.00  0.00    -0.345 N 
ATOM     23  H   UNL A   1      30.987  26.936  27.992  1.00  0.00     0.345 HD
ATOM     24  H   UNL A   1      30.332  26.009  26.773  1.00  0.00     0.345 HD
ATOM     25  H   UNL A   1      30.175  27.667  26.735  1.00  0.00     0.345 HD
ENDBRANCH   6  22
ENDBRANCH   3   6
ENDBRANCH   1   2
BRANCH   1  26
ATOM     26  C   UNL A   1      31.529  31.869  26.850  1.00  0.00     0.042 C 
BRANCH  26  27
ATOM     27  C   UNL A   1      32.643  32.833  27.245  1.00  0.00     0.118 C 
BRANCH  27  28
ATOM     28  N   UNL A   1      32.282  34.170  27.692  1.00  0.00    -0.352 N 
ATOM     29  C   UNL A   1      32.922  35.021  28.582  1.00  0.00     0.251 C 
ATOM     30  H   UNL A   1      31.453  34.528  27.301  1.00  0.00     0.163 HD
ATOM     31  O   UNL A   1      32.461  36.150  28.761  1.00  0.00    -0.269 OA
BRANCH  29  32
ATOM     32  C   UNL A   1      34.114  34.599  29.377  1.00  0.00     0.039 A 
ATOM     33  C   UNL A   1      33.941  34.165  30.699  1.00  0.00     0.014 A 
ATOM     34  C   UNL A   1      35.401  34.605  28.846  1.00  0.00     0.014 A 
ATOM     35  C   UNL A   1      35.022  33.641  31.425  1.00  0.00     0.010 A 
ATOM     36  C   UNL A   1      36.439  33.952  29.507  1.00  0.00     0.010 A 
ATOM     37  C   UNL A   1      36.272  33.470  30.812  1.00  0.00    -0.014 A 
BRANCH  37  38
ATOM     38  C   UNL A   1      37.431  32.827  31.499  1.00  0.00     0.031 A 
ATOM     39  C   UNL A   1      38.133  31.657  30.854  1.00  0.00     0.074 A 
ATOM     40  C   UNL A   1      37.786  33.211  32.743  1.00  0.00     0.049 A 
ATOM     41  N   UNL A   1      39.046  30.855  31.344  1.00  0.00    -0.248 NA
ATOM     42  C   UNL A   1      37.713  31.308  29.486  1.00  0.00     0.031 C 
ATOM     43  C   UNL A   1      37.153  34.281  33.515  1.00  0.00     0.029 A 
ATOM     44  N   UNL A   1      38.759  32.729  33.587  1.00  0.00    -0.354 N 
ATOM     45  C   UNL A   1      39.272  29.893  30.367  1.00  0.00     0.074 A 
ATOM     46  C   UNL A   1      38.350  30.166  29.287  1.00  0.00     0.031 C 
ATOM     47  C   UNL A   1      37.773  34.397  34.701  1.00  0.00     0.029 A 
ATOM     48  C   UNL A   1      38.815  33.381  34.797  1.00  0.00     0.049 A 
ATOM     49  H   UNL A   1      39.360  31.987  33.347  1.00  0.00     0.167 HD
ATOM     50  C   UNL A   1      40.187  28.894  30.350  1.00  0.00     0.037 A 
ATOM     51  C   UNL A   1      39.610  33.176  35.865  1.00  0.00     0.037 A 
ATOM     52  C   UNL A   1      41.142  28.661  31.400  1.00  0.00     0.049 A 
ATOM     53  C   UNL A   1      40.638  32.077  35.814  1.00  0.00     0.074 A 
ATOM     54  C   UNL A   1      42.165  27.731  31.447  1.00  0.00     0.029 A 
ATOM     55  N   UNL A   1      41.194  29.374  32.589  1.00  0.00    -0.354 N 
ATOM     56  N   UNL A   1      40.887  31.219  34.855  1.00  0.00    -0.248 NA
ATOM     57  C   UNL A   1      41.499  31.921  36.996  1.00  0.00     0.031 C 
ATOM     58  C   UNL A   1      42.807  27.850  32.683  1.00  0.00     0.029 A 
ATOM     59  C   UNL A   1      42.221  28.892  33.385  1.00  0.00     0.049 A 
ATOM     60  H   UNL A   1      40.592  30.115  32.831  1.00  0.00     0.167 HD
ATOM     61  C   UNL A   1      41.949  30.443  35.302  1.00  0.00     0.074 A 
ATOM     62  C   UNL A   1      42.308  30.943  36.612  1.00  0.00     0.031 C 
ATOM     63  C   UNL A   1      42.570  29.409  34.684  1.00  0.00     0.037 A 
BRANCH  50  64
ATOM     64  C   UNL A   1      40.205  27.987  29.150  1.00  0.00     0.064 A 
ATOM     65  C   UNL A   1      39.483  26.783  29.122  1.00  0.00     0.173 A 
ATOM     66  C   UNL A   1      40.939  28.332  28.004  1.00  0.00     0.173 A 
ATOM     67  F   UNL A   1      38.772  26.397  30.191  1.00  0.00    -0.203 F 
ATOM     68  C   UNL A   1      39.532  25.940  28.014  1.00  0.00     0.198 A 
ATOM     69  C   UNL A   1      40.955  27.506  26.883  1.00  0.00     0.198 A 
ATOM     70  F   UNL A   1      41.641  29.476  27.969  1.00  0.00    -0.203 F 
ATOM     71  F   UNL A   1      38.890  24.764  28.041  1.00  0.00    -0.200 F 
ATOM     72  C   UNL A   1      40.262  26.305  26.894  1.00  0.00     0.200 A 
ATOM     73  F   UNL A   1      41.648  27.868  25.795  1.00  0.00    -0.200 F 
ATOM     74  F   UNL A   1      40.305  25.495  25.826  1.00  0.00    -0.200 F 
ENDBRANCH  50  64
BRANCH  51  75
ATOM     75  C   UNL A   1      39.494  34.056  37.059  1.00  0.00     0.064 A 
ATOM     76  C   UNL A   1      40.144  35.299  37.101  1.00  0.00     0.173 A 
ATOM     77  C   UNL A   1      38.738  33.681  38.180  1.00  0.00     0.173 A 
ATOM     78  F   UNL A   1      40.898  35.694  36.064  1.00  0.00    -0.203 F 
ATOM     79  C   UNL A   1      40.059  36.122  38.222  1.00  0.00     0.198 A 
ATOM     80  C   UNL A   1      38.629  34.519  39.289  1.00  0.00     0.198 A 
ATOM     81  F   UNL A   1      38.094  32.505  38.192  1.00  0.00    -0.203 F 
ATOM     82  F   UNL A   1      40.729  37.282  38.252  1.00  0.00    -0.200 F 
ATOM     83  C   UNL A   1      39.295  35.735  39.313  1.00  0.00     0.200 A 
ATOM     84  F   UNL A   1      37.879  34.147  40.335  1.00  0.00    -0.200 F 
ATOM     85  F   UNL A   1      39.209  36.529  40.388  1.00  0.00    -0.200 F 
ENDBRANCH  51  75
BRANCH  63  86
ATOM     86  C   UNL A   1      43.725  28.771  35.399  1.00  0.00     0.064 A 
ATOM     87  C   UNL A   1      45.047  29.185  35.181  1.00  0.00     0.173 A 
ATOM     88  C   UNL A   1      43.500  27.763  36.349  1.00  0.00     0.173 A 
ATOM     89  F   UNL A   1      45.317  30.136  34.273  1.00  0.00    -0.203 F 
ATOM     90  C   UNL A   1      46.105  28.594  35.869  1.00  0.00     0.198 A 
ATOM     91  C   UNL A   1      44.556  27.198  37.058  1.00  0.00     0.198 A 
ATOM     92  F   UNL A   1      42.254  27.337  36.601  1.00  0.00    -0.203 F 
ATOM     93  F   UNL A   1      47.364  28.970  35.608  1.00  0.00    -0.200 F 
ATOM     94  C   UNL A   1      45.858  27.607  36.811  1.00  0.00     0.200 A 
ATOM     95  F   UNL A   1      44.313  26.257  37.982  1.00  0.00    -0.200 F 
ATOM     96  F   UNL A   1      46.876  27.047  37.480  1.00  0.00    -0.200 F 
ENDBRANCH  63  86
ENDBRANCH  37  38
ENDBRANCH  29  32
ENDBRANCH  27  28
ENDBRANCH  26  27
ENDBRANCH   1  26
TORSDOF 14
ENDMDL
