MODEL 1
REMARK VINA RESULT:     -11.7      0.000      0.000
REMARK SMILES COc1ccc(F)cc1-c1cc(C(=O)NCCCNC(=O)c2ccc(-c3c4nc(c(-c5c(F)c(F)c(F)c(F)c5F)c5ccc([nH]5)c(-c5c(F)c(F)c(F)c(F)c5F)c5nc(c(-c6c(F)c(F)c(F)c(F)c6F)c6ccc3[nH]6)C=C5)C=C4)cc2)n(C)n1
REMARK SMILES IDX 17 1 16 2 15 3 13 4 14 5 12 7 10 8 11 9 87 10 85 11 86 12
REMARK SMILES IDX 9 13 3 14 4 15 5 16 8 17 6 18 7 19 2 20 1 21 18 22 19 23
REMARK SMILES IDX 20 24 21 26 22 27 23 28 84 29 24 30 83 31 25 32 26 33 27 34
REMARK SMILES IDX 77 35 28 36 82 37 76 38 78 39 29 40 81 41 75 42 74 43 30 45
REMARK SMILES IDX 62 46 42 47 61 48 43 49 46 50 60 51 79 52 44 53 45 54 59 56
REMARK SMILES IDX 80 57 47 58 31 59 32 60 40 61 33 62 34 63 38 64 41 65 35 66
REMARK SMILES IDX 36 67 39 68 37 69 63 70 64 71 72 72 65 73 66 74 70 75 73 76
REMARK SMILES IDX 67 77 68 78 71 79 69 80 48 81 49 82 57 83 50 84 51 85 55 86
REMARK SMILES IDX 58 87 52 88 53 89 56 90 54 91
REMARK H PARENT 15 6 19 25 78 44 46 55
REMARK Flexibility Score: inf
ROOT
ATOM      1  C   UNL A   1      33.047  27.921  25.892  1.00  0.00     0.042 C 
ENDROOT
BRANCH   1   2
ATOM      2  C   UNL A   1      31.557  27.599  25.786  1.00  0.00     0.118 C 
BRANCH   2   3
ATOM      3  N   UNL A   1      31.260  26.389  26.517  1.00  0.00    -0.351 N 
ATOM      4  C   UNL A   1      31.762  25.121  26.508  1.00  0.00     0.269 C 
ATOM      5  O   UNL A   1      31.200  24.360  27.306  1.00  0.00    -0.268 OA
ATOM      6  H   UNL A   1      30.533  26.507  27.170  1.00  0.00     0.163 HD
BRANCH   4   7
ATOM      7  C   UNL A   1      32.895  24.672  25.730  1.00  0.00     0.126 A 
ATOM      8  C   UNL A   1      34.845  23.645  25.253  1.00  0.00     0.097 A 
ATOM      9  C   UNL A   1      33.936  23.935  26.287  1.00  0.00     0.064 A 
ATOM     10  N   UNL A   1      34.462  24.249  24.124  1.00  0.00    -0.172 NA
ATOM     11  N   UNL A   1      33.213  24.686  24.391  1.00  0.00    -0.262 N 
ATOM     12  C   UNL A   1      32.370  24.864  23.235  1.00  0.00     0.174 C 
BRANCH   8  13
ATOM     13  C   UNL A   1      36.042  22.821  25.319  1.00  0.00     0.047 A 
ATOM     14  C   UNL A   1      36.019  21.470  24.910  1.00  0.00     0.128 A 
ATOM     15  C   UNL A   1      37.192  20.710  24.976  1.00  0.00     0.050 A 
ATOM     16  C   UNL A   1      38.371  21.283  25.459  1.00  0.00     0.043 A 
ATOM     17  C   UNL A   1      37.231  23.389  25.792  1.00  0.00     0.053 A 
ATOM     18  C   UNL A   1      38.379  22.613  25.862  1.00  0.00     0.124 A 
ATOM     19  F   UNL A   1      39.515  23.154  26.319  1.00  0.00    -0.207 F 
BRANCH  14  20
ATOM     20  O   UNL A   1      34.850  20.992  24.373  1.00  0.00    -0.496 OA
ATOM     21  C   UNL A   1      34.416  19.723  24.845  1.00  0.00     0.278 C 
ENDBRANCH  14  20
ENDBRANCH   8  13
ENDBRANCH   4   7
ENDBRANCH   2   3
ENDBRANCH   1   2
BRANCH   1  22
ATOM     22  C   UNL A   1      33.471  28.381  27.283  1.00  0.00     0.118 C 
BRANCH  22  23
ATOM     23  N   UNL A   1      33.450  29.829  27.407  1.00  0.00    -0.352 N 
ATOM     24  C   UNL A   1      34.364  30.669  27.989  1.00  0.00     0.251 C 
ATOM     25  H   UNL A   1      32.662  30.272  27.017  1.00  0.00     0.163 HD
ATOM     26  O   UNL A   1      34.055  31.844  28.204  1.00  0.00    -0.269 OA
BRANCH  24  27
ATOM     27  C   UNL A   1      35.707  30.185  28.377  1.00  0.00     0.039 A 
ATOM     28  C   UNL A   1      36.744  30.250  27.441  1.00  0.00     0.014 A 
ATOM     29  C   UNL A   1      35.943  29.628  29.637  1.00  0.00     0.014 A 
ATOM     30  C   UNL A   1      38.024  29.809  27.786  1.00  0.00     0.010 A 
ATOM     31  C   UNL A   1      37.236  29.261  30.006  1.00  0.00     0.010 A 
ATOM     32  C   UNL A   1      38.288  29.341  29.082  1.00  0.00    -0.014 A 
BRANCH  32  33
ATOM     33  C   UNL A   1      39.654  28.921  29.491  1.00  0.00     0.031 A 
ATOM     34  C   UNL A   1      40.480  29.804  30.383  1.00  0.00     0.074 A 
ATOM     35  C   UNL A   1      40.173  27.777  29.006  1.00  0.00     0.049 A 
ATOM     36  N   UNL A   1      41.722  29.660  30.771  1.00  0.00    -0.248 NA
ATOM     37  C   UNL A   1      39.834  31.026  30.889  1.00  0.00     0.031 C 
ATOM     38  C   UNL A   1      39.484  26.854  28.105  1.00  0.00     0.029 A 
ATOM     39  N   UNL A   1      41.405  27.201  29.194  1.00  0.00    -0.354 N 
ATOM     40  C   UNL A   1      42.009  30.776  31.545  1.00  0.00     0.074 A 
ATOM     41  C   UNL A   1      40.830  31.613  31.537  1.00  0.00     0.031 C 
ATOM     42  C   UNL A   1      40.292  25.817  27.836  1.00  0.00     0.029 A 
ATOM     43  C   UNL A   1      41.572  26.022  28.509  1.00  0.00     0.049 A 
ATOM     44  H   UNL A   1      42.103  27.595  29.765  1.00  0.00     0.167 HD
ATOM     45  C   UNL A   1      43.148  31.063  32.220  1.00  0.00     0.037 A 
ATOM     46  C   UNL A   1      42.637  25.202  28.425  1.00  0.00     0.037 A 
ATOM     47  C   UNL A   1      44.305  30.210  32.256  1.00  0.00     0.049 A 
ATOM     48  C   UNL A   1      43.892  25.546  29.180  1.00  0.00     0.074 A 
ATOM     49  C   UNL A   1      45.481  30.384  32.963  1.00  0.00     0.029 A 
ATOM     50  N   UNL A   1      44.431  29.019  31.555  1.00  0.00    -0.354 N 
ATOM     51  N   UNL A   1      44.135  26.581  29.947  1.00  0.00    -0.248 NA
ATOM     52  C   UNL A   1      45.021  24.613  29.057  1.00  0.00     0.031 C 
ATOM     53  C   UNL A   1      46.337  29.322  32.656  1.00  0.00     0.029 A 
ATOM     54  C   UNL A   1      45.675  28.459  31.797  1.00  0.00     0.049 A 
ATOM     55  H   UNL A   1      43.739  28.630  30.972  1.00  0.00     0.167 HD
ATOM     56  C   UNL A   1      45.430  26.414  30.416  1.00  0.00     0.074 A 
ATOM     57  C   UNL A   1      45.920  25.171  29.856  1.00  0.00     0.031 C 
ATOM     58  C   UNL A   1      46.147  27.220  31.236  1.00  0.00     0.037 A 
BRANCH  45  59
ATOM     59  C   UNL A   1      43.201  32.349  32.992  1.00  0.00     0.064 A 
ATOM     60  C   UNL A   1      43.732  33.509  32.408  1.00  0.00     0.173 A 
ATOM     61  C   UNL A   1      42.794  32.417  34.333  1.00  0.00     0.173 A 
ATOM     62  F   UNL A   1      44.142  33.496  31.131  1.00  0.00    -0.203 F 
ATOM     63  C   UNL A   1      43.865  34.684  33.142  1.00  0.00     0.198 A 
ATOM     64  C   UNL A   1      42.903  33.602  35.055  1.00  0.00     0.198 A 
ATOM     65  F   UNL A   1      42.271  31.338  34.935  1.00  0.00    -0.203 F 
ATOM     66  F   UNL A   1      44.405  35.771  32.572  1.00  0.00    -0.200 F 
ATOM     67  C   UNL A   1      43.447  34.731  34.463  1.00  0.00     0.200 A 
ATOM     68  F   UNL A   1      42.476  33.653  36.325  1.00  0.00    -0.200 F 
ATOM     69  F   UNL A   1      43.567  35.866  35.165  1.00  0.00    -0.200 F 
ENDBRANCH  45  59
BRANCH  46  70
ATOM     70  C   UNL A   1      42.544  23.961  27.614  1.00  0.00     0.064 A 
ATOM     71  C   UNL A   1      42.199  22.733  28.194  1.00  0.00     0.173 A 
ATOM     72  C   UNL A   1      42.840  23.976  26.244  1.00  0.00     0.173 A 
ATOM     73  F   UNL A   1      41.911  22.664  29.502  1.00  0.00    -0.203 F 
ATOM     74  C   UNL A   1      42.174  21.562  27.438  1.00  0.00     0.198 A 
ATOM     75  C   UNL A   1      42.791  22.810  25.484  1.00  0.00     0.198 A 
ATOM     76  F   UNL A   1      43.158  25.132  25.641  1.00  0.00    -0.203 F 
ATOM     77  F   UNL A   1      41.877  20.395  28.025  1.00  0.00    -0.200 F 
ATOM     78  C   UNL A   1      42.467  21.602  26.084  1.00  0.00     0.200 A 
ATOM     79  F   UNL A   1      43.054  22.857  24.171  1.00  0.00    -0.200 F 
ATOM     80  F   UNL A   1      42.437  20.477  25.357  1.00  0.00    -0.200 F 
ENDBRANCH  46  70
BRANCH  58  81
ATOM     81  C   UNL A   1      47.536  26.785  31.601  1.00  0.00     0.064 A 
ATOM     82  C   UNL A   1      48.630  27.165  30.809  1.00  0.00     0.173 A 
ATOM     83  C   UNL A   1      47.772  25.918  32.677  1.00  0.00     0.173 A 
ATOM     84  F   UNL A   1      48.454  27.986  29.763  1.00  0.00    -0.203 F 
ATOM     85  C   UNL A   1      49.907  26.675  31.069  1.00  0.00     0.198 A 
ATOM     86  C   UNL A   1      49.054  25.451  32.950  1.00  0.00     0.198 A 
ATOM     87  F   UNL A   1      46.759  25.536  33.470  1.00  0.00    -0.203 F 
ATOM     88  F   UNL A   1      50.930  27.020  30.275  1.00  0.00    -0.200 F 
ATOM     89  C   UNL A   1      50.117  25.820  32.140  1.00  0.00     0.200 A 
ATOM     90  F   UNL A   1      49.261  24.642  33.999  1.00  0.00    -0.200 F 
ATOM     91  F   UNL A   1      51.348  25.352  32.392  1.00  0.00    -0.200 F 
ENDBRANCH  58  81
ENDBRANCH  32  33
ENDBRANCH  24  27
ENDBRANCH  22  23
ENDBRANCH   1  22
TORSDOF 12
ENDMDL
MODEL 2
REMARK VINA RESULT:     -11.7      3.315      8.892
REMARK SMILES COc1ccc(F)cc1-c1cc(C(=O)NCCCNC(=O)c2ccc(-c3c4nc(c(-c5c(F)c(F)c(F)c(F)c5F)c5ccc([nH]5)c(-c5c(F)c(F)c(F)c(F)c5F)c5nc(c(-c6c(F)c(F)c(F)c(F)c6F)c6ccc3[nH]6)C=C5)C=C4)cc2)n(C)n1
REMARK SMILES IDX 17 1 16 2 15 3 13 4 14 5 12 7 10 8 11 9 87 10 85 11 86 12
REMARK SMILES IDX 9 13 3 14 4 15 5 16 8 17 6 18 7 19 2 20 1 21 18 22 19 23
REMARK SMILES IDX 20 24 21 26 22 27 23 28 84 29 24 30 83 31 25 32 26 33 27 34
REMARK SMILES IDX 77 35 28 36 82 37 76 38 78 39 29 40 81 41 75 42 74 43 30 45
REMARK SMILES IDX 62 46 42 47 61 48 43 49 46 50 60 51 79 52 44 53 45 54 59 56
REMARK SMILES IDX 80 57 47 58 31 59 32 60 40 61 33 62 34 63 38 64 41 65 35 66
REMARK SMILES IDX 36 67 39 68 37 69 63 70 64 71 72 72 65 73 66 74 70 75 73 76
REMARK SMILES IDX 67 77 68 78 71 79 69 80 48 81 49 82 57 83 50 84 51 85 55 86
REMARK SMILES IDX 58 87 52 88 53 89 56 90 54 91
REMARK H PARENT 15 6 19 25 78 44 46 55
REMARK Flexibility Score: inf
ROOT
ATOM      1  C   UNL A   1      36.416  23.609  24.478  1.00  0.00     0.042 C 
ENDROOT
BRANCH   1   2
ATOM      2  C   UNL A   1      35.421  22.675  23.790  1.00  0.00     0.118 C 
BRANCH   2   3
ATOM      3  N   UNL A   1      34.658  23.406  22.804  1.00  0.00    -0.351 N 
ATOM      4  C   UNL A   1      33.786  24.454  22.857  1.00  0.00     0.269 C 
ATOM      5  O   UNL A   1      33.330  24.774  21.752  1.00  0.00    -0.268 OA
ATOM      6  H   UNL A   1      34.800  23.073  21.889  1.00  0.00     0.163 HD
BRANCH   4   7
ATOM      7  C   UNL A   1      33.456  25.212  24.043  1.00  0.00     0.126 A 
ATOM      8  C   UNL A   1      33.140  27.005  25.373  1.00  0.00     0.097 A 
ATOM      9  C   UNL A   1      33.565  26.598  24.095  1.00  0.00     0.064 A 
ATOM     10  N   UNL A   1      32.873  25.936  26.128  1.00  0.00    -0.172 NA
ATOM     11  N   UNL A   1      32.885  24.904  25.257  1.00  0.00    -0.262 N 
ATOM     12  C   UNL A   1      32.106  23.760  25.657  1.00  0.00     0.174 C 
BRANCH   8  13
ATOM     13  C   UNL A   1      32.985  28.362  25.874  1.00  0.00     0.047 A 
ATOM     14  C   UNL A   1      31.897  29.166  25.473  1.00  0.00     0.128 A 
ATOM     15  C   UNL A   1      31.772  30.462  25.985  1.00  0.00     0.050 A 
ATOM     16  C   UNL A   1      32.729  30.959  26.872  1.00  0.00     0.043 A 
ATOM     17  C   UNL A   1      33.934  28.865  26.772  1.00  0.00     0.053 A 
ATOM     18  C   UNL A   1      33.799  30.159  27.256  1.00  0.00     0.124 A 
ATOM     19  F   UNL A   1      34.708  30.642  28.111  1.00  0.00    -0.207 F 
BRANCH  14  20
ATOM     20  O   UNL A   1      30.951  28.590  24.661  1.00  0.00    -0.496 OA
ATOM     21  C   UNL A   1      30.372  29.437  23.676  1.00  0.00     0.278 C 
ENDBRANCH  14  20
ENDBRANCH   8  13
ENDBRANCH   4   7
ENDBRANCH   2   3
ENDBRANCH   1   2
BRANCH   1  22
ATOM     22  C   UNL A   1      36.650  23.272  25.946  1.00  0.00     0.118 C 
BRANCH  22  23
ATOM     23  N   UNL A   1      37.786  22.383  26.126  1.00  0.00    -0.352 N 
ATOM     24  C   UNL A   1      39.086  22.680  26.446  1.00  0.00     0.251 C 
ATOM     25  H   UNL A   1      37.594  21.426  25.997  1.00  0.00     0.163 HD
ATOM     26  O   UNL A   1      39.954  21.812  26.320  1.00  0.00    -0.269 OA
BRANCH  24  27
ATOM     27  C   UNL A   1      39.466  24.028  26.925  1.00  0.00     0.039 A 
ATOM     28  C   UNL A   1      39.244  24.354  28.266  1.00  0.00     0.014 A 
ATOM     29  C   UNL A   1      39.996  24.985  26.056  1.00  0.00     0.014 A 
ATOM     30  C   UNL A   1      39.603  25.617  28.746  1.00  0.00     0.010 A 
ATOM     31  C   UNL A   1      40.425  26.214  26.550  1.00  0.00     0.010 A 
ATOM     32  C   UNL A   1      40.226  26.546  27.899  1.00  0.00    -0.014 A 
BRANCH  32  33
ATOM     33  C   UNL A   1      40.671  27.873  28.399  1.00  0.00     0.031 A 
ATOM     34  C   UNL A   1      42.124  28.122  28.689  1.00  0.00     0.074 A 
ATOM     35  C   UNL A   1      39.758  28.830  28.653  1.00  0.00     0.049 A 
ATOM     36  N   UNL A   1      42.694  29.175  29.220  1.00  0.00    -0.248 NA
ATOM     37  C   UNL A   1      43.062  27.035  28.365  1.00  0.00     0.031 C 
ATOM     38  C   UNL A   1      38.316  28.696  28.446  1.00  0.00     0.029 A 
ATOM     39  N   UNL A   1      39.905  30.100  29.151  1.00  0.00    -0.354 N 
ATOM     40  C   UNL A   1      44.045  28.870  29.308  1.00  0.00     0.074 A 
ATOM     41  C   UNL A   1      44.208  27.518  28.822  1.00  0.00     0.031 C 
ATOM     42  C   UNL A   1      37.714  29.844  28.792  1.00  0.00     0.029 A 
ATOM     43  C   UNL A   1      38.720  30.780  29.286  1.00  0.00     0.049 A 
ATOM     44  H   UNL A   1      40.779  30.488  29.390  1.00  0.00     0.167 HD
ATOM     45  C   UNL A   1      45.061  29.658  29.736  1.00  0.00     0.037 A 
ATOM     46  C   UNL A   1      38.468  32.015  29.762  1.00  0.00     0.037 A 
ATOM     47  C   UNL A   1      44.899  31.015  30.184  1.00  0.00     0.049 A 
ATOM     48  C   UNL A   1      39.613  32.868  30.237  1.00  0.00     0.074 A 
ATOM     49  C   UNL A   1      45.875  31.914  30.576  1.00  0.00     0.029 A 
ATOM     50  N   UNL A   1      43.682  31.671  30.298  1.00  0.00    -0.354 N 
ATOM     51  N   UNL A   1      40.892  32.586  30.271  1.00  0.00    -0.248 NA
ATOM     52  C   UNL A   1      39.281  34.209  30.739  1.00  0.00     0.031 C 
ATOM     53  C   UNL A   1      45.246  33.099  30.969  1.00  0.00     0.029 A 
ATOM     54  C   UNL A   1      43.881  32.956  30.774  1.00  0.00     0.049 A 
ATOM     55  H   UNL A   1      42.806  31.280  30.073  1.00  0.00     0.167 HD
ATOM     56  C   UNL A   1      41.520  33.716  30.775  1.00  0.00     0.074 A 
ATOM     57  C   UNL A   1      40.482  34.695  31.023  1.00  0.00     0.031 C 
ATOM     58  C   UNL A   1      42.839  33.921  31.012  1.00  0.00     0.037 A 
BRANCH  45  59
ATOM     59  C   UNL A   1      46.446  29.082  29.730  1.00  0.00     0.064 A 
ATOM     60  C   UNL A   1      47.238  29.145  28.573  1.00  0.00     0.173 A 
ATOM     61  C   UNL A   1      46.965  28.405  30.844  1.00  0.00     0.173 A 
ATOM     62  F   UNL A   1      46.787  29.774  27.478  1.00  0.00    -0.203 F 
ATOM     63  C   UNL A   1      48.490  28.539  28.528  1.00  0.00     0.198 A 
ATOM     64  C   UNL A   1      48.230  27.825  30.804  1.00  0.00     0.198 A 
ATOM     65  F   UNL A   1      46.252  28.326  31.977  1.00  0.00    -0.203 F 
ATOM     66  F   UNL A   1      49.215  28.583  27.401  1.00  0.00    -0.200 F 
ATOM     67  C   UNL A   1      48.987  27.883  29.644  1.00  0.00     0.200 A 
ATOM     68  F   UNL A   1      48.719  27.213  31.892  1.00  0.00    -0.200 F 
ATOM     69  F   UNL A   1      50.197  27.309  29.603  1.00  0.00    -0.200 F 
ENDBRANCH  45  59
BRANCH  46  70
ATOM     70  C   UNL A   1      37.072  32.522  29.782  1.00  0.00     0.064 A 
ATOM     71  C   UNL A   1      36.540  33.242  28.704  1.00  0.00     0.173 A 
ATOM     72  C   UNL A   1      36.255  32.328  30.905  1.00  0.00     0.173 A 
ATOM     73  F   UNL A   1      37.282  33.459  27.608  1.00  0.00    -0.203 F 
ATOM     74  C   UNL A   1      35.250  33.767  28.756  1.00  0.00     0.198 A 
ATOM     75  C   UNL A   1      34.958  32.832  30.946  1.00  0.00     0.198 A 
ATOM     76  F   UNL A   1      36.715  31.630  31.954  1.00  0.00    -0.203 F 
ATOM     77  F   UNL A   1      34.778  34.483  27.727  1.00  0.00    -0.200 F 
ATOM     78  C   UNL A   1      34.459  33.559  29.876  1.00  0.00     0.200 A 
ATOM     79  F   UNL A   1      34.189  32.610  32.022  1.00  0.00    -0.200 F 
ATOM     80  F   UNL A   1      33.217  34.059  29.923  1.00  0.00    -0.200 F 
ENDBRANCH  46  70
BRANCH  58  81
ATOM     81  C   UNL A   1      43.251  35.259  31.551  1.00  0.00     0.064 A 
ATOM     82  C   UNL A   1      43.143  35.536  32.922  1.00  0.00     0.173 A 
ATOM     83  C   UNL A   1      43.661  36.295  30.700  1.00  0.00     0.173 A 
ATOM     84  F   UNL A   1      42.745  34.580  33.776  1.00  0.00    -0.203 F 
ATOM     85  C   UNL A   1      43.411  36.808  33.419  1.00  0.00     0.198 A 
ATOM     86  C   UNL A   1      43.955  37.559  31.204  1.00  0.00     0.198 A 
ATOM     87  F   UNL A   1      43.790  36.075  29.383  1.00  0.00    -0.203 F 
ATOM     88  F   UNL A   1      43.263  37.061  34.727  1.00  0.00    -0.200 F 
ATOM     89  C   UNL A   1      43.819  37.817  32.559  1.00  0.00     0.200 A 
ATOM     90  F   UNL A   1      44.369  38.528  30.376  1.00  0.00    -0.200 F 
ATOM     91  F   UNL A   1      44.081  39.042  33.040  1.00  0.00    -0.200 F 
ENDBRANCH  58  81
ENDBRANCH  32  33
ENDBRANCH  24  27
ENDBRANCH  22  23
ENDBRANCH   1  22
TORSDOF 12
ENDMDL
MODEL 3
REMARK VINA RESULT:     -11.6      2.631      7.826
REMARK SMILES COc1ccc(F)cc1-c1cc(C(=O)NCCCNC(=O)c2ccc(-c3c4nc(c(-c5c(F)c(F)c(F)c(F)c5F)c5ccc([nH]5)c(-c5c(F)c(F)c(F)c(F)c5F)c5nc(c(-c6c(F)c(F)c(F)c(F)c6F)c6ccc3[nH]6)C=C5)C=C4)cc2)n(C)n1
REMARK SMILES IDX 17 1 16 2 15 3 13 4 14 5 12 7 10 8 11 9 87 10 85 11 86 12
REMARK SMILES IDX 9 13 3 14 4 15 5 16 8 17 6 18 7 19 2 20 1 21 18 22 19 23
REMARK SMILES IDX 20 24 21 26 22 27 23 28 84 29 24 30 83 31 25 32 26 33 27 34
REMARK SMILES IDX 77 35 28 36 82 37 76 38 78 39 29 40 81 41 75 42 74 43 30 45
REMARK SMILES IDX 62 46 42 47 61 48 43 49 46 50 60 51 79 52 44 53 45 54 59 56
REMARK SMILES IDX 80 57 47 58 31 59 32 60 40 61 33 62 34 63 38 64 41 65 35 66
REMARK SMILES IDX 36 67 39 68 37 69 63 70 64 71 72 72 65 73 66 74 70 75 73 76
REMARK SMILES IDX 67 77 68 78 71 79 69 80 48 81 49 82 57 83 50 84 51 85 55 86
REMARK SMILES IDX 58 87 52 88 53 89 56 90 54 91
REMARK H PARENT 15 6 19 25 78 44 46 55
REMARK Flexibility Score: inf
ROOT
ATOM      1  C   UNL A   1      32.018  28.257  25.429  1.00  0.00     0.042 C 
ENDROOT
BRANCH   1   2
ATOM      2  C   UNL A   1      31.692  27.841  26.863  1.00  0.00     0.118 C 
BRANCH   2   3
ATOM      3  N   UNL A   1      30.912  26.625  26.859  1.00  0.00    -0.351 N 
ATOM      4  C   UNL A   1      31.066  25.394  26.292  1.00  0.00     0.269 C 
ATOM      5  O   UNL A   1      30.132  24.618  26.532  1.00  0.00    -0.268 OA
ATOM      6  H   UNL A   1      30.083  26.703  27.385  1.00  0.00     0.163 HD
BRANCH   4   7
ATOM      7  C   UNL A   1      32.223  24.952  25.547  1.00  0.00     0.126 A 
ATOM      8  C   UNL A   1      34.214  23.974  25.138  1.00  0.00     0.097 A 
ATOM      9  C   UNL A   1      33.282  24.278  26.148  1.00  0.00     0.064 A 
ATOM     10  N   UNL A   1      33.824  24.513  23.980  1.00  0.00    -0.172 NA
ATOM     11  N   UNL A   1      32.557  24.918  24.212  1.00  0.00    -0.262 N 
ATOM     12  C   UNL A   1      31.723  25.014  23.041  1.00  0.00     0.174 C 
BRANCH   8  13
ATOM     13  C   UNL A   1      35.438  23.196  25.255  1.00  0.00     0.047 A 
ATOM     14  C   UNL A   1      35.454  21.817  24.957  1.00  0.00     0.128 A 
ATOM     15  C   UNL A   1      36.653  21.103  25.068  1.00  0.00     0.050 A 
ATOM     16  C   UNL A   1      37.817  21.750  25.487  1.00  0.00     0.043 A 
ATOM     17  C   UNL A   1      36.612  23.839  25.664  1.00  0.00     0.053 A 
ATOM     18  C   UNL A   1      37.786  23.108  25.781  1.00  0.00     0.124 A 
ATOM     19  F   UNL A   1      38.908  23.721  26.177  1.00  0.00    -0.207 F 
BRANCH  14  20
ATOM     20  O   UNL A   1      34.296  21.260  24.477  1.00  0.00    -0.496 OA
ATOM     21  C   UNL A   1      33.544  20.482  25.400  1.00  0.00     0.278 C 
ENDBRANCH  14  20
ENDBRANCH   8  13
ENDBRANCH   4   7
ENDBRANCH   2   3
ENDBRANCH   1   2
BRANCH   1  22
ATOM     22  C   UNL A   1      33.106  29.322  25.338  1.00  0.00     0.118 C 
BRANCH  22  23
ATOM     23  N   UNL A   1      32.638  30.618  25.802  1.00  0.00    -0.352 N 
ATOM     24  C   UNL A   1      33.064  31.371  26.866  1.00  0.00     0.251 C 
ATOM     25  H   UNL A   1      31.907  31.013  25.274  1.00  0.00     0.163 HD
ATOM     26  O   UNL A   1      32.386  32.331  27.238  1.00  0.00    -0.269 OA
BRANCH  24  27
ATOM     27  C   UNL A   1      34.315  31.040  27.583  1.00  0.00     0.039 A 
ATOM     28  C   UNL A   1      35.286  32.034  27.740  1.00  0.00     0.014 A 
ATOM     29  C   UNL A   1      34.559  29.750  28.062  1.00  0.00     0.014 A 
ATOM     30  C   UNL A   1      36.472  31.750  28.423  1.00  0.00     0.010 A 
ATOM     31  C   UNL A   1      35.705  29.488  28.809  1.00  0.00     0.010 A 
ATOM     32  C   UNL A   1      36.677  30.483  28.991  1.00  0.00    -0.014 A 
BRANCH  32  33
ATOM     33  C   UNL A   1      37.904  30.174  29.771  1.00  0.00     0.031 A 
ATOM     34  C   UNL A   1      38.947  29.253  29.204  1.00  0.00     0.074 A 
ATOM     35  C   UNL A   1      38.045  30.671  31.015  1.00  0.00     0.049 A 
ATOM     36  N   UNL A   1      40.034  28.787  29.767  1.00  0.00    -0.248 NA
ATOM     37  C   UNL A   1      38.730  28.768  27.831  1.00  0.00     0.031 C 
ATOM     38  C   UNL A   1      37.086  31.546  31.687  1.00  0.00     0.029 A 
ATOM     39  N   UNL A   1      39.046  30.502  31.939  1.00  0.00    -0.354 N 
ATOM     40  C   UNL A   1      40.616  27.946  28.828  1.00  0.00     0.074 A 
ATOM     41  C   UNL A   1      39.741  27.926  27.676  1.00  0.00     0.031 C 
ATOM     42  C   UNL A   1      37.553  31.856  32.907  1.00  0.00     0.029 A 
ATOM     43  C   UNL A   1      38.823  31.167  33.120  1.00  0.00     0.049 A 
ATOM     44  H   UNL A   1      39.848  29.954  31.772  1.00  0.00     0.167 HD
ATOM     45  C   UNL A   1      41.786  27.269  28.912  1.00  0.00     0.037 A 
ATOM     46  C   UNL A   1      39.554  31.211  34.251  1.00  0.00     0.037 A 
ATOM     47  C   UNL A   1      42.671  27.322  30.045  1.00  0.00     0.049 A 
ATOM     48  C   UNL A   1      40.848  30.448  34.321  1.00  0.00     0.074 A 
ATOM     49  C   UNL A   1      43.909  26.724  30.198  1.00  0.00     0.029 A 
ATOM     50  N   UNL A   1      42.414  28.015  31.219  1.00  0.00    -0.354 N 
ATOM     51  N   UNL A   1      41.411  29.694  33.409  1.00  0.00    -0.248 NA
ATOM     52  C   UNL A   1      41.608  30.538  35.576  1.00  0.00     0.031 C 
ATOM     53  C   UNL A   1      44.382  27.017  31.481  1.00  0.00     0.029 A 
ATOM     54  C   UNL A   1      43.461  27.841  32.109  1.00  0.00     0.049 A 
ATOM     55  H   UNL A   1      41.606  28.551  31.393  1.00  0.00     0.167 HD
ATOM     56  C   UNL A   1      42.597  29.238  33.967  1.00  0.00     0.074 A 
ATOM     57  C   UNL A   1      42.680  29.810  35.295  1.00  0.00     0.031 C 
ATOM     58  C   UNL A   1      43.531  28.419  33.426  1.00  0.00     0.037 A 
BRANCH  45  59
ATOM     59  C   UNL A   1      42.193  26.422  27.743  1.00  0.00     0.064 A 
ATOM     60  C   UNL A   1      41.719  25.107  27.618  1.00  0.00     0.173 A 
ATOM     61  C   UNL A   1      43.109  26.882  26.786  1.00  0.00     0.173 A 
ATOM     62  F   UNL A   1      40.847  24.614  28.511  1.00  0.00    -0.203 F 
ATOM     63  C   UNL A   1      42.157  24.282  26.585  1.00  0.00     0.198 A 
ATOM     64  C   UNL A   1      43.522  26.064  25.738  1.00  0.00     0.198 A 
ATOM     65  F   UNL A   1      43.585  28.135  26.855  1.00  0.00    -0.203 F 
ATOM     66  F   UNL A   1      41.714  23.019  26.504  1.00  0.00    -0.200 F 
ATOM     67  C   UNL A   1      43.054  24.763  25.644  1.00  0.00     0.200 A 
ATOM     68  F   UNL A   1      44.371  26.538  24.815  1.00  0.00    -0.200 F 
ATOM     69  F   UNL A   1      43.467  23.971  24.644  1.00  0.00    -0.200 F 
ENDBRANCH  45  59
BRANCH  46  70
ATOM     70  C   UNL A   1      39.085  32.036  35.393  1.00  0.00     0.064 A 
ATOM     71  C   UNL A   1      39.407  33.397  35.494  1.00  0.00     0.173 A 
ATOM     72  C   UNL A   1      38.336  31.463  36.431  1.00  0.00     0.173 A 
ATOM     73  F   UNL A   1      40.125  33.991  34.530  1.00  0.00    -0.203 F 
ATOM     74  C   UNL A   1      39.015  34.149  36.601  1.00  0.00     0.198 A 
ATOM     75  C   UNL A   1      37.925  32.222  37.524  1.00  0.00     0.198 A 
ATOM     76  F   UNL A   1      37.989  30.169  36.370  1.00  0.00    -0.203 F 
ATOM     77  F   UNL A   1      39.368  35.438  36.690  1.00  0.00    -0.200 F 
ATOM     78  C   UNL A   1      38.272  33.561  37.613  1.00  0.00     0.200 A 
ATOM     79  F   UNL A   1      37.188  31.655  38.490  1.00  0.00    -0.200 F 
ATOM     80  F   UNL A   1      37.891  34.286  38.673  1.00  0.00    -0.200 F 
ENDBRANCH  46  70
BRANCH  58  81
ATOM     81  C   UNL A   1      44.741  28.098  34.253  1.00  0.00     0.064 A 
ATOM     82  C   UNL A   1      44.735  26.995  35.121  1.00  0.00     0.173 A 
ATOM     83  C   UNL A   1      45.866  28.934  34.258  1.00  0.00     0.173 A 
ATOM     84  F   UNL A   1      43.677  26.171  35.160  1.00  0.00    -0.203 F 
ATOM     85  C   UNL A   1      45.804  26.753  35.978  1.00  0.00     0.198 A 
ATOM     86  C   UNL A   1      46.945  28.674  35.097  1.00  0.00     0.198 A 
ATOM     87  F   UNL A   1      45.923  29.994  33.438  1.00  0.00    -0.203 F 
ATOM     88  F   UNL A   1      45.760  25.717  36.827  1.00  0.00    -0.200 F 
ATOM     89  C   UNL A   1      46.909  27.592  35.964  1.00  0.00     0.200 A 
ATOM     90  F   UNL A   1      48.022  29.471  35.068  1.00  0.00    -0.200 F 
ATOM     91  F   UNL A   1      47.940  27.355  36.788  1.00  0.00    -0.200 F 
ENDBRANCH  58  81
ENDBRANCH  32  33
ENDBRANCH  24  27
ENDBRANCH  22  23
ENDBRANCH   1  22
TORSDOF 12
ENDMDL
